MODEL 1
REMARK VINA RESULT:     -11.8      0.000      0.000
REMARK SMILES Cc1cc(OC(F)(F)F)cc2c1O[C@@H](C(F)(F)F)C(C(=O)NCCCNC(=O)c1ccc(-c3c4nc(c(-c5ccc(S(=O)(=O)[O-])cc5)c5ccc([nH]5)c(-c5ccc(S(=O)(=O)[O-])cc5)c5nc(c(-c6ccc(S(=O)(=O)[O-])cc6)c6ccc3[nH]6)C=C5)C=C4)cc1)=C2
REMARK SMILES IDX 24 1 23 2 22 3 20 4 21 5 19 7 1 8 2 9 3 10 12 11 4 12 11 13
REMARK SMILES IDX 13 14 10 15 89 16 14 17 5 18 6 19 7 20 8 21 9 22 15 23 16 24
REMARK SMILES IDX 17 25 18 26 25 27 26 28 27 29 28 31 29 32 30 33 88 34 31 35
REMARK SMILES IDX 87 36 32 37 33 38 34 39 81 40 35 41 86 42 80 43 82 44 36 45
REMARK SMILES IDX 85 46 79 47 78 48 37 50 67 51 48 52 66 53 49 54 52 55 65 56
REMARK SMILES IDX 83 57 50 58 51 59 64 61 84 62 53 63 38 64 39 65 47 66 40 67
REMARK SMILES IDX 46 68 41 69 42 70 43 71 44 72 45 73 68 74 69 75 77 76 70 77
REMARK SMILES IDX 76 78 71 79 72 80 73 81 74 82 75 83 54 84 55 85 63 86 56 87
REMARK SMILES IDX 62 88 57 89 58 90 59 91 60 92 61 93
REMARK H PARENT 22 6 26 30 82 49 52 60
REMARK Flexibility Score: inf
ROOT
ATOM      1  C   UNL A   1      35.156  23.029  26.169  1.00  0.00     0.042 C 
ENDROOT
BRANCH   1   2
ATOM      2  C   UNL A   1      34.389  22.329  25.050  1.00  0.00     0.118 C 
BRANCH   2   3
ATOM      3  N   UNL A   1      33.037  21.977  25.457  1.00  0.00    -0.352 N 
ATOM      4  C   UNL A   1      31.824  22.576  25.466  1.00  0.00     0.251 C 
ATOM      5  O   UNL A   1      30.879  21.854  25.801  1.00  0.00    -0.270 OA
ATOM      6  H   UNL A   1      32.994  21.064  25.822  1.00  0.00     0.163 HD
BRANCH   4   7
ATOM      7  C   UNL A   1      31.568  24.000  25.108  1.00  0.00     0.067 C 
ATOM      8  C   UNL A   1      30.112  28.450  23.038  1.00  0.00     0.048 C 
ATOM      9  C   UNL A   1      30.809  28.050  24.307  1.00  0.00    -0.005 A 
ATOM     10  C   UNL A   1      31.265  29.026  25.207  1.00  0.00     0.054 A 
ATOM     11  C   UNL A   1      31.024  26.698  24.602  1.00  0.00     0.131 A 
ATOM     12  C   UNL A   1      31.915  28.657  26.388  1.00  0.00     0.130 A 
ATOM     13  C   UNL A   1      31.663  26.316  25.782  1.00  0.00     0.021 A 
ATOM     14  O   UNL A   1      30.543  25.778  23.711  1.00  0.00    -0.475 OA
ATOM     15  C   UNL A   1      32.111  27.300  26.669  1.00  0.00     0.058 A 
ATOM     16  C   UNL A   1      31.817  24.896  26.081  1.00  0.00     0.025 C 
ATOM     17  C   UNL A   1      31.179  24.473  23.734  1.00  0.00     0.314 C 
BRANCH  12  18
ATOM     18  O   UNL A   1      32.400  29.510  27.341  1.00  0.00    -0.406 OA
BRANCH  18  19
ATOM     19  C   UNL A   1      33.782  29.827  27.301  1.00  0.00     0.573 C 
ATOM     20  F   UNL A   1      34.014  31.072  27.766  1.00  0.00    -0.132 F 
ATOM     21  F   UNL A   1      34.507  28.936  28.013  1.00  0.00    -0.132 F 
ATOM     22  F   UNL A   1      34.203  29.774  26.017  1.00  0.00    -0.132 F 
ENDBRANCH  18  19
ENDBRANCH  12  18
BRANCH  17  23
ATOM     23  C   UNL A   1      32.327  24.413  22.715  1.00  0.00     0.429 C 
ATOM     24  F   UNL A   1      32.096  25.198  21.637  1.00  0.00    -0.167 F 
ATOM     25  F   UNL A   1      33.475  24.861  23.284  1.00  0.00    -0.167 F 
ATOM     26  F   UNL A   1      32.557  23.165  22.257  1.00  0.00    -0.167 F 
ENDBRANCH  17  23
ENDBRANCH   4   7
ENDBRANCH   2   3
ENDBRANCH   1   2
BRANCH   1  27
ATOM     27  C   UNL A   1      36.506  23.565  25.701  1.00  0.00     0.118 C 
BRANCH  27  28
ATOM     28  N   UNL A   1      37.566  22.592  25.932  1.00  0.00    -0.352 N 
ATOM     29  C   UNL A   1      38.875  22.806  26.288  1.00  0.00     0.251 C 
ATOM     30  H   UNL A   1      37.307  21.649  25.815  1.00  0.00     0.163 HD
ATOM     31  O   UNL A   1      39.703  21.916  26.129  1.00  0.00    -0.269 OA
BRANCH  29  32
ATOM     32  C   UNL A   1      39.276  24.106  26.865  1.00  0.00     0.039 A 
ATOM     33  C   UNL A   1      40.001  25.009  26.084  1.00  0.00     0.014 A 
ATOM     34  C   UNL A   1      38.976  24.407  28.197  1.00  0.00     0.014 A 
ATOM     35  C   UNL A   1      40.394  26.233  26.629  1.00  0.00     0.010 A 
ATOM     36  C   UNL A   1      39.311  25.651  28.719  1.00  0.00     0.010 A 
ATOM     37  C   UNL A   1      40.041  26.566  27.946  1.00  0.00    -0.014 A 
BRANCH  37  38
ATOM     38  C   UNL A   1      40.477  27.842  28.560  1.00  0.00     0.031 A 
ATOM     39  C   UNL A   1      41.890  27.984  29.052  1.00  0.00     0.074 A 
ATOM     40  C   UNL A   1      39.595  28.846  28.720  1.00  0.00     0.049 A 
ATOM     41  N   UNL A   1      42.454  29.002  29.647  1.00  0.00    -0.248 NA
ATOM     42  C   UNL A   1      42.780  26.825  28.871  1.00  0.00     0.031 C 
ATOM     43  C   UNL A   1      38.192  28.814  28.308  1.00  0.00     0.029 A 
ATOM     44  N   UNL A   1      39.752  30.090  29.278  1.00  0.00    -0.354 N 
ATOM     45  C   UNL A   1      43.753  28.600  29.929  1.00  0.00     0.074 A 
ATOM     46  C   UNL A   1      43.885  27.234  29.476  1.00  0.00     0.031 C 
ATOM     47  C   UNL A   1      37.623  29.994  28.602  1.00  0.00     0.029 A 
ATOM     48  C   UNL A   1      38.610  30.853  29.251  1.00  0.00     0.049 A 
ATOM     49  H   UNL A   1      40.602  30.406  29.663  1.00  0.00     0.167 HD
ATOM     50  C   UNL A   1      44.751  29.310  30.502  1.00  0.00     0.031 A 
ATOM     51  C   UNL A   1      38.382  32.105  29.696  1.00  0.00     0.031 A 
ATOM     52  C   UNL A   1      44.622  30.676  30.930  1.00  0.00     0.049 A 
ATOM     53  C   UNL A   1      39.502  32.877  30.333  1.00  0.00     0.074 A 
ATOM     54  C   UNL A   1      45.599  31.506  31.449  1.00  0.00     0.029 A 
ATOM     55  N   UNL A   1      43.446  31.408  30.894  1.00  0.00    -0.354 N 
ATOM     56  N   UNL A   1      40.742  32.501  30.538  1.00  0.00    -0.248 NA
ATOM     57  C   UNL A   1      39.199  34.239  30.792  1.00  0.00     0.031 C 
ATOM     58  C   UNL A   1      45.000  32.725  31.778  1.00  0.00     0.029 A 
ATOM     59  C   UNL A   1      43.663  32.672  31.413  1.00  0.00     0.049 A 
ATOM     60  H   UNL A   1      42.584  31.079  30.550  1.00  0.00     0.167 HD
ATOM     61  C   UNL A   1      41.373  33.585  31.136  1.00  0.00     0.074 A 
ATOM     62  C   UNL A   1      40.379  34.633  31.258  1.00  0.00     0.031 C 
ATOM     63  C   UNL A   1      42.661  33.701  31.539  1.00  0.00     0.031 A 
BRANCH  50  64
ATOM     64  C   UNL A   1      46.071  28.622  30.709  1.00  0.00    -0.014 A 
ATOM     65  C   UNL A   1      47.086  28.687  29.738  1.00  0.00     0.010 A 
ATOM     66  C   UNL A   1      46.316  27.943  31.917  1.00  0.00     0.010 A 
ATOM     67  C   UNL A   1      48.316  28.062  29.962  1.00  0.00     0.020 A 
ATOM     68  C   UNL A   1      47.553  27.337  32.154  1.00  0.00     0.020 A 
ATOM     69  C   UNL A   1      48.542  27.395  31.170  1.00  0.00     0.054 A 
BRANCH  69  70
ATOM     70  S   UNL A   1      50.157  26.612  31.434  1.00  0.00     0.124 S 
ATOM     71  O   UNL A   1      50.770  27.500  32.419  1.00  0.00    -0.237 OA
ATOM     72  O   UNL A   1      49.786  25.288  31.927  1.00  0.00    -0.237 OA
ATOM     73  O   UNL A   1      50.777  26.634  30.111  1.00  0.00    -0.744 OA
ENDBRANCH  69  70
ENDBRANCH  50  64
BRANCH  51  74
ATOM     74  C   UNL A   1      37.034  32.700  29.503  1.00  0.00    -0.014 A 
ATOM     75  C   UNL A   1      36.150  32.807  30.590  1.00  0.00     0.010 A 
ATOM     76  C   UNL A   1      36.672  33.262  28.264  1.00  0.00     0.010 A 
ATOM     77  C   UNL A   1      34.939  33.491  30.450  1.00  0.00     0.020 A 
ATOM     78  C   UNL A   1      35.469  33.960  28.125  1.00  0.00     0.020 A 
ATOM     79  C   UNL A   1      34.616  34.080  29.225  1.00  0.00     0.054 A 
BRANCH  79  80
ATOM     80  S   UNL A   1      33.090  35.057  29.108  1.00  0.00     0.124 S 
ATOM     81  O   UNL A   1      32.340  34.339  28.082  1.00  0.00    -0.237 OA
ATOM     82  O   UNL A   1      32.561  34.957  30.465  1.00  0.00    -0.237 OA
ATOM     83  O   UNL A   1      33.560  36.386  28.724  1.00  0.00    -0.744 OA
ENDBRANCH  79  80
ENDBRANCH  51  74
BRANCH  63  84
ATOM     84  C   UNL A   1      43.098  35.003  32.148  1.00  0.00    -0.014 A 
ATOM     85  C   UNL A   1      43.609  36.037  31.346  1.00  0.00     0.010 A 
ATOM     86  C   UNL A   1      42.869  35.240  33.516  1.00  0.00     0.010 A 
ATOM     87  C   UNL A   1      43.884  37.289  31.904  1.00  0.00     0.020 A 
ATOM     88  C   UNL A   1      43.121  36.496  34.072  1.00  0.00     0.020 A 
ATOM     89  C   UNL A   1      43.626  37.514  33.260  1.00  0.00     0.054 A 
BRANCH  89  90
ATOM     90  S   UNL A   1      43.927  39.169  33.937  1.00  0.00     0.124 S 
ATOM     91  O   UNL A   1      42.733  39.897  33.512  1.00  0.00    -0.237 OA
ATOM     92  O   UNL A   1      44.026  38.908  35.370  1.00  0.00    -0.237 OA
ATOM     93  O   UNL A   1      45.170  39.589  33.295  1.00  0.00    -0.744 OA
ENDBRANCH  89  90
ENDBRANCH  63  84
ENDBRANCH  37  38
ENDBRANCH  29  32
ENDBRANCH  27  28
ENDBRANCH   1  27
TORSDOF 16
ENDMDL
MODEL 2
REMARK VINA RESULT:     -11.7      2.943      9.318
REMARK SMILES Cc1cc(OC(F)(F)F)cc2c1O[C@@H](C(F)(F)F)C(C(=O)NCCCNC(=O)c1ccc(-c3c4nc(c(-c5ccc(S(=O)(=O)[O-])cc5)c5ccc([nH]5)c(-c5ccc(S(=O)(=O)[O-])cc5)c5nc(c(-c6ccc(S(=O)(=O)[O-])cc6)c6ccc3[nH]6)C=C5)C=C4)cc1)=C2
REMARK SMILES IDX 24 1 23 2 22 3 20 4 21 5 19 7 1 8 2 9 3 10 12 11 4 12 11 13
REMARK SMILES IDX 13 14 10 15 89 16 14 17 5 18 6 19 7 20 8 21 9 22 15 23 16 24
REMARK SMILES IDX 17 25 18 26 25 27 26 28 27 29 28 31 29 32 30 33 88 34 31 35
REMARK SMILES IDX 87 36 32 37 33 38 34 39 81 40 35 41 86 42 80 43 82 44 36 45
REMARK SMILES IDX 85 46 79 47 78 48 37 50 67 51 48 52 66 53 49 54 52 55 65 56
REMARK SMILES IDX 83 57 50 58 51 59 64 61 84 62 53 63 38 64 39 65 47 66 40 67
REMARK SMILES IDX 46 68 41 69 42 70 43 71 44 72 45 73 68 74 69 75 77 76 70 77
REMARK SMILES IDX 76 78 71 79 72 80 73 81 74 82 75 83 54 84 55 85 63 86 56 87
REMARK SMILES IDX 62 88 57 89 58 90 59 91 60 92 61 93
REMARK H PARENT 22 6 26 30 82 49 52 60
REMARK Flexibility Score: inf
ROOT
ATOM      1  C   UNL A   1      33.362  28.074  25.347  1.00  0.00     0.042 C 
ENDROOT
BRANCH   1   2
ATOM      2  C   UNL A   1      31.882  28.233  25.007  1.00  0.00     0.118 C 
BRANCH   2   3
ATOM      3  N   UNL A   1      31.609  27.912  23.614  1.00  0.00    -0.352 N 
ATOM      4  C   UNL A   1      31.599  26.800  22.843  1.00  0.00     0.251 C 
ATOM      5  O   UNL A   1      31.181  26.959  21.691  1.00  0.00    -0.270 OA
ATOM      6  H   UNL A   1      31.369  28.715  23.097  1.00  0.00     0.163 HD
BRANCH   4   7
ATOM      7  C   UNL A   1      32.043  25.447  23.283  1.00  0.00     0.067 C 
ATOM      8  C   UNL A   1      32.500  20.535  24.647  1.00  0.00     0.048 C 
ATOM      9  C   UNL A   1      33.465  21.658  24.395  1.00  0.00    -0.005 A 
ATOM     10  C   UNL A   1      34.843  21.469  24.586  1.00  0.00     0.054 A 
ATOM     11  C   UNL A   1      33.000  22.911  23.979  1.00  0.00     0.131 A 
ATOM     12  C   UNL A   1      35.743  22.513  24.354  1.00  0.00     0.130 A 
ATOM     13  C   UNL A   1      33.889  23.959  23.734  1.00  0.00     0.021 A 
ATOM     14  O   UNL A   1      31.653  23.046  23.782  1.00  0.00    -0.475 OA
ATOM     15  C   UNL A   1      35.259  23.755  23.929  1.00  0.00     0.058 A 
ATOM     16  C   UNL A   1      33.371  25.233  23.247  1.00  0.00     0.025 C 
ATOM     17  C   UNL A   1      31.129  24.399  23.855  1.00  0.00     0.314 C 
BRANCH  12  18
ATOM     18  O   UNL A   1      37.101  22.453  24.501  1.00  0.00    -0.406 OA
BRANCH  18  19
ATOM     19  C   UNL A   1      37.664  23.012  25.676  1.00  0.00     0.573 C 
ATOM     20  F   UNL A   1      38.199  24.227  25.435  1.00  0.00    -0.132 F 
ATOM     21  F   UNL A   1      36.741  23.111  26.659  1.00  0.00    -0.132 F 
ATOM     22  F   UNL A   1      38.652  22.199  26.114  1.00  0.00    -0.132 F 
ENDBRANCH  18  19
ENDBRANCH  12  18
BRANCH  17  23
ATOM     23  C   UNL A   1      30.647  24.714  25.280  1.00  0.00     0.429 C 
ATOM     24  F   UNL A   1      29.646  25.624  25.292  1.00  0.00    -0.167 F 
ATOM     25  F   UNL A   1      30.159  23.590  25.863  1.00  0.00    -0.167 F 
ATOM     26  F   UNL A   1      31.630  25.192  26.071  1.00  0.00    -0.167 F 
ENDBRANCH  17  23
ENDBRANCH   4   7
ENDBRANCH   2   3
ENDBRANCH   1   2
BRANCH   1  27
ATOM     27  C   UNL A   1      33.662  28.413  26.805  1.00  0.00     0.118 C 
BRANCH  27  28
ATOM     28  N   UNL A   1      33.610  29.852  27.031  1.00  0.00    -0.352 N 
ATOM     29  C   UNL A   1      34.445  30.641  27.784  1.00  0.00     0.251 C 
ATOM     30  H   UNL A   1      32.872  30.325  26.581  1.00  0.00     0.163 HD
ATOM     31  O   UNL A   1      34.081  31.761  28.126  1.00  0.00    -0.269 OA
BRANCH  29  32
ATOM     32  C   UNL A   1      35.778  30.137  28.173  1.00  0.00     0.039 A 
ATOM     33  C   UNL A   1      35.971  29.630  29.460  1.00  0.00     0.014 A 
ATOM     34  C   UNL A   1      36.848  30.214  27.276  1.00  0.00     0.014 A 
ATOM     35  C   UNL A   1      37.233  29.165  29.837  1.00  0.00     0.010 A 
ATOM     36  C   UNL A   1      38.087  29.692  27.629  1.00  0.00     0.010 A 
ATOM     37  C   UNL A   1      38.296  29.183  28.920  1.00  0.00    -0.014 A 
BRANCH  37  38
ATOM     38  C   UNL A   1      39.652  28.730  29.306  1.00  0.00     0.031 A 
ATOM     39  C   UNL A   1      40.541  29.644  30.100  1.00  0.00     0.074 A 
ATOM     40  C   UNL A   1      40.100  27.527  28.901  1.00  0.00     0.049 A 
ATOM     41  N   UNL A   1      41.769  29.449  30.506  1.00  0.00    -0.248 NA
ATOM     42  C   UNL A   1      39.988  30.958  30.472  1.00  0.00     0.031 C 
ATOM     43  C   UNL A   1      39.338  26.566  28.103  1.00  0.00     0.029 A 
ATOM     44  N   UNL A   1      41.308  26.910  29.104  1.00  0.00    -0.354 N 
ATOM     45  C   UNL A   1      42.141  30.617  31.157  1.00  0.00     0.074 A 
ATOM     46  C   UNL A   1      41.025  31.532  31.064  1.00  0.00     0.031 C 
ATOM     47  C   UNL A   1      40.087  25.469  27.908  1.00  0.00     0.029 A 
ATOM     48  C   UNL A   1      41.391  25.661  28.538  1.00  0.00     0.049 A 
ATOM     49  H   UNL A   1      42.047  27.323  29.607  1.00  0.00     0.167 HD
ATOM     50  C   UNL A   1      43.302  30.898  31.790  1.00  0.00     0.031 A 
ATOM     51  C   UNL A   1      42.401  24.769  28.528  1.00  0.00     0.031 A 
ATOM     52  C   UNL A   1      44.400  29.977  31.902  1.00  0.00     0.049 A 
ATOM     53  C   UNL A   1      43.685  25.100  29.234  1.00  0.00     0.074 A 
ATOM     54  C   UNL A   1      45.587  30.140  32.591  1.00  0.00     0.029 A 
ATOM     55  N   UNL A   1      44.446  28.727  31.305  1.00  0.00    -0.354 N 
ATOM     56  N   UNL A   1      43.997  26.188  29.896  1.00  0.00    -0.248 NA
ATOM     57  C   UNL A   1      44.749  24.088  29.197  1.00  0.00     0.031 C 
ATOM     58  C   UNL A   1      46.376  29.009  32.366  1.00  0.00     0.029 A 
ATOM     59  C   UNL A   1      45.658  28.120  31.582  1.00  0.00     0.049 A 
ATOM     60  H   UNL A   1      43.725  28.330  30.764  1.00  0.00     0.167 HD
ATOM     61  C   UNL A   1      45.288  25.986  30.371  1.00  0.00     0.074 A 
ATOM     62  C   UNL A   1      45.698  24.671  29.921  1.00  0.00     0.031 C 
ATOM     63  C   UNL A   1      46.057  26.814  31.118  1.00  0.00     0.031 A 
BRANCH  50  64
ATOM     64  C   UNL A   1      43.452  32.261  32.406  1.00  0.00    -0.014 A 
ATOM     65  C   UNL A   1      43.912  33.355  31.651  1.00  0.00     0.010 A 
ATOM     66  C   UNL A   1      43.076  32.461  33.747  1.00  0.00     0.010 A 
ATOM     67  C   UNL A   1      44.019  34.619  32.235  1.00  0.00     0.020 A 
ATOM     68  C   UNL A   1      43.160  33.729  34.328  1.00  0.00     0.020 A 
ATOM     69  C   UNL A   1      43.638  34.799  33.569  1.00  0.00     0.054 A 
BRANCH  69  70
ATOM     70  S   UNL A   1      43.772  36.458  34.289  1.00  0.00     0.124 S 
ATOM     71  O   UNL A   1      44.345  36.175  35.603  1.00  0.00    -0.237 OA
ATOM     72  O   UNL A   1      44.661  37.136  33.349  1.00  0.00    -0.237 OA
ATOM     73  O   UNL A   1      42.395  36.944  34.307  1.00  0.00    -0.744 OA
ENDBRANCH  69  70
ENDBRANCH  50  64
BRANCH  51  74
ATOM     74  C   UNL A   1      42.196  23.461  27.852  1.00  0.00    -0.014 A 
ATOM     75  C   UNL A   1      42.672  23.263  26.545  1.00  0.00     0.010 A 
ATOM     76  C   UNL A   1      41.627  22.379  28.548  1.00  0.00     0.010 A 
ATOM     77  C   UNL A   1      42.610  21.997  25.956  1.00  0.00     0.020 A 
ATOM     78  C   UNL A   1      41.577  21.108  27.968  1.00  0.00     0.020 A 
ATOM     79  C   UNL A   1      42.082  20.924  26.678  1.00  0.00     0.054 A 
BRANCH  79  80
ATOM     80  S   UNL A   1      42.119  19.271  25.928  1.00  0.00     0.124 S 
ATOM     81  O   UNL A   1      42.689  18.458  26.997  1.00  0.00    -0.237 OA
ATOM     82  O   UNL A   1      40.707  19.036  25.638  1.00  0.00    -0.237 OA
ATOM     83  O   UNL A   1      42.971  19.445  24.753  1.00  0.00    -0.744 OA
ENDBRANCH  79  80
ENDBRANCH  51  74
BRANCH  63  84
ATOM     84  C   UNL A   1      47.426  26.341  31.516  1.00  0.00    -0.014 A 
ATOM     85  C   UNL A   1      47.633  25.687  32.741  1.00  0.00     0.010 A 
ATOM     86  C   UNL A   1      48.486  26.435  30.596  1.00  0.00     0.010 A 
ATOM     87  C   UNL A   1      48.881  25.132  33.040  1.00  0.00     0.020 A 
ATOM     88  C   UNL A   1      49.728  25.862  30.882  1.00  0.00     0.020 A 
ATOM     89  C   UNL A   1      49.916  25.212  32.103  1.00  0.00     0.054 A 
BRANCH  89  90
ATOM     90  S   UNL A   1      51.501  24.421  32.492  1.00  0.00     0.124 S 
ATOM     91  O   UNL A   1      51.270  23.043  32.064  1.00  0.00    -0.237 OA
ATOM     92  O   UNL A   1      52.441  25.182  31.673  1.00  0.00    -0.237 OA
ATOM     93  O   UNL A   1      51.641  24.607  33.934  1.00  0.00    -0.744 OA
ENDBRANCH  89  90
ENDBRANCH  63  84
ENDBRANCH  37  38
ENDBRANCH  29  32
ENDBRANCH  27  28
ENDBRANCH   1  27
TORSDOF 16
ENDMDL
MODEL 3
REMARK VINA RESULT:     -11.0      2.924      9.515
REMARK SMILES Cc1cc(OC(F)(F)F)cc2c1O[C@@H](C(F)(F)F)C(C(=O)NCCCNC(=O)c1ccc(-c3c4nc(c(-c5ccc(S(=O)(=O)[O-])cc5)c5ccc([nH]5)c(-c5ccc(S(=O)(=O)[O-])cc5)c5nc(c(-c6ccc(S(=O)(=O)[O-])cc6)c6ccc3[nH]6)C=C5)C=C4)cc1)=C2
REMARK SMILES IDX 24 1 23 2 22 3 20 4 21 5 19 7 1 8 2 9 3 10 12 11 4 12 11 13
REMARK SMILES IDX 13 14 10 15 89 16 14 17 5 18 6 19 7 20 8 21 9 22 15 23 16 24
REMARK SMILES IDX 17 25 18 26 25 27 26 28 27 29 28 31 29 32 30 33 88 34 31 35
REMARK SMILES IDX 87 36 32 37 33 38 34 39 81 40 35 41 86 42 80 43 82 44 36 45
REMARK SMILES IDX 85 46 79 47 78 48 37 50 67 51 48 52 66 53 49 54 52 55 65 56
REMARK SMILES IDX 83 57 50 58 51 59 64 61 84 62 53 63 38 64 39 65 47 66 40 67
REMARK SMILES IDX 46 68 41 69 42 70 43 71 44 72 45 73 68 74 69 75 77 76 70 77
REMARK SMILES IDX 76 78 71 79 72 80 73 81 74 82 75 83 54 84 55 85 63 86 56 87
REMARK SMILES IDX 62 88 57 89 58 90 59 91 60 92 61 93
REMARK H PARENT 22 6 26 30 82 49 52 60
REMARK Flexibility Score: inf
ROOT
ATOM      1  C   UNL A   1      32.812  27.681  25.814  1.00  0.00     0.042 C 
ENDROOT
BRANCH   1   2
ATOM      2  C   UNL A   1      31.742  26.742  26.366  1.00  0.00     0.118 C 
BRANCH   2   3
ATOM      3  N   UNL A   1      30.987  26.097  25.302  1.00  0.00    -0.352 N 
ATOM      4  C   UNL A   1      31.063  24.943  24.600  1.00  0.00     0.251 C 
ATOM      5  O   UNL A   1      30.116  24.724  23.837  1.00  0.00    -0.270 OA
ATOM      6  H   UNL A   1      30.219  26.645  25.018  1.00  0.00     0.163 HD
BRANCH   4   7
ATOM      7  C   UNL A   1      32.177  23.957  24.688  1.00  0.00     0.067 C 
ATOM      8  C   UNL A   1      36.618  21.467  25.218  1.00  0.00     0.048 C 
ATOM      9  C   UNL A   1      35.185  21.052  25.048  1.00  0.00    -0.005 A 
ATOM     10  C   UNL A   1      34.845  19.694  24.949  1.00  0.00     0.054 A 
ATOM     11  C   UNL A   1      34.172  22.015  24.974  1.00  0.00     0.131 A 
ATOM     12  C   UNL A   1      33.512  19.303  24.789  1.00  0.00     0.130 A 
ATOM     13  C   UNL A   1      32.836  21.639  24.825  1.00  0.00     0.021 A 
ATOM     14  O   UNL A   1      34.543  23.326  25.099  1.00  0.00    -0.475 OA
ATOM     15  C   UNL A   1      32.513  20.282  24.728  1.00  0.00     0.058 A 
ATOM     16  C   UNL A   1      31.804  22.669  24.809  1.00  0.00     0.025 C 
ATOM     17  C   UNL A   1      33.632  24.305  24.532  1.00  0.00     0.314 C 
BRANCH  12  18
ATOM     18  O   UNL A   1      33.056  18.019  24.685  1.00  0.00    -0.406 OA
BRANCH  18  19
ATOM     19  C   UNL A   1      33.419  17.281  23.529  1.00  0.00     0.573 C 
ATOM     20  F   UNL A   1      32.997  16.003  23.609  1.00  0.00    -0.132 F 
ATOM     21  F   UNL A   1      32.923  17.853  22.410  1.00  0.00    -0.132 F 
ATOM     22  F   UNL A   1      34.768  17.270  23.428  1.00  0.00    -0.132 F 
ENDBRANCH  18  19
ENDBRANCH  12  18
BRANCH  17  23
ATOM     23  C   UNL A   1      34.032  24.642  23.088  1.00  0.00     0.429 C 
ATOM     24  F   UNL A   1      34.009  25.974  22.848  1.00  0.00    -0.167 F 
ATOM     25  F   UNL A   1      35.301  24.226  22.850  1.00  0.00    -0.167 F 
ATOM     26  F   UNL A   1      33.231  24.058  22.172  1.00  0.00    -0.167 F 
ENDBRANCH  17  23
ENDBRANCH   4   7
ENDBRANCH   2   3
ENDBRANCH   1   2
BRANCH   1  27
ATOM     27  C   UNL A   1      33.781  28.155  26.895  1.00  0.00     0.118 C 
BRANCH  27  28
ATOM     28  N   UNL A   1      33.609  29.576  27.168  1.00  0.00    -0.352 N 
ATOM     29  C   UNL A   1      34.405  30.418  27.905  1.00  0.00     0.251 C 
ATOM     30  H   UNL A   1      32.810  29.990  26.768  1.00  0.00     0.163 HD
ATOM     31  O   UNL A   1      33.958  31.490  28.298  1.00  0.00    -0.269 OA
BRANCH  29  32
ATOM     32  C   UNL A   1      35.797  30.030  28.215  1.00  0.00     0.039 A 
ATOM     33  C   UNL A   1      36.767  30.098  27.212  1.00  0.00     0.014 A 
ATOM     34  C   UNL A   1      36.126  29.549  29.486  1.00  0.00     0.014 A 
ATOM     35  C   UNL A   1      38.081  29.719  27.496  1.00  0.00     0.010 A 
ATOM     36  C   UNL A   1      37.446  29.233  29.786  1.00  0.00     0.010 A 
ATOM     37  C   UNL A   1      38.430  29.295  28.788  1.00  0.00    -0.014 A 
BRANCH  37  38
ATOM     38  C   UNL A   1      39.809  28.852  29.106  1.00  0.00     0.031 A 
ATOM     39  C   UNL A   1      40.744  29.793  29.811  1.00  0.00     0.074 A 
ATOM     40  C   UNL A   1      40.230  27.635  28.717  1.00  0.00     0.049 A 
ATOM     41  N   UNL A   1      41.995  29.610  30.146  1.00  0.00    -0.248 NA
ATOM     42  C   UNL A   1      40.215  31.120  30.169  1.00  0.00     0.031 C 
ATOM     43  C   UNL A   1      39.421  26.648  28.002  1.00  0.00     0.029 A 
ATOM     44  N   UNL A   1      41.449  27.024  28.866  1.00  0.00    -0.354 N 
ATOM     45  C   UNL A   1      42.406  30.800  30.732  1.00  0.00     0.074 A 
ATOM     46  C   UNL A   1      41.286  31.712  30.675  1.00  0.00     0.031 C 
ATOM     47  C   UNL A   1      40.157  25.544  27.799  1.00  0.00     0.029 A 
ATOM     48  C   UNL A   1      41.498  25.755  28.341  1.00  0.00     0.049 A 
ATOM     49  H   UNL A   1      42.218  27.453  29.308  1.00  0.00     0.167 HD
ATOM     50  C   UNL A   1      43.604  31.101  31.282  1.00  0.00     0.031 A 
ATOM     51  C   UNL A   1      42.505  24.862  28.300  1.00  0.00     0.031 A 
ATOM     52  C   UNL A   1      44.706  30.182  31.358  1.00  0.00     0.049 A 
ATOM     53  C   UNL A   1      43.830  25.215  28.913  1.00  0.00     0.074 A 
ATOM     54  C   UNL A   1      45.934  30.367  31.966  1.00  0.00     0.029 A 
ATOM     55  N   UNL A   1      44.717  28.912  30.803  1.00  0.00    -0.354 N 
ATOM     56  N   UNL A   1      44.182  26.325  29.516  1.00  0.00    -0.248 NA
ATOM     57  C   UNL A   1      44.890  24.200  28.847  1.00  0.00     0.031 C 
ATOM     58  C   UNL A   1      46.709  29.228  31.733  1.00  0.00     0.029 A 
ATOM     59  C   UNL A   1      45.943  28.312  31.027  1.00  0.00     0.049 A 
ATOM     60  H   UNL A   1      43.964  28.497  30.323  1.00  0.00     0.167 HD
ATOM     61  C   UNL A   1      45.500  26.138  29.917  1.00  0.00     0.074 A 
ATOM     62  C   UNL A   1      45.882  24.807  29.490  1.00  0.00     0.031 C 
ATOM     63  C   UNL A   1      46.313  26.991  30.585  1.00  0.00     0.031 A 
BRANCH  50  64
ATOM     64  C   UNL A   1      43.791  32.484  31.838  1.00  0.00    -0.014 A 
ATOM     65  C   UNL A   1      44.205  33.549  31.018  1.00  0.00     0.010 A 
ATOM     66  C   UNL A   1      43.497  32.732  33.192  1.00  0.00     0.010 A 
ATOM     67  C   UNL A   1      44.347  34.833  31.549  1.00  0.00     0.020 A 
ATOM     68  C   UNL A   1      43.616  34.020  33.721  1.00  0.00     0.020 A 
ATOM     69  C   UNL A   1      44.048  35.061  32.896  1.00  0.00     0.054 A 
BRANCH  69  70
ATOM     70  S   UNL A   1      44.225  36.744  33.548  1.00  0.00     0.124 S 
ATOM     71  O   UNL A   1      42.834  37.170  33.677  1.00  0.00    -0.237 OA
ATOM     72  O   UNL A   1      44.933  36.520  34.805  1.00  0.00    -0.237 OA
ATOM     73  O   UNL A   1      44.991  37.440  32.516  1.00  0.00    -0.744 OA
ENDBRANCH  69  70
ENDBRANCH  50  64
BRANCH  51  74
ATOM     74  C   UNL A   1      42.260  23.531  27.684  1.00  0.00    -0.014 A 
ATOM     75  C   UNL A   1      42.689  23.273  26.372  1.00  0.00     0.010 A 
ATOM     76  C   UNL A   1      41.699  22.487  28.443  1.00  0.00     0.010 A 
ATOM     77  C   UNL A   1      42.589  21.986  25.837  1.00  0.00     0.020 A 
ATOM     78  C   UNL A   1      41.611  21.195  27.916  1.00  0.00     0.020 A 
ATOM     79  C   UNL A   1      42.070  20.951  26.619  1.00  0.00     0.054 A 
BRANCH  79  80
ATOM     80  S   UNL A   1      42.059  19.269  25.936  1.00  0.00     0.124 S 
ATOM     81  O   UNL A   1      42.909  19.409  24.757  1.00  0.00    -0.237 OA
ATOM     82  O   UNL A   1      42.623  18.490  27.034  1.00  0.00    -0.237 OA
ATOM     83  O   UNL A   1      40.646  19.018  25.661  1.00  0.00    -0.744 OA
ENDBRANCH  79  80
ENDBRANCH  51  74
BRANCH  63  84
ATOM     84  C   UNL A   1      47.705  26.529  30.915  1.00  0.00    -0.014 A 
ATOM     85  C   UNL A   1      48.771  26.771  30.033  1.00  0.00     0.010 A 
ATOM     86  C   UNL A   1      47.967  25.968  32.178  1.00  0.00     0.010 A 
ATOM     87  C   UNL A   1      50.080  26.459  30.410  1.00  0.00     0.020 A 
ATOM     88  C   UNL A   1      49.277  25.676  32.567  1.00  0.00     0.020 A 
ATOM     89  C   UNL A   1      50.326  25.925  31.680  1.00  0.00     0.054 A 
BRANCH  89  90
ATOM     90  S   UNL A   1      52.042  25.599  32.165  1.00  0.00     0.124 S 
ATOM     91  O   UNL A   1      52.786  26.050  30.992  1.00  0.00    -0.237 OA
ATOM     92  O   UNL A   1      52.192  26.426  33.360  1.00  0.00    -0.237 OA
ATOM     93  O   UNL A   1      52.070  24.157  32.401  1.00  0.00    -0.744 OA
ENDBRANCH  89  90
ENDBRANCH  63  84
ENDBRANCH  37  38
ENDBRANCH  29  32
ENDBRANCH  27  28
ENDBRANCH   1  27
TORSDOF 16
ENDMDL
