MODEL 1
REMARK VINA RESULT:     -12.0      0.000      0.000
REMARK SMILES Cc1c(C)c2cc(Cl)c(O[C@@H](C)C(=O)NCCCNC(=O)c3ccc(-c4c5nc(c(-c6ccc(S(=O)(=O)[O-])cc6)c6ccc([nH]6)c(-c6ccc(S(=O)(=O)[O-])cc6)c6nc(c(-c7ccc(S(=O)(=O)[O-])cc7)c7ccc4[nH]7)C=C6)C=C5)cc3)cc2oc1=O
REMARK SMILES IDX 17 1 16 2 15 3 13 4 14 5 11 7 12 8 10 9 9 10 1 11 2 12 3 13
REMARK SMILES IDX 85 14 4 15 5 16 84 17 86 18 6 19 83 20 7 21 82 22 8 23 18 24
REMARK SMILES IDX 19 25 20 26 21 28 22 29 23 30 81 31 24 32 80 33 25 34 26 35
REMARK SMILES IDX 27 36 74 37 28 38 79 39 73 40 75 41 29 42 78 43 72 44 71 45
REMARK SMILES IDX 30 47 60 48 41 49 59 50 42 51 45 52 58 53 76 54 43 55 44 56
REMARK SMILES IDX 57 58 77 59 46 60 31 61 32 62 40 63 33 64 39 65 34 66 35 67
REMARK SMILES IDX 36 68 37 69 38 70 61 71 62 72 70 73 63 74 69 75 64 76 65 77
REMARK SMILES IDX 66 78 67 79 68 80 47 81 48 82 56 83 49 84 55 85 50 86 51 87
REMARK SMILES IDX 52 88 53 89 54 90
REMARK H PARENT 15 6 19 27 75 46 45 57
REMARK Flexibility Score: inf
ROOT
ATOM      1  C   UNL A   1      33.286  27.474  26.250  1.00  0.00     0.042 C 
ENDROOT
BRANCH   1   2
ATOM      2  C   UNL A   1      31.931  27.763  26.887  1.00  0.00     0.118 C 
BRANCH   2   3
ATOM      3  N   UNL A   1      31.067  26.599  26.839  1.00  0.00    -0.353 N 
ATOM      4  C   UNL A   1      30.295  26.059  25.859  1.00  0.00     0.260 C 
ATOM      5  O   UNL A   1      29.591  25.101  26.211  1.00  0.00    -0.271 OA
ATOM      6  H   UNL A   1      31.034  26.099  27.686  1.00  0.00     0.163 HD
BRANCH   4   7
ATOM      7  C   UNL A   1      30.306  26.494  24.358  1.00  0.00     0.258 C 
ATOM      8  C   UNL A   1      29.243  27.539  24.020  1.00  0.00     0.064 C 
BRANCH   7   9
ATOM      9  O   UNL A   1      30.640  25.631  23.273  1.00  0.00    -0.479 OA
BRANCH   9  10
ATOM     10  C   UNL A   1      31.743  24.839  23.321  1.00  0.00     0.142 A 
ATOM     11  C   UNL A   1      36.259  20.563  25.125  1.00  0.00     0.052 C 
ATOM     12  C   UNL A   1      35.120  21.357  24.555  1.00  0.00     0.038 A 
ATOM     13  C   UNL A   1      35.292  22.481  23.824  1.00  0.00    -0.030 A 
ATOM     14  C   UNL A   1      33.767  20.844  24.897  1.00  0.00     0.339 A 
ATOM     15  C   UNL A   1      36.639  22.991  23.381  1.00  0.00     0.046 C 
ATOM     16  C   UNL A   1      34.105  23.286  23.494  1.00  0.00     0.023 A 
ATOM     17  O   UNL A   1      32.692  21.466  24.286  1.00  0.00    -0.422 OA
ATOM     18  O   UNL A   1      33.590  19.890  25.648  1.00  0.00    -0.246 OA
ATOM     19  C   UNL A   1      34.157  24.608  23.036  1.00  0.00     0.036 A 
ATOM     20  C   UNL A   1      32.847  22.748  23.743  1.00  0.00     0.142 A 
ATOM     21  C   UNL A   1      32.987  25.379  22.962  1.00  0.00     0.083 A 
ATOM     22  C   UNL A   1      31.670  23.485  23.606  1.00  0.00     0.096 A 
ATOM     23  Cl  UNL A   1      33.130  27.028  22.465  1.00  0.00    -0.080 Cl
ENDBRANCH   9  10
ENDBRANCH   7   9
ENDBRANCH   4   7
ENDBRANCH   2   3
ENDBRANCH   1   2
BRANCH   1  24
ATOM     24  C   UNL A   1      34.041  28.710  25.784  1.00  0.00     0.118 C 
BRANCH  24  25
ATOM     25  N   UNL A   1      33.780  29.874  26.626  1.00  0.00    -0.352 N 
ATOM     26  C   UNL A   1      34.499  30.494  27.623  1.00  0.00     0.251 C 
ATOM     27  H   UNL A   1      32.914  30.303  26.444  1.00  0.00     0.163 HD
ATOM     28  O   UNL A   1      33.950  31.404  28.243  1.00  0.00    -0.269 OA
BRANCH  26  29
ATOM     29  C   UNL A   1      35.882  30.096  27.999  1.00  0.00     0.039 A 
ATOM     30  C   UNL A   1      36.970  30.270  27.149  1.00  0.00     0.014 A 
ATOM     31  C   UNL A   1      36.114  29.593  29.290  1.00  0.00     0.014 A 
ATOM     32  C   UNL A   1      38.225  29.774  27.499  1.00  0.00     0.010 A 
ATOM     33  C   UNL A   1      37.401  29.193  29.687  1.00  0.00     0.010 A 
ATOM     34  C   UNL A   1      38.462  29.239  28.775  1.00  0.00    -0.014 A 
BRANCH  34  35
ATOM     35  C   UNL A   1      39.854  28.862  29.135  1.00  0.00     0.031 A 
ATOM     36  C   UNL A   1      40.705  29.716  30.029  1.00  0.00     0.074 A 
ATOM     37  C   UNL A   1      40.306  27.658  28.733  1.00  0.00     0.049 A 
ATOM     38  N   UNL A   1      41.797  29.395  30.675  1.00  0.00    -0.248 NA
ATOM     39  C   UNL A   1      40.274  31.102  30.248  1.00  0.00     0.031 C 
ATOM     40  C   UNL A   1      39.570  26.739  27.861  1.00  0.00     0.029 A 
ATOM     41  N   UNL A   1      41.460  26.982  29.034  1.00  0.00    -0.354 N 
ATOM     42  C   UNL A   1      42.145  30.517  31.419  1.00  0.00     0.074 A 
ATOM     43  C   UNL A   1      41.178  31.546  31.111  1.00  0.00     0.031 C 
ATOM     44  C   UNL A   1      40.258  25.595  27.752  1.00  0.00     0.029 A 
ATOM     45  C   UNL A   1      41.508  25.717  28.497  1.00  0.00     0.049 A 
ATOM     46  H   UNL A   1      42.184  27.364  29.580  1.00  0.00     0.167 HD
ATOM     47  C   UNL A   1      43.179  30.672  32.278  1.00  0.00     0.031 A 
ATOM     48  C   UNL A   1      42.445  24.755  28.594  1.00  0.00     0.031 A 
ATOM     49  C   UNL A   1      44.198  29.679  32.490  1.00  0.00     0.049 A 
ATOM     50  C   UNL A   1      43.649  24.997  29.453  1.00  0.00     0.074 A 
ATOM     51  C   UNL A   1      45.298  29.748  33.327  1.00  0.00     0.029 A 
ATOM     52  N   UNL A   1      44.271  28.462  31.830  1.00  0.00    -0.354 N 
ATOM     53  N   UNL A   1      43.910  26.025  30.225  1.00  0.00    -0.248 NA
ATOM     54  C   UNL A   1      44.685  23.955  29.462  1.00  0.00     0.031 C 
ATOM     55  C   UNL A   1      46.083  28.615  33.103  1.00  0.00     0.029 A 
ATOM     56  C   UNL A   1      45.430  27.798  32.193  1.00  0.00     0.049 A 
ATOM     57  H   UNL A   1      43.598  28.119  31.199  1.00  0.00     0.167 HD
ATOM     58  C   UNL A   1      45.138  25.754  30.817  1.00  0.00     0.074 A 
ATOM     59  C   UNL A   1      45.558  24.454  30.330  1.00  0.00     0.031 C 
ATOM     60  C   UNL A   1      45.849  26.515  31.683  1.00  0.00     0.031 A 
BRANCH  47  61
ATOM     61  C   UNL A   1      43.289  31.962  33.048  1.00  0.00    -0.014 A 
ATOM     62  C   UNL A   1      42.517  32.158  34.208  1.00  0.00     0.010 A 
ATOM     63  C   UNL A   1      44.045  33.034  32.539  1.00  0.00     0.010 A 
ATOM     64  C   UNL A   1      42.469  33.411  34.825  1.00  0.00     0.020 A 
ATOM     65  C   UNL A   1      44.014  34.285  33.166  1.00  0.00     0.020 A 
ATOM     66  C   UNL A   1      43.207  34.471  34.291  1.00  0.00     0.054 A 
BRANCH  66  67
ATOM     67  S   UNL A   1      43.093  36.102  35.080  1.00  0.00     0.124 S 
ATOM     68  O   UNL A   1      42.175  35.847  36.186  1.00  0.00    -0.237 OA
ATOM     69  O   UNL A   1      44.478  36.370  35.456  1.00  0.00    -0.237 OA
ATOM     70  O   UNL A   1      42.569  36.958  34.018  1.00  0.00    -0.744 OA
ENDBRANCH  66  67
ENDBRANCH  47  61
BRANCH  48  71
ATOM     71  C   UNL A   1      42.237  23.481  27.852  1.00  0.00    -0.014 A 
ATOM     72  C   UNL A   1      41.504  22.435  28.447  1.00  0.00     0.010 A 
ATOM     73  C   UNL A   1      42.868  23.257  26.617  1.00  0.00     0.010 A 
ATOM     74  C   UNL A   1      41.469  21.169  27.862  1.00  0.00     0.020 A 
ATOM     75  C   UNL A   1      42.808  21.998  26.010  1.00  0.00     0.020 A 
ATOM     76  C   UNL A   1      42.139  20.953  26.655  1.00  0.00     0.054 A 
BRANCH  76  77
ATOM     77  S   UNL A   1      42.144  19.282  25.952  1.00  0.00     0.124 S 
ATOM     78  O   UNL A   1      43.023  19.449  24.796  1.00  0.00    -0.237 OA
ATOM     79  O   UNL A   1      42.686  18.476  27.043  1.00  0.00    -0.237 OA
ATOM     80  O   UNL A   1      40.738  19.040  25.640  1.00  0.00    -0.744 OA
ENDBRANCH  76  77
ENDBRANCH  48  71
BRANCH  60  81
ATOM     81  C   UNL A   1      47.181  25.995  32.156  1.00  0.00    -0.014 A 
ATOM     82  C   UNL A   1      48.322  26.164  31.350  1.00  0.00     0.010 A 
ATOM     83  C   UNL A   1      47.273  25.218  33.324  1.00  0.00     0.010 A 
ATOM     84  C   UNL A   1      49.521  25.531  31.680  1.00  0.00     0.020 A 
ATOM     85  C   UNL A   1      48.480  24.607  33.673  1.00  0.00     0.020 A 
ATOM     86  C   UNL A   1      49.588  24.745  32.834  1.00  0.00     0.054 A 
BRANCH  86  87
ATOM     87  S   UNL A   1      51.143  23.897  33.224  1.00  0.00     0.124 S 
ATOM     88  O   UNL A   1      52.140  24.823  32.694  1.00  0.00    -0.237 OA
ATOM     89  O   UNL A   1      51.095  23.790  34.680  1.00  0.00    -0.237 OA
ATOM     90  O   UNL A   1      51.028  22.626  32.510  1.00  0.00    -0.744 OA
ENDBRANCH  86  87
ENDBRANCH  60  81
ENDBRANCH  34  35
ENDBRANCH  26  29
ENDBRANCH  24  25
ENDBRANCH   1  24
TORSDOF 15
ENDMDL
MODEL 2
REMARK VINA RESULT:     -11.9      1.398      8.288
REMARK SMILES Cc1c(C)c2cc(Cl)c(O[C@@H](C)C(=O)NCCCNC(=O)c3ccc(-c4c5nc(c(-c6ccc(S(=O)(=O)[O-])cc6)c6ccc([nH]6)c(-c6ccc(S(=O)(=O)[O-])cc6)c6nc(c(-c7ccc(S(=O)(=O)[O-])cc7)c7ccc4[nH]7)C=C6)C=C5)cc3)cc2oc1=O
REMARK SMILES IDX 17 1 16 2 15 3 13 4 14 5 11 7 12 8 10 9 9 10 1 11 2 12 3 13
REMARK SMILES IDX 85 14 4 15 5 16 84 17 86 18 6 19 83 20 7 21 82 22 8 23 18 24
REMARK SMILES IDX 19 25 20 26 21 28 22 29 23 30 81 31 24 32 80 33 25 34 26 35
REMARK SMILES IDX 27 36 74 37 28 38 79 39 73 40 75 41 29 42 78 43 72 44 71 45
REMARK SMILES IDX 30 47 60 48 41 49 59 50 42 51 45 52 58 53 76 54 43 55 44 56
REMARK SMILES IDX 57 58 77 59 46 60 31 61 32 62 40 63 33 64 39 65 34 66 35 67
REMARK SMILES IDX 36 68 37 69 38 70 61 71 62 72 70 73 63 74 69 75 64 76 65 77
REMARK SMILES IDX 66 78 67 79 68 80 47 81 48 82 56 83 49 84 55 85 50 86 51 87
REMARK SMILES IDX 52 88 53 89 54 90
REMARK H PARENT 15 6 19 27 75 46 45 57
REMARK Flexibility Score: inf
ROOT
ATOM      1  C   UNL A   1      33.323  27.624  26.495  1.00  0.00     0.042 C 
ENDROOT
BRANCH   1   2
ATOM      2  C   UNL A   1      31.820  27.872  26.414  1.00  0.00     0.118 C 
BRANCH   2   3
ATOM      3  N   UNL A   1      31.073  26.639  26.578  1.00  0.00    -0.353 N 
ATOM      4  C   UNL A   1      30.146  26.010  25.808  1.00  0.00     0.260 C 
ATOM      5  O   UNL A   1      29.628  25.008  26.321  1.00  0.00    -0.271 OA
ATOM      6  H   UNL A   1      31.279  26.162  27.413  1.00  0.00     0.163 HD
BRANCH   4   7
ATOM      7  C   UNL A   1      29.774  26.403  24.341  1.00  0.00     0.258 C 
ATOM      8  C   UNL A   1      28.274  26.328  24.054  1.00  0.00     0.064 C 
BRANCH   7   9
ATOM      9  O   UNL A   1      30.597  26.145  23.206  1.00  0.00    -0.479 OA
BRANCH   9  10
ATOM     10  C   UNL A   1      31.618  25.251  23.270  1.00  0.00     0.142 A 
ATOM     11  C   UNL A   1      35.545  20.403  25.003  1.00  0.00     0.052 C 
ATOM     12  C   UNL A   1      34.544  21.356  24.420  1.00  0.00     0.038 A 
ATOM     13  C   UNL A   1      34.885  22.528  23.840  1.00  0.00    -0.030 A 
ATOM     14  C   UNL A   1      33.124  20.941  24.570  1.00  0.00     0.339 A 
ATOM     15  C   UNL A   1      36.309  22.953  23.589  1.00  0.00     0.046 C 
ATOM     16  C   UNL A   1      33.811  23.473  23.492  1.00  0.00     0.023 A 
ATOM     17  O   UNL A   1      32.175  21.721  23.933  1.00  0.00    -0.422 OA
ATOM     18  O   UNL A   1      32.790  19.934  25.187  1.00  0.00    -0.246 OA
ATOM     19  C   UNL A   1      34.021  24.824  23.193  1.00  0.00     0.036 A 
ATOM     20  C   UNL A   1      32.493  23.032  23.556  1.00  0.00     0.142 A 
ATOM     21  C   UNL A   1      32.934  25.706  23.095  1.00  0.00     0.083 A 
ATOM     22  C   UNL A   1      31.403  23.887  23.392  1.00  0.00     0.096 A 
ATOM     23  Cl  UNL A   1      33.266  27.376  22.804  1.00  0.00    -0.080 Cl
ENDBRANCH   9  10
ENDBRANCH   7   9
ENDBRANCH   4   7
ENDBRANCH   2   3
ENDBRANCH   1   2
BRANCH   1  24
ATOM     24  C   UNL A   1      34.180  28.793  26.034  1.00  0.00     0.118 C 
BRANCH  24  25
ATOM     25  N   UNL A   1      33.983  29.987  26.851  1.00  0.00    -0.352 N 
ATOM     26  C   UNL A   1      34.746  30.604  27.816  1.00  0.00     0.251 C 
ATOM     27  H   UNL A   1      33.129  30.444  26.675  1.00  0.00     0.163 HD
ATOM     28  O   UNL A   1      34.245  31.551  28.423  1.00  0.00    -0.269 OA
BRANCH  26  29
ATOM     29  C   UNL A   1      36.121  30.164  28.172  1.00  0.00     0.039 A 
ATOM     30  C   UNL A   1      37.188  30.237  27.282  1.00  0.00     0.014 A 
ATOM     31  C   UNL A   1      36.372  29.724  29.484  1.00  0.00     0.014 A 
ATOM     32  C   UNL A   1      38.430  29.704  27.623  1.00  0.00     0.010 A 
ATOM     33  C   UNL A   1      37.651  29.288  29.864  1.00  0.00     0.010 A 
ATOM     34  C   UNL A   1      38.683  29.232  28.920  1.00  0.00    -0.014 A 
BRANCH  34  35
ATOM     35  C   UNL A   1      40.068  28.810  29.260  1.00  0.00     0.031 A 
ATOM     36  C   UNL A   1      40.590  27.444  28.919  1.00  0.00     0.074 A 
ATOM     37  C   UNL A   1      40.899  29.733  29.782  1.00  0.00     0.049 A 
ATOM     38  N   UNL A   1      41.830  27.030  28.865  1.00  0.00    -0.248 NA
ATOM     39  C   UNL A   1      39.606  26.411  28.575  1.00  0.00     0.031 C 
ATOM     40  C   UNL A   1      40.505  31.094  30.155  1.00  0.00     0.029 A 
ATOM     41  N   UNL A   1      42.243  29.689  30.045  1.00  0.00    -0.354 N 
ATOM     42  C   UNL A   1      41.775  25.712  28.425  1.00  0.00     0.074 A 
ATOM     43  C   UNL A   1      40.378  25.376  28.271  1.00  0.00     0.031 C 
ATOM     44  C   UNL A   1      41.595  31.774  30.536  1.00  0.00     0.029 A 
ATOM     45  C   UNL A   1      42.752  30.886  30.488  1.00  0.00     0.049 A 
ATOM     46  H   UNL A   1      42.791  28.879  29.930  1.00  0.00     0.167 HD
ATOM     47  C   UNL A   1      42.797  24.862  28.175  1.00  0.00     0.031 A 
ATOM     48  C   UNL A   1      44.010  31.240  30.816  1.00  0.00     0.031 A 
ATOM     49  C   UNL A   1      44.178  25.172  28.440  1.00  0.00     0.049 A 
ATOM     50  C   UNL A   1      45.114  30.239  30.651  1.00  0.00     0.074 A 
ATOM     51  C   UNL A   1      45.287  24.371  28.238  1.00  0.00     0.029 A 
ATOM     52  N   UNL A   1      44.632  26.354  29.005  1.00  0.00    -0.354 N 
ATOM     53  N   UNL A   1      45.053  29.033  30.141  1.00  0.00    -0.248 NA
ATOM     54  C   UNL A   1      46.454  30.642  31.099  1.00  0.00     0.031 C 
ATOM     55  C   UNL A   1      46.399  25.031  28.766  1.00  0.00     0.029 A 
ATOM     56  C   UNL A   1      45.998  26.279  29.218  1.00  0.00     0.049 A 
ATOM     57  H   UNL A   1      44.068  27.131  29.221  1.00  0.00     0.167 HD
ATOM     58  C   UNL A   1      46.348  28.530  30.201  1.00  0.00     0.074 A 
ATOM     59  C   UNL A   1      47.174  29.573  30.778  1.00  0.00     0.031 C 
ATOM     60  C   UNL A   1      46.805  27.314  29.814  1.00  0.00     0.031 A 
BRANCH  47  61
ATOM     61  C   UNL A   1      42.483  23.505  27.605  1.00  0.00    -0.014 A 
ATOM     62  C   UNL A   1      42.123  22.446  28.459  1.00  0.00     0.010 A 
ATOM     63  C   UNL A   1      42.688  23.241  26.238  1.00  0.00     0.010 A 
ATOM     64  C   UNL A   1      42.011  21.143  27.967  1.00  0.00     0.020 A 
ATOM     65  C   UNL A   1      42.557  21.940  25.738  1.00  0.00     0.020 A 
ATOM     66  C   UNL A   1      42.243  20.896  26.611  1.00  0.00     0.054 A 
BRANCH  66  67
ATOM     67  S   UNL A   1      42.138  19.189  26.002  1.00  0.00     0.124 S 
ATOM     68  O   UNL A   1      42.672  18.426  27.127  1.00  0.00    -0.237 OA
ATOM     69  O   UNL A   1      40.708  19.029  25.751  1.00  0.00    -0.237 OA
ATOM     70  O   UNL A   1      42.974  19.203  24.803  1.00  0.00    -0.744 OA
ENDBRANCH  66  67
ENDBRANCH  47  61
BRANCH  48  71
ATOM     71  C   UNL A   1      44.253  32.621  31.315  1.00  0.00    -0.014 A 
ATOM     72  C   UNL A   1      44.139  32.899  32.692  1.00  0.00     0.010 A 
ATOM     73  C   UNL A   1      44.473  33.682  30.421  1.00  0.00     0.010 A 
ATOM     74  C   UNL A   1      44.161  34.214  33.156  1.00  0.00     0.020 A 
ATOM     75  C   UNL A   1      44.529  35.000  30.886  1.00  0.00     0.020 A 
ATOM     76  C   UNL A   1      44.336  35.259  32.246  1.00  0.00     0.054 A 
BRANCH  76  77
ATOM     77  S   UNL A   1      44.285  36.965  32.862  1.00  0.00     0.124 S 
ATOM     78  O   UNL A   1      44.160  37.724  31.620  1.00  0.00    -0.237 OA
ATOM     79  O   UNL A   1      43.102  36.961  33.719  1.00  0.00    -0.237 OA
ATOM     80  O   UNL A   1      45.559  37.112  33.561  1.00  0.00    -0.744 OA
ENDBRANCH  76  77
ENDBRANCH  48  71
BRANCH  60  81
ATOM     81  C   UNL A   1      48.265  27.008  30.020  1.00  0.00    -0.014 A 
ATOM     82  C   UNL A   1      48.698  26.454  31.238  1.00  0.00     0.010 A 
ATOM     83  C   UNL A   1      49.221  27.400  29.066  1.00  0.00     0.010 A 
ATOM     84  C   UNL A   1      50.060  26.337  31.519  1.00  0.00     0.020 A 
ATOM     85  C   UNL A   1      50.585  27.256  29.331  1.00  0.00     0.020 A 
ATOM     86  C   UNL A   1      50.995  26.751  30.567  1.00  0.00     0.054 A 
BRANCH  86  87
ATOM     87  S   UNL A   1      52.760  26.628  30.965  1.00  0.00     0.124 S 
ATOM     88  O   UNL A   1      53.013  27.901  31.634  1.00  0.00    -0.237 OA
ATOM     89  O   UNL A   1      52.817  25.445  31.820  1.00  0.00    -0.237 OA
ATOM     90  O   UNL A   1      53.395  26.473  29.658  1.00  0.00    -0.744 OA
ENDBRANCH  86  87
ENDBRANCH  60  81
ENDBRANCH  34  35
ENDBRANCH  26  29
ENDBRANCH  24  25
ENDBRANCH   1  24
TORSDOF 15
ENDMDL
MODEL 3
REMARK VINA RESULT:     -11.8      1.925      8.491
REMARK SMILES Cc1c(C)c2cc(Cl)c(O[C@@H](C)C(=O)NCCCNC(=O)c3ccc(-c4c5nc(c(-c6ccc(S(=O)(=O)[O-])cc6)c6ccc([nH]6)c(-c6ccc(S(=O)(=O)[O-])cc6)c6nc(c(-c7ccc(S(=O)(=O)[O-])cc7)c7ccc4[nH]7)C=C6)C=C5)cc3)cc2oc1=O
REMARK SMILES IDX 17 1 16 2 15 3 13 4 14 5 11 7 12 8 10 9 9 10 1 11 2 12 3 13
REMARK SMILES IDX 85 14 4 15 5 16 84 17 86 18 6 19 83 20 7 21 82 22 8 23 18 24
REMARK SMILES IDX 19 25 20 26 21 28 22 29 23 30 81 31 24 32 80 33 25 34 26 35
REMARK SMILES IDX 27 36 74 37 28 38 79 39 73 40 75 41 29 42 78 43 72 44 71 45
REMARK SMILES IDX 30 47 60 48 41 49 59 50 42 51 45 52 58 53 76 54 43 55 44 56
REMARK SMILES IDX 57 58 77 59 46 60 31 61 32 62 40 63 33 64 39 65 34 66 35 67
REMARK SMILES IDX 36 68 37 69 38 70 61 71 62 72 70 73 63 74 69 75 64 76 65 77
REMARK SMILES IDX 66 78 67 79 68 80 47 81 48 82 56 83 49 84 55 85 50 86 51 87
REMARK SMILES IDX 52 88 53 89 54 90
REMARK H PARENT 15 6 19 27 75 46 45 57
REMARK Flexibility Score: inf
ROOT
ATOM      1  C   UNL A   1      34.070  28.210  25.836  1.00  0.00     0.042 C 
ENDROOT
BRANCH   1   2
ATOM      2  C   UNL A   1      33.200  28.998  24.862  1.00  0.00     0.118 C 
BRANCH   2   3
ATOM      3  N   UNL A   1      33.703  28.897  23.506  1.00  0.00    -0.353 N 
ATOM      4  C   UNL A   1      33.690  27.895  22.586  1.00  0.00     0.260 C 
ATOM      5  O   UNL A   1      34.323  28.128  21.546  1.00  0.00    -0.271 OA
ATOM      6  H   UNL A   1      34.141  29.718  23.186  1.00  0.00     0.163 HD
BRANCH   4   7
ATOM      7  C   UNL A   1      32.887  26.561  22.716  1.00  0.00     0.258 C 
ATOM      8  C   UNL A   1      31.811  26.393  21.644  1.00  0.00     0.064 C 
BRANCH   7   9
ATOM      9  O   UNL A   1      32.580  25.924  23.954  1.00  0.00    -0.479 OA
BRANCH   9  10
ATOM     10  C   UNL A   1      33.104  24.710  24.267  1.00  0.00     0.142 A 
ATOM     11  C   UNL A   1      37.040  19.608  24.900  1.00  0.00     0.052 C 
ATOM     12  C   UNL A   1      36.200  20.846  25.003  1.00  0.00     0.038 A 
ATOM     13  C   UNL A   1      34.853  20.842  24.885  1.00  0.00    -0.030 A 
ATOM     14  C   UNL A   1      36.964  22.107  25.196  1.00  0.00     0.339 A 
ATOM     15  C   UNL A   1      34.029  19.585  24.774  1.00  0.00     0.046 C 
ATOM     16  C   UNL A   1      34.156  22.135  24.796  1.00  0.00     0.023 A 
ATOM     17  O   UNL A   1      36.227  23.255  25.427  1.00  0.00    -0.422 OA
ATOM     18  O   UNL A   1      38.191  22.145  25.196  1.00  0.00    -0.246 OA
ATOM     19  C   UNL A   1      32.836  22.285  24.357  1.00  0.00     0.036 A 
ATOM     20  C   UNL A   1      34.873  23.295  25.067  1.00  0.00     0.142 A 
ATOM     21  C   UNL A   1      32.320  23.561  24.084  1.00  0.00     0.083 A 
ATOM     22  C   UNL A   1      34.347  24.571  24.865  1.00  0.00     0.096 A 
ATOM     23  Cl  UNL A   1      30.709  23.673  23.469  1.00  0.00    -0.080 Cl
ENDBRANCH   9  10
ENDBRANCH   7   9
ENDBRANCH   4   7
ENDBRANCH   2   3
ENDBRANCH   1   2
BRANCH   1  24
ATOM     24  C   UNL A   1      33.718  28.414  27.303  1.00  0.00     0.118 C 
BRANCH  24  25
ATOM     25  N   UNL A   1      33.717  29.823  27.686  1.00  0.00    -0.352 N 
ATOM     26  C   UNL A   1      34.657  30.639  28.273  1.00  0.00     0.251 C 
ATOM     27  H   UNL A   1      32.872  30.283  27.482  1.00  0.00     0.163 HD
ATOM     28  O   UNL A   1      34.311  31.778  28.585  1.00  0.00    -0.269 OA
BRANCH  26  29
ATOM     29  C   UNL A   1      36.046  30.200  28.569  1.00  0.00     0.039 A 
ATOM     30  C   UNL A   1      36.443  29.759  29.828  1.00  0.00     0.014 A 
ATOM     31  C   UNL A   1      36.981  30.158  27.520  1.00  0.00     0.014 A 
ATOM     32  C   UNL A   1      37.782  29.470  30.086  1.00  0.00     0.010 A 
ATOM     33  C   UNL A   1      38.308  29.761  27.753  1.00  0.00     0.010 A 
ATOM     34  C   UNL A   1      38.731  29.457  29.052  1.00  0.00    -0.014 A 
BRANCH  34  35
ATOM     35  C   UNL A   1      40.111  29.001  29.367  1.00  0.00     0.031 A 
ATOM     36  C   UNL A   1      40.594  27.623  29.015  1.00  0.00     0.074 A 
ATOM     37  C   UNL A   1      40.973  29.901  29.876  1.00  0.00     0.049 A 
ATOM     38  N   UNL A   1      41.822  27.178  28.939  1.00  0.00    -0.248 NA
ATOM     39  C   UNL A   1      39.579  26.615  28.686  1.00  0.00     0.031 C 
ATOM     40  C   UNL A   1      40.620  31.271  30.257  1.00  0.00     0.029 A 
ATOM     41  N   UNL A   1      42.321  29.824  30.116  1.00  0.00    -0.354 N 
ATOM     42  C   UNL A   1      41.727  25.864  28.499  1.00  0.00     0.074 A 
ATOM     43  C   UNL A   1      40.320  25.562  28.368  1.00  0.00     0.031 C 
ATOM     44  C   UNL A   1      41.732  31.924  30.621  1.00  0.00     0.029 A 
ATOM     45  C   UNL A   1      42.867  31.008  30.552  1.00  0.00     0.049 A 
ATOM     46  H   UNL A   1      42.846  29.001  29.990  1.00  0.00     0.167 HD
ATOM     47  C   UNL A   1      42.724  24.989  28.230  1.00  0.00     0.031 A 
ATOM     48  C   UNL A   1      44.138  31.330  30.859  1.00  0.00     0.031 A 
ATOM     49  C   UNL A   1      44.116  25.264  28.472  1.00  0.00     0.049 A 
ATOM     50  C   UNL A   1      45.214  30.303  30.674  1.00  0.00     0.074 A 
ATOM     51  C   UNL A   1      45.201  24.436  28.250  1.00  0.00     0.029 A 
ATOM     52  N   UNL A   1      44.609  26.433  29.031  1.00  0.00    -0.354 N 
ATOM     53  N   UNL A   1      45.115  29.099  30.163  1.00  0.00    -0.248 NA
ATOM     54  C   UNL A   1      46.570  30.671  31.100  1.00  0.00     0.031 C 
ATOM     55  C   UNL A   1      46.338  25.068  28.760  1.00  0.00     0.029 A 
ATOM     56  C   UNL A   1      45.975  26.324  29.220  1.00  0.00     0.049 A 
ATOM     57  H   UNL A   1      44.068  27.224  29.257  1.00  0.00     0.167 HD
ATOM     58  C   UNL A   1      46.397  28.564  30.201  1.00  0.00     0.074 A 
ATOM     59  C   UNL A   1      47.259  29.585  30.765  1.00  0.00     0.031 C 
ATOM     60  C   UNL A   1      46.818  27.339  29.804  1.00  0.00     0.031 A 
BRANCH  47  61
ATOM     61  C   UNL A   1      42.366  23.640  27.663  1.00  0.00    -0.014 A 
ATOM     62  C   UNL A   1      42.116  22.556  28.525  1.00  0.00     0.010 A 
ATOM     63  C   UNL A   1      42.424  23.412  26.276  1.00  0.00     0.010 A 
ATOM     64  C   UNL A   1      41.968  21.263  28.015  1.00  0.00     0.020 A 
ATOM     65  C   UNL A   1      42.256  22.122  25.760  1.00  0.00     0.020 A 
ATOM     66  C   UNL A   1      42.053  21.053  26.636  1.00  0.00     0.054 A 
BRANCH  66  67
ATOM     67  S   UNL A   1      41.904  19.359  25.999  1.00  0.00     0.124 S 
ATOM     68  O   UNL A   1      40.476  19.263  25.709  1.00  0.00    -0.237 OA
ATOM     69  O   UNL A   1      42.787  19.380  24.835  1.00  0.00    -0.237 OA
ATOM     70  O   UNL A   1      42.373  18.535  27.110  1.00  0.00    -0.744 OA
ENDBRANCH  66  67
ENDBRANCH  47  61
BRANCH  48  71
ATOM     71  C   UNL A   1      44.424  32.704  31.356  1.00  0.00    -0.014 A 
ATOM     72  C   UNL A   1      44.274  32.998  32.726  1.00  0.00     0.010 A 
ATOM     73  C   UNL A   1      44.719  33.747  30.462  1.00  0.00     0.010 A 
ATOM     74  C   UNL A   1      44.338  34.316  33.181  1.00  0.00     0.020 A 
ATOM     75  C   UNL A   1      44.816  35.064  30.919  1.00  0.00     0.020 A 
ATOM     76  C   UNL A   1      44.589  35.344  32.270  1.00  0.00     0.054 A 
BRANCH  76  77
ATOM     77  S   UNL A   1      44.591  37.056  32.871  1.00  0.00     0.124 S 
ATOM     78  O   UNL A   1      43.758  37.721  31.871  1.00  0.00    -0.237 OA
ATOM     79  O   UNL A   1      43.999  36.929  34.200  1.00  0.00    -0.237 OA
ATOM     80  O   UNL A   1      46.004  37.421  32.852  1.00  0.00    -0.744 OA
ENDBRANCH  76  77
ENDBRANCH  48  71
BRANCH  60  81
ATOM     81  C   UNL A   1      48.273  26.996  29.984  1.00  0.00    -0.014 A 
ATOM     82  C   UNL A   1      48.720  26.470  31.210  1.00  0.00     0.010 A 
ATOM     83  C   UNL A   1      49.215  27.329  28.995  1.00  0.00     0.010 A 
ATOM     84  C   UNL A   1      50.085  26.321  31.462  1.00  0.00     0.020 A 
ATOM     85  C   UNL A   1      50.581  27.153  29.232  1.00  0.00     0.020 A 
ATOM     86  C   UNL A   1      51.007  26.676  30.474  1.00  0.00     0.054 A 
BRANCH  86  87
ATOM     87  S   UNL A   1      52.778  26.515  30.833  1.00  0.00     0.124 S 
ATOM     88  O   UNL A   1      53.102  27.830  31.378  1.00  0.00    -0.237 OA
ATOM     89  O   UNL A   1      52.814  25.410  31.789  1.00  0.00    -0.237 OA
ATOM     90  O   UNL A   1      53.366  26.217  29.528  1.00  0.00    -0.744 OA
ENDBRANCH  86  87
ENDBRANCH  60  81
ENDBRANCH  34  35
ENDBRANCH  26  29
ENDBRANCH  24  25
ENDBRANCH   1  24
TORSDOF 15
ENDMDL
