MODEL 1
REMARK VINA RESULT:     -12.2      0.000      0.000
REMARK SMILES O=C(C[NH+]1CCC(C(=O)NCCCNC(=O)c2ccc(-c3c4nc(c(-c5ccc(S(=O)(=O)[O-])cc5)c5ccc([nH]5)c(-c5ccc(S(=O)(=O)[O-])cc5)c5nc(c(-c6ccc(S(=O)(=O)[O-])cc6)c6ccc3[nH]6)C=C5)C=C4)cc2)CC1)Nc1ccccc1Oc1ccccc1
REMARK SMILES IDX 11 1 10 2 8 3 9 4 7 6 4 7 5 8 78 9 6 11 77 12 3 13 2 14 1 15
REMARK SMILES IDX 79 16 80 18 81 19 85 20 82 21 84 22 83 23 86 24 87 25 88 26
REMARK SMILES IDX 92 27 89 28 91 29 90 30 12 31 13 32 14 33 15 34 16 36 17 37
REMARK SMILES IDX 18 38 76 39 19 40 75 41 20 42 21 43 22 44 69 45 23 46 74 47
REMARK SMILES IDX 68 48 70 49 24 50 73 51 67 52 66 53 25 55 55 56 36 57 54 58
REMARK SMILES IDX 37 59 40 60 53 61 71 62 38 63 39 64 52 66 72 67 41 68 26 69
REMARK SMILES IDX 27 70 35 71 28 72 34 73 29 74 30 75 31 76 32 77 33 78 56 79
REMARK SMILES IDX 57 80 65 81 58 82 64 83 59 84 60 85 61 86 62 87 63 88 42 89
REMARK SMILES IDX 43 90 51 91 44 92 50 93 45 94 46 95 47 96 48 97 49 98
REMARK H PARENT 10 5 4 10 79 17 14 35 70 54 40 65
REMARK Flexibility Score: inf
ROOT
ATOM      1  C   UNL A   1      36.466  21.089  25.556  1.00  0.00     0.117 C 
ENDROOT
BRANCH   1   2
ATOM      2  N   UNL A   1      35.332  20.248  25.190  1.00  0.00    -0.356 N 
ATOM      3  C   UNL A   1      34.076  20.582  24.783  1.00  0.00     0.223 C 
ATOM      4  O   UNL A   1      33.275  19.675  24.550  1.00  0.00    -0.275 OA
ATOM      5  H   UNL A   1      35.503  19.280  25.248  1.00  0.00     0.163 HD
BRANCH   3   6
ATOM      6  C   UNL A   1      33.688  22.034  24.575  1.00  0.00     0.089 C 
ATOM      7  N   UNL A   1      31.367  23.566  23.771  1.00  0.00    -0.327 N 
ATOM      8  C   UNL A   1      32.557  23.602  22.915  1.00  0.00     0.263 C 
ATOM      9  C   UNL A   1      31.769  23.594  25.183  1.00  0.00     0.263 C 
ATOM     10  H   UNL A   1      30.854  22.696  23.627  1.00  0.00     0.348 HD
ATOM     11  C   UNL A   1      33.365  22.326  23.106  1.00  0.00     0.075 C 
ATOM     12  C   UNL A   1      32.611  22.407  25.595  1.00  0.00     0.075 C 
BRANCH   7  13
ATOM     13  C   UNL A   1      30.442  24.671  23.403  1.00  0.00     0.363 C 
BRANCH  13  14
ATOM     14  C   UNL A   1      30.362  25.769  24.467  1.00  0.00     0.279 C 
ATOM     15  O   UNL A   1      29.331  26.032  25.081  1.00  0.00    -0.268 OA
ATOM     16  N   UNL A   1      31.541  26.509  24.509  1.00  0.00    -0.318 N 
ATOM     17  H   UNL A   1      32.283  26.233  23.923  1.00  0.00     0.170 HD
BRANCH  16  18
ATOM     18  C   UNL A   1      31.731  27.620  25.337  1.00  0.00     0.084 A 
ATOM     19  C   UNL A   1      32.067  27.312  26.667  1.00  0.00     0.030 A 
ATOM     20  C   UNL A   1      31.597  28.957  24.936  1.00  0.00     0.150 A 
ATOM     21  C   UNL A   1      32.366  28.320  27.580  1.00  0.00     0.002 A 
ATOM     22  C   UNL A   1      31.897  29.959  25.873  1.00  0.00     0.049 A 
ATOM     23  C   UNL A   1      32.291  29.647  27.178  1.00  0.00     0.004 A 
BRANCH  20  24
ATOM     24  O   UNL A   1      31.165  29.477  23.729  1.00  0.00    -0.455 OA
BRANCH  24  25
ATOM     25  C   UNL A   1      29.845  29.771  23.502  1.00  0.00     0.127 A 
ATOM     26  C   UNL A   1      29.424  31.056  23.855  1.00  0.00     0.047 A 
ATOM     27  C   UNL A   1      28.933  28.860  22.969  1.00  0.00     0.047 A 
ATOM     28  C   UNL A   1      28.123  31.469  23.574  1.00  0.00     0.004 A 
ATOM     29  C   UNL A   1      27.629  29.278  22.681  1.00  0.00     0.004 A 
ATOM     30  C   UNL A   1      27.230  30.585  22.970  1.00  0.00     0.000 A 
ENDBRANCH  24  25
ENDBRANCH  20  24
ENDBRANCH  16  18
ENDBRANCH  13  14
ENDBRANCH   7  13
ENDBRANCH   3   6
ENDBRANCH   1   2
BRANCH   1  31
ATOM     31  C   UNL A   1      37.775  20.553  25.004  1.00  0.00     0.042 C 
BRANCH  31  32
ATOM     32  C   UNL A   1      38.970  20.873  25.882  1.00  0.00     0.118 C 
BRANCH  32  33
ATOM     33  N   UNL A   1      39.919  19.772  25.956  1.00  0.00    -0.352 N 
ATOM     34  C   UNL A   1      41.279  19.809  26.124  1.00  0.00     0.251 C 
ATOM     35  H   UNL A   1      39.529  18.871  25.875  1.00  0.00     0.163 HD
ATOM     36  O   UNL A   1      41.937  18.781  25.961  1.00  0.00    -0.269 OA
BRANCH  34  37
ATOM     37  C   UNL A   1      41.946  21.079  26.471  1.00  0.00     0.039 A 
ATOM     38  C   UNL A   1      42.247  21.983  25.452  1.00  0.00     0.014 A 
ATOM     39  C   UNL A   1      42.268  21.385  27.798  1.00  0.00     0.014 A 
ATOM     40  C   UNL A   1      42.820  23.212  25.772  1.00  0.00     0.010 A 
ATOM     41  C   UNL A   1      42.735  22.653  28.125  1.00  0.00     0.010 A 
ATOM     42  C   UNL A   1      43.033  23.575  27.115  1.00  0.00    -0.014 A 
BRANCH  42  43
ATOM     43  C   UNL A   1      43.580  24.910  27.460  1.00  0.00     0.031 A 
ATOM     44  C   UNL A   1      45.034  25.224  27.219  1.00  0.00     0.074 A 
ATOM     45  C   UNL A   1      42.761  25.838  27.998  1.00  0.00     0.049 A 
ATOM     46  N   UNL A   1      45.674  26.349  27.418  1.00  0.00    -0.248 NA
ATOM     47  C   UNL A   1      45.887  24.135  26.713  1.00  0.00     0.031 C 
ATOM     48  C   UNL A   1      41.349  25.631  28.333  1.00  0.00     0.029 A 
ATOM     49  N   UNL A   1      42.993  27.145  28.341  1.00  0.00    -0.354 N 
ATOM     50  C   UNL A   1      46.993  26.103  27.055  1.00  0.00     0.074 A 
ATOM     51  C   UNL A   1      47.082  24.707  26.696  1.00  0.00     0.031 C 
ATOM     52  C   UNL A   1      40.829  26.785  28.780  1.00  0.00     0.029 A 
ATOM     53  C   UNL A   1      41.875  27.800  28.803  1.00  0.00     0.049 A 
ATOM     54  H   UNL A   1      43.876  27.574  28.264  1.00  0.00     0.167 HD
ATOM     55  C   UNL A   1      48.031  26.970  26.992  1.00  0.00     0.031 A 
ATOM     56  C   UNL A   1      41.710  29.078  29.193  1.00  0.00     0.031 A 
ATOM     57  C   UNL A   1      47.940  28.362  27.342  1.00  0.00     0.049 A 
ATOM     58  C   UNL A   1      42.888  30.014  29.122  1.00  0.00     0.074 A 
ATOM     59  C   UNL A   1      48.925  29.332  27.282  1.00  0.00     0.029 A 
ATOM     60  N   UNL A   1      46.793  28.985  27.810  1.00  0.00    -0.354 N 
ATOM     61  N   UNL A   1      44.111  29.776  28.713  1.00  0.00    -0.248 NA
ATOM     62  C   UNL A   1      42.652  31.401  29.547  1.00  0.00     0.031 C 
ATOM     63  C   UNL A   1      48.388  30.531  27.762  1.00  0.00     0.029 A 
ATOM     64  C   UNL A   1      47.052  30.323  28.058  1.00  0.00     0.049 A 
ATOM     65  H   UNL A   1      45.924  28.543  27.947  1.00  0.00     0.167 HD
ATOM     66  C   UNL A   1      44.782  30.990  28.802  1.00  0.00     0.074 A 
ATOM     67  C   UNL A   1      43.818  31.964  29.270  1.00  0.00     0.031 C 
ATOM     68  C   UNL A   1      46.080  31.276  28.529  1.00  0.00     0.031 A 
BRANCH  55  69
ATOM     69  C   UNL A   1      49.355  26.444  26.498  1.00  0.00    -0.014 A 
ATOM     70  C   UNL A   1      49.777  26.684  25.177  1.00  0.00     0.010 A 
ATOM     71  C   UNL A   1      50.220  25.772  27.380  1.00  0.00     0.010 A 
ATOM     72  C   UNL A   1      51.030  26.248  24.742  1.00  0.00     0.020 A 
ATOM     73  C   UNL A   1      51.488  25.359  26.956  1.00  0.00     0.020 A 
ATOM     74  C   UNL A   1      51.882  25.595  25.638  1.00  0.00     0.054 A 
BRANCH  74  75
ATOM     75  S   UNL A   1      53.530  25.104  25.061  1.00  0.00     0.124 S 
ATOM     76  O   UNL A   1      53.503  23.658  25.262  1.00  0.00    -0.237 OA
ATOM     77  O   UNL A   1      53.523  25.544  23.668  1.00  0.00    -0.237 OA
ATOM     78  O   UNL A   1      54.439  25.838  25.939  1.00  0.00    -0.744 OA
ENDBRANCH  74  75
ENDBRANCH  55  69
BRANCH  56  79
ATOM     79  C   UNL A   1      40.385  29.560  29.678  1.00  0.00    -0.014 A 
ATOM     80  C   UNL A   1      39.442  30.095  28.783  1.00  0.00     0.010 A 
ATOM     81  C   UNL A   1      40.080  29.526  31.051  1.00  0.00     0.010 A 
ATOM     82  C   UNL A   1      38.244  30.639  29.256  1.00  0.00     0.020 A 
ATOM     83  C   UNL A   1      38.867  30.033  31.523  1.00  0.00     0.020 A 
ATOM     84  C   UNL A   1      37.968  30.611  30.626  1.00  0.00     0.054 A 
BRANCH  84  85
ATOM     85  S   UNL A   1      36.412  31.328  31.222  1.00  0.00     0.124 S 
ATOM     86  O   UNL A   1      36.059  30.421  32.309  1.00  0.00    -0.237 OA
ATOM     87  O   UNL A   1      36.816  32.673  31.621  1.00  0.00    -0.237 OA
ATOM     88  O   UNL A   1      35.539  31.270  30.050  1.00  0.00    -0.744 OA
ENDBRANCH  84  85
ENDBRANCH  56  79
BRANCH  68  89
ATOM     89  C   UNL A   1      46.510  32.711  28.692  1.00  0.00    -0.014 A 
ATOM     90  C   UNL A   1      46.429  33.625  27.625  1.00  0.00     0.010 A 
ATOM     91  C   UNL A   1      47.010  33.148  29.931  1.00  0.00     0.010 A 
ATOM     92  C   UNL A   1      46.909  34.929  27.776  1.00  0.00     0.020 A 
ATOM     93  C   UNL A   1      47.454  34.461  30.098  1.00  0.00     0.020 A 
ATOM     94  C   UNL A   1      47.428  35.335  29.008  1.00  0.00     0.054 A 
BRANCH  94  95
ATOM     95  S   UNL A   1      48.058  37.027  29.174  1.00  0.00     0.124 S 
ATOM     96  O   UNL A   1      46.865  37.822  28.902  1.00  0.00    -0.237 OA
ATOM     97  O   UNL A   1      48.533  37.058  30.557  1.00  0.00    -0.237 OA
ATOM     98  O   UNL A   1      49.106  37.107  28.160  1.00  0.00    -0.744 OA
ENDBRANCH  94  95
ENDBRANCH  68  89
ENDBRANCH  42  43
ENDBRANCH  34  37
ENDBRANCH  32  33
ENDBRANCH  31  32
ENDBRANCH   1  31
TORSDOF 18
ENDMDL
MODEL 2
REMARK VINA RESULT:     -12.0      5.703     11.994
REMARK SMILES O=C(C[NH+]1CCC(C(=O)NCCCNC(=O)c2ccc(-c3c4nc(c(-c5ccc(S(=O)(=O)[O-])cc5)c5ccc([nH]5)c(-c5ccc(S(=O)(=O)[O-])cc5)c5nc(c(-c6ccc(S(=O)(=O)[O-])cc6)c6ccc3[nH]6)C=C5)C=C4)cc2)CC1)Nc1ccccc1Oc1ccccc1
REMARK SMILES IDX 11 1 10 2 8 3 9 4 7 6 4 7 5 8 78 9 6 11 77 12 3 13 2 14 1 15
REMARK SMILES IDX 79 16 80 18 81 19 85 20 82 21 84 22 83 23 86 24 87 25 88 26
REMARK SMILES IDX 92 27 89 28 91 29 90 30 12 31 13 32 14 33 15 34 16 36 17 37
REMARK SMILES IDX 18 38 76 39 19 40 75 41 20 42 21 43 22 44 69 45 23 46 74 47
REMARK SMILES IDX 68 48 70 49 24 50 73 51 67 52 66 53 25 55 55 56 36 57 54 58
REMARK SMILES IDX 37 59 40 60 53 61 71 62 38 63 39 64 52 66 72 67 41 68 26 69
REMARK SMILES IDX 27 70 35 71 28 72 34 73 29 74 30 75 31 76 32 77 33 78 56 79
REMARK SMILES IDX 57 80 65 81 58 82 64 83 59 84 60 85 61 86 62 87 63 88 42 89
REMARK SMILES IDX 43 90 51 91 44 92 50 93 45 94 46 95 47 96 48 97 49 98
REMARK H PARENT 10 5 4 10 79 17 14 35 70 54 40 65
REMARK Flexibility Score: inf
ROOT
ATOM      1  C   UNL A   1      31.792  30.506  25.962  1.00  0.00     0.117 C 
ENDROOT
BRANCH   1   2
ATOM      2  N   UNL A   1      31.076  30.465  24.693  1.00  0.00    -0.356 N 
ATOM      3  C   UNL A   1      30.700  29.406  23.922  1.00  0.00     0.223 C 
ATOM      4  O   UNL A   1      30.114  29.633  22.863  1.00  0.00    -0.275 OA
ATOM      5  H   UNL A   1      30.823  31.346  24.335  1.00  0.00     0.163 HD
BRANCH   3   6
ATOM      6  C   UNL A   1      30.953  27.983  24.381  1.00  0.00     0.089 C 
ATOM      7  N   UNL A   1      30.754  25.295  23.325  1.00  0.00    -0.327 N 
ATOM      8  C   UNL A   1      29.892  25.667  24.452  1.00  0.00     0.263 C 
ATOM      9  C   UNL A   1      32.090  25.878  23.506  1.00  0.00     0.263 C 
ATOM     10  H   UNL A   1      30.381  25.674  22.454  1.00  0.00     0.348 HD
ATOM     11  C   UNL A   1      29.656  27.170  24.441  1.00  0.00     0.075 C 
ATOM     12  C   UNL A   1      32.087  27.390  23.543  1.00  0.00     0.075 C 
BRANCH   7  13
ATOM     13  C   UNL A   1      30.777  23.816  23.168  1.00  0.00     0.363 C 
BRANCH  13  14
ATOM     14  C   UNL A   1      31.813  23.131  24.064  1.00  0.00     0.279 C 
ATOM     15  O   UNL A   1      31.742  23.134  25.291  1.00  0.00    -0.268 OA
ATOM     16  N   UNL A   1      32.892  22.671  23.316  1.00  0.00    -0.318 N 
ATOM     17  H   UNL A   1      32.858  22.777  22.337  1.00  0.00     0.170 HD
BRANCH  16  18
ATOM     18  C   UNL A   1      34.022  22.065  23.875  1.00  0.00     0.084 A 
ATOM     19  C   UNL A   1      35.232  22.743  23.640  1.00  0.00     0.030 A 
ATOM     20  C   UNL A   1      34.016  20.869  24.607  1.00  0.00     0.150 A 
ATOM     21  C   UNL A   1      36.422  22.297  24.207  1.00  0.00     0.002 A 
ATOM     22  C   UNL A   1      35.229  20.433  25.166  1.00  0.00     0.049 A 
ATOM     23  C   UNL A   1      36.419  21.144  24.981  1.00  0.00     0.004 A 
BRANCH  20  24
ATOM     24  O   UNL A   1      32.977  19.990  24.853  1.00  0.00    -0.455 OA
BRANCH  24  25
ATOM     25  C   UNL A   1      33.136  18.633  24.727  1.00  0.00     0.127 A 
ATOM     26  C   UNL A   1      32.770  17.859  25.831  1.00  0.00     0.047 A 
ATOM     27  C   UNL A   1      33.651  18.020  23.584  1.00  0.00     0.047 A 
ATOM     28  C   UNL A   1      32.811  16.468  25.756  1.00  0.00     0.004 A 
ATOM     29  C   UNL A   1      33.686  16.623  23.508  1.00  0.00     0.004 A 
ATOM     30  C   UNL A   1      33.253  15.849  24.587  1.00  0.00     0.000 A 
ENDBRANCH  24  25
ENDBRANCH  20  24
ENDBRANCH  16  18
ENDBRANCH  13  14
ENDBRANCH   7  13
ENDBRANCH   3   6
ENDBRANCH   1   2
BRANCH   1  31
ATOM     31  C   UNL A   1      31.616  31.834  26.675  1.00  0.00     0.042 C 
BRANCH  31  32
ATOM     32  C   UNL A   1      32.898  32.356  27.295  1.00  0.00     0.118 C 
BRANCH  32  33
ATOM     33  N   UNL A   1      32.792  33.748  27.710  1.00  0.00    -0.352 N 
ATOM     34  C   UNL A   1      33.490  34.420  28.679  1.00  0.00     0.251 C 
ATOM     35  H   UNL A   1      32.123  34.283  27.225  1.00  0.00     0.163 HD
ATOM     36  O   UNL A   1      33.121  35.543  29.023  1.00  0.00    -0.269 OA
BRANCH  34  37
ATOM     37  C   UNL A   1      34.660  33.786  29.320  1.00  0.00     0.039 A 
ATOM     38  C   UNL A   1      35.938  34.206  28.953  1.00  0.00     0.014 A 
ATOM     39  C   UNL A   1      34.499  32.787  30.286  1.00  0.00     0.014 A 
ATOM     40  C   UNL A   1      37.049  33.661  29.594  1.00  0.00     0.010 A 
ATOM     41  C   UNL A   1      35.600  32.327  31.000  1.00  0.00     0.010 A 
ATOM     42  C   UNL A   1      36.889  32.745  30.650  1.00  0.00    -0.014 A 
BRANCH  42  43
ATOM     43  C   UNL A   1      38.069  32.216  31.379  1.00  0.00     0.031 A 
ATOM     44  C   UNL A   1      38.447  32.777  32.725  1.00  0.00     0.074 A 
ATOM     45  C   UNL A   1      38.801  31.232  30.819  1.00  0.00     0.049 A 
ATOM     46  N   UNL A   1      39.417  32.409  33.524  1.00  0.00    -0.248 NA
ATOM     47  C   UNL A   1      37.655  33.910  33.234  1.00  0.00     0.031 C 
ATOM     48  C   UNL A   1      38.569  30.650  29.493  1.00  0.00     0.029 A 
ATOM     49  N   UNL A   1      39.879  30.535  31.300  1.00  0.00    -0.354 N 
ATOM     50  C   UNL A   1      39.343  33.255  34.624  1.00  0.00     0.074 A 
ATOM     51  C   UNL A   1      38.286  34.204  34.360  1.00  0.00     0.031 C 
ATOM     52  C   UNL A   1      39.441  29.649  29.293  1.00  0.00     0.029 A 
ATOM     53  C   UNL A   1      40.318  29.544  30.452  1.00  0.00     0.049 A 
ATOM     54  H   UNL A   1      40.300  30.725  32.169  1.00  0.00     0.167 HD
ATOM     55  C   UNL A   1      40.066  33.225  35.768  1.00  0.00     0.031 A 
ATOM     56  C   UNL A   1      41.311  28.646  30.598  1.00  0.00     0.031 A 
ATOM     57  C   UNL A   1      41.114  32.275  36.033  1.00  0.00     0.049 A 
ATOM     58  C   UNL A   1      42.105  28.646  31.877  1.00  0.00     0.074 A 
ATOM     59  C   UNL A   1      41.885  32.138  37.174  1.00  0.00     0.029 A 
ATOM     60  N   UNL A   1      41.531  31.292  35.148  1.00  0.00    -0.354 N 
ATOM     61  N   UNL A   1      41.975  29.414  32.932  1.00  0.00    -0.248 NA
ATOM     62  C   UNL A   1      43.169  27.639  31.990  1.00  0.00     0.031 C 
ATOM     63  C   UNL A   1      42.804  31.106  36.959  1.00  0.00     0.029 A 
ATOM     64  C   UNL A   1      42.560  30.556  35.712  1.00  0.00     0.049 A 
ATOM     65  H   UNL A   1      41.153  31.140  34.252  1.00  0.00     0.167 HD
ATOM     66  C   UNL A   1      42.919  28.962  33.846  1.00  0.00     0.074 A 
ATOM     67  C   UNL A   1      43.587  27.834  33.231  1.00  0.00     0.031 C 
ATOM     68  C   UNL A   1      43.216  29.439  35.082  1.00  0.00     0.031 A 
BRANCH  55  69
ATOM     69  C   UNL A   1      39.732  34.234  36.837  1.00  0.00    -0.014 A 
ATOM     70  C   UNL A   1      39.019  33.852  37.989  1.00  0.00     0.010 A 
ATOM     71  C   UNL A   1      40.199  35.556  36.730  1.00  0.00     0.010 A 
ATOM     72  C   UNL A   1      38.764  34.776  39.005  1.00  0.00     0.020 A 
ATOM     73  C   UNL A   1      39.972  36.477  37.758  1.00  0.00     0.020 A 
ATOM     74  C   UNL A   1      39.250  36.081  38.886  1.00  0.00     0.054 A 
BRANCH  74  75
ATOM     75  S   UNL A   1      38.963  37.237  40.254  1.00  0.00     0.124 S 
ATOM     76  O   UNL A   1      38.139  36.439  41.157  1.00  0.00    -0.237 OA
ATOM     77  O   UNL A   1      40.318  37.517  40.723  1.00  0.00    -0.237 OA
ATOM     78  O   UNL A   1      38.281  38.363  39.621  1.00  0.00    -0.744 OA
ENDBRANCH  74  75
ENDBRANCH  55  69
BRANCH  56  79
ATOM     79  C   UNL A   1      41.613  27.666  29.516  1.00  0.00    -0.014 A 
ATOM     80  C   UNL A   1      42.746  27.823  28.697  1.00  0.00     0.010 A 
ATOM     81  C   UNL A   1      40.738  26.592  29.270  1.00  0.00     0.010 A 
ATOM     82  C   UNL A   1      42.968  26.960  27.619  1.00  0.00     0.020 A 
ATOM     83  C   UNL A   1      40.977  25.705  28.217  1.00  0.00     0.020 A 
ATOM     84  C   UNL A   1      42.077  25.910  27.382  1.00  0.00     0.054 A 
BRANCH  84  85
ATOM     85  S   UNL A   1      42.376  24.806  25.975  1.00  0.00     0.124 S 
ATOM     86  O   UNL A   1      43.759  24.397  26.201  1.00  0.00    -0.237 OA
ATOM     87  O   UNL A   1      41.367  23.769  26.166  1.00  0.00    -0.237 OA
ATOM     88  O   UNL A   1      42.161  25.668  24.814  1.00  0.00    -0.744 OA
ENDBRANCH  84  85
ENDBRANCH  56  79
BRANCH  68  89
ATOM     89  C   UNL A   1      44.280  28.707  35.858  1.00  0.00    -0.014 A 
ATOM     90  C   UNL A   1      43.959  27.626  36.699  1.00  0.00     0.010 A 
ATOM     91  C   UNL A   1      45.622  29.115  35.748  1.00  0.00     0.010 A 
ATOM     92  C   UNL A   1      44.951  27.014  37.470  1.00  0.00     0.020 A 
ATOM     93  C   UNL A   1      46.622  28.481  36.487  1.00  0.00     0.020 A 
ATOM     94  C   UNL A   1      46.274  27.453  37.366  1.00  0.00     0.054 A 
BRANCH  94  95
ATOM     95  S   UNL A   1      47.541  26.655  38.389  1.00  0.00     0.124 S 
ATOM     96  O   UNL A   1      48.373  27.789  38.778  1.00  0.00    -0.237 OA
ATOM     97  O   UNL A   1      46.754  26.054  39.464  1.00  0.00    -0.237 OA
ATOM     98  O   UNL A   1      48.171  25.702  37.479  1.00  0.00    -0.744 OA
ENDBRANCH  94  95
ENDBRANCH  68  89
ENDBRANCH  42  43
ENDBRANCH  34  37
ENDBRANCH  32  33
ENDBRANCH  31  32
ENDBRANCH   1  31
TORSDOF 18
ENDMDL
MODEL 3
REMARK VINA RESULT:     -11.7      1.396      2.445
REMARK SMILES O=C(C[NH+]1CCC(C(=O)NCCCNC(=O)c2ccc(-c3c4nc(c(-c5ccc(S(=O)(=O)[O-])cc5)c5ccc([nH]5)c(-c5ccc(S(=O)(=O)[O-])cc5)c5nc(c(-c6ccc(S(=O)(=O)[O-])cc6)c6ccc3[nH]6)C=C5)C=C4)cc2)CC1)Nc1ccccc1Oc1ccccc1
REMARK SMILES IDX 11 1 10 2 8 3 9 4 7 6 4 7 5 8 78 9 6 11 77 12 3 13 2 14 1 15
REMARK SMILES IDX 79 16 80 18 81 19 85 20 82 21 84 22 83 23 86 24 87 25 88 26
REMARK SMILES IDX 92 27 89 28 91 29 90 30 12 31 13 32 14 33 15 34 16 36 17 37
REMARK SMILES IDX 18 38 76 39 19 40 75 41 20 42 21 43 22 44 69 45 23 46 74 47
REMARK SMILES IDX 68 48 70 49 24 50 73 51 67 52 66 53 25 55 55 56 36 57 54 58
REMARK SMILES IDX 37 59 40 60 53 61 71 62 38 63 39 64 52 66 72 67 41 68 26 69
REMARK SMILES IDX 27 70 35 71 28 72 34 73 29 74 30 75 31 76 32 77 33 78 56 79
REMARK SMILES IDX 57 80 65 81 58 82 64 83 59 84 60 85 61 86 62 87 63 88 42 89
REMARK SMILES IDX 43 90 51 91 44 92 50 93 45 94 46 95 47 96 48 97 49 98
REMARK H PARENT 10 5 4 10 79 17 14 35 70 54 40 65
REMARK Flexibility Score: inf
ROOT
ATOM      1  C   UNL A   1      36.490  21.354  25.446  1.00  0.00     0.117 C 
ENDROOT
BRANCH   1   2
ATOM      2  N   UNL A   1      35.489  20.298  25.357  1.00  0.00    -0.356 N 
ATOM      3  C   UNL A   1      34.128  20.366  25.343  1.00  0.00     0.223 C 
ATOM      4  O   UNL A   1      33.490  19.314  25.283  1.00  0.00    -0.275 OA
ATOM      5  H   UNL A   1      35.857  19.387  25.297  1.00  0.00     0.163 HD
BRANCH   3   6
ATOM      6  C   UNL A   1      33.418  21.706  25.353  1.00  0.00     0.089 C 
ATOM      7  N   UNL A   1      31.003  22.874  26.443  1.00  0.00    -0.327 N 
ATOM      8  C   UNL A   1      31.138  22.784  24.985  1.00  0.00     0.263 C 
ATOM      9  C   UNL A   1      32.292  23.247  27.040  1.00  0.00     0.263 C 
ATOM     10  H   UNL A   1      30.749  21.965  26.831  1.00  0.00     0.348 HD
ATOM     11  C   UNL A   1      32.071  21.636  24.627  1.00  0.00     0.075 C 
ATOM     12  C   UNL A   1      33.389  22.237  26.787  1.00  0.00     0.075 C 
BRANCH   7  13
ATOM     13  C   UNL A   1      29.901  23.808  26.795  1.00  0.00     0.363 C 
BRANCH  13  14
ATOM     14  C   UNL A   1      30.077  25.204  26.189  1.00  0.00     0.279 C 
ATOM     15  O   UNL A   1      29.456  25.587  25.201  1.00  0.00    -0.268 OA
ATOM     16  N   UNL A   1      31.129  25.882  26.798  1.00  0.00    -0.318 N 
ATOM     17  H   UNL A   1      31.591  25.443  27.549  1.00  0.00     0.170 HD
BRANCH  16  18
ATOM     18  C   UNL A   1      31.566  27.151  26.405  1.00  0.00     0.084 A 
ATOM     19  C   UNL A   1      31.534  28.125  27.419  1.00  0.00     0.030 A 
ATOM     20  C   UNL A   1      31.997  27.492  25.114  1.00  0.00     0.150 A 
ATOM     21  C   UNL A   1      32.019  29.410  27.190  1.00  0.00     0.002 A 
ATOM     22  C   UNL A   1      32.475  28.795  24.902  1.00  0.00     0.049 A 
ATOM     23  C   UNL A   1      32.500  29.743  25.930  1.00  0.00     0.004 A 
BRANCH  20  24
ATOM     24  O   UNL A   1      31.996  26.736  23.956  1.00  0.00    -0.455 OA
BRANCH  24  25
ATOM     25  C   UNL A   1      32.959  25.791  23.711  1.00  0.00     0.127 A 
ATOM     26  C   UNL A   1      34.007  25.718  24.632  1.00  0.00     0.047 A 
ATOM     27  C   UNL A   1      32.944  24.943  22.603  1.00  0.00     0.047 A 
ATOM     28  C   UNL A   1      34.979  24.726  24.511  1.00  0.00     0.004 A 
ATOM     29  C   UNL A   1      33.916  23.944  22.486  1.00  0.00     0.004 A 
ATOM     30  C   UNL A   1      34.923  23.827  23.447  1.00  0.00     0.000 A 
ENDBRANCH  24  25
ENDBRANCH  20  24
ENDBRANCH  16  18
ENDBRANCH  13  14
ENDBRANCH   7  13
ENDBRANCH   3   6
ENDBRANCH   1   2
BRANCH   1  31
ATOM     31  C   UNL A   1      37.849  20.896  24.949  1.00  0.00     0.042 C 
BRANCH  31  32
ATOM     32  C   UNL A   1      38.957  21.094  25.966  1.00  0.00     0.118 C 
BRANCH  32  33
ATOM     33  N   UNL A   1      39.896  19.982  25.993  1.00  0.00    -0.352 N 
ATOM     34  C   UNL A   1      41.261  20.002  26.115  1.00  0.00     0.251 C 
ATOM     35  H   UNL A   1      39.494  19.087  25.912  1.00  0.00     0.163 HD
ATOM     36  O   UNL A   1      41.902  18.970  25.916  1.00  0.00    -0.269 OA
BRANCH  34  37
ATOM     37  C   UNL A   1      41.953  21.261  26.457  1.00  0.00     0.039 A 
ATOM     38  C   UNL A   1      42.261  22.159  25.435  1.00  0.00     0.014 A 
ATOM     39  C   UNL A   1      42.292  21.561  27.780  1.00  0.00     0.014 A 
ATOM     40  C   UNL A   1      42.858  23.379  25.750  1.00  0.00     0.010 A 
ATOM     41  C   UNL A   1      42.784  22.821  28.104  1.00  0.00     0.010 A 
ATOM     42  C   UNL A   1      43.089  23.737  27.091  1.00  0.00    -0.014 A 
BRANCH  42  43
ATOM     43  C   UNL A   1      43.662  25.063  27.432  1.00  0.00     0.031 A 
ATOM     44  C   UNL A   1      45.124  25.344  27.199  1.00  0.00     0.074 A 
ATOM     45  C   UNL A   1      42.860  26.011  27.958  1.00  0.00     0.049 A 
ATOM     46  N   UNL A   1      45.787  26.456  27.395  1.00  0.00    -0.248 NA
ATOM     47  C   UNL A   1      45.957  24.234  26.705  1.00  0.00     0.031 C 
ATOM     48  C   UNL A   1      41.441  25.837  28.285  1.00  0.00     0.029 A 
ATOM     49  N   UNL A   1      43.117  27.315  28.294  1.00  0.00    -0.354 N 
ATOM     50  C   UNL A   1      47.103  26.180  27.043  1.00  0.00     0.074 A 
ATOM     51  C   UNL A   1      47.164  24.780  26.693  1.00  0.00     0.031 C 
ATOM     52  C   UNL A   1      40.943  27.005  28.721  1.00  0.00     0.029 A 
ATOM     53  C   UNL A   1      42.010  27.997  28.744  1.00  0.00     0.049 A 
ATOM     54  H   UNL A   1      44.009  27.725  28.221  1.00  0.00     0.167 HD
ATOM     55  C   UNL A   1      48.160  27.024  26.981  1.00  0.00     0.031 A 
ATOM     56  C   UNL A   1      41.871  29.281  29.125  1.00  0.00     0.031 A 
ATOM     57  C   UNL A   1      48.096  28.420  27.322  1.00  0.00     0.049 A 
ATOM     58  C   UNL A   1      43.068  30.191  29.057  1.00  0.00     0.074 A 
ATOM     59  C   UNL A   1      49.102  29.368  27.263  1.00  0.00     0.029 A 
ATOM     60  N   UNL A   1      46.959  29.070  27.778  1.00  0.00    -0.354 N 
ATOM     61  N   UNL A   1      44.289  29.924  28.657  1.00  0.00    -0.248 NA
ATOM     62  C   UNL A   1      42.859  31.585  29.471  1.00  0.00     0.031 C 
ATOM     63  C   UNL A   1      48.588  30.581  27.732  1.00  0.00     0.029 A 
ATOM     64  C   UNL A   1      47.245  30.404  28.020  1.00  0.00     0.049 A 
ATOM     65  H   UNL A   1      46.081  28.647  27.912  1.00  0.00     0.167 HD
ATOM     66  C   UNL A   1      44.985  31.124  28.743  1.00  0.00     0.074 A 
ATOM     67  C   UNL A   1      44.039  32.122  29.199  1.00  0.00     0.031 C 
ATOM     68  C   UNL A   1      46.291  31.381  28.478  1.00  0.00     0.031 A 
BRANCH  55  69
ATOM     69  C   UNL A   1      49.475  26.467  26.500  1.00  0.00    -0.014 A 
ATOM     70  C   UNL A   1      49.903  26.675  25.175  1.00  0.00     0.010 A 
ATOM     71  C   UNL A   1      50.328  25.797  27.395  1.00  0.00     0.010 A 
ATOM     72  C   UNL A   1      51.149  26.209  24.750  1.00  0.00     0.020 A 
ATOM     73  C   UNL A   1      51.589  25.356  26.982  1.00  0.00     0.020 A 
ATOM     74  C   UNL A   1      51.988  25.560  25.660  1.00  0.00     0.054 A 
BRANCH  74  75
ATOM     75  S   UNL A   1      53.629  25.030  25.096  1.00  0.00     0.124 S 
ATOM     76  O   UNL A   1      54.512  25.785  25.982  1.00  0.00    -0.237 OA
ATOM     77  O   UNL A   1      53.594  23.588  25.325  1.00  0.00    -0.237 OA
ATOM     78  O   UNL A   1      53.662  25.435  23.692  1.00  0.00    -0.744 OA
ENDBRANCH  74  75
ENDBRANCH  55  69
BRANCH  56  79
ATOM     79  C   UNL A   1      40.553  29.794  29.598  1.00  0.00    -0.014 A 
ATOM     80  C   UNL A   1      40.263  29.875  30.972  1.00  0.00     0.010 A 
ATOM     81  C   UNL A   1      39.562  30.160  28.669  1.00  0.00     0.010 A 
ATOM     82  C   UNL A   1      38.990  30.258  31.407  1.00  0.00     0.020 A 
ATOM     83  C   UNL A   1      38.302  30.581  29.102  1.00  0.00     0.020 A 
ATOM     84  C   UNL A   1      38.015  30.601  30.468  1.00  0.00     0.054 A 
BRANCH  84  85
ATOM     85  S   UNL A   1      36.368  31.088  31.050  1.00  0.00     0.124 S 
ATOM     86  O   UNL A   1      35.602  31.111  29.808  1.00  0.00    -0.237 OA
ATOM     87  O   UNL A   1      36.034  30.017  31.984  1.00  0.00    -0.237 OA
ATOM     88  O   UNL A   1      36.597  32.394  31.668  1.00  0.00    -0.744 OA
ENDBRANCH  84  85
ENDBRANCH  56  79
BRANCH  68  89
ATOM     89  C   UNL A   1      46.750  32.807  28.634  1.00  0.00    -0.014 A 
ATOM     90  C   UNL A   1      47.261  33.281  29.857  1.00  0.00     0.010 A 
ATOM     91  C   UNL A   1      46.662  33.688  27.541  1.00  0.00     0.010 A 
ATOM     92  C   UNL A   1      47.606  34.627  30.002  1.00  0.00     0.020 A 
ATOM     93  C   UNL A   1      47.043  35.025  27.671  1.00  0.00     0.020 A 
ATOM     94  C   UNL A   1      47.485  35.492  28.911  1.00  0.00     0.054 A 
BRANCH  94  95
ATOM     95  S   UNL A   1      47.923  37.238  29.128  1.00  0.00     0.124 S 
ATOM     96  O   UNL A   1      49.136  37.347  28.322  1.00  0.00    -0.237 OA
ATOM     97  O   UNL A   1      46.751  37.932  28.597  1.00  0.00    -0.237 OA
ATOM     98  O   UNL A   1      48.118  37.370  30.569  1.00  0.00    -0.744 OA
ENDBRANCH  94  95
ENDBRANCH  68  89
ENDBRANCH  42  43
ENDBRANCH  34  37
ENDBRANCH  32  33
ENDBRANCH  31  32
ENDBRANCH   1  31
TORSDOF 18
ENDMDL
