MODEL 1
REMARK VINA RESULT:     -12.0      0.000      0.000
REMARK SMILES CC(C)CSc1cc2c(cc1Cl)C=C(C(=O)NCCCNC(=O)c1ccc(-c3c4nc(c(-c5ccc(S(=O)(=O)[O-])cc5)c5ccc([nH]5)c(-c5ccc(S(=O)(=O)[O-])cc5)c5nc(c(-c6ccc(S(=O)(=O)[O-])cc6)c6ccc3[nH]6)C=C5)C=C4)cc1)[C@H](C(F)(F)F)O2
REMARK SMILES IDX 19 1 18 2 17 3 15 4 16 5 14 7 6 8 7 9 11 10 8 11 10 12 12 13
REMARK SMILES IDX 9 14 89 15 13 16 84 17 5 18 4 19 2 20 1 21 3 22 85 23 86 24
REMARK SMILES IDX 87 25 88 26 20 27 21 28 22 29 23 31 24 32 25 33 83 34 26 35
REMARK SMILES IDX 82 36 27 37 28 38 29 39 76 40 30 41 81 42 75 43 77 44 31 45
REMARK SMILES IDX 80 46 74 47 73 48 32 50 62 51 43 52 61 53 44 54 47 55 60 56
REMARK SMILES IDX 78 57 45 58 46 59 59 61 79 62 48 63 33 64 34 65 42 66 35 67
REMARK SMILES IDX 41 68 36 69 37 70 38 71 39 72 40 73 63 74 64 75 72 76 65 77
REMARK SMILES IDX 71 78 66 79 67 80 68 81 69 82 70 83 49 84 50 85 58 86 51 87
REMARK SMILES IDX 57 88 52 89 53 90 54 91 55 92 56 93
REMARK H PARENT 17 6 21 30 77 49 47 60
REMARK Flexibility Score: inf
ROOT
ATOM      1  C   UNL A   1      33.932  28.329  26.000  1.00  0.00     0.042 C 
ENDROOT
BRANCH   1   2
ATOM      2  C   UNL A   1      33.064  29.012  24.954  1.00  0.00     0.118 C 
BRANCH   2   3
ATOM      3  N   UNL A   1      33.602  28.852  23.614  1.00  0.00    -0.352 N 
ATOM      4  C   UNL A   1      33.735  27.858  22.710  1.00  0.00     0.251 C 
ATOM      5  O   UNL A   1      34.234  28.203  21.633  1.00  0.00    -0.270 OA
ATOM      6  H   UNL A   1      33.968  29.699  23.272  1.00  0.00     0.163 HD
BRANCH   4   7
ATOM      7  C   UNL A   1      33.348  26.436  22.920  1.00  0.00     0.067 C 
ATOM      8  C   UNL A   1      33.029  21.721  24.694  1.00  0.00     0.030 A 
ATOM      9  C   UNL A   1      32.513  22.388  23.565  1.00  0.00     0.063 A 
ATOM     10  C   UNL A   1      33.858  22.461  25.557  1.00  0.00     0.055 A 
ATOM     11  C   UNL A   1      32.846  23.714  23.298  1.00  0.00     0.129 A 
ATOM     12  C   UNL A   1      34.291  23.750  25.204  1.00  0.00     0.033 A 
ATOM     13  Cl  UNL A   1      34.331  21.964  27.142  1.00  0.00    -0.083 Cl
ATOM     14  C   UNL A   1      33.787  24.377  24.073  1.00  0.00     0.019 A 
ATOM     15  O   UNL A   1      32.207  24.334  22.260  1.00  0.00    -0.475 OA
ATOM     16  C   UNL A   1      34.178  25.731  23.712  1.00  0.00     0.025 C 
ATOM     17  C   UNL A   1      32.085  25.782  22.425  1.00  0.00     0.314 C 
BRANCH   8  18
ATOM     18  S   UNL A   1      32.444  20.028  24.802  1.00  0.00    -0.124 SA
BRANCH  18  19
ATOM     19  C   UNL A   1      33.868  18.917  24.566  1.00  0.00     0.078 C 
BRANCH  19  20
ATOM     20  C   UNL A   1      33.788  17.810  23.498  1.00  0.00    -0.007 C 
ATOM     21  C   UNL A   1      33.795  16.365  23.994  1.00  0.00     0.008 C 
ATOM     22  C   UNL A   1      32.514  18.043  22.673  1.00  0.00     0.008 C 
ENDBRANCH  19  20
ENDBRANCH  18  19
ENDBRANCH   8  18
BRANCH  17  23
ATOM     23  C   UNL A   1      30.847  26.156  23.268  1.00  0.00     0.429 C 
ATOM     24  F   UNL A   1      29.979  25.131  23.414  1.00  0.00    -0.167 F 
ATOM     25  F   UNL A   1      31.180  26.568  24.514  1.00  0.00    -0.167 F 
ATOM     26  F   UNL A   1      30.172  27.178  22.685  1.00  0.00    -0.167 F 
ENDBRANCH  17  23
ENDBRANCH   4   7
ENDBRANCH   2   3
ENDBRANCH   1   2
BRANCH   1  27
ATOM     27  C   UNL A   1      33.480  28.637  27.420  1.00  0.00     0.118 C 
BRANCH  27  28
ATOM     28  N   UNL A   1      33.543  30.066  27.714  1.00  0.00    -0.352 N 
ATOM     29  C   UNL A   1      34.538  30.803  28.312  1.00  0.00     0.251 C 
ATOM     30  H   UNL A   1      32.750  30.582  27.442  1.00  0.00     0.163 HD
ATOM     31  O   UNL A   1      34.292  31.939  28.712  1.00  0.00    -0.269 OA
BRANCH  29  32
ATOM     32  C   UNL A   1      35.885  30.223  28.486  1.00  0.00     0.039 A 
ATOM     33  C   UNL A   1      36.258  29.671  29.710  1.00  0.00     0.014 A 
ATOM     34  C   UNL A   1      36.788  30.229  27.419  1.00  0.00     0.014 A 
ATOM     35  C   UNL A   1      37.583  29.328  29.936  1.00  0.00     0.010 A 
ATOM     36  C   UNL A   1      38.092  29.760  27.614  1.00  0.00     0.010 A 
ATOM     37  C   UNL A   1      38.515  29.353  28.888  1.00  0.00    -0.014 A 
BRANCH  37  38
ATOM     38  C   UNL A   1      39.915  28.928  29.154  1.00  0.00     0.031 A 
ATOM     39  C   UNL A   1      40.410  27.578  28.711  1.00  0.00     0.074 A 
ATOM     40  C   UNL A   1      40.756  29.797  29.756  1.00  0.00     0.049 A 
ATOM     41  N   UNL A   1      41.596  27.051  28.871  1.00  0.00    -0.248 NA
ATOM     42  C   UNL A   1      39.461  26.701  28.002  1.00  0.00     0.031 C 
ATOM     43  C   UNL A   1      40.390  31.139  30.215  1.00  0.00     0.029 A 
ATOM     44  N   UNL A   1      42.091  29.698  30.061  1.00  0.00    -0.354 N 
ATOM     45  C   UNL A   1      41.531  25.781  28.309  1.00  0.00     0.074 A 
ATOM     46  C   UNL A   1      40.182  25.601  27.825  1.00  0.00     0.031 C 
ATOM     47  C   UNL A   1      41.479  31.756  30.690  1.00  0.00     0.029 A 
ATOM     48  C   UNL A   1      42.603  30.827  30.660  1.00  0.00     0.049 A 
ATOM     49  H   UNL A   1      42.630  28.897  29.872  1.00  0.00     0.167 HD
ATOM     50  C   UNL A   1      42.515  24.861  28.197  1.00  0.00     0.031 A 
ATOM     51  C   UNL A   1      43.829  31.087  31.158  1.00  0.00     0.031 A 
ATOM     52  C   UNL A   1      43.867  25.071  28.650  1.00  0.00     0.049 A 
ATOM     53  C   UNL A   1      44.893  30.036  31.045  1.00  0.00     0.074 A 
ATOM     54  C   UNL A   1      44.943  24.207  28.544  1.00  0.00     0.029 A 
ATOM     55  N   UNL A   1      44.334  26.214  29.279  1.00  0.00    -0.354 N 
ATOM     56  N   UNL A   1      44.814  28.850  30.490  1.00  0.00    -0.248 NA
ATOM     57  C   UNL A   1      46.209  30.348  31.616  1.00  0.00     0.031 C 
ATOM     58  C   UNL A   1      46.036  24.792  29.180  1.00  0.00     0.029 A 
ATOM     59  C   UNL A   1      45.672  26.062  29.600  1.00  0.00     0.049 A 
ATOM     60  H   UNL A   1      43.794  27.016  29.471  1.00  0.00     0.167 HD
ATOM     61  C   UNL A   1      46.073  28.279  30.635  1.00  0.00     0.074 A 
ATOM     62  C   UNL A   1      46.903  29.260  31.302  1.00  0.00     0.031 C 
ATOM     63  C   UNL A   1      46.494  27.048  30.257  1.00  0.00     0.031 A 
BRANCH  50  64
ATOM     64  C   UNL A   1      42.210  23.533  27.552  1.00  0.00    -0.014 A 
ATOM     65  C   UNL A   1      41.710  22.479  28.342  1.00  0.00     0.010 A 
ATOM     66  C   UNL A   1      42.600  23.266  26.227  1.00  0.00     0.010 A 
ATOM     67  C   UNL A   1      41.671  21.174  27.846  1.00  0.00     0.020 A 
ATOM     68  C   UNL A   1      42.533  21.966  25.717  1.00  0.00     0.020 A 
ATOM     69  C   UNL A   1      42.103  20.923  26.543  1.00  0.00     0.054 A 
BRANCH  69  70
ATOM     70  S   UNL A   1      42.146  19.207  25.954  1.00  0.00     0.124 S 
ATOM     71  O   UNL A   1      43.039  19.298  24.804  1.00  0.00    -0.237 OA
ATOM     72  O   UNL A   1      42.674  18.488  27.111  1.00  0.00    -0.237 OA
ATOM     73  O   UNL A   1      40.748  18.918  25.638  1.00  0.00    -0.744 OA
ENDBRANCH  69  70
ENDBRANCH  50  64
BRANCH  51  74
ATOM     74  C   UNL A   1      44.078  32.400  31.819  1.00  0.00    -0.014 A 
ATOM     75  C   UNL A   1      43.790  32.565  33.189  1.00  0.00     0.010 A 
ATOM     76  C   UNL A   1      44.515  33.512  31.079  1.00  0.00     0.010 A 
ATOM     77  C   UNL A   1      43.866  33.824  33.788  1.00  0.00     0.020 A 
ATOM     78  C   UNL A   1      44.635  34.768  31.687  1.00  0.00     0.020 A 
ATOM     79  C   UNL A   1      44.276  34.921  33.028  1.00  0.00     0.054 A 
BRANCH  79  80
ATOM     80  S   UNL A   1      44.320  36.552  33.819  1.00  0.00     0.124 S 
ATOM     81  O   UNL A   1      42.901  36.887  33.893  1.00  0.00    -0.237 OA
ATOM     82  O   UNL A   1      44.968  36.270  35.097  1.00  0.00    -0.237 OA
ATOM     83  O   UNL A   1      45.105  37.361  32.890  1.00  0.00    -0.744 OA
ENDBRANCH  79  80
ENDBRANCH  51  74
BRANCH  63  84
ATOM     84  C   UNL A   1      47.922  26.661  30.544  1.00  0.00    -0.014 A 
ATOM     85  C   UNL A   1      48.246  26.051  31.771  1.00  0.00     0.010 A 
ATOM     86  C   UNL A   1      48.959  27.045  29.676  1.00  0.00     0.010 A 
ATOM     87  C   UNL A   1      49.579  25.877  32.148  1.00  0.00     0.020 A 
ATOM     88  C   UNL A   1      50.294  26.840  30.034  1.00  0.00     0.020 A 
ATOM     89  C   UNL A   1      50.595  26.286  31.281  1.00  0.00     0.054 A 
BRANCH  89  90
ATOM     90  S   UNL A   1      52.319  26.105  31.812  1.00  0.00     0.124 S 
ATOM     91  O   UNL A   1      53.043  26.202  30.548  1.00  0.00    -0.237 OA
ATOM     92  O   UNL A   1      52.492  27.232  32.725  1.00  0.00    -0.237 OA
ATOM     93  O   UNL A   1      52.348  24.789  32.447  1.00  0.00    -0.744 OA
ENDBRANCH  89  90
ENDBRANCH  63  84
ENDBRANCH  37  38
ENDBRANCH  29  32
ENDBRANCH  27  28
ENDBRANCH   1  27
TORSDOF 17
ENDMDL
MODEL 2
REMARK VINA RESULT:     -11.9      3.241      8.660
REMARK SMILES CC(C)CSc1cc2c(cc1Cl)C=C(C(=O)NCCCNC(=O)c1ccc(-c3c4nc(c(-c5ccc(S(=O)(=O)[O-])cc5)c5ccc([nH]5)c(-c5ccc(S(=O)(=O)[O-])cc5)c5nc(c(-c6ccc(S(=O)(=O)[O-])cc6)c6ccc3[nH]6)C=C5)C=C4)cc1)[C@H](C(F)(F)F)O2
REMARK SMILES IDX 19 1 18 2 17 3 15 4 16 5 14 7 6 8 7 9 11 10 8 11 10 12 12 13
REMARK SMILES IDX 9 14 89 15 13 16 84 17 5 18 4 19 2 20 1 21 3 22 85 23 86 24
REMARK SMILES IDX 87 25 88 26 20 27 21 28 22 29 23 31 24 32 25 33 83 34 26 35
REMARK SMILES IDX 82 36 27 37 28 38 29 39 76 40 30 41 81 42 75 43 77 44 31 45
REMARK SMILES IDX 80 46 74 47 73 48 32 50 62 51 43 52 61 53 44 54 47 55 60 56
REMARK SMILES IDX 78 57 45 58 46 59 59 61 79 62 48 63 33 64 34 65 42 66 35 67
REMARK SMILES IDX 41 68 36 69 37 70 38 71 39 72 40 73 63 74 64 75 72 76 65 77
REMARK SMILES IDX 71 78 66 79 67 80 68 81 69 82 70 83 49 84 50 85 58 86 51 87
REMARK SMILES IDX 57 88 52 89 53 90 54 91 55 92 56 93
REMARK H PARENT 17 6 21 30 77 49 47 60
REMARK Flexibility Score: inf
ROOT
ATOM      1  C   UNL A   1      35.295  22.784  26.119  1.00  0.00     0.042 C 
ENDROOT
BRANCH   1   2
ATOM      2  C   UNL A   1      34.937  21.728  25.084  1.00  0.00     0.118 C 
BRANCH   2   3
ATOM      3  N   UNL A   1      33.594  21.211  25.279  1.00  0.00    -0.352 N 
ATOM      4  C   UNL A   1      32.327  21.657  25.139  1.00  0.00     0.251 C 
ATOM      5  O   UNL A   1      31.453  20.819  25.388  1.00  0.00    -0.270 OA
ATOM      6  H   UNL A   1      33.612  20.281  25.601  1.00  0.00     0.163 HD
BRANCH   4   7
ATOM      7  C   UNL A   1      31.932  23.034  24.733  1.00  0.00     0.067 C 
ATOM      8  C   UNL A   1      31.002  27.996  24.726  1.00  0.00     0.030 A 
ATOM      9  C   UNL A   1      30.726  26.937  23.836  1.00  0.00     0.063 A 
ATOM     10  C   UNL A   1      31.657  27.672  25.928  1.00  0.00     0.055 A 
ATOM     11  C   UNL A   1      31.053  25.623  24.158  1.00  0.00     0.129 A 
ATOM     12  C   UNL A   1      31.858  26.331  26.297  1.00  0.00     0.033 A 
ATOM     13  Cl  UNL A   1      32.377  28.817  27.002  1.00  0.00    -0.083 Cl
ATOM     14  C   UNL A   1      31.555  25.305  25.412  1.00  0.00     0.019 A 
ATOM     15  O   UNL A   1      30.875  24.668  23.195  1.00  0.00    -0.475 OA
ATOM     16  C   UNL A   1      31.802  23.911  25.747  1.00  0.00     0.025 C 
ATOM     17  C   UNL A   1      31.784  23.530  23.319  1.00  0.00     0.314 C 
BRANCH   8  18
ATOM     18  S   UNL A   1      30.480  29.581  24.069  1.00  0.00    -0.124 SA
BRANCH  18  19
ATOM     19  C   UNL A   1      29.457  29.278  22.593  1.00  0.00     0.078 C 
BRANCH  19  20
ATOM     20  C   UNL A   1      27.956  29.625  22.635  1.00  0.00    -0.007 C 
ATOM     21  C   UNL A   1      27.019  28.577  23.234  1.00  0.00     0.008 C 
ATOM     22  C   UNL A   1      27.798  30.936  23.418  1.00  0.00     0.008 C 
ENDBRANCH  19  20
ENDBRANCH  18  19
ENDBRANCH   8  18
BRANCH  17  23
ATOM     23  C   UNL A   1      33.140  23.808  22.637  1.00  0.00     0.429 C 
ATOM     24  F   UNL A   1      33.768  22.683  22.231  1.00  0.00    -0.167 F 
ATOM     25  F   UNL A   1      33.013  24.601  21.546  1.00  0.00    -0.167 F 
ATOM     26  F   UNL A   1      33.974  24.452  23.492  1.00  0.00    -0.167 F 
ENDBRANCH  17  23
ENDBRANCH   4   7
ENDBRANCH   2   3
ENDBRANCH   1   2
BRANCH   1  27
ATOM     27  C   UNL A   1      36.602  23.494  25.796  1.00  0.00     0.118 C 
BRANCH  27  28
ATOM     28  N   UNL A   1      37.757  22.621  25.982  1.00  0.00    -0.352 N 
ATOM     29  C   UNL A   1      39.039  22.921  26.377  1.00  0.00     0.251 C 
ATOM     30  H   UNL A   1      37.593  21.668  25.795  1.00  0.00     0.163 HD
ATOM     31  O   UNL A   1      39.933  22.094  26.214  1.00  0.00    -0.269 OA
BRANCH  29  32
ATOM     32  C   UNL A   1      39.338  24.238  26.977  1.00  0.00     0.039 A 
ATOM     33  C   UNL A   1      39.979  25.221  26.224  1.00  0.00     0.014 A 
ATOM     34  C   UNL A   1      38.979  24.496  28.302  1.00  0.00     0.014 A 
ATOM     35  C   UNL A   1      40.451  26.367  26.848  1.00  0.00     0.010 A 
ATOM     36  C   UNL A   1      39.343  25.711  28.894  1.00  0.00     0.010 A 
ATOM     37  C   UNL A   1      40.127  26.635  28.186  1.00  0.00    -0.014 A 
BRANCH  37  38
ATOM     38  C   UNL A   1      40.606  27.899  28.807  1.00  0.00     0.031 A 
ATOM     39  C   UNL A   1      42.040  28.052  29.238  1.00  0.00     0.074 A 
ATOM     40  C   UNL A   1      39.745  28.931  28.931  1.00  0.00     0.049 A 
ATOM     41  N   UNL A   1      42.616  29.082  29.802  1.00  0.00    -0.248 NA
ATOM     42  C   UNL A   1      42.946  26.912  29.016  1.00  0.00     0.031 C 
ATOM     43  C   UNL A   1      38.334  28.901  28.534  1.00  0.00     0.029 A 
ATOM     44  N   UNL A   1      39.926  30.209  29.399  1.00  0.00    -0.354 N 
ATOM     45  C   UNL A   1      43.937  28.709  30.023  1.00  0.00     0.074 A 
ATOM     46  C   UNL A   1      44.076  27.348  29.557  1.00  0.00     0.031 C 
ATOM     47  C   UNL A   1      37.797  30.113  28.721  1.00  0.00     0.029 A 
ATOM     48  C   UNL A   1      38.790  30.984  29.339  1.00  0.00     0.049 A 
ATOM     49  H   UNL A   1      40.786  30.540  29.745  1.00  0.00     0.167 HD
ATOM     50  C   UNL A   1      44.940  29.445  30.551  1.00  0.00     0.031 A 
ATOM     51  C   UNL A   1      38.554  32.244  29.757  1.00  0.00     0.031 A 
ATOM     52  C   UNL A   1      44.795  30.815  30.974  1.00  0.00     0.049 A 
ATOM     53  C   UNL A   1      39.679  33.026  30.367  1.00  0.00     0.074 A 
ATOM     54  C   UNL A   1      45.769  31.653  31.488  1.00  0.00     0.029 A 
ATOM     55  N   UNL A   1      43.621  31.549  30.926  1.00  0.00    -0.354 N 
ATOM     56  N   UNL A   1      40.926  32.660  30.546  1.00  0.00    -0.248 NA
ATOM     57  C   UNL A   1      39.379  34.388  30.827  1.00  0.00     0.031 C 
ATOM     58  C   UNL A   1      45.168  32.864  31.826  1.00  0.00     0.029 A 
ATOM     59  C   UNL A   1      43.838  32.818  31.437  1.00  0.00     0.049 A 
ATOM     60  H   UNL A   1      42.760  31.218  30.581  1.00  0.00     0.167 HD
ATOM     61  C   UNL A   1      41.561  33.750  31.129  1.00  0.00     0.074 A 
ATOM     62  C   UNL A   1      40.570  34.799  31.245  1.00  0.00     0.031 C 
ATOM     63  C   UNL A   1      42.847  33.861  31.541  1.00  0.00     0.031 A 
BRANCH  50  64
ATOM     64  C   UNL A   1      46.306  28.824  30.707  1.00  0.00    -0.014 A 
ATOM     65  C   UNL A   1      47.212  28.868  29.629  1.00  0.00     0.010 A 
ATOM     66  C   UNL A   1      46.617  28.034  31.828  1.00  0.00     0.010 A 
ATOM     67  C   UNL A   1      48.366  28.082  29.637  1.00  0.00     0.020 A 
ATOM     68  C   UNL A   1      47.788  27.270  31.853  1.00  0.00     0.020 A 
ATOM     69  C   UNL A   1      48.635  27.271  30.741  1.00  0.00     0.054 A 
BRANCH  69  70
ATOM     70  S   UNL A   1      50.083  26.177  30.687  1.00  0.00     0.124 S 
ATOM     71  O   UNL A   1      51.123  27.014  31.275  1.00  0.00    -0.237 OA
ATOM     72  O   UNL A   1      49.652  25.041  31.497  1.00  0.00    -0.237 OA
ATOM     73  O   UNL A   1      50.242  25.890  29.262  1.00  0.00    -0.744 OA
ENDBRANCH  69  70
ENDBRANCH  50  64
BRANCH  51  74
ATOM     74  C   UNL A   1      37.180  32.807  29.616  1.00  0.00    -0.014 A 
ATOM     75  C   UNL A   1      36.765  33.350  28.384  1.00  0.00     0.010 A 
ATOM     76  C   UNL A   1      36.313  32.888  30.719  1.00  0.00     0.010 A 
ATOM     77  C   UNL A   1      35.547  34.023  28.273  1.00  0.00     0.020 A 
ATOM     78  C   UNL A   1      35.071  33.524  30.602  1.00  0.00     0.020 A 
ATOM     79  C   UNL A   1      34.712  34.116  29.388  1.00  0.00     0.054 A 
BRANCH  79  80
ATOM     80  S   UNL A   1      33.157  35.036  29.231  1.00  0.00     0.124 S 
ATOM     81  O   UNL A   1      32.630  34.966  30.591  1.00  0.00    -0.237 OA
ATOM     82  O   UNL A   1      33.609  36.355  28.797  1.00  0.00    -0.237 OA
ATOM     83  O   UNL A   1      32.411  34.276  28.231  1.00  0.00    -0.744 OA
ENDBRANCH  79  80
ENDBRANCH  51  74
BRANCH  63  84
ATOM     84  C   UNL A   1      43.290  35.161  32.161  1.00  0.00    -0.014 A 
ATOM     85  C   UNL A   1      43.030  35.407  33.523  1.00  0.00     0.010 A 
ATOM     86  C   UNL A   1      43.814  36.195  31.367  1.00  0.00     0.010 A 
ATOM     87  C   UNL A   1      43.236  36.676  34.067  1.00  0.00     0.020 A 
ATOM     88  C   UNL A   1      44.056  37.457  31.916  1.00  0.00     0.020 A 
ATOM     89  C   UNL A   1      43.737  37.697  33.255  1.00  0.00     0.054 A 
BRANCH  89  90
ATOM     90  S   UNL A   1      43.944  39.352  33.965  1.00  0.00     0.124 S 
ATOM     91  O   UNL A   1      45.120  39.847  33.256  1.00  0.00    -0.237 OA
ATOM     92  O   UNL A   1      42.682  40.006  33.626  1.00  0.00    -0.237 OA
ATOM     93  O   UNL A   1      44.138  39.094  35.391  1.00  0.00    -0.744 OA
ENDBRANCH  89  90
ENDBRANCH  63  84
ENDBRANCH  37  38
ENDBRANCH  29  32
ENDBRANCH  27  28
ENDBRANCH   1  27
TORSDOF 17
ENDMDL
MODEL 3
REMARK VINA RESULT:     -11.8      3.258      9.448
REMARK SMILES CC(C)CSc1cc2c(cc1Cl)C=C(C(=O)NCCCNC(=O)c1ccc(-c3c4nc(c(-c5ccc(S(=O)(=O)[O-])cc5)c5ccc([nH]5)c(-c5ccc(S(=O)(=O)[O-])cc5)c5nc(c(-c6ccc(S(=O)(=O)[O-])cc6)c6ccc3[nH]6)C=C5)C=C4)cc1)[C@H](C(F)(F)F)O2
REMARK SMILES IDX 19 1 18 2 17 3 15 4 16 5 14 7 6 8 7 9 11 10 8 11 10 12 12 13
REMARK SMILES IDX 9 14 89 15 13 16 84 17 5 18 4 19 2 20 1 21 3 22 85 23 86 24
REMARK SMILES IDX 87 25 88 26 20 27 21 28 22 29 23 31 24 32 25 33 83 34 26 35
REMARK SMILES IDX 82 36 27 37 28 38 29 39 76 40 30 41 81 42 75 43 77 44 31 45
REMARK SMILES IDX 80 46 74 47 73 48 32 50 62 51 43 52 61 53 44 54 47 55 60 56
REMARK SMILES IDX 78 57 45 58 46 59 59 61 79 62 48 63 33 64 34 65 42 66 35 67
REMARK SMILES IDX 41 68 36 69 37 70 38 71 39 72 40 73 63 74 64 75 72 76 65 77
REMARK SMILES IDX 71 78 66 79 67 80 68 81 69 82 70 83 49 84 50 85 58 86 51 87
REMARK SMILES IDX 57 88 52 89 53 90 54 91 55 92 56 93
REMARK H PARENT 17 6 21 30 77 49 47 60
REMARK Flexibility Score: inf
ROOT
ATOM      1  C   UNL A   1      35.571  22.512  25.951  1.00  0.00     0.042 C 
ENDROOT
BRANCH   1   2
ATOM      2  C   UNL A   1      34.984  21.724  24.790  1.00  0.00     0.118 C 
BRANCH   2   3
ATOM      3  N   UNL A   1      33.660  21.211  25.096  1.00  0.00    -0.352 N 
ATOM      4  C   UNL A   1      32.388  21.662  25.068  1.00  0.00     0.251 C 
ATOM      5  O   UNL A   1      31.535  20.826  25.385  1.00  0.00    -0.270 OA
ATOM      6  H   UNL A   1      33.702  20.278  25.410  1.00  0.00     0.163 HD
BRANCH   4   7
ATOM      7  C   UNL A   1      31.965  23.043  24.705  1.00  0.00     0.067 C 
ATOM      8  C   UNL A   1      31.141  28.023  24.768  1.00  0.00     0.030 A 
ATOM      9  C   UNL A   1      30.719  26.962  23.941  1.00  0.00     0.063 A 
ATOM     10  C   UNL A   1      31.956  27.697  25.867  1.00  0.00     0.055 A 
ATOM     11  C   UNL A   1      31.064  25.644  24.229  1.00  0.00     0.129 A 
ATOM     12  C   UNL A   1      32.182  26.356  26.221  1.00  0.00     0.033 A 
ATOM     13  Cl  UNL A   1      32.846  28.837  26.812  1.00  0.00    -0.083 Cl
ATOM     14  C   UNL A   1      31.735  25.328  25.402  1.00  0.00     0.019 A 
ATOM     15  O   UNL A   1      30.730  24.684  23.314  1.00  0.00    -0.475 OA
ATOM     16  C   UNL A   1      32.000  23.933  25.716  1.00  0.00     0.025 C 
ATOM     17  C   UNL A   1      31.624  23.527  23.321  1.00  0.00     0.314 C 
BRANCH   8  18
ATOM     18  S   UNL A   1      30.561  29.613  24.173  1.00  0.00    -0.124 SA
BRANCH  18  19
ATOM     19  C   UNL A   1      29.775  29.361  22.549  1.00  0.00     0.078 C 
BRANCH  19  20
ATOM     20  C   UNL A   1      28.334  29.858  22.326  1.00  0.00    -0.007 C 
ATOM     21  C   UNL A   1      27.690  30.650  23.464  1.00  0.00     0.008 C 
ATOM     22  C   UNL A   1      28.325  30.721  21.056  1.00  0.00     0.008 C 
ENDBRANCH  19  20
ENDBRANCH  18  19
ENDBRANCH   8  18
BRANCH  17  23
ATOM     23  C   UNL A   1      32.874  23.771  22.446  1.00  0.00     0.429 C 
ATOM     24  F   UNL A   1      32.662  24.673  21.464  1.00  0.00    -0.167 F 
ATOM     25  F   UNL A   1      33.926  24.220  23.170  1.00  0.00    -0.167 F 
ATOM     26  F   UNL A   1      33.268  22.614  21.858  1.00  0.00    -0.167 F 
ENDBRANCH  17  23
ENDBRANCH   4   7
ENDBRANCH   2   3
ENDBRANCH   1   2
BRANCH   1  27
ATOM     27  C   UNL A   1      36.871  23.211  25.582  1.00  0.00     0.118 C 
BRANCH  27  28
ATOM     28  N   UNL A   1      38.035  22.369  25.846  1.00  0.00    -0.352 N 
ATOM     29  C   UNL A   1      39.293  22.711  26.284  1.00  0.00     0.251 C 
ATOM     30  H   UNL A   1      37.899  21.407  25.685  1.00  0.00     0.163 HD
ATOM     31  O   UNL A   1      40.209  21.898  26.187  1.00  0.00    -0.269 OA
BRANCH  29  32
ATOM     32  C   UNL A   1      39.539  24.053  26.850  1.00  0.00     0.039 A 
ATOM     33  C   UNL A   1      40.135  25.043  26.071  1.00  0.00     0.014 A 
ATOM     34  C   UNL A   1      39.174  24.329  28.171  1.00  0.00     0.014 A 
ATOM     35  C   UNL A   1      40.561  26.223  26.664  1.00  0.00     0.010 A 
ATOM     36  C   UNL A   1      39.489  25.572  28.731  1.00  0.00     0.010 A 
ATOM     37  C   UNL A   1      40.231  26.510  27.997  1.00  0.00    -0.014 A 
BRANCH  37  38
ATOM     38  C   UNL A   1      40.659  27.807  28.585  1.00  0.00     0.031 A 
ATOM     39  C   UNL A   1      39.674  28.929  28.780  1.00  0.00     0.074 A 
ATOM     40  C   UNL A   1      41.938  27.947  28.994  1.00  0.00     0.049 A 
ATOM     41  N   UNL A   1      39.885  30.123  29.269  1.00  0.00    -0.248 NA
ATOM     42  C   UNL A   1      38.278  28.691  28.373  1.00  0.00     0.031 C 
ATOM     43  C   UNL A   1      42.977  26.920  28.869  1.00  0.00     0.029 A 
ATOM     44  N   UNL A   1      42.579  28.989  29.617  1.00  0.00    -0.354 N 
ATOM     45  C   UNL A   1      38.664  30.784  29.208  1.00  0.00     0.074 A 
ATOM     46  C   UNL A   1      37.718  29.870  28.610  1.00  0.00     0.031 C 
ATOM     47  C   UNL A   1      44.103  27.359  29.446  1.00  0.00     0.029 A 
ATOM     48  C   UNL A   1      43.902  28.732  29.897  1.00  0.00     0.049 A 
ATOM     49  H   UNL A   1      42.137  29.839  29.840  1.00  0.00     0.167 HD
ATOM     50  C   UNL A   1      38.363  32.033  29.629  1.00  0.00     0.031 A 
ATOM     51  C   UNL A   1      44.863  29.513  30.431  1.00  0.00     0.031 A 
ATOM     52  C   UNL A   1      39.309  32.918  30.260  1.00  0.00     0.049 A 
ATOM     53  C   UNL A   1      44.506  30.905  30.862  1.00  0.00     0.074 A 
ATOM     54  C   UNL A   1      39.083  34.191  30.754  1.00  0.00     0.029 A 
ATOM     55  N   UNL A   1      40.644  32.631  30.495  1.00  0.00    -0.354 N 
ATOM     56  N   UNL A   1      43.339  31.501  30.815  1.00  0.00    -0.248 NA
ATOM     57  C   UNL A   1      45.583  31.732  31.422  1.00  0.00     0.031 C 
ATOM     58  C   UNL A   1      40.295  34.703  31.211  1.00  0.00     0.029 A 
ATOM     59  C   UNL A   1      41.261  33.716  31.092  1.00  0.00     0.049 A 
ATOM     60  H   UNL A   1      41.088  31.780  30.269  1.00  0.00     0.167 HD
ATOM     61  C   UNL A   1      43.538  32.769  31.348  1.00  0.00     0.074 A 
ATOM     62  C   UNL A   1      44.930  32.843  31.740  1.00  0.00     0.031 C 
ATOM     63  C   UNL A   1      42.647  33.780  31.487  1.00  0.00     0.031 A 
BRANCH  50  64
ATOM     64  C   UNL A   1      36.958  32.551  29.451  1.00  0.00    -0.014 A 
ATOM     65  C   UNL A   1      36.584  33.129  28.222  1.00  0.00     0.010 A 
ATOM     66  C   UNL A   1      36.079  32.647  30.545  1.00  0.00     0.010 A 
ATOM     67  C   UNL A   1      35.395  33.853  28.108  1.00  0.00     0.020 A 
ATOM     68  C   UNL A   1      34.872  33.345  30.426  1.00  0.00     0.020 A 
ATOM     69  C   UNL A   1      34.557  33.974  29.218  1.00  0.00     0.054 A 
BRANCH  69  70
ATOM     70  S   UNL A   1      33.072  35.008  29.080  1.00  0.00     0.124 S 
ATOM     71  O   UNL A   1      33.630  36.299  28.695  1.00  0.00    -0.237 OA
ATOM     72  O   UNL A   1      32.301  34.318  28.048  1.00  0.00    -0.237 OA
ATOM     73  O   UNL A   1      32.490  34.953  30.420  1.00  0.00    -0.744 OA
ENDBRANCH  69  70
ENDBRANCH  50  64
BRANCH  51  74
ATOM     74  C   UNL A   1      46.248  28.973  30.557  1.00  0.00    -0.014 A 
ATOM     75  C   UNL A   1      46.653  28.348  31.753  1.00  0.00     0.010 A 
ATOM     76  C   UNL A   1      47.192  29.153  29.532  1.00  0.00     0.010 A 
ATOM     77  C   UNL A   1      47.985  27.979  31.951  1.00  0.00     0.020 A 
ATOM     78  C   UNL A   1      48.519  28.745  29.709  1.00  0.00     0.020 A 
ATOM     79  C   UNL A   1      48.913  28.192  30.930  1.00  0.00     0.054 A 
BRANCH  79  80
ATOM     80  S   UNL A   1      50.645  27.747  31.229  1.00  0.00     0.124 S 
ATOM     81  O   UNL A   1      51.033  27.173  29.943  1.00  0.00    -0.237 OA
ATOM     82  O   UNL A   1      51.254  29.034  31.553  1.00  0.00    -0.237 OA
ATOM     83  O   UNL A   1      50.569  26.800  32.338  1.00  0.00    -0.744 OA
ENDBRANCH  79  80
ENDBRANCH  51  74
BRANCH  63  84
ATOM     84  C   UNL A   1      43.124  35.075  32.091  1.00  0.00    -0.014 A 
ATOM     85  C   UNL A   1      42.842  35.361  33.441  1.00  0.00     0.010 A 
ATOM     86  C   UNL A   1      43.706  36.071  31.288  1.00  0.00     0.010 A 
ATOM     87  C   UNL A   1      43.084  36.632  33.963  1.00  0.00     0.020 A 
ATOM     88  C   UNL A   1      43.983  37.335  31.817  1.00  0.00     0.020 A 
ATOM     89  C   UNL A   1      43.642  37.616  33.142  1.00  0.00     0.054 A 
BRANCH  89  90
ATOM     90  S   UNL A   1      43.896  39.277  33.822  1.00  0.00     0.124 S 
ATOM     91  O   UNL A   1      42.627  39.932  33.519  1.00  0.00    -0.237 OA
ATOM     92  O   UNL A   1      44.144  39.010  35.237  1.00  0.00    -0.237 OA
ATOM     93  O   UNL A   1      45.050  39.780  33.081  1.00  0.00    -0.744 OA
ENDBRANCH  89  90
ENDBRANCH  63  84
ENDBRANCH  37  38
ENDBRANCH  29  32
ENDBRANCH  27  28
ENDBRANCH   1  27
TORSDOF 17
ENDMDL
