MODEL 1
REMARK VINA RESULT:     -14.4      0.000      0.000
REMARK SMILES C[C@H]1[C@H](C)CC[C@@]2(C(=O)NCCCNC(=O)c3ccc(-c4c5nc(c(-c6ccc(S(=O)(=O)[O-])cc6)c6ccc([nH]6)c(-c6ccc(S(=O)(=O)[O-])cc6)c6nc(c(-c7ccc(S(=O)(=O)[O-])cc7)c7ccc4[nH]7)C=C6)C=C5)cc3)CC[C@@]3(C)C(=CC[C@@H]4[C@@]5(C)CC[C@H](O)C(C)(C)[C@@H]5CC[C@]43C)[C@H]12
REMARK SMILES IDX 13 1 12 2 11 3 10 4 8 5 9 6 7 8 1 9 2 10 3 11 99 12 4 13
REMARK SMILES IDX 5 14 81 15 6 16 77 17 79 18 82 19 78 20 80 21 97 22 83 23
REMARK SMILES IDX 84 24 96 25 98 26 85 27 95 28 86 29 87 30 94 31 88 32 91 33
REMARK SMILES IDX 89 34 92 35 93 36 90 37 14 39 15 40 16 42 17 43 18 44 76 45
REMARK SMILES IDX 19 46 75 47 20 48 21 49 22 50 69 51 23 52 74 53 68 54 70 55
REMARK SMILES IDX 24 56 73 57 67 58 66 59 25 61 55 62 36 63 54 64 37 65 40 66
REMARK SMILES IDX 53 67 71 68 38 69 39 70 52 72 72 73 41 74 26 75 27 76 35 77
REMARK SMILES IDX 28 78 34 79 29 80 30 81 31 82 32 83 33 84 56 85 57 86 65 87
REMARK SMILES IDX 58 88 64 89 59 90 60 91 61 92 62 93 63 94 42 95 43 96 51 97
REMARK SMILES IDX 44 98 50 99 45 100 46 101 47 102 48 103 49 104
REMARK H PARENT 10 7 90 38 14 41 70 60 40 71
REMARK Flexibility Score: inf
ROOT
ATOM      1  C   UNL A   1      38.891  23.559  26.693  1.00  0.00     0.118 C 
ENDROOT
BRANCH   1   2
ATOM      2  C   UNL A   1      37.876  23.696  25.559  1.00  0.00     0.042 C 
BRANCH   2   3
ATOM      3  C   UNL A   1      36.470  24.031  26.053  1.00  0.00     0.117 C 
BRANCH   3   4
ATOM      4  N   UNL A   1      35.780  22.913  26.670  1.00  0.00    -0.356 N 
ATOM      5  C   UNL A   1      35.078  21.859  26.173  1.00  0.00     0.226 C 
ATOM      6  O   UNL A   1      34.273  21.388  26.989  1.00  0.00    -0.274 OA
ATOM      7  H   UNL A   1      35.830  22.919  27.653  1.00  0.00     0.163 HD
BRANCH   5   8
ATOM      8  C   UNL A   1      35.248  21.214  24.745  1.00  0.00     0.056 C 
ATOM      9  C   UNL A   1      32.149  18.877  23.941  1.00  0.00     0.008 C 
ATOM     10  C   UNL A   1      33.438  19.350  24.643  1.00  0.00    -0.003 C 
ATOM     11  C   UNL A   1      34.553  18.273  24.464  1.00  0.00    -0.011 C 
ATOM     12  C   UNL A   1      33.916  20.721  24.105  1.00  0.00     0.034 C 
ATOM     13  C   UNL A   1      34.205  16.945  25.159  1.00  0.00     0.008 C 
ATOM     14  C   UNL A   1      35.967  18.684  24.907  1.00  0.00     0.005 C 
ATOM     15  C   UNL A   1      32.965  21.931  24.157  1.00  0.00    -0.063 C 
ATOM     16  C   UNL A   1      36.360  20.145  24.741  1.00  0.00     0.018 C 
ATOM     17  C   UNL A   1      35.768  22.350  23.771  1.00  0.00     0.018 C 
ATOM     18  C   UNL A   1      33.298  23.089  23.174  1.00  0.00    -0.006 C 
ATOM     19  C   UNL A   1      32.082  22.079  25.165  1.00  0.00    -0.027 C 
ATOM     20  C   UNL A   1      34.789  23.491  23.430  1.00  0.00     0.013 C 
ATOM     21  C   UNL A   1      33.192  22.584  21.710  1.00  0.00     0.017 C 
ATOM     22  C   UNL A   1      32.293  24.359  23.386  1.00  0.00    -0.020 C 
ATOM     23  C   UNL A   1      31.476  23.391  25.577  1.00  0.00     0.032 C 
ATOM     24  C   UNL A   1      32.206  24.599  24.940  1.00  0.00     0.006 C 
ATOM     25  C   UNL A   1      32.790  25.633  22.651  1.00  0.00     0.008 C 
ATOM     26  C   UNL A   1      30.889  24.042  22.781  1.00  0.00     0.012 C 
ATOM     27  C   UNL A   1      31.766  26.025  25.484  1.00  0.00    -0.025 C 
ATOM     28  C   UNL A   1      32.070  26.910  23.095  1.00  0.00     0.005 C 
ATOM     29  C   UNL A   1      30.235  26.083  25.653  1.00  0.00     0.012 C 
ATOM     30  C   UNL A   1      32.424  26.227  26.890  1.00  0.00     0.010 C 
ATOM     31  C   UNL A   1      32.362  27.166  24.579  1.00  0.00     0.003 C 
ATOM     32  C   UNL A   1      32.231  27.625  27.477  1.00  0.00     0.033 C 
ATOM     33  C   UNL A   1      32.114  28.641  25.077  1.00  0.00    -0.006 C 
ATOM     34  C   UNL A   1      32.662  28.750  26.532  1.00  0.00     0.120 C 
ATOM     35  C   UNL A   1      30.649  29.118  24.971  1.00  0.00     0.014 C 
ATOM     36  C   UNL A   1      32.930  29.641  24.208  1.00  0.00     0.014 C 
BRANCH  34  37
ATOM     37  O   UNL A   1      32.320  30.008  27.118  1.00  0.00    -0.393 OA
ATOM     38  H   UNL A   1      31.898  30.571  26.450  1.00  0.00     0.210 HD
ENDBRANCH  34  37
ENDBRANCH   5   8
ENDBRANCH   3   4
ENDBRANCH   2   3
ENDBRANCH   1   2
BRANCH   1  39
ATOM     39  N   UNL A   1      40.287  23.743  26.297  1.00  0.00    -0.352 N 
ATOM     40  C   UNL A   1      41.228  24.699  26.609  1.00  0.00     0.251 C 
ATOM     41  H   UNL A   1      40.620  23.046  25.687  1.00  0.00     0.163 HD
ATOM     42  O   UNL A   1      42.342  24.625  26.090  1.00  0.00    -0.269 OA
BRANCH  40  43
ATOM     43  C   UNL A   1      40.909  25.850  27.488  1.00  0.00     0.039 A 
ATOM     44  C   UNL A   1      39.940  25.694  28.486  1.00  0.00     0.014 A 
ATOM     45  C   UNL A   1      41.552  27.074  27.358  1.00  0.00     0.014 A 
ATOM     46  C   UNL A   1      39.723  26.713  29.420  1.00  0.00     0.010 A 
ATOM     47  C   UNL A   1      41.436  28.031  28.360  1.00  0.00     0.010 A 
ATOM     48  C   UNL A   1      40.530  27.861  29.415  1.00  0.00    -0.014 A 
BRANCH  48  49
ATOM     49  C   UNL A   1      40.475  28.888  30.495  1.00  0.00     0.031 A 
ATOM     50  C   UNL A   1      41.383  28.777  31.696  1.00  0.00     0.074 A 
ATOM     51  C   UNL A   1      39.520  29.843  30.466  1.00  0.00     0.049 A 
ATOM     52  N   UNL A   1      41.348  29.438  32.825  1.00  0.00    -0.248 NA
ATOM     53  C   UNL A   1      42.434  27.747  31.641  1.00  0.00     0.031 C 
ATOM     54  C   UNL A   1      38.530  30.029  29.399  1.00  0.00     0.029 A 
ATOM     55  N   UNL A   1      39.213  30.831  31.369  1.00  0.00    -0.354 N 
ATOM     56  C   UNL A   1      42.327  28.865  33.630  1.00  0.00     0.074 A 
ATOM     57  C   UNL A   1      42.901  27.771  32.881  1.00  0.00     0.031 C 
ATOM     58  C   UNL A   1      37.760  31.089  29.689  1.00  0.00     0.029 A 
ATOM     59  C   UNL A   1      38.156  31.625  30.985  1.00  0.00     0.049 A 
ATOM     60  H   UNL A   1      39.704  30.961  32.212  1.00  0.00     0.167 HD
ATOM     61  C   UNL A   1      42.731  29.230  34.872  1.00  0.00     0.031 A 
ATOM     62  C   UNL A   1      37.562  32.662  31.608  1.00  0.00     0.031 A 
ATOM     63  C   UNL A   1      42.204  30.363  35.585  1.00  0.00     0.049 A 
ATOM     64  C   UNL A   1      38.070  33.091  32.956  1.00  0.00     0.074 A 
ATOM     65  C   UNL A   1      42.604  30.871  36.809  1.00  0.00     0.029 A 
ATOM     66  N   UNL A   1      41.179  31.176  35.128  1.00  0.00    -0.354 N 
ATOM     67  N   UNL A   1      39.028  32.564  33.680  1.00  0.00    -0.248 NA
ATOM     68  C   UNL A   1      37.422  34.259  33.569  1.00  0.00     0.031 C 
ATOM     69  C   UNL A   1      41.798  31.976  37.105  1.00  0.00     0.029 A 
ATOM     70  C   UNL A   1      40.929  32.182  36.046  1.00  0.00     0.049 A 
ATOM     71  H   UNL A   1      40.699  31.057  34.276  1.00  0.00     0.167 HD
ATOM     72  C   UNL A   1      39.117  33.352  34.821  1.00  0.00     0.074 A 
ATOM     73  C   UNL A   1      38.125  34.399  34.685  1.00  0.00     0.031 C 
ATOM     74  C   UNL A   1      39.946  33.222  35.886  1.00  0.00     0.031 A 
BRANCH  61  75
ATOM     75  C   UNL A   1      43.807  28.401  35.526  1.00  0.00    -0.014 A 
ATOM     76  C   UNL A   1      45.169  28.661  35.289  1.00  0.00     0.010 A 
ATOM     77  C   UNL A   1      43.454  27.363  36.407  1.00  0.00     0.010 A 
ATOM     78  C   UNL A   1      46.155  27.860  35.870  1.00  0.00     0.020 A 
ATOM     79  C   UNL A   1      44.439  26.579  37.018  1.00  0.00     0.020 A 
ATOM     80  C   UNL A   1      45.783  26.819  36.726  1.00  0.00     0.054 A 
BRANCH  80  81
ATOM     81  S   UNL A   1      47.085  25.799  37.470  1.00  0.00     0.124 S 
ATOM     82  O   UNL A   1      48.055  25.710  36.382  1.00  0.00    -0.237 OA
ATOM     83  O   UNL A   1      47.503  26.599  38.619  1.00  0.00    -0.237 OA
ATOM     84  O   UNL A   1      46.402  24.551  37.801  1.00  0.00    -0.744 OA
ENDBRANCH  80  81
ENDBRANCH  61  75
BRANCH  62  85
ATOM     85  C   UNL A   1      36.444  33.389  30.946  1.00  0.00    -0.014 A 
ATOM     86  C   UNL A   1      35.222  33.568  31.618  1.00  0.00     0.010 A 
ATOM     87  C   UNL A   1      36.596  33.924  29.653  1.00  0.00     0.010 A 
ATOM     88  C   UNL A   1      34.167  34.250  31.006  1.00  0.00     0.020 A 
ATOM     89  C   UNL A   1      35.552  34.632  29.048  1.00  0.00     0.020 A 
ATOM     90  C   UNL A   1      34.339  34.780  29.725  1.00  0.00     0.054 A 
BRANCH  90  91
ATOM     91  S   UNL A   1      32.975  35.710  28.971  1.00  0.00     0.124 S 
ATOM     92  O   UNL A   1      32.170  36.063  30.134  1.00  0.00    -0.237 OA
ATOM     93  O   UNL A   1      33.671  36.820  28.321  1.00  0.00    -0.237 OA
ATOM     94  O   UNL A   1      32.369  34.746  28.056  1.00  0.00    -0.744 OA
ENDBRANCH  90  91
ENDBRANCH  62  85
BRANCH  74  95
ATOM     95  C   UNL A   1      39.847  34.258  36.972  1.00  0.00    -0.014 A 
ATOM     96  C   UNL A   1      40.499  35.497  36.856  1.00  0.00     0.010 A 
ATOM     97  C   UNL A   1      39.034  34.007  38.091  1.00  0.00     0.010 A 
ATOM     98  C   UNL A   1      40.356  36.463  37.856  1.00  0.00     0.020 A 
ATOM     99  C   UNL A   1      38.869  34.980  39.081  1.00  0.00     0.020 A 
ATOM    100  C   UNL A   1      39.541  36.199  38.961  1.00  0.00     0.054 A 
BRANCH 100 101
ATOM    101  S   UNL A   1      39.325  37.490  40.216  1.00  0.00     0.124 S 
ATOM    102  O   UNL A   1      40.671  38.050  40.310  1.00  0.00    -0.237 OA
ATOM    103  O   UNL A   1      38.322  38.361  39.611  1.00  0.00    -0.237 OA
ATOM    104  O   UNL A   1      38.873  36.754  41.395  1.00  0.00    -0.744 OA
ENDBRANCH 100 101
ENDBRANCH  74  95
ENDBRANCH  48  49
ENDBRANCH  40  43
ENDBRANCH   1  39
TORSDOF 14
ENDMDL
MODEL 2
REMARK VINA RESULT:     -14.4      5.847     11.814
REMARK SMILES C[C@H]1[C@H](C)CC[C@@]2(C(=O)NCCCNC(=O)c3ccc(-c4c5nc(c(-c6ccc(S(=O)(=O)[O-])cc6)c6ccc([nH]6)c(-c6ccc(S(=O)(=O)[O-])cc6)c6nc(c(-c7ccc(S(=O)(=O)[O-])cc7)c7ccc4[nH]7)C=C6)C=C5)cc3)CC[C@@]3(C)C(=CC[C@@H]4[C@@]5(C)CC[C@H](O)C(C)(C)[C@@H]5CC[C@]43C)[C@H]12
REMARK SMILES IDX 13 1 12 2 11 3 10 4 8 5 9 6 7 8 1 9 2 10 3 11 99 12 4 13
REMARK SMILES IDX 5 14 81 15 6 16 77 17 79 18 82 19 78 20 80 21 97 22 83 23
REMARK SMILES IDX 84 24 96 25 98 26 85 27 95 28 86 29 87 30 94 31 88 32 91 33
REMARK SMILES IDX 89 34 92 35 93 36 90 37 14 39 15 40 16 42 17 43 18 44 76 45
REMARK SMILES IDX 19 46 75 47 20 48 21 49 22 50 69 51 23 52 74 53 68 54 70 55
REMARK SMILES IDX 24 56 73 57 67 58 66 59 25 61 55 62 36 63 54 64 37 65 40 66
REMARK SMILES IDX 53 67 71 68 38 69 39 70 52 72 72 73 41 74 26 75 27 76 35 77
REMARK SMILES IDX 28 78 34 79 29 80 30 81 31 82 32 83 33 84 56 85 57 86 65 87
REMARK SMILES IDX 58 88 64 89 59 90 60 91 61 92 62 93 63 94 42 95 43 96 51 97
REMARK SMILES IDX 44 98 50 99 45 100 46 101 47 102 48 103 49 104
REMARK H PARENT 10 7 90 38 14 41 70 60 40 71
REMARK Flexibility Score: inf
ROOT
ATOM      1  C   UNL A   1      35.300  30.891  27.905  1.00  0.00     0.118 C 
ENDROOT
BRANCH   1   2
ATOM      2  C   UNL A   1      34.095  30.003  27.596  1.00  0.00     0.042 C 
BRANCH   2   3
ATOM      3  C   UNL A   1      34.413  28.891  26.597  1.00  0.00     0.117 C 
BRANCH   3   4
ATOM      4  N   UNL A   1      34.028  29.198  25.232  1.00  0.00    -0.356 N 
ATOM      5  C   UNL A   1      32.848  29.133  24.557  1.00  0.00     0.226 C 
ATOM      6  O   UNL A   1      32.999  29.033  23.332  1.00  0.00    -0.274 OA
ATOM      7  H   UNL A   1      34.776  29.519  24.678  1.00  0.00     0.163 HD
BRANCH   5   8
ATOM      8  C   UNL A   1      31.406  29.222  25.187  1.00  0.00     0.056 C 
ATOM      9  C   UNL A   1      28.667  28.882  22.342  1.00  0.00     0.008 C 
ATOM     10  C   UNL A   1      29.815  29.519  23.152  1.00  0.00    -0.003 C 
ATOM     11  C   UNL A   1      29.353  30.900  23.711  1.00  0.00    -0.011 C 
ATOM     12  C   UNL A   1      30.285  28.597  24.304  1.00  0.00     0.034 C 
ATOM     13  C   UNL A   1      29.063  31.919  22.595  1.00  0.00     0.008 C 
ATOM     14  C   UNL A   1      30.294  31.566  24.729  1.00  0.00     0.005 C 
ATOM     15  C   UNL A   1      30.763  27.168  23.987  1.00  0.00    -0.063 C 
ATOM     16  C   UNL A   1      31.086  30.656  25.656  1.00  0.00     0.018 C 
ATOM     17  C   UNL A   1      31.413  28.350  26.509  1.00  0.00     0.018 C 
ATOM     18  C   UNL A   1      30.727  26.168  25.177  1.00  0.00    -0.006 C 
ATOM     19  C   UNL A   1      31.413  26.891  22.839  1.00  0.00    -0.027 C 
ATOM     20  C   UNL A   1      31.536  26.821  26.348  1.00  0.00     0.013 C 
ATOM     21  C   UNL A   1      29.265  25.981  25.664  1.00  0.00     0.017 C 
ATOM     22  C   UNL A   1      31.351  24.718  24.758  1.00  0.00    -0.020 C 
ATOM     23  C   UNL A   1      32.320  25.709  22.640  1.00  0.00     0.032 C 
ATOM     24  C   UNL A   1      32.686  25.020  23.979  1.00  0.00     0.006 C 
ATOM     25  C   UNL A   1      31.617  23.813  25.990  1.00  0.00     0.008 C 
ATOM     26  C   UNL A   1      30.338  23.933  23.866  1.00  0.00     0.012 C 
ATOM     27  C   UNL A   1      33.803  23.895  23.883  1.00  0.00    -0.025 C 
ATOM     28  C   UNL A   1      32.500  22.601  25.675  1.00  0.00     0.005 C 
ATOM     29  C   UNL A   1      33.577  23.024  22.632  1.00  0.00     0.012 C 
ATOM     30  C   UNL A   1      35.190  24.606  23.742  1.00  0.00     0.010 C 
ATOM     31  C   UNL A   1      33.886  23.087  25.231  1.00  0.00     0.003 C 
ATOM     32  C   UNL A   1      36.389  23.660  23.804  1.00  0.00     0.033 C 
ATOM     33  C   UNL A   1      35.043  22.021  25.325  1.00  0.00    -0.006 C 
ATOM     34  C   UNL A   1      36.390  22.755  25.039  1.00  0.00     0.120 C 
ATOM     35  C   UNL A   1      34.853  20.784  24.421  1.00  0.00     0.014 C 
ATOM     36  C   UNL A   1      35.131  21.458  26.772  1.00  0.00     0.014 C 
BRANCH  34  37
ATOM     37  O   UNL A   1      37.470  21.825  24.936  1.00  0.00    -0.393 OA
ATOM     38  H   UNL A   1      38.172  22.076  25.557  1.00  0.00     0.210 HD
ENDBRANCH  34  37
ENDBRANCH   5   8
ENDBRANCH   3   4
ENDBRANCH   2   3
ENDBRANCH   1   2
BRANCH   1  39
ATOM     39  N   UNL A   1      35.455  31.250  29.315  1.00  0.00    -0.352 N 
ATOM     40  C   UNL A   1      36.471  31.050  30.223  1.00  0.00     0.251 C 
ATOM     41  H   UNL A   1      34.681  31.730  29.688  1.00  0.00     0.163 HD
ATOM     42  O   UNL A   1      36.313  31.435  31.382  1.00  0.00    -0.269 OA
BRANCH  40  43
ATOM     43  C   UNL A   1      37.708  30.317  29.861  1.00  0.00     0.039 A 
ATOM     44  C   UNL A   1      38.054  30.196  28.510  1.00  0.00     0.014 A 
ATOM     45  C   UNL A   1      38.540  29.759  30.823  1.00  0.00     0.014 A 
ATOM     46  C   UNL A   1      39.286  29.638  28.148  1.00  0.00     0.010 A 
ATOM     47  C   UNL A   1      39.816  29.330  30.475  1.00  0.00     0.010 A 
ATOM     48  C   UNL A   1      40.216  29.275  29.133  1.00  0.00    -0.014 A 
BRANCH  48  49
ATOM     49  C   UNL A   1      41.610  28.857  28.810  1.00  0.00     0.031 A 
ATOM     50  C   UNL A   1      42.721  29.878  28.781  1.00  0.00     0.074 A 
ATOM     51  C   UNL A   1      41.856  27.591  28.410  1.00  0.00     0.049 A 
ATOM     52  N   UNL A   1      43.943  29.760  28.327  1.00  0.00    -0.248 NA
ATOM     53  C   UNL A   1      42.398  31.227  29.277  1.00  0.00     0.031 C 
ATOM     54  C   UNL A   1      40.864  26.514  28.326  1.00  0.00     0.029 A 
ATOM     55  N   UNL A   1      43.019  26.996  27.983  1.00  0.00    -0.354 N 
ATOM     56  C   UNL A   1      44.509  31.027  28.427  1.00  0.00     0.074 A 
ATOM     57  C   UNL A   1      43.482  31.908  28.935  1.00  0.00     0.031 C 
ATOM     58  C   UNL A   1      41.467  25.386  27.918  1.00  0.00     0.029 A 
ATOM     59  C   UNL A   1      42.873  25.667  27.656  1.00  0.00     0.049 A 
ATOM     60  H   UNL A   1      43.876  27.475  27.919  1.00  0.00     0.167 HD
ATOM     61  C   UNL A   1      45.776  31.420  28.147  1.00  0.00     0.031 A 
ATOM     62  C   UNL A   1      43.766  24.773  27.186  1.00  0.00     0.031 A 
ATOM     63  C   UNL A   1      46.814  30.526  27.708  1.00  0.00     0.049 A 
ATOM     64  C   UNL A   1      45.182  25.216  26.944  1.00  0.00     0.074 A 
ATOM     65  C   UNL A   1      48.151  30.804  27.480  1.00  0.00     0.029 A 
ATOM     66  N   UNL A   1      46.635  29.175  27.452  1.00  0.00    -0.354 N 
ATOM     67  N   UNL A   1      45.707  26.408  27.090  1.00  0.00    -0.248 NA
ATOM     68  C   UNL A   1      46.128  24.190  26.482  1.00  0.00     0.031 C 
ATOM     69  C   UNL A   1      48.773  29.625  27.057  1.00  0.00     0.029 A 
ATOM     70  C   UNL A   1      47.836  28.605  27.066  1.00  0.00     0.049 A 
ATOM     71  H   UNL A   1      45.781  28.692  27.533  1.00  0.00     0.167 HD
ATOM     72  C   UNL A   1      47.051  26.270  26.764  1.00  0.00     0.074 A 
ATOM     73  C   UNL A   1      47.261  24.877  26.427  1.00  0.00     0.031 C 
ATOM     74  C   UNL A   1      48.025  27.213  26.746  1.00  0.00     0.031 A 
BRANCH  61  75
ATOM     75  C   UNL A   1      46.109  32.880  28.324  1.00  0.00    -0.014 A 
ATOM     76  C   UNL A   1      46.626  33.365  29.539  1.00  0.00     0.010 A 
ATOM     77  C   UNL A   1      45.923  33.777  27.256  1.00  0.00     0.010 A 
ATOM     78  C   UNL A   1      46.892  34.726  29.704  1.00  0.00     0.020 A 
ATOM     79  C   UNL A   1      46.219  35.136  27.405  1.00  0.00     0.020 A 
ATOM     80  C   UNL A   1      46.680  35.605  28.637  1.00  0.00     0.054 A 
BRANCH  80  81
ATOM     81  S   UNL A   1      47.039  37.366  28.878  1.00  0.00     0.124 S 
ATOM     82  O   UNL A   1      45.974  37.997  28.103  1.00  0.00    -0.237 OA
ATOM     83  O   UNL A   1      46.935  37.520  30.327  1.00  0.00    -0.237 OA
ATOM     84  O   UNL A   1      48.385  37.524  28.333  1.00  0.00    -0.744 OA
ENDBRANCH  80  81
ENDBRANCH  61  75
BRANCH  62  85
ATOM     85  C   UNL A   1      43.354  23.362  26.948  1.00  0.00    -0.014 A 
ATOM     86  C   UNL A   1      43.280  22.859  25.637  1.00  0.00     0.010 A 
ATOM     87  C   UNL A   1      43.056  22.506  28.024  1.00  0.00     0.010 A 
ATOM     88  C   UNL A   1      42.897  21.536  25.403  1.00  0.00     0.020 A 
ATOM     89  C   UNL A   1      42.699  21.173  27.796  1.00  0.00     0.020 A 
ATOM     90  C   UNL A   1      42.610  20.700  26.485  1.00  0.00     0.054 A 
BRANCH  90  91
ATOM     91  S   UNL A   1      42.168  18.969  26.162  1.00  0.00     0.124 S 
ATOM     92  O   UNL A   1      43.085  18.619  25.083  1.00  0.00    -0.237 OA
ATOM     93  O   UNL A   1      42.432  18.330  27.449  1.00  0.00    -0.237 OA
ATOM     94  O   UNL A   1      40.758  19.041  25.790  1.00  0.00    -0.744 OA
ENDBRANCH  90  91
ENDBRANCH  62  85
BRANCH  74  95
ATOM     95  C   UNL A   1      49.416  26.766  26.389  1.00  0.00    -0.014 A 
ATOM     96  C   UNL A   1      50.236  26.118  27.328  1.00  0.00     0.010 A 
ATOM     97  C   UNL A   1      49.879  26.939  25.072  1.00  0.00     0.010 A 
ATOM     98  C   UNL A   1      51.508  25.670  26.961  1.00  0.00     0.020 A 
ATOM     99  C   UNL A   1      51.140  26.470  24.695  1.00  0.00     0.020 A 
ATOM    100  C   UNL A   1      51.951  25.847  25.647  1.00  0.00     0.054 A 
BRANCH 100 101
ATOM    101  S   UNL A   1      53.582  25.205  25.181  1.00  0.00     0.124 S 
ATOM    102  O   UNL A   1      53.405  23.767  25.366  1.00  0.00    -0.237 OA
ATOM    103  O   UNL A   1      53.717  25.648  23.796  1.00  0.00    -0.237 OA
ATOM    104  O   UNL A   1      54.491  25.848  26.126  1.00  0.00    -0.744 OA
ENDBRANCH 100 101
ENDBRANCH  74  95
ENDBRANCH  48  49
ENDBRANCH  40  43
ENDBRANCH   1  39
TORSDOF 14
ENDMDL
MODEL 3
REMARK VINA RESULT:     -14.3      6.007     11.385
REMARK SMILES C[C@H]1[C@H](C)CC[C@@]2(C(=O)NCCCNC(=O)c3ccc(-c4c5nc(c(-c6ccc(S(=O)(=O)[O-])cc6)c6ccc([nH]6)c(-c6ccc(S(=O)(=O)[O-])cc6)c6nc(c(-c7ccc(S(=O)(=O)[O-])cc7)c7ccc4[nH]7)C=C6)C=C5)cc3)CC[C@@]3(C)C(=CC[C@@H]4[C@@]5(C)CC[C@H](O)C(C)(C)[C@@H]5CC[C@]43C)[C@H]12
REMARK SMILES IDX 13 1 12 2 11 3 10 4 8 5 9 6 7 8 1 9 2 10 3 11 99 12 4 13
REMARK SMILES IDX 5 14 81 15 6 16 77 17 79 18 82 19 78 20 80 21 97 22 83 23
REMARK SMILES IDX 84 24 96 25 98 26 85 27 95 28 86 29 87 30 94 31 88 32 91 33
REMARK SMILES IDX 89 34 92 35 93 36 90 37 14 39 15 40 16 42 17 43 18 44 76 45
REMARK SMILES IDX 19 46 75 47 20 48 21 49 22 50 69 51 23 52 74 53 68 54 70 55
REMARK SMILES IDX 24 56 73 57 67 58 66 59 25 61 55 62 36 63 54 64 37 65 40 66
REMARK SMILES IDX 53 67 71 68 38 69 39 70 52 72 72 73 41 74 26 75 27 76 35 77
REMARK SMILES IDX 28 78 34 79 29 80 30 81 31 82 32 83 33 84 56 85 57 86 65 87
REMARK SMILES IDX 58 88 64 89 59 90 60 91 61 92 62 93 63 94 42 95 43 96 51 97
REMARK SMILES IDX 44 98 50 99 45 100 46 101 47 102 48 103 49 104
REMARK H PARENT 10 7 90 38 14 41 70 60 40 71
REMARK Flexibility Score: inf
ROOT
ATOM      1  C   UNL A   1      35.525  30.842  28.289  1.00  0.00     0.118 C 
ENDROOT
BRANCH   1   2
ATOM      2  C   UNL A   1      34.245  30.373  27.599  1.00  0.00     0.042 C 
BRANCH   2   3
ATOM      3  C   UNL A   1      34.453  29.129  26.736  1.00  0.00     0.117 C 
BRANCH   3   4
ATOM      4  N   UNL A   1      34.076  29.306  25.346  1.00  0.00    -0.356 N 
ATOM      5  C   UNL A   1      32.906  29.149  24.668  1.00  0.00     0.226 C 
ATOM      6  O   UNL A   1      33.075  28.950  23.457  1.00  0.00    -0.274 OA
ATOM      7  H   UNL A   1      34.820  29.601  24.775  1.00  0.00     0.163 HD
BRANCH   5   8
ATOM      8  C   UNL A   1      31.455  29.248  25.274  1.00  0.00     0.056 C 
ATOM      9  C   UNL A   1      28.762  28.946  22.381  1.00  0.00     0.008 C 
ATOM     10  C   UNL A   1      29.901  29.568  23.214  1.00  0.00    -0.003 C 
ATOM     11  C   UNL A   1      29.442  30.951  23.770  1.00  0.00    -0.011 C 
ATOM     12  C   UNL A   1      30.343  28.637  24.369  1.00  0.00     0.034 C 
ATOM     13  C   UNL A   1      29.180  31.978  22.654  1.00  0.00     0.008 C 
ATOM     14  C   UNL A   1      30.372  31.604  24.807  1.00  0.00     0.005 C 
ATOM     15  C   UNL A   1      30.814  27.205  24.054  1.00  0.00    -0.063 C 
ATOM     16  C   UNL A   1      31.140  30.683  25.744  1.00  0.00     0.018 C 
ATOM     17  C   UNL A   1      31.431  28.371  26.592  1.00  0.00     0.018 C 
ATOM     18  C   UNL A   1      30.749  26.201  25.238  1.00  0.00    -0.006 C 
ATOM     19  C   UNL A   1      31.481  26.927  22.915  1.00  0.00    -0.027 C 
ATOM     20  C   UNL A   1      31.543  26.841  26.425  1.00  0.00     0.013 C 
ATOM     21  C   UNL A   1      29.277  26.024  25.699  1.00  0.00     0.017 C 
ATOM     22  C   UNL A   1      31.367  24.747  24.823  1.00  0.00    -0.020 C 
ATOM     23  C   UNL A   1      32.381  25.739  22.727  1.00  0.00     0.032 C 
ATOM     24  C   UNL A   1      32.717  25.040  24.068  1.00  0.00     0.006 C 
ATOM     25  C   UNL A   1      31.604  23.834  26.056  1.00  0.00     0.008 C 
ATOM     26  C   UNL A   1      30.362  23.975  23.911  1.00  0.00     0.012 C 
ATOM     27  C   UNL A   1      33.826  23.906  23.986  1.00  0.00    -0.025 C 
ATOM     28  C   UNL A   1      32.481  22.616  25.750  1.00  0.00     0.005 C 
ATOM     29  C   UNL A   1      33.613  23.042  22.727  1.00  0.00     0.012 C 
ATOM     30  C   UNL A   1      35.221  24.605  23.872  1.00  0.00     0.010 C 
ATOM     31  C   UNL A   1      33.878  23.091  25.331  1.00  0.00     0.003 C 
ATOM     32  C   UNL A   1      36.411  23.648  23.950  1.00  0.00     0.033 C 
ATOM     33  C   UNL A   1      35.024  22.014  25.440  1.00  0.00    -0.006 C 
ATOM     34  C   UNL A   1      36.382  22.737  25.181  1.00  0.00     0.120 C 
ATOM     35  C   UNL A   1      34.839  20.783  24.528  1.00  0.00     0.014 C 
ATOM     36  C   UNL A   1      35.083  21.444  26.886  1.00  0.00     0.014 C 
BRANCH  34  37
ATOM     37  O   UNL A   1      37.456  21.798  25.092  1.00  0.00    -0.393 OA
ATOM     38  H   UNL A   1      37.707  21.682  24.163  1.00  0.00     0.210 HD
ENDBRANCH  34  37
ENDBRANCH   5   8
ENDBRANCH   3   4
ENDBRANCH   2   3
ENDBRANCH   1   2
BRANCH   1  39
ATOM     39  N   UNL A   1      35.611  30.523  29.714  1.00  0.00    -0.352 N 
ATOM     40  C   UNL A   1      36.577  29.905  30.476  1.00  0.00     0.251 C 
ATOM     41  H   UNL A   1      34.822  30.807  30.230  1.00  0.00     0.163 HD
ATOM     42  O   UNL A   1      36.363  29.731  31.676  1.00  0.00    -0.269 OA
BRANCH  40  43
ATOM     43  C   UNL A   1      37.824  29.376  29.874  1.00  0.00     0.039 A 
ATOM     44  C   UNL A   1      38.058  29.576  28.509  1.00  0.00     0.014 A 
ATOM     45  C   UNL A   1      38.775  28.699  30.629  1.00  0.00     0.014 A 
ATOM     46  C   UNL A   1      39.288  29.217  27.946  1.00  0.00     0.010 A 
ATOM     47  C   UNL A   1      40.042  28.466  30.105  1.00  0.00     0.010 A 
ATOM     48  C   UNL A   1      40.324  28.734  28.759  1.00  0.00    -0.014 A 
BRANCH  48  49
ATOM     49  C   UNL A   1      41.710  28.517  28.253  1.00  0.00     0.031 A 
ATOM     50  C   UNL A   1      42.141  27.150  27.782  1.00  0.00     0.074 A 
ATOM     51  C   UNL A   1      42.620  29.511  28.342  1.00  0.00     0.049 A 
ATOM     52  N   UNL A   1      43.342  26.709  27.505  1.00  0.00    -0.248 NA
ATOM     53  C   UNL A   1      41.089  26.125  27.660  1.00  0.00     0.031 C 
ATOM     54  C   UNL A   1      42.360  30.866  28.840  1.00  0.00     0.029 A 
ATOM     55  N   UNL A   1      43.958  29.531  28.029  1.00  0.00    -0.354 N 
ATOM     56  C   UNL A   1      43.197  25.352  27.237  1.00  0.00     0.074 A 
ATOM     57  C   UNL A   1      41.802  25.031  27.436  1.00  0.00     0.031 C 
ATOM     58  C   UNL A   1      43.486  31.592  28.759  1.00  0.00     0.029 A 
ATOM     59  C   UNL A   1      44.563  30.746  28.260  1.00  0.00     0.049 A 
ATOM     60  H   UNL A   1      44.439  28.750  27.673  1.00  0.00     0.167 HD
ATOM     61  C   UNL A   1      44.132  24.456  26.838  1.00  0.00     0.031 A 
ATOM     62  C   UNL A   1      45.842  31.137  28.099  1.00  0.00     0.031 A 
ATOM     63  C   UNL A   1      45.505  24.795  26.574  1.00  0.00     0.049 A 
ATOM     64  C   UNL A   1      46.850  30.143  27.592  1.00  0.00     0.074 A 
ATOM     65  C   UNL A   1      46.513  23.984  26.082  1.00  0.00     0.029 A 
ATOM     66  N   UNL A   1      46.057  26.053  26.759  1.00  0.00    -0.354 N 
ATOM     67  N   UNL A   1      46.681  28.876  27.300  1.00  0.00    -0.248 NA
ATOM     68  C   UNL A   1      48.220  30.633  27.384  1.00  0.00     0.031 C 
ATOM     69  C   UNL A   1      47.683  24.747  25.999  1.00  0.00     0.029 A 
ATOM     70  C   UNL A   1      47.392  26.042  26.395  1.00  0.00     0.049 A 
ATOM     71  H   UNL A   1      45.571  26.839  27.100  1.00  0.00     0.167 HD
ATOM     72  C   UNL A   1      47.915  28.424  26.849  1.00  0.00     0.074 A 
ATOM     73  C   UNL A   1      48.817  29.557  26.893  1.00  0.00     0.031 C 
ATOM     74  C   UNL A   1      48.270  27.183  26.435  1.00  0.00     0.031 A 
BRANCH  61  75
ATOM     75  C   UNL A   1      43.693  23.027  26.647  1.00  0.00    -0.014 A 
ATOM     76  C   UNL A   1      42.949  22.356  27.636  1.00  0.00     0.010 A 
ATOM     77  C   UNL A   1      44.007  22.349  25.455  1.00  0.00     0.010 A 
ATOM     78  C   UNL A   1      42.582  21.020  27.463  1.00  0.00     0.020 A 
ATOM     79  C   UNL A   1      43.613  21.020  25.263  1.00  0.00     0.020 A 
ATOM     80  C   UNL A   1      42.923  20.358  26.280  1.00  0.00     0.054 A 
BRANCH  80  81
ATOM     81  S   UNL A   1      42.430  18.624  26.081  1.00  0.00     0.124 S 
ATOM     82  O   UNL A   1      43.333  18.174  25.025  1.00  0.00    -0.237 OA
ATOM     83  O   UNL A   1      42.688  18.063  27.406  1.00  0.00    -0.237 OA
ATOM     84  O   UNL A   1      41.021  18.704  25.706  1.00  0.00    -0.744 OA
ENDBRANCH  80  81
ENDBRANCH  61  75
BRANCH  62  85
ATOM     85  C   UNL A   1      46.234  32.544  28.387  1.00  0.00    -0.014 A 
ATOM     86  C   UNL A   1      46.703  32.899  29.664  1.00  0.00     0.010 A 
ATOM     87  C   UNL A   1      46.164  33.532  27.387  1.00  0.00     0.010 A 
ATOM     88  C   UNL A   1      47.075  34.217  29.944  1.00  0.00     0.020 A 
ATOM     89  C   UNL A   1      46.562  34.845  27.655  1.00  0.00     0.020 A 
ATOM     90  C   UNL A   1      47.004  35.182  28.936  1.00  0.00     0.054 A 
BRANCH  90  91
ATOM     91  S   UNL A   1      47.545  36.875  29.306  1.00  0.00     0.124 S 
ATOM     92  O   UNL A   1      46.328  37.642  29.064  1.00  0.00    -0.237 OA
ATOM     93  O   UNL A   1      47.964  36.775  30.702  1.00  0.00    -0.237 OA
ATOM     94  O   UNL A   1      48.630  37.102  28.355  1.00  0.00    -0.744 OA
ENDBRANCH  90  91
ENDBRANCH  62  85
BRANCH  74  95
ATOM     95  C   UNL A   1      49.683  26.990  25.956  1.00  0.00    -0.014 A 
ATOM     96  C   UNL A   1      50.689  26.536  26.825  1.00  0.00     0.010 A 
ATOM     97  C   UNL A   1      49.986  27.202  24.599  1.00  0.00     0.010 A 
ATOM     98  C   UNL A   1      51.985  26.318  26.348  1.00  0.00     0.020 A 
ATOM     99  C   UNL A   1      51.274  26.962  24.114  1.00  0.00     0.020 A 
ATOM    100  C   UNL A   1      52.269  26.531  24.996  1.00  0.00     0.054 A 
BRANCH 100 101
ATOM    101  S   UNL A   1      53.942  26.186  24.389  1.00  0.00     0.124 S 
ATOM    102  O   UNL A   1      54.745  27.129  25.163  1.00  0.00    -0.237 OA
ATOM    103  O   UNL A   1      54.123  24.778  24.730  1.00  0.00    -0.237 OA
ATOM    104  O   UNL A   1      53.857  26.468  22.958  1.00  0.00    -0.744 OA
ENDBRANCH 100 101
ENDBRANCH  74  95
ENDBRANCH  48  49
ENDBRANCH  40  43
ENDBRANCH   1  39
TORSDOF 14
ENDMDL
