MODEL 1
REMARK VINA RESULT:     -11.6      0.000      0.000
REMARK SMILES CCOC(=O)[C@@]1(C)C/C(=N/c2cccc(C(=O)NCCCNC(=O)c3ccc(-c4c5nc(c(-c6ccc(S(=O)(=O)[O-])cc6)c6ccc([nH]6)c(-c6ccc(S(=O)(=O)[O-])cc6)c6nc(c(-c7ccc(S(=O)(=O)[O-])cc7)c7ccc4[nH]7)C=C6)C=C5)cc3)c2)C(=O)N1c1ccccc1
REMARK SMILES IDX 19 1 18 2 16 3 17 4 15 6 11 7 12 8 85 9 13 10 14 11 10 12
REMARK SMILES IDX 6 13 7 14 8 15 88 16 9 17 86 18 87 19 4 20 5 21 3 22 2 23
REMARK SMILES IDX 1 24 89 25 90 26 94 27 91 28 93 29 92 30 20 31 21 32 22 33
REMARK SMILES IDX 23 34 24 36 25 37 26 38 84 39 27 40 83 41 28 42 29 43 30 44
REMARK SMILES IDX 77 45 31 46 82 47 76 48 78 49 32 50 81 51 75 52 74 53 33 55
REMARK SMILES IDX 63 56 44 57 62 58 45 59 48 60 61 61 79 62 46 63 47 64 60 66
REMARK SMILES IDX 80 67 49 68 34 69 35 70 43 71 36 72 42 73 37 74 38 75 39 76
REMARK SMILES IDX 40 77 41 78 64 79 65 80 73 81 66 82 72 83 67 84 68 85 69 86
REMARK SMILES IDX 70 87 71 88 50 89 51 90 59 91 52 92 58 93 53 94 54 95 55 96
REMARK SMILES IDX 56 97 57 98
REMARK H PARENT 18 5 22 35 78 54 48 65
REMARK Flexibility Score: inf
ROOT
ATOM      1  C   UNL A   1      37.626  23.809  25.682  1.00  0.00     0.118 C 
ENDROOT
BRANCH   1   2
ATOM      2  N   UNL A   1      37.834  22.430  25.264  1.00  0.00    -0.352 N 
ATOM      3  C   UNL A   1      36.953  21.434  24.920  1.00  0.00     0.251 C 
ATOM      4  O   UNL A   1      37.408  20.403  24.423  1.00  0.00    -0.269 OA
ATOM      5  H   UNL A   1      38.781  22.162  25.220  1.00  0.00     0.163 HD
BRANCH   3   6
ATOM      6  C   UNL A   1      35.481  21.561  25.087  1.00  0.00     0.041 A 
ATOM      7  C   UNL A   1      33.290  22.338  24.384  1.00  0.00     0.064 A 
ATOM      8  C   UNL A   1      32.716  21.756  25.514  1.00  0.00     0.028 A 
ATOM      9  C   UNL A   1      34.677  22.288  24.210  1.00  0.00     0.042 A 
ATOM     10  C   UNL A   1      33.517  21.081  26.436  1.00  0.00     0.003 A 
ATOM     11  C   UNL A   1      34.893  20.975  26.217  1.00  0.00     0.014 A 
BRANCH   7  12
ATOM     12  N   UNL A   1      32.490  22.981  23.429  1.00  0.00    -0.248 NA
ATOM     13  C   UNL A   1      30.841  26.100  23.690  1.00  0.00     0.148 C 
ATOM     14  C   UNL A   1      29.555  25.563  24.345  1.00  0.00     0.048 C 
ATOM     15  C   UNL A   1      31.329  25.003  22.696  1.00  0.00     0.103 C 
ATOM     16  N   UNL A   1      31.957  26.268  24.651  1.00  0.00    -0.290 N 
ATOM     17  C   UNL A   1      32.290  24.259  23.555  1.00  0.00     0.109 C 
ATOM     18  C   UNL A   1      32.853  25.209  24.585  1.00  0.00     0.273 C 
ATOM     19  O   UNL A   1      33.878  25.001  25.200  1.00  0.00    -0.267 OA
BRANCH  13  20
ATOM     20  C   UNL A   1      30.672  27.387  22.852  1.00  0.00     0.332 C 
ATOM     21  O   UNL A   1      31.246  27.585  21.786  1.00  0.00    -0.249 OA
BRANCH  20  22
ATOM     22  O   UNL A   1      29.887  28.307  23.480  1.00  0.00    -0.464 OA
BRANCH  22  23
ATOM     23  C   UNL A   1      28.695  28.703  22.782  1.00  0.00     0.229 C 
ATOM     24  C   UNL A   1      28.891  30.007  22.022  1.00  0.00     0.049 C 
ENDBRANCH  22  23
ENDBRANCH  20  22
ENDBRANCH  13  20
BRANCH  16  25
ATOM     25  C   UNL A   1      32.124  27.384  25.527  1.00  0.00     0.045 A 
ATOM     26  C   UNL A   1      33.041  28.404  25.217  1.00  0.00     0.026 A 
ATOM     27  C   UNL A   1      31.398  27.521  26.717  1.00  0.00     0.026 A 
ATOM     28  C   UNL A   1      33.225  29.507  26.059  1.00  0.00     0.002 A 
ATOM     29  C   UNL A   1      31.596  28.612  27.574  1.00  0.00     0.002 A 
ATOM     30  C   UNL A   1      32.507  29.607  27.243  1.00  0.00     0.000 A 
ENDBRANCH  16  25
ENDBRANCH   7  12
ENDBRANCH   3   6
ENDBRANCH   1   2
BRANCH   1  31
ATOM     31  C   UNL A   1      38.808  24.359  26.483  1.00  0.00     0.042 C 
BRANCH  31  32
ATOM     32  C   UNL A   1      39.908  23.335  26.771  1.00  0.00     0.118 C 
BRANCH  32  33
ATOM     33  N   UNL A   1      41.129  23.618  26.033  1.00  0.00    -0.352 N 
ATOM     34  C   UNL A   1      41.976  24.696  26.126  1.00  0.00     0.251 C 
ATOM     35  H   UNL A   1      41.387  22.936  25.372  1.00  0.00     0.163 HD
ATOM     36  O   UNL A   1      42.850  24.850  25.276  1.00  0.00    -0.269 OA
BRANCH  34  37
ATOM     37  C   UNL A   1      41.837  25.688  27.222  1.00  0.00     0.039 A 
ATOM     38  C   UNL A   1      42.107  27.033  26.945  1.00  0.00     0.014 A 
ATOM     39  C   UNL A   1      41.505  25.300  28.524  1.00  0.00     0.014 A 
ATOM     40  C   UNL A   1      41.991  27.995  27.955  1.00  0.00     0.010 A 
ATOM     41  C   UNL A   1      41.364  26.265  29.525  1.00  0.00     0.010 A 
ATOM     42  C   UNL A   1      41.602  27.620  29.249  1.00  0.00    -0.014 A 
BRANCH  42  43
ATOM     43  C   UNL A   1      41.429  28.632  30.321  1.00  0.00     0.031 A 
ATOM     44  C   UNL A   1      42.332  28.636  31.522  1.00  0.00     0.074 A 
ATOM     45  C   UNL A   1      40.418  29.517  30.245  1.00  0.00     0.049 A 
ATOM     46  N   UNL A   1      42.261  29.373  32.601  1.00  0.00    -0.248 NA
ATOM     47  C   UNL A   1      43.450  27.682  31.512  1.00  0.00     0.031 C 
ATOM     48  C   UNL A   1      39.456  29.614  29.145  1.00  0.00     0.029 A 
ATOM     49  N   UNL A   1      40.023  30.496  31.123  1.00  0.00    -0.354 N 
ATOM     50  C   UNL A   1      43.305  28.953  33.414  1.00  0.00     0.074 A 
ATOM     51  C   UNL A   1      43.998  27.900  32.701  1.00  0.00     0.031 C 
ATOM     52  C   UNL A   1      38.581  30.596  29.416  1.00  0.00     0.029 A 
ATOM     53  C   UNL A   1      38.904  31.180  30.715  1.00  0.00     0.049 A 
ATOM     54  H   UNL A   1      40.495  30.687  31.964  1.00  0.00     0.167 HD
ATOM     55  C   UNL A   1      43.656  29.399  34.644  1.00  0.00     0.031 A 
ATOM     56  C   UNL A   1      38.204  32.157  31.323  1.00  0.00     0.031 A 
ATOM     57  C   UNL A   1      42.992  30.456  35.357  1.00  0.00     0.049 A 
ATOM     58  C   UNL A   1      38.625  32.652  32.674  1.00  0.00     0.074 A 
ATOM     59  C   UNL A   1      43.302  30.989  36.597  1.00  0.00     0.029 A 
ATOM     60  N   UNL A   1      41.884  31.147  34.892  1.00  0.00    -0.354 N 
ATOM     61  N   UNL A   1      39.623  32.248  33.420  1.00  0.00    -0.248 NA
ATOM     62  C   UNL A   1      37.822  33.733  33.263  1.00  0.00     0.031 C 
ATOM     63  C   UNL A   1      42.372  31.997  36.887  1.00  0.00     0.029 A 
ATOM     64  C   UNL A   1      41.493  32.096  35.821  1.00  0.00     0.049 A 
ATOM     65  H   UNL A   1      41.440  30.985  34.029  1.00  0.00     0.167 HD
ATOM     66  C   UNL A   1      39.569  33.026  34.571  1.00  0.00     0.074 A 
ATOM     67  C   UNL A   1      38.448  33.931  34.417  1.00  0.00     0.031 C 
ATOM     68  C   UNL A   1      40.376  32.987  35.658  1.00  0.00     0.031 A 
BRANCH  55  69
ATOM     69  C   UNL A   1      44.813  28.711  35.307  1.00  0.00    -0.014 A 
ATOM     70  C   UNL A   1      44.610  27.574  36.109  1.00  0.00     0.010 A 
ATOM     71  C   UNL A   1      46.117  29.203  35.122  1.00  0.00     0.010 A 
ATOM     72  C   UNL A   1      45.691  26.962  36.748  1.00  0.00     0.020 A 
ATOM     73  C   UNL A   1      47.200  28.589  35.752  1.00  0.00     0.020 A 
ATOM     74  C   UNL A   1      46.978  27.483  36.577  1.00  0.00     0.054 A 
BRANCH  74  75
ATOM     75  S   UNL A   1      48.379  26.689  37.415  1.00  0.00     0.124 S 
ATOM     76  O   UNL A   1      48.984  27.818  38.116  1.00  0.00    -0.237 OA
ATOM     77  O   UNL A   1      47.735  25.693  38.268  1.00  0.00    -0.237 OA
ATOM     78  O   UNL A   1      49.166  26.142  36.312  1.00  0.00    -0.744 OA
ENDBRANCH  74  75
ENDBRANCH  55  69
BRANCH  56  79
ATOM     79  C   UNL A   1      37.010  32.721  30.647  1.00  0.00    -0.014 A 
ATOM     80  C   UNL A   1      35.722  32.317  31.033  1.00  0.00     0.010 A 
ATOM     81  C   UNL A   1      37.161  33.700  29.649  1.00  0.00     0.010 A 
ATOM     82  C   UNL A   1      34.596  32.889  30.437  1.00  0.00     0.020 A 
ATOM     83  C   UNL A   1      36.037  34.281  29.058  1.00  0.00     0.020 A 
ATOM     84  C   UNL A   1      34.760  33.870  29.455  1.00  0.00     0.054 A 
BRANCH  84  85
ATOM     85  S   UNL A   1      33.300  34.687  28.752  1.00  0.00     0.124 S 
ATOM     86  O   UNL A   1      32.787  33.663  27.847  1.00  0.00    -0.237 OA
ATOM     87  O   UNL A   1      32.478  34.961  29.929  1.00  0.00    -0.237 OA
ATOM     88  O   UNL A   1      33.864  35.873  28.111  1.00  0.00    -0.744 OA
ENDBRANCH  84  85
ENDBRANCH  56  79
BRANCH  68  89
ATOM     89  C   UNL A   1      40.076  33.958  36.763  1.00  0.00    -0.014 A 
ATOM     90  C   UNL A   1      39.422  33.529  37.930  1.00  0.00     0.010 A 
ATOM     91  C   UNL A   1      40.476  35.300  36.647  1.00  0.00     0.010 A 
ATOM     92  C   UNL A   1      39.151  34.434  38.960  1.00  0.00     0.020 A 
ATOM     93  C   UNL A   1      40.212  36.206  37.677  1.00  0.00     0.020 A 
ATOM     94  C   UNL A   1      39.540  35.770  38.822  1.00  0.00     0.054 A 
BRANCH  94  95
ATOM     95  S   UNL A   1      39.216  36.938  40.174  1.00  0.00     0.124 S 
ATOM     96  O   UNL A   1      38.263  36.195  40.993  1.00  0.00    -0.237 OA
ATOM     97  O   UNL A   1      40.537  37.132  40.769  1.00  0.00    -0.237 OA
ATOM     98  O   UNL A   1      38.674  38.107  39.487  1.00  0.00    -0.744 OA
ENDBRANCH  94  95
ENDBRANCH  68  89
ENDBRANCH  42  43
ENDBRANCH  34  37
ENDBRANCH  32  33
ENDBRANCH  31  32
ENDBRANCH   1  31
TORSDOF 18
ENDMDL
MODEL 2
REMARK VINA RESULT:     -11.6      5.540     10.052
REMARK SMILES CCOC(=O)[C@@]1(C)C/C(=N/c2cccc(C(=O)NCCCNC(=O)c3ccc(-c4c5nc(c(-c6ccc(S(=O)(=O)[O-])cc6)c6ccc([nH]6)c(-c6ccc(S(=O)(=O)[O-])cc6)c6nc(c(-c7ccc(S(=O)(=O)[O-])cc7)c7ccc4[nH]7)C=C6)C=C5)cc3)c2)C(=O)N1c1ccccc1
REMARK SMILES IDX 19 1 18 2 16 3 17 4 15 6 11 7 12 8 85 9 13 10 14 11 10 12
REMARK SMILES IDX 6 13 7 14 8 15 88 16 9 17 86 18 87 19 4 20 5 21 3 22 2 23
REMARK SMILES IDX 1 24 89 25 90 26 94 27 91 28 93 29 92 30 20 31 21 32 22 33
REMARK SMILES IDX 23 34 24 36 25 37 26 38 84 39 27 40 83 41 28 42 29 43 30 44
REMARK SMILES IDX 77 45 31 46 82 47 76 48 78 49 32 50 81 51 75 52 74 53 33 55
REMARK SMILES IDX 63 56 44 57 62 58 45 59 48 60 61 61 79 62 46 63 47 64 60 66
REMARK SMILES IDX 80 67 49 68 34 69 35 70 43 71 36 72 42 73 37 74 38 75 39 76
REMARK SMILES IDX 40 77 41 78 64 79 65 80 73 81 66 82 72 83 67 84 68 85 69 86
REMARK SMILES IDX 70 87 71 88 50 89 51 90 59 91 52 92 58 93 53 94 54 95 55 96
REMARK SMILES IDX 56 97 57 98
REMARK H PARENT 18 5 22 35 78 54 48 65
REMARK Flexibility Score: inf
ROOT
ATOM      1  C   UNL A   1      36.851  20.850  25.208  1.00  0.00     0.118 C 
ENDROOT
BRANCH   1   2
ATOM      2  N   UNL A   1      35.973  19.708  24.997  1.00  0.00    -0.352 N 
ATOM      3  C   UNL A   1      34.603  19.597  24.980  1.00  0.00     0.251 C 
ATOM      4  O   UNL A   1      34.112  18.536  24.593  1.00  0.00    -0.269 OA
ATOM      5  H   UNL A   1      36.447  18.859  24.839  1.00  0.00     0.163 HD
BRANCH   3   6
ATOM      6  C   UNL A   1      33.695  20.707  25.371  1.00  0.00     0.041 A 
ATOM      7  C   UNL A   1      32.067  22.439  24.870  1.00  0.00     0.064 A 
ATOM      8  C   UNL A   1      32.033  22.802  26.217  1.00  0.00     0.028 A 
ATOM      9  C   UNL A   1      32.944  21.434  24.448  1.00  0.00     0.042 A 
ATOM     10  C   UNL A   1      32.829  22.127  27.143  1.00  0.00     0.003 A 
ATOM     11  C   UNL A   1      33.648  21.077  26.722  1.00  0.00     0.014 A 
BRANCH   7  12
ATOM     12  N   UNL A   1      31.240  23.082  23.938  1.00  0.00    -0.248 NA
ATOM     13  C   UNL A   1      30.149  26.446  23.923  1.00  0.00     0.148 C 
ATOM     14  C   UNL A   1      28.910  26.232  24.812  1.00  0.00     0.048 C 
ATOM     15  C   UNL A   1      30.307  25.161  23.056  1.00  0.00     0.103 C 
ATOM     16  N   UNL A   1      31.410  26.543  24.696  1.00  0.00    -0.290 N 
ATOM     17  C   UNL A   1      31.261  24.380  23.890  1.00  0.00     0.109 C 
ATOM     18  C   UNL A   1      32.112  25.344  24.681  1.00  0.00     0.273 C 
ATOM     19  O   UNL A   1      33.174  25.043  25.185  1.00  0.00    -0.267 OA
BRANCH  13  20
ATOM     20  C   UNL A   1      30.055  27.623  22.925  1.00  0.00     0.332 C 
ATOM     21  O   UNL A   1      30.653  27.656  21.855  1.00  0.00    -0.249 OA
BRANCH  20  22
ATOM     22  O   UNL A   1      29.308  28.651  23.415  1.00  0.00    -0.464 OA
BRANCH  22  23
ATOM     23  C   UNL A   1      29.271  29.843  22.614  1.00  0.00     0.229 C 
ATOM     24  C   UNL A   1      27.867  30.423  22.525  1.00  0.00     0.049 C 
ENDBRANCH  22  23
ENDBRANCH  20  22
ENDBRANCH  13  20
BRANCH  16  25
ATOM     25  C   UNL A   1      31.878  27.718  25.361  1.00  0.00     0.045 A 
ATOM     26  C   UNL A   1      32.858  28.531  24.768  1.00  0.00     0.026 A 
ATOM     27  C   UNL A   1      31.394  28.115  26.614  1.00  0.00     0.026 A 
ATOM     28  C   UNL A   1      33.334  29.686  25.398  1.00  0.00     0.002 A 
ATOM     29  C   UNL A   1      31.885  29.257  27.259  1.00  0.00     0.002 A 
ATOM     30  C   UNL A   1      32.852  30.046  26.650  1.00  0.00     0.000 A 
ENDBRANCH  16  25
ENDBRANCH   7  12
ENDBRANCH   3   6
ENDBRANCH   1   2
BRANCH   1  31
ATOM     31  C   UNL A   1      38.315  20.520  24.908  1.00  0.00     0.042 C 
BRANCH  31  32
ATOM     32  C   UNL A   1      39.241  20.586  26.124  1.00  0.00     0.118 C 
BRANCH  32  33
ATOM     33  N   UNL A   1      40.287  19.576  26.073  1.00  0.00    -0.352 N 
ATOM     34  C   UNL A   1      41.651  19.728  26.128  1.00  0.00     0.251 C 
ATOM     35  H   UNL A   1      39.970  18.647  25.989  1.00  0.00     0.163 HD
ATOM     36  O   UNL A   1      42.374  18.768  25.870  1.00  0.00    -0.269 OA
BRANCH  34  37
ATOM     37  C   UNL A   1      42.264  21.035  26.472  1.00  0.00     0.039 A 
ATOM     38  C   UNL A   1      42.639  21.893  25.432  1.00  0.00     0.014 A 
ATOM     39  C   UNL A   1      42.526  21.395  27.798  1.00  0.00     0.014 A 
ATOM     40  C   UNL A   1      43.223  23.131  25.719  1.00  0.00     0.010 A 
ATOM     41  C   UNL A   1      43.087  22.643  28.085  1.00  0.00     0.010 A 
ATOM     42  C   UNL A   1      43.436  23.523  27.049  1.00  0.00    -0.014 A 
BRANCH  42  43
ATOM     43  C   UNL A   1      44.013  24.851  27.374  1.00  0.00     0.031 A 
ATOM     44  C   UNL A   1      43.131  25.977  27.834  1.00  0.00     0.074 A 
ATOM     45  C   UNL A   1      45.331  25.066  27.199  1.00  0.00     0.049 A 
ATOM     46  N   UNL A   1      43.444  27.228  28.058  1.00  0.00    -0.248 NA
ATOM     47  C   UNL A   1      41.714  25.656  28.060  1.00  0.00     0.031 C 
ATOM     48  C   UNL A   1      46.300  24.068  26.742  1.00  0.00     0.029 A 
ATOM     49  N   UNL A   1      46.078  26.205  27.371  1.00  0.00    -0.354 N 
ATOM     50  C   UNL A   1      42.259  27.853  28.422  1.00  0.00     0.074 A 
ATOM     51  C   UNL A   1      41.222  26.842  28.394  1.00  0.00     0.031 C 
ATOM     52  C   UNL A   1      47.513  24.641  26.667  1.00  0.00     0.029 A 
ATOM     53  C   UNL A   1      47.404  26.046  27.048  1.00  0.00     0.049 A 
ATOM     54  H   UNL A   1      45.699  27.054  27.694  1.00  0.00     0.167 HD
ATOM     55  C   UNL A   1      42.049  29.152  28.747  1.00  0.00     0.031 A 
ATOM     56  C   UNL A   1      48.416  26.934  27.039  1.00  0.00     0.031 A 
ATOM     57  C   UNL A   1      43.070  30.162  28.798  1.00  0.00     0.049 A 
ATOM     58  C   UNL A   1      48.166  28.361  27.427  1.00  0.00     0.074 A 
ATOM     59  C   UNL A   1      42.947  31.497  29.147  1.00  0.00     0.029 A 
ATOM     60  N   UNL A   1      44.406  29.951  28.497  1.00  0.00    -0.354 N 
ATOM     61  N   UNL A   1      47.039  28.929  27.780  1.00  0.00    -0.248 NA
ATOM     62  C   UNL A   1      49.325  29.265  27.413  1.00  0.00     0.031 C 
ATOM     63  C   UNL A   1      44.210  32.096  29.045  1.00  0.00     0.029 A 
ATOM     64  C   UNL A   1      45.118  31.130  28.645  1.00  0.00     0.049 A 
ATOM     65  H   UNL A   1      44.792  29.090  28.218  1.00  0.00     0.167 HD
ATOM     66  C   UNL A   1      47.352  30.260  28.028  1.00  0.00     0.074 A 
ATOM     67  C   UNL A   1      48.775  30.409  27.798  1.00  0.00     0.031 C 
ATOM     68  C   UNL A   1      46.530  31.267  28.410  1.00  0.00     0.031 A 
BRANCH  55  69
ATOM     69  C   UNL A   1      40.635  29.551  29.051  1.00  0.00    -0.014 A 
ATOM     70  C   UNL A   1      40.230  29.813  30.371  1.00  0.00     0.010 A 
ATOM     71  C   UNL A   1      39.704  29.670  28.004  1.00  0.00     0.010 A 
ATOM     72  C   UNL A   1      38.903  30.151  30.646  1.00  0.00     0.020 A 
ATOM     73  C   UNL A   1      38.379  30.016  28.275  1.00  0.00     0.020 A 
ATOM     74  C   UNL A   1      37.982  30.235  29.597  1.00  0.00     0.054 A 
BRANCH  74  75
ATOM     75  S   UNL A   1      36.256  30.667  29.958  1.00  0.00     0.124 S 
ATOM     76  O   UNL A   1      35.930  29.722  31.023  1.00  0.00    -0.237 OA
ATOM     77  O   UNL A   1      36.342  32.067  30.367  1.00  0.00    -0.237 OA
ATOM     78  O   UNL A   1      35.576  30.436  28.686  1.00  0.00    -0.744 OA
ENDBRANCH  74  75
ENDBRANCH  55  69
BRANCH  56  79
ATOM     79  C   UNL A   1      49.769  26.486  26.632  1.00  0.00    -0.014 A 
ATOM     80  C   UNL A   1      50.689  26.046  27.597  1.00  0.00     0.010 A 
ATOM     81  C   UNL A   1      50.121  26.453  25.271  1.00  0.00     0.010 A 
ATOM     82  C   UNL A   1      51.944  25.571  27.210  1.00  0.00     0.020 A 
ATOM     83  C   UNL A   1      51.372  25.969  24.879  1.00  0.00     0.020 A 
ATOM     84  C   UNL A   1      52.277  25.532  25.852  1.00  0.00     0.054 A 
BRANCH  84  85
ATOM     85  S   UNL A   1      53.866  24.821  25.340  1.00  0.00     0.124 S 
ATOM     86  O   UNL A   1      53.489  23.453  24.999  1.00  0.00    -0.237 OA
ATOM     87  O   UNL A   1      54.259  25.668  24.216  1.00  0.00    -0.237 OA
ATOM     88  O   UNL A   1      54.693  24.970  26.536  1.00  0.00    -0.744 OA
ENDBRANCH  84  85
ENDBRANCH  56  79
BRANCH  68  89
ATOM     89  C   UNL A   1      47.154  32.617  28.608  1.00  0.00    -0.014 A 
ATOM     90  C   UNL A   1      47.199  33.543  27.551  1.00  0.00     0.010 A 
ATOM     91  C   UNL A   1      47.673  32.975  29.863  1.00  0.00     0.010 A 
ATOM     92  C   UNL A   1      47.774  34.802  27.741  1.00  0.00     0.020 A 
ATOM     93  C   UNL A   1      48.244  34.235  30.058  1.00  0.00     0.020 A 
ATOM     94  C   UNL A   1      48.302  35.136  28.992  1.00  0.00     0.054 A 
BRANCH  94  95
ATOM     95  S   UNL A   1      49.020  36.784  29.246  1.00  0.00     0.124 S 
ATOM     96  O   UNL A   1      48.463  37.533  28.123  1.00  0.00    -0.237 OA
ATOM     97  O   UNL A   1      48.519  37.166  30.565  1.00  0.00    -0.237 OA
ATOM     98  O   UNL A   1      50.458  36.539  29.184  1.00  0.00    -0.744 OA
ENDBRANCH  94  95
ENDBRANCH  68  89
ENDBRANCH  42  43
ENDBRANCH  34  37
ENDBRANCH  32  33
ENDBRANCH  31  32
ENDBRANCH   1  31
TORSDOF 18
ENDMDL
MODEL 3
REMARK VINA RESULT:     -11.0      2.073      3.052
REMARK SMILES CCOC(=O)[C@@]1(C)C/C(=N/c2cccc(C(=O)NCCCNC(=O)c3ccc(-c4c5nc(c(-c6ccc(S(=O)(=O)[O-])cc6)c6ccc([nH]6)c(-c6ccc(S(=O)(=O)[O-])cc6)c6nc(c(-c7ccc(S(=O)(=O)[O-])cc7)c7ccc4[nH]7)C=C6)C=C5)cc3)c2)C(=O)N1c1ccccc1
REMARK SMILES IDX 19 1 18 2 16 3 17 4 15 6 11 7 12 8 85 9 13 10 14 11 10 12
REMARK SMILES IDX 6 13 7 14 8 15 88 16 9 17 86 18 87 19 4 20 5 21 3 22 2 23
REMARK SMILES IDX 1 24 89 25 90 26 94 27 91 28 93 29 92 30 20 31 21 32 22 33
REMARK SMILES IDX 23 34 24 36 25 37 26 38 84 39 27 40 83 41 28 42 29 43 30 44
REMARK SMILES IDX 77 45 31 46 82 47 76 48 78 49 32 50 81 51 75 52 74 53 33 55
REMARK SMILES IDX 63 56 44 57 62 58 45 59 48 60 61 61 79 62 46 63 47 64 60 66
REMARK SMILES IDX 80 67 49 68 34 69 35 70 43 71 36 72 42 73 37 74 38 75 39 76
REMARK SMILES IDX 40 77 41 78 64 79 65 80 73 81 66 82 72 83 67 84 68 85 69 86
REMARK SMILES IDX 70 87 71 88 50 89 51 90 59 91 52 92 58 93 53 94 54 95 55 96
REMARK SMILES IDX 56 97 57 98
REMARK H PARENT 18 5 22 35 78 54 48 65
REMARK Flexibility Score: inf
ROOT
ATOM      1  C   UNL A   1      37.651  22.807  25.668  1.00  0.00     0.118 C 
ENDROOT
BRANCH   1   2
ATOM      2  N   UNL A   1      37.340  21.413  25.388  1.00  0.00    -0.352 N 
ATOM      3  C   UNL A   1      36.144  20.742  25.293  1.00  0.00     0.251 C 
ATOM      4  O   UNL A   1      36.159  19.590  24.860  1.00  0.00    -0.269 OA
ATOM      5  H   UNL A   1      38.132  20.846  25.241  1.00  0.00     0.163 HD
BRANCH   3   6
ATOM      6  C   UNL A   1      34.839  21.357  25.652  1.00  0.00     0.041 A 
ATOM      7  C   UNL A   1      32.760  22.484  25.096  1.00  0.00     0.064 A 
ATOM      8  C   UNL A   1      32.410  22.512  26.446  1.00  0.00     0.028 A 
ATOM      9  C   UNL A   1      34.001  21.962  24.716  1.00  0.00     0.042 A 
ATOM     10  C   UNL A   1      33.268  21.969  27.403  1.00  0.00     0.003 A 
ATOM     11  C   UNL A   1      34.474  21.385  27.005  1.00  0.00     0.014 A 
BRANCH   7  12
ATOM     12  N   UNL A   1      31.886  22.987  24.123  1.00  0.00    -0.248 NA
ATOM     13  C   UNL A   1      30.407  26.195  23.947  1.00  0.00     0.148 C 
ATOM     14  C   UNL A   1      29.181  25.870  24.820  1.00  0.00     0.048 C 
ATOM     15  C   UNL A   1      30.736  24.905  23.137  1.00  0.00     0.103 C 
ATOM     16  N   UNL A   1      31.629  26.471  24.739  1.00  0.00    -0.290 N 
ATOM     17  C   UNL A   1      31.755  24.275  24.021  1.00  0.00     0.109 C 
ATOM     18  C   UNL A   1      32.468  25.364  24.788  1.00  0.00     0.273 C 
ATOM     19  O   UNL A   1      33.545  25.211  25.323  1.00  0.00    -0.267 OA
BRANCH  13  20
ATOM     20  C   UNL A   1      30.199  27.312  22.899  1.00  0.00     0.332 C 
ATOM     21  O   UNL A   1      30.923  27.471  21.922  1.00  0.00    -0.249 OA
BRANCH  20  22
ATOM     22  O   UNL A   1      29.180  28.149  23.239  1.00  0.00    -0.464 OA
BRANCH  22  23
ATOM     23  C   UNL A   1      29.474  29.555  23.192  1.00  0.00     0.229 C 
ATOM     24  C   UNL A   1      28.885  30.217  21.955  1.00  0.00     0.049 C 
ENDBRANCH  22  23
ENDBRANCH  20  22
ENDBRANCH  13  20
BRANCH  16  25
ATOM     25  C   UNL A   1      31.939  27.718  25.364  1.00  0.00     0.045 A 
ATOM     26  C   UNL A   1      31.470  28.005  26.657  1.00  0.00     0.026 A 
ATOM     27  C   UNL A   1      32.713  28.701  24.734  1.00  0.00     0.026 A 
ATOM     28  C   UNL A   1      31.758  29.219  27.290  1.00  0.00     0.002 A 
ATOM     29  C   UNL A   1      32.985  29.927  25.355  1.00  0.00     0.002 A 
ATOM     30  C   UNL A   1      32.511  30.186  26.635  1.00  0.00     0.000 A 
ENDBRANCH  16  25
ENDBRANCH   7  12
ENDBRANCH   3   6
ENDBRANCH   1   2
BRANCH   1  31
ATOM     31  C   UNL A   1      39.095  22.998  26.136  1.00  0.00     0.042 C 
BRANCH  31  32
ATOM     32  C   UNL A   1      39.867  21.695  26.353  1.00  0.00     0.118 C 
BRANCH  32  33
ATOM     33  N   UNL A   1      41.091  21.645  25.568  1.00  0.00    -0.352 N 
ATOM     34  C   UNL A   1      42.192  22.467  25.613  1.00  0.00     0.251 C 
ATOM     35  H   UNL A   1      41.138  20.915  24.910  1.00  0.00     0.163 HD
ATOM     36  O   UNL A   1      43.043  22.381  24.731  1.00  0.00    -0.269 OA
BRANCH  34  37
ATOM     37  C   UNL A   1      42.357  23.468  26.696  1.00  0.00     0.039 A 
ATOM     38  C   UNL A   1      42.719  24.775  26.349  1.00  0.00     0.014 A 
ATOM     39  C   UNL A   1      42.220  23.120  28.043  1.00  0.00     0.014 A 
ATOM     40  C   UNL A   1      42.888  25.745  27.344  1.00  0.00     0.010 A 
ATOM     41  C   UNL A   1      42.364  24.095  29.034  1.00  0.00     0.010 A 
ATOM     42  C   UNL A   1      42.695  25.416  28.693  1.00  0.00    -0.014 A 
BRANCH  42  43
ATOM     43  C   UNL A   1      42.825  26.441  29.758  1.00  0.00     0.031 A 
ATOM     44  C   UNL A   1      43.970  26.394  30.730  1.00  0.00     0.074 A 
ATOM     45  C   UNL A   1      41.877  27.388  29.891  1.00  0.00     0.049 A 
ATOM     46  N   UNL A   1      44.184  27.140  31.784  1.00  0.00    -0.248 NA
ATOM     47  C   UNL A   1      44.999  25.372  30.491  1.00  0.00     0.031 C 
ATOM     48  C   UNL A   1      40.703  27.540  29.029  1.00  0.00     0.029 A 
ATOM     49  N   UNL A   1      41.745  28.393  30.817  1.00  0.00    -0.354 N 
ATOM     50  C   UNL A   1      45.355  26.659  32.354  1.00  0.00     0.074 A 
ATOM     51  C   UNL A   1      45.808  25.561  31.525  1.00  0.00     0.031 C 
ATOM     52  C   UNL A   1      39.970  28.576  29.469  1.00  0.00     0.029 A 
ATOM     53  C   UNL A   1      40.607  29.145  30.653  1.00  0.00     0.049 A 
ATOM     54  H   UNL A   1      42.403  28.558  31.529  1.00  0.00     0.167 HD
ATOM     55  C   UNL A   1      45.996  27.088  33.469  1.00  0.00     0.031 A 
ATOM     56  C   UNL A   1      40.119  30.166  31.382  1.00  0.00     0.031 A 
ATOM     57  C   UNL A   1      45.571  28.187  34.291  1.00  0.00     0.049 A 
ATOM     58  C   UNL A   1      40.858  30.640  32.598  1.00  0.00     0.074 A 
ATOM     59  C   UNL A   1      46.179  28.705  35.422  1.00  0.00     0.029 A 
ATOM     60  N   UNL A   1      44.431  28.944  34.070  1.00  0.00    -0.354 N 
ATOM     61  N   UNL A   1      41.971  30.178  33.113  1.00  0.00    -0.248 NA
ATOM     62  C   UNL A   1      40.273  31.772  33.330  1.00  0.00     0.031 C 
ATOM     63  C   UNL A   1      45.399  29.771  35.891  1.00  0.00     0.029 A 
ATOM     64  C   UNL A   1      44.314  29.920  35.044  1.00  0.00     0.049 A 
ATOM     65  H   UNL A   1      43.798  28.806  33.328  1.00  0.00     0.167 HD
ATOM     66  C   UNL A   1      42.220  30.962  34.232  1.00  0.00     0.074 A 
ATOM     67  C   UNL A   1      41.149  31.936  34.313  1.00  0.00     0.031 C 
ATOM     68  C   UNL A   1      43.244  30.879  35.116  1.00  0.00     0.031 A 
BRANCH  55  69
ATOM     69  C   UNL A   1      47.228  26.331  33.872  1.00  0.00    -0.014 A 
ATOM     70  C   UNL A   1      48.494  26.717  33.401  1.00  0.00     0.010 A 
ATOM     71  C   UNL A   1      47.116  25.226  34.733  1.00  0.00     0.010 A 
ATOM     72  C   UNL A   1      49.630  25.985  33.756  1.00  0.00     0.020 A 
ATOM     73  C   UNL A   1      48.250  24.497  35.097  1.00  0.00     0.020 A 
ATOM     74  C   UNL A   1      49.498  24.869  34.590  1.00  0.00     0.054 A 
BRANCH  74  75
ATOM     75  S   UNL A   1      50.975  23.916  35.043  1.00  0.00     0.124 S 
ATOM     76  O   UNL A   1      50.635  22.586  34.544  1.00  0.00    -0.237 OA
ATOM     77  O   UNL A   1      52.046  24.600  34.323  1.00  0.00    -0.237 OA
ATOM     78  O   UNL A   1      51.027  24.044  36.497  1.00  0.00    -0.744 OA
ENDBRANCH  74  75
ENDBRANCH  55  69
BRANCH  56  79
ATOM     79  C   UNL A   1      38.842  30.801  30.977  1.00  0.00    -0.014 A 
ATOM     80  C   UNL A   1      37.620  30.300  31.455  1.00  0.00     0.010 A 
ATOM     81  C   UNL A   1      38.851  31.937  30.150  1.00  0.00     0.010 A 
ATOM     82  C   UNL A   1      36.421  30.931  31.120  1.00  0.00     0.020 A 
ATOM     83  C   UNL A   1      37.653  32.577  29.820  1.00  0.00     0.020 A 
ATOM     84  C   UNL A   1      36.444  32.068  30.306  1.00  0.00     0.054 A 
BRANCH  84  85
ATOM     85  S   UNL A   1      34.898  32.948  29.952  1.00  0.00     0.124 S 
ATOM     86  O   UNL A   1      34.323  33.099  31.286  1.00  0.00    -0.237 OA
ATOM     87  O   UNL A   1      35.358  34.182  29.318  1.00  0.00    -0.237 OA
ATOM     88  O   UNL A   1      34.194  32.029  29.060  1.00  0.00    -0.744 OA
ENDBRANCH  84  85
ENDBRANCH  56  79
BRANCH  68  89
ATOM     89  C   UNL A   1      43.255  31.871  36.241  1.00  0.00    -0.014 A 
ATOM     90  C   UNL A   1      43.873  33.123  36.081  1.00  0.00     0.010 A 
ATOM     91  C   UNL A   1      42.620  31.564  37.456  1.00  0.00     0.010 A 
ATOM     92  C   UNL A   1      43.875  34.048  37.129  1.00  0.00     0.020 A 
ATOM     93  C   UNL A   1      42.615  32.487  38.504  1.00  0.00     0.020 A 
ATOM     94  C   UNL A   1      43.254  33.719  38.337  1.00  0.00     0.054 A 
BRANCH  94  95
ATOM     95  S   UNL A   1      43.228  34.934  39.687  1.00  0.00     0.124 S 
ATOM     96  O   UNL A   1      43.597  36.164  38.993  1.00  0.00    -0.237 OA
ATOM     97  O   UNL A   1      41.848  34.872  40.165  1.00  0.00    -0.237 OA
ATOM     98  O   UNL A   1      44.226  34.420  40.622  1.00  0.00    -0.744 OA
ENDBRANCH  94  95
ENDBRANCH  68  89
ENDBRANCH  42  43
ENDBRANCH  34  37
ENDBRANCH  32  33
ENDBRANCH  31  32
ENDBRANCH   1  31
TORSDOF 18
ENDMDL
