MODEL 1
REMARK VINA RESULT:      -8.9      0.000      0.000
REMARK SMILES O=C(COC1CC[NH+](Cc2nccs2)CC1)NCCCNC(=O)c1ccc(-c2c3nc(c(-c4ccc(S(=O)(=O)[O-])cc4)c4ccc([nH]4)c(-c4ccc(S(=O)(=O)[O-])cc4)c4nc(c(-c5ccc(S(=O)(=O)[O-])cc5)c5ccc2[nH]5)C=C4)C=C3)cc1
REMARK SMILES IDX 18 1 17 2 1 3 2 4 3 6 4 7 5 8 6 9 16 10 7 11 15 12 8 13 9 15
REMARK SMILES IDX 10 16 11 17 14 18 12 19 13 20 19 21 20 22 21 23 22 24 23 26
REMARK SMILES IDX 24 27 25 28 83 29 26 30 82 31 27 32 28 33 29 34 76 35 30 36
REMARK SMILES IDX 81 37 75 38 77 39 31 40 80 41 74 42 73 43 32 45 62 46 43 47
REMARK SMILES IDX 61 48 44 49 47 50 60 51 78 52 45 53 46 54 59 56 79 57 48 58
REMARK SMILES IDX 33 59 34 60 42 61 35 62 41 63 36 64 37 65 38 66 39 67 40 68
REMARK SMILES IDX 63 69 64 70 72 71 65 72 71 73 66 74 67 75 68 76 69 77 70 78
REMARK SMILES IDX 49 79 50 80 58 81 51 82 57 83 52 84 53 85 54 86 55 87 56 88
REMARK H PARENT 17 5 8 14 21 25 77 44 47 55
REMARK Flexibility Score: inf
ROOT
ATOM      1  C   UNL A   1      34.015  34.557  30.142  1.00  0.00     0.117 C 
ENDROOT
BRANCH   1   2
ATOM      2  N   UNL A   1      34.584  35.165  31.327  1.00  0.00    -0.354 N 
ATOM      3  O   UNL A   1      33.293  34.037  32.868  1.00  0.00    -0.272 OA
ATOM      4  C   UNL A   1      34.257  34.745  32.601  1.00  0.00     0.246 C 
ATOM      5  H   UNL A   1      35.227  35.904  31.220  1.00  0.00     0.163 HD
BRANCH   4   6
ATOM      6  C   UNL A   1      35.263  35.203  33.659  1.00  0.00     0.260 C 
BRANCH   6   7
ATOM      7  O   UNL A   1      36.617  34.854  33.374  1.00  0.00    -0.368 OA
BRANCH   7   8
ATOM      8  C   UNL A   1      37.426  34.580  34.531  1.00  0.00     0.130 C 
ATOM      9  C   UNL A   1      38.874  34.396  34.066  1.00  0.00     0.093 C 
ATOM     10  C   UNL A   1      37.007  33.291  35.241  1.00  0.00     0.093 C 
ATOM     11  C   UNL A   1      39.029  33.143  33.197  1.00  0.00     0.265 C 
ATOM     12  C   UNL A   1      37.134  32.091  34.300  1.00  0.00     0.265 C 
ATOM     13  N   UNL A   1      38.524  31.931  33.865  1.00  0.00    -0.329 N 
ATOM     14  H   UNL A   1      39.087  31.799  34.704  1.00  0.00     0.348 HD
BRANCH  13  15
ATOM     15  C   UNL A   1      38.704  30.718  33.029  1.00  0.00     0.331 C 
BRANCH  15  16
ATOM     16  C   UNL A   1      39.946  29.893  33.295  1.00  0.00     0.147 A 
ATOM     17  N   UNL A   1      41.026  30.349  33.901  1.00  0.00    -0.244 NA
ATOM     18  S   UNL A   1      40.026  28.241  32.809  1.00  0.00    -0.122 S 
ATOM     19  C   UNL A   1      41.994  29.368  33.940  1.00  0.00     0.123 A 
ATOM     20  C   UNL A   1      41.631  28.153  33.404  1.00  0.00     0.087 A 
ENDBRANCH  15  16
ENDBRANCH  13  15
ENDBRANCH   7   8
ENDBRANCH   6   7
ENDBRANCH   4   6
ENDBRANCH   1   2
BRANCH   1  21
ATOM     21  C   UNL A   1      34.601  33.196  29.815  1.00  0.00     0.042 C 
BRANCH  21  22
ATOM     22  C   UNL A   1      34.725  32.903  28.325  1.00  0.00     0.118 C 
BRANCH  22  23
ATOM     23  N   UNL A   1      33.940  31.757  27.887  1.00  0.00    -0.352 N 
ATOM     24  C   UNL A   1      34.323  30.453  27.680  1.00  0.00     0.251 C 
ATOM     25  H   UNL A   1      32.990  31.945  27.713  1.00  0.00     0.163 HD
ATOM     26  O   UNL A   1      33.516  29.663  27.190  1.00  0.00    -0.269 OA
BRANCH  24  27
ATOM     27  C   UNL A   1      35.693  29.999  28.009  1.00  0.00     0.039 A 
ATOM     28  C   UNL A   1      36.667  30.023  27.006  1.00  0.00     0.014 A 
ATOM     29  C   UNL A   1      36.028  29.538  29.285  1.00  0.00     0.014 A 
ATOM     30  C   UNL A   1      37.981  29.648  27.300  1.00  0.00     0.010 A 
ATOM     31  C   UNL A   1      37.356  29.255  29.600  1.00  0.00     0.010 A 
ATOM     32  C   UNL A   1      38.348  29.298  28.610  1.00  0.00    -0.014 A 
BRANCH  32  33
ATOM     33  C   UNL A   1      39.763  28.983  28.948  1.00  0.00     0.031 A 
ATOM     34  C   UNL A   1      40.636  30.006  29.629  1.00  0.00     0.074 A 
ATOM     35  C   UNL A   1      40.274  27.782  28.613  1.00  0.00     0.049 A 
ATOM     36  N   UNL A   1      41.882  29.896  30.018  1.00  0.00    -0.248 NA
ATOM     37  C   UNL A   1      40.046  31.330  29.886  1.00  0.00     0.031 C 
ATOM     38  C   UNL A   1      39.553  26.723  27.901  1.00  0.00     0.029 A 
ATOM     39  N   UNL A   1      41.518  27.243  28.832  1.00  0.00    -0.354 N 
ATOM     40  C   UNL A   1      42.223  31.132  30.555  1.00  0.00     0.074 A 
ATOM     41  C   UNL A   1      41.076  31.995  30.388  1.00  0.00     0.031 C 
ATOM     42  C   UNL A   1      40.350  25.648  27.785  1.00  0.00     0.029 A 
ATOM     43  C   UNL A   1      41.651  25.953  28.372  1.00  0.00     0.049 A 
ATOM     44  H   UNL A   1      42.248  27.734  29.275  1.00  0.00     0.167 HD
ATOM     45  C   UNL A   1      43.378  31.510  31.156  1.00  0.00     0.031 A 
ATOM     46  C   UNL A   1      42.697  25.105  28.420  1.00  0.00     0.031 A 
ATOM     47  C   UNL A   1      44.519  30.649  31.326  1.00  0.00     0.049 A 
ATOM     48  C   UNL A   1      43.969  25.549  29.089  1.00  0.00     0.074 A 
ATOM     49  C   UNL A   1      45.714  30.921  31.971  1.00  0.00     0.029 A 
ATOM     50  N   UNL A   1      44.613  29.351  30.847  1.00  0.00    -0.354 N 
ATOM     51  N   UNL A   1      44.244  26.698  29.661  1.00  0.00    -0.248 NA
ATOM     52  C   UNL A   1      45.067  24.574  29.135  1.00  0.00     0.031 C 
ATOM     53  C   UNL A   1      46.552  29.811  31.827  1.00  0.00     0.029 A 
ATOM     54  C   UNL A   1      45.855  28.820  31.156  1.00  0.00     0.049 A 
ATOM     55  H   UNL A   1      43.901  28.877  30.357  1.00  0.00     0.167 HD
ATOM     56  C   UNL A   1      45.535  26.572  30.161  1.00  0.00     0.074 A 
ATOM     57  C   UNL A   1      45.977  25.230  29.842  1.00  0.00     0.031 C 
ATOM     58  C   UNL A   1      46.288  27.485  30.825  1.00  0.00     0.031 A 
BRANCH  45  59
ATOM     59  C   UNL A   1      43.465  32.924  31.675  1.00  0.00    -0.014 A 
ATOM     60  C   UNL A   1      42.975  33.265  32.949  1.00  0.00     0.010 A 
ATOM     61  C   UNL A   1      44.087  33.918  30.898  1.00  0.00     0.010 A 
ATOM     62  C   UNL A   1      43.065  34.579  33.417  1.00  0.00     0.020 A 
ATOM     63  C   UNL A   1      44.209  35.227  31.374  1.00  0.00     0.020 A 
ATOM     64  C   UNL A   1      43.681  35.552  32.626  1.00  0.00     0.054 A 
BRANCH  64  65
ATOM     65  S   UNL A   1      43.804  37.243  33.269  1.00  0.00     0.124 S 
ATOM     66  O   UNL A   1      43.715  38.037  32.046  1.00  0.00    -0.237 OA
ATOM     67  O   UNL A   1      42.649  37.331  34.158  1.00  0.00    -0.237 OA
ATOM     68  O   UNL A   1      45.104  37.269  33.933  1.00  0.00    -0.744 OA
ENDBRANCH  64  65
ENDBRANCH  45  59
BRANCH  46  69
ATOM     69  C   UNL A   1      42.577  23.739  27.836  1.00  0.00    -0.014 A 
ATOM     70  C   UNL A   1      42.192  22.648  28.635  1.00  0.00     0.010 A 
ATOM     71  C   UNL A   1      42.843  23.524  26.471  1.00  0.00     0.010 A 
ATOM     72  C   UNL A   1      42.097  21.366  28.088  1.00  0.00     0.020 A 
ATOM     73  C   UNL A   1      42.717  22.249  25.913  1.00  0.00     0.020 A 
ATOM     74  C   UNL A   1      42.357  21.175  26.727  1.00  0.00     0.054 A 
BRANCH  74  75
ATOM     75  S   UNL A   1      42.182  19.511  26.028  1.00  0.00     0.124 S 
ATOM     76  O   UNL A   1      40.753  19.453  25.735  1.00  0.00    -0.237 OA
ATOM     77  O   UNL A   1      43.066  19.562  24.866  1.00  0.00    -0.237 OA
ATOM     78  O   UNL A   1      42.636  18.637  27.108  1.00  0.00    -0.744 OA
ENDBRANCH  74  75
ENDBRANCH  46  69
BRANCH  58  79
ATOM     79  C   UNL A   1      47.656  27.049  31.284  1.00  0.00    -0.014 A 
ATOM     80  C   UNL A   1      48.792  27.219  30.473  1.00  0.00     0.010 A 
ATOM     81  C   UNL A   1      47.808  26.483  32.563  1.00  0.00     0.010 A 
ATOM     82  C   UNL A   1      50.045  26.782  30.912  1.00  0.00     0.020 A 
ATOM     83  C   UNL A   1      49.065  26.076  33.019  1.00  0.00     0.020 A 
ATOM     84  C   UNL A   1      50.173  26.209  32.181  1.00  0.00     0.054 A 
BRANCH  84  85
ATOM     85  S   UNL A   1      51.811  25.662  32.731  1.00  0.00     0.124 S 
ATOM     86  O   UNL A   1      52.663  26.765  32.295  1.00  0.00    -0.237 OA
ATOM     87  O   UNL A   1      51.638  25.536  34.177  1.00  0.00    -0.237 OA
ATOM     88  O   UNL A   1      52.012  24.400  32.022  1.00  0.00    -0.744 OA
ENDBRANCH  84  85
ENDBRANCH  58  79
ENDBRANCH  32  33
ENDBRANCH  24  27
ENDBRANCH  22  23
ENDBRANCH  21  22
ENDBRANCH   1  21
TORSDOF 17
ENDMDL
MODEL 2
REMARK VINA RESULT:      -8.6      0.959      8.455
REMARK SMILES O=C(COC1CC[NH+](Cc2nccs2)CC1)NCCCNC(=O)c1ccc(-c2c3nc(c(-c4ccc(S(=O)(=O)[O-])cc4)c4ccc([nH]4)c(-c4ccc(S(=O)(=O)[O-])cc4)c4nc(c(-c5ccc(S(=O)(=O)[O-])cc5)c5ccc2[nH]5)C=C4)C=C3)cc1
REMARK SMILES IDX 18 1 17 2 1 3 2 4 3 6 4 7 5 8 6 9 16 10 7 11 15 12 8 13 9 15
REMARK SMILES IDX 10 16 11 17 14 18 12 19 13 20 19 21 20 22 21 23 22 24 23 26
REMARK SMILES IDX 24 27 25 28 83 29 26 30 82 31 27 32 28 33 29 34 76 35 30 36
REMARK SMILES IDX 81 37 75 38 77 39 31 40 80 41 74 42 73 43 32 45 62 46 43 47
REMARK SMILES IDX 61 48 44 49 47 50 60 51 78 52 45 53 46 54 59 56 79 57 48 58
REMARK SMILES IDX 33 59 34 60 42 61 35 62 41 63 36 64 37 65 38 66 39 67 40 68
REMARK SMILES IDX 63 69 64 70 72 71 65 72 71 73 66 74 67 75 68 76 69 77 70 78
REMARK SMILES IDX 49 79 50 80 58 81 51 82 57 83 52 84 53 85 54 86 55 87 56 88
REMARK H PARENT 17 5 8 14 21 25 77 44 47 55
REMARK Flexibility Score: inf
ROOT
ATOM      1  C   UNL A   1      33.991  34.304  29.753  1.00  0.00     0.117 C 
ENDROOT
BRANCH   1   2
ATOM      2  N   UNL A   1      34.676  35.007  30.818  1.00  0.00    -0.354 N 
ATOM      3  O   UNL A   1      33.417  34.172  32.559  1.00  0.00    -0.272 OA
ATOM      4  C   UNL A   1      34.407  34.770  32.152  1.00  0.00     0.246 C 
ATOM      5  H   UNL A   1      35.358  35.679  30.582  1.00  0.00     0.163 HD
BRANCH   4   6
ATOM      6  C   UNL A   1      35.508  35.277  33.084  1.00  0.00     0.260 C 
BRANCH   6   7
ATOM      7  O   UNL A   1      36.732  34.549  33.001  1.00  0.00    -0.368 OA
BRANCH   7   8
ATOM      8  C   UNL A   1      37.467  34.459  34.234  1.00  0.00     0.130 C 
ATOM      9  C   UNL A   1      38.950  34.287  33.892  1.00  0.00     0.093 C 
ATOM     10  C   UNL A   1      37.047  33.249  35.072  1.00  0.00     0.093 C 
ATOM     11  C   UNL A   1      39.214  32.945  33.202  1.00  0.00     0.265 C 
ATOM     12  C   UNL A   1      37.287  31.950  34.302  1.00  0.00     0.265 C 
ATOM     13  N   UNL A   1      38.710  31.803  33.984  1.00  0.00    -0.329 N 
ATOM     14  H   UNL A   1      39.216  31.802  34.868  1.00  0.00     0.348 HD
BRANCH  13  15
ATOM     15  C   UNL A   1      38.995  30.505  33.322  1.00  0.00     0.331 C 
BRANCH  15  16
ATOM     16  C   UNL A   1      40.306  29.837  33.683  1.00  0.00     0.147 A 
ATOM     17  N   UNL A   1      40.962  29.010  32.890  1.00  0.00    -0.244 NA
ATOM     18  S   UNL A   1      41.054  30.132  35.207  1.00  0.00    -0.122 S 
ATOM     19  C   UNL A   1      42.086  28.536  33.531  1.00  0.00     0.123 A 
ATOM     20  C   UNL A   1      42.308  29.039  34.793  1.00  0.00     0.087 A 
ENDBRANCH  15  16
ENDBRANCH  13  15
ENDBRANCH   7   8
ENDBRANCH   6   7
ENDBRANCH   4   6
ENDBRANCH   1   2
BRANCH   1  21
ATOM     21  C   UNL A   1      34.441  32.864  29.588  1.00  0.00     0.042 C 
BRANCH  21  22
ATOM     22  C   UNL A   1      34.457  32.370  28.147  1.00  0.00     0.118 C 
BRANCH  22  23
ATOM     23  N   UNL A   1      33.892  31.038  27.978  1.00  0.00    -0.352 N 
ATOM     24  C   UNL A   1      34.514  29.812  27.956  1.00  0.00     0.251 C 
ATOM     25  H   UNL A   1      32.915  31.012  27.864  1.00  0.00     0.163 HD
ATOM     26  O   UNL A   1      33.853  28.811  27.681  1.00  0.00    -0.269 OA
BRANCH  24  27
ATOM     27  C   UNL A   1      35.963  29.687  28.229  1.00  0.00     0.039 A 
ATOM     28  C   UNL A   1      36.375  29.309  29.511  1.00  0.00     0.014 A 
ATOM     29  C   UNL A   1      36.921  29.948  27.245  1.00  0.00     0.014 A 
ATOM     30  C   UNL A   1      37.734  29.133  29.783  1.00  0.00     0.010 A 
ATOM     31  C   UNL A   1      38.268  29.682  27.492  1.00  0.00     0.010 A 
ATOM     32  C   UNL A   1      38.692  29.280  28.766  1.00  0.00    -0.014 A 
BRANCH  32  33
ATOM     33  C   UNL A   1      40.132  29.008  29.029  1.00  0.00     0.031 A 
ATOM     34  C   UNL A   1      40.740  27.675  28.673  1.00  0.00     0.074 A 
ATOM     35  C   UNL A   1      40.890  29.954  29.618  1.00  0.00     0.049 A 
ATOM     36  N   UNL A   1      41.979  27.273  28.809  1.00  0.00    -0.248 NA
ATOM     37  C   UNL A   1      39.839  26.652  28.116  1.00  0.00     0.031 C 
ATOM     38  C   UNL A   1      40.412  31.266  30.064  1.00  0.00     0.029 A 
ATOM     39  N   UNL A   1      42.225  29.964  29.939  1.00  0.00    -0.354 N 
ATOM     40  C   UNL A   1      42.003  25.956  28.364  1.00  0.00     0.074 A 
ATOM     41  C   UNL A   1      40.645  25.606  28.011  1.00  0.00     0.031 C 
ATOM     42  C   UNL A   1      41.445  31.968  30.555  1.00  0.00     0.029 A 
ATOM     43  C   UNL A   1      42.649  31.146  30.502  1.00  0.00     0.049 A 
ATOM     44  H   UNL A   1      42.822  29.197  29.783  1.00  0.00     0.167 HD
ATOM     45  C   UNL A   1      43.062  25.120  28.236  1.00  0.00     0.031 A 
ATOM     46  C   UNL A   1      43.870  31.530  30.923  1.00  0.00     0.031 A 
ATOM     47  C   UNL A   1      44.414  25.470  28.584  1.00  0.00     0.049 A 
ATOM     48  C   UNL A   1      45.029  30.582  30.774  1.00  0.00     0.074 A 
ATOM     49  C   UNL A   1      45.564  24.712  28.439  1.00  0.00     0.029 A 
ATOM     50  N   UNL A   1      44.802  26.675  29.150  1.00  0.00    -0.354 N 
ATOM     51  N   UNL A   1      45.043  29.369  30.277  1.00  0.00    -0.248 NA
ATOM     52  C   UNL A   1      46.340  31.066  31.227  1.00  0.00     0.031 C 
ATOM     53  C   UNL A   1      46.635  25.434  28.974  1.00  0.00     0.029 A 
ATOM     54  C   UNL A   1      46.167  26.671  29.386  1.00  0.00     0.049 A 
ATOM     55  H   UNL A   1      44.195  27.424  29.355  1.00  0.00     0.167 HD
ATOM     56  C   UNL A   1      46.369  28.954  30.330  1.00  0.00     0.074 A 
ATOM     57  C   UNL A   1      47.128  30.055  30.887  1.00  0.00     0.031 C 
ATOM     58  C   UNL A   1      46.911  27.769  29.951  1.00  0.00     0.031 A 
BRANCH  45  59
ATOM     59  C   UNL A   1      42.797  23.736  27.697  1.00  0.00    -0.014 A 
ATOM     60  C   UNL A   1      42.897  23.458  26.320  1.00  0.00     0.010 A 
ATOM     61  C   UNL A   1      42.490  22.686  28.582  1.00  0.00     0.010 A 
ATOM     62  C   UNL A   1      42.651  22.171  25.836  1.00  0.00     0.020 A 
ATOM     63  C   UNL A   1      42.275  21.389  28.106  1.00  0.00     0.020 A 
ATOM     64  C   UNL A   1      42.341  21.144  26.732  1.00  0.00     0.054 A 
BRANCH  64  65
ATOM     65  S   UNL A   1      42.050  19.478  26.076  1.00  0.00     0.124 S 
ATOM     66  O   UNL A   1      42.929  19.457  24.909  1.00  0.00    -0.237 OA
ATOM     67  O   UNL A   1      42.461  18.622  27.186  1.00  0.00    -0.237 OA
ATOM     68  O   UNL A   1      40.621  19.466  25.778  1.00  0.00    -0.744 OA
ENDBRANCH  64  65
ENDBRANCH  45  59
BRANCH  46  69
ATOM     69  C   UNL A   1      44.064  32.888  31.507  1.00  0.00    -0.014 A 
ATOM     70  C   UNL A   1      44.399  33.980  30.688  1.00  0.00     0.010 A 
ATOM     71  C   UNL A   1      43.906  33.097  32.890  1.00  0.00     0.010 A 
ATOM     72  C   UNL A   1      44.596  35.249  31.241  1.00  0.00     0.020 A 
ATOM     73  C   UNL A   1      44.070  34.370  33.442  1.00  0.00     0.020 A 
ATOM     74  C   UNL A   1      44.427  35.436  32.616  1.00  0.00     0.054 A 
BRANCH  74  75
ATOM     75  S   UNL A   1      44.641  37.100  33.305  1.00  0.00     0.124 S 
ATOM     76  O   UNL A   1      44.877  37.898  32.106  1.00  0.00    -0.237 OA
ATOM     77  O   UNL A   1      43.365  37.329  33.978  1.00  0.00    -0.237 OA
ATOM     78  O   UNL A   1      45.790  36.955  34.197  1.00  0.00    -0.744 OA
ENDBRANCH  74  75
ENDBRANCH  46  69
BRANCH  58  79
ATOM     79  C   UNL A   1      48.404  27.616  30.092  1.00  0.00    -0.014 A 
ATOM     80  C   UNL A   1      48.974  26.948  31.191  1.00  0.00     0.010 A 
ATOM     81  C   UNL A   1      49.250  28.128  29.091  1.00  0.00     0.010 A 
ATOM     82  C   UNL A   1      50.362  26.844  31.312  1.00  0.00     0.020 A 
ATOM     83  C   UNL A   1      50.637  27.994  29.191  1.00  0.00     0.020 A 
ATOM     84  C   UNL A   1      51.185  27.371  30.313  1.00  0.00     0.054 A 
BRANCH  84  85
ATOM     85  S   UNL A   1      52.983  27.211  30.487  1.00  0.00     0.124 S 
ATOM     86  O   UNL A   1      53.111  26.680  31.841  1.00  0.00    -0.237 OA
ATOM     87  O   UNL A   1      53.327  26.281  29.413  1.00  0.00    -0.237 OA
ATOM     88  O   UNL A   1      53.473  28.575  30.303  1.00  0.00    -0.744 OA
ENDBRANCH  84  85
ENDBRANCH  58  79
ENDBRANCH  32  33
ENDBRANCH  24  27
ENDBRANCH  22  23
ENDBRANCH  21  22
ENDBRANCH   1  21
TORSDOF 17
ENDMDL
MODEL 3
REMARK VINA RESULT:      -8.4      5.306     11.610
REMARK SMILES O=C(COC1CC[NH+](Cc2nccs2)CC1)NCCCNC(=O)c1ccc(-c2c3nc(c(-c4ccc(S(=O)(=O)[O-])cc4)c4ccc([nH]4)c(-c4ccc(S(=O)(=O)[O-])cc4)c4nc(c(-c5ccc(S(=O)(=O)[O-])cc5)c5ccc2[nH]5)C=C4)C=C3)cc1
REMARK SMILES IDX 18 1 17 2 1 3 2 4 3 6 4 7 5 8 6 9 16 10 7 11 15 12 8 13 9 15
REMARK SMILES IDX 10 16 11 17 14 18 12 19 13 20 19 21 20 22 21 23 22 24 23 26
REMARK SMILES IDX 24 27 25 28 83 29 26 30 82 31 27 32 28 33 29 34 76 35 30 36
REMARK SMILES IDX 81 37 75 38 77 39 31 40 80 41 74 42 73 43 32 45 62 46 43 47
REMARK SMILES IDX 61 48 44 49 47 50 60 51 78 52 45 53 46 54 59 56 79 57 48 58
REMARK SMILES IDX 33 59 34 60 42 61 35 62 41 63 36 64 37 65 38 66 39 67 40 68
REMARK SMILES IDX 63 69 64 70 72 71 65 72 71 73 66 74 67 75 68 76 69 77 70 78
REMARK SMILES IDX 49 79 50 80 58 81 51 82 57 83 52 84 53 85 54 86 55 87 56 88
REMARK H PARENT 17 5 8 14 21 25 77 44 47 55
REMARK Flexibility Score: inf
ROOT
ATOM      1  C   UNL A   1      39.224  23.256  26.168  1.00  0.00     0.117 C 
ENDROOT
BRANCH   1   2
ATOM      2  N   UNL A   1      37.957  23.955  26.229  1.00  0.00    -0.354 N 
ATOM      3  O   UNL A   1      37.093  23.141  24.253  1.00  0.00    -0.272 OA
ATOM      4  C   UNL A   1      36.943  23.725  25.321  1.00  0.00     0.246 C 
ATOM      5  H   UNL A   1      37.814  24.617  26.944  1.00  0.00     0.163 HD
BRANCH   4   6
ATOM      6  C   UNL A   1      35.580  24.223  25.806  1.00  0.00     0.260 C 
BRANCH   6   7
ATOM      7  O   UNL A   1      34.466  23.538  25.234  1.00  0.00    -0.368 OA
BRANCH   7   8
ATOM      8  C   UNL A   1      33.480  23.093  26.182  1.00  0.00     0.130 C 
ATOM      9  C   UNL A   1      33.904  21.714  26.696  1.00  0.00     0.093 C 
ATOM     10  C   UNL A   1      32.095  22.939  25.548  1.00  0.00     0.093 C 
ATOM     11  C   UNL A   1      33.856  20.661  25.583  1.00  0.00     0.265 C 
ATOM     12  C   UNL A   1      32.132  21.915  24.413  1.00  0.00     0.265 C 
ATOM     13  N   UNL A   1      32.540  20.604  24.923  1.00  0.00    -0.329 N 
ATOM     14  H   UNL A   1      31.862  20.335  25.635  1.00  0.00     0.348 HD
BRANCH  13  15
ATOM     15  C   UNL A   1      32.492  19.561  23.866  1.00  0.00     0.331 C 
BRANCH  15  16
ATOM     16  C   UNL A   1      32.738  18.135  24.313  1.00  0.00     0.147 A 
ATOM     17  N   UNL A   1      32.113  17.554  25.321  1.00  0.00    -0.244 NA
ATOM     18  S   UNL A   1      33.887  17.143  23.499  1.00  0.00    -0.122 S 
ATOM     19  C   UNL A   1      32.599  16.277  25.502  1.00  0.00     0.123 A 
ATOM     20  C   UNL A   1      33.561  15.873  24.603  1.00  0.00     0.087 A 
ENDBRANCH  15  16
ENDBRANCH  13  15
ENDBRANCH   7   8
ENDBRANCH   6   7
ENDBRANCH   4   6
ENDBRANCH   1   2
BRANCH   1  21
ATOM     21  C   UNL A   1      39.164  21.839  26.708  1.00  0.00     0.042 C 
BRANCH  21  22
ATOM     22  C   UNL A   1      39.268  20.754  25.645  1.00  0.00     0.118 C 
BRANCH  22  23
ATOM     23  N   UNL A   1      40.201  19.688  25.985  1.00  0.00    -0.352 N 
ATOM     24  C   UNL A   1      41.509  19.761  26.402  1.00  0.00     0.251 C 
ATOM     25  H   UNL A   1      39.839  18.776  25.905  1.00  0.00     0.163 HD
ATOM     26  O   UNL A   1      42.157  18.721  26.524  1.00  0.00    -0.269 OA
BRANCH  24  27
ATOM     27  C   UNL A   1      42.151  21.066  26.676  1.00  0.00     0.039 A 
ATOM     28  C   UNL A   1      42.530  21.868  25.595  1.00  0.00     0.014 A 
ATOM     29  C   UNL A   1      42.397  21.504  27.980  1.00  0.00     0.014 A 
ATOM     30  C   UNL A   1      43.091  23.127  25.824  1.00  0.00     0.010 A 
ATOM     31  C   UNL A   1      42.869  22.797  28.207  1.00  0.00     0.010 A 
ATOM     32  C   UNL A   1      43.231  23.621  27.132  1.00  0.00    -0.014 A 
BRANCH  32  33
ATOM     33  C   UNL A   1      43.746  24.996  27.378  1.00  0.00     0.031 A 
ATOM     34  C   UNL A   1      45.188  25.337  27.102  1.00  0.00     0.074 A 
ATOM     35  C   UNL A   1      42.919  25.935  27.879  1.00  0.00     0.049 A 
ATOM     36  N   UNL A   1      45.802  26.486  27.236  1.00  0.00    -0.248 NA
ATOM     37  C   UNL A   1      46.061  24.245  26.641  1.00  0.00     0.031 C 
ATOM     38  C   UNL A   1      41.516  25.720  28.243  1.00  0.00     0.029 A 
ATOM     39  N   UNL A   1      43.135  27.260  28.167  1.00  0.00    -0.354 N 
ATOM     40  C   UNL A   1      47.127  26.254  26.884  1.00  0.00     0.074 A 
ATOM     41  C   UNL A   1      47.243  24.843  26.590  1.00  0.00     0.031 C 
ATOM     42  C   UNL A   1      40.985  26.882  28.658  1.00  0.00     0.029 A 
ATOM     43  C   UNL A   1      42.017  27.913  28.634  1.00  0.00     0.049 A 
ATOM     44  H   UNL A   1      44.007  27.702  28.050  1.00  0.00     0.167 HD
ATOM     45  C   UNL A   1      48.151  27.137  26.790  1.00  0.00     0.031 A 
ATOM     46  C   UNL A   1      41.838  29.198  28.997  1.00  0.00     0.031 A 
ATOM     47  C   UNL A   1      48.034  28.542  27.079  1.00  0.00     0.049 A 
ATOM     48  C   UNL A   1      42.991  30.159  28.887  1.00  0.00     0.074 A 
ATOM     49  C   UNL A   1      48.999  29.528  26.960  1.00  0.00     0.029 A 
ATOM     50  N   UNL A   1      46.886  29.163  27.549  1.00  0.00    -0.354 N 
ATOM     51  N   UNL A   1      44.216  29.933  28.477  1.00  0.00    -0.248 NA
ATOM     52  C   UNL A   1      42.729  31.552  29.272  1.00  0.00     0.031 C 
ATOM     53  C   UNL A   1      48.453  30.732  27.416  1.00  0.00     0.029 A 
ATOM     54  C   UNL A   1      47.127  30.513  27.751  1.00  0.00     0.049 A 
ATOM     55  H   UNL A   1      46.027  28.711  27.715  1.00  0.00     0.167 HD
ATOM     56  C   UNL A   1      44.864  31.163  28.527  1.00  0.00     0.074 A 
ATOM     57  C   UNL A   1      43.888  32.130  28.985  1.00  0.00     0.031 C 
ATOM     58  C   UNL A   1      46.151  31.465  28.218  1.00  0.00     0.031 A 
BRANCH  45  59
ATOM     59  C   UNL A   1      49.494  26.604  26.356  1.00  0.00    -0.014 A 
ATOM     60  C   UNL A   1      50.005  26.872  25.072  1.00  0.00     0.010 A 
ATOM     61  C   UNL A   1      50.279  25.865  27.259  1.00  0.00     0.010 A 
ATOM     62  C   UNL A   1      51.252  26.375  24.686  1.00  0.00     0.020 A 
ATOM     63  C   UNL A   1      51.542  25.392  26.889  1.00  0.00     0.020 A 
ATOM     64  C   UNL A   1      52.012  25.636  25.597  1.00  0.00     0.054 A 
BRANCH  64  65
ATOM     65  S   UNL A   1      53.637  25.024  25.075  1.00  0.00     0.124 S 
ATOM     66  O   UNL A   1      53.684  25.447  23.677  1.00  0.00    -0.237 OA
ATOM     67  O   UNL A   1      54.548  25.728  25.974  1.00  0.00    -0.237 OA
ATOM     68  O   UNL A   1      53.549  23.581  25.284  1.00  0.00    -0.744 OA
ENDBRANCH  64  65
ENDBRANCH  45  59
BRANCH  46  69
ATOM     69  C   UNL A   1      40.504  29.658  29.478  1.00  0.00    -0.014 A 
ATOM     70  C   UNL A   1      40.234  29.762  30.854  1.00  0.00     0.010 A 
ATOM     71  C   UNL A   1      39.496  30.001  28.558  1.00  0.00     0.010 A 
ATOM     72  C   UNL A   1      38.977  30.177  31.301  1.00  0.00     0.020 A 
ATOM     73  C   UNL A   1      38.249  30.448  29.001  1.00  0.00     0.020 A 
ATOM     74  C   UNL A   1      37.992  30.521  30.370  1.00  0.00     0.054 A 
BRANCH  74  75
ATOM     75  S   UNL A   1      36.383  31.103  30.974  1.00  0.00     0.124 S 
ATOM     76  O   UNL A   1      35.587  31.120  29.750  1.00  0.00    -0.237 OA
ATOM     77  O   UNL A   1      36.023  30.076  31.949  1.00  0.00    -0.237 OA
ATOM     78  O   UNL A   1      36.686  32.414  31.543  1.00  0.00    -0.744 OA
ENDBRANCH  74  75
ENDBRANCH  46  69
BRANCH  58  79
ATOM     79  C   UNL A   1      46.567  32.909  28.334  1.00  0.00    -0.014 A 
ATOM     80  C   UNL A   1      46.423  33.804  27.257  1.00  0.00     0.010 A 
ATOM     81  C   UNL A   1      47.087  33.384  29.552  1.00  0.00     0.010 A 
ATOM     82  C   UNL A   1      46.842  35.131  27.382  1.00  0.00     0.020 A 
ATOM     83  C   UNL A   1      47.475  34.719  29.690  1.00  0.00     0.020 A 
ATOM     84  C   UNL A   1      47.369  35.580  28.597  1.00  0.00     0.054 A 
BRANCH  84  85
ATOM     85  S   UNL A   1      47.893  37.310  28.736  1.00  0.00     0.124 S 
ATOM     86  O   UNL A   1      48.836  37.253  29.850  1.00  0.00    -0.237 OA
ATOM     87  O   UNL A   1      48.484  37.572  27.426  1.00  0.00    -0.237 OA
ATOM     88  O   UNL A   1      46.650  38.029  29.007  1.00  0.00    -0.744 OA
ENDBRANCH  84  85
ENDBRANCH  58  79
ENDBRANCH  32  33
ENDBRANCH  24  27
ENDBRANCH  22  23
ENDBRANCH  21  22
ENDBRANCH   1  21
TORSDOF 17
ENDMDL
