MODEL 1
REMARK VINA RESULT:     -12.3      0.000      0.000
REMARK SMILES CC(=O)c1nnn(-c2ccc(C(=O)NCCCNC(=O)c3ccc(-c4c5nc(c(-c6ccc(S(=O)(=O)[O-])cc6)c6ccc([nH]6)c(-c6ccc(S(=O)(=O)[O-])cc6)c6nc(c(-c7ccc(S(=O)(=O)[O-])cc7)c7ccc4[nH]7)C=C6)C=C5)cc3)cc2)c1C
REMARK SMILES IDX 16 1 15 2 14 3 12 4 13 5 11 7 8 8 9 9 82 10 10 11 81 12 7 13
REMARK SMILES IDX 4 14 5 15 83 16 6 17 84 18 2 19 1 20 3 21 17 22 18 23 19 24
REMARK SMILES IDX 20 26 21 27 22 28 80 29 23 30 79 31 24 32 25 33 26 34 73 35
REMARK SMILES IDX 27 36 78 37 72 38 74 39 28 40 77 41 71 42 70 43 29 45 59 46
REMARK SMILES IDX 40 47 58 48 41 49 44 50 57 51 75 52 42 53 43 54 56 56 76 57
REMARK SMILES IDX 45 58 30 59 31 60 39 61 32 62 38 63 33 64 34 65 35 66 36 67
REMARK SMILES IDX 37 68 60 69 61 70 69 71 62 72 68 73 63 74 64 75 65 76 66 77
REMARK SMILES IDX 67 78 46 79 47 80 55 81 48 82 54 83 49 84 50 85 51 86 52 87
REMARK SMILES IDX 53 88
REMARK H PARENT 14 6 18 25 74 44 44 55
REMARK Flexibility Score: inf
ROOT
ATOM      1  C   UNL A   1      37.854  19.734  24.698  1.00  0.00     0.042 C 
ENDROOT
BRANCH   1   2
ATOM      2  C   UNL A   1      36.494  20.375  25.013  1.00  0.00     0.118 C 
BRANCH   2   3
ATOM      3  N   UNL A   1      35.400  19.419  24.920  1.00  0.00    -0.352 N 
ATOM      4  C   UNL A   1      34.041  19.548  25.085  1.00  0.00     0.251 C 
ATOM      5  O   UNL A   1      33.332  18.580  24.819  1.00  0.00    -0.269 OA
ATOM      6  H   UNL A   1      35.688  18.505  24.696  1.00  0.00     0.163 HD
BRANCH   4   7
ATOM      7  C   UNL A   1      33.390  20.825  25.497  1.00  0.00     0.039 A 
ATOM      8  C   UNL A   1      32.399  23.376  26.035  1.00  0.00     0.067 A 
ATOM      9  C   UNL A   1      32.061  22.761  24.830  1.00  0.00     0.029 A 
ATOM     10  C   UNL A   1      33.098  22.683  27.021  1.00  0.00     0.029 A 
ATOM     11  C   UNL A   1      32.587  21.495  24.554  1.00  0.00     0.016 A 
ATOM     12  C   UNL A   1      33.548  21.394  26.760  1.00  0.00     0.016 A 
BRANCH   8  13
ATOM     13  N   UNL A   1      32.122  24.736  26.242  1.00  0.00    -0.217 N 
ATOM     14  C   UNL A   1      32.247  26.896  26.447  1.00  0.00     0.151 A 
ATOM     15  N   UNL A   1      31.039  26.471  26.937  1.00  0.00    -0.126 NA
ATOM     16  C   UNL A   1      32.952  25.809  25.960  1.00  0.00     0.073 A 
ATOM     17  N   UNL A   1      30.935  25.168  26.708  1.00  0.00    -0.061 NA
ATOM     18  C   UNL A   1      34.225  25.694  25.206  1.00  0.00     0.069 C 
BRANCH  14  19
ATOM     19  C   UNL A   1      32.608  28.302  26.399  1.00  0.00     0.181 C 
ATOM     20  C   UNL A   1      33.777  28.738  27.246  1.00  0.00     0.095 C 
ATOM     21  O   UNL A   1      32.012  29.106  25.684  1.00  0.00    -0.293 OA
ENDBRANCH  14  19
ENDBRANCH   8  13
ENDBRANCH   4   7
ENDBRANCH   2   3
ENDBRANCH   1   2
BRANCH   1  22
ATOM     22  C   UNL A   1      38.924  20.152  25.686  1.00  0.00     0.118 C 
BRANCH  22  23
ATOM     23  N   UNL A   1      39.977  19.141  25.826  1.00  0.00    -0.352 N 
ATOM     24  C   UNL A   1      41.335  19.333  26.028  1.00  0.00     0.251 C 
ATOM     25  H   UNL A   1      39.681  18.204  25.769  1.00  0.00     0.163 HD
ATOM     26  O   UNL A   1      42.133  18.447  25.775  1.00  0.00    -0.269 OA
BRANCH  24  27
ATOM     27  C   UNL A   1      41.783  20.630  26.566  1.00  0.00     0.039 A 
ATOM     28  C   UNL A   1      42.461  21.575  25.788  1.00  0.00     0.014 A 
ATOM     29  C   UNL A   1      41.471  20.896  27.893  1.00  0.00     0.014 A 
ATOM     30  C   UNL A   1      42.754  22.817  26.350  1.00  0.00     0.010 A 
ATOM     31  C   UNL A   1      41.547  22.174  28.357  1.00  0.00     0.010 A 
ATOM     32  C   UNL A   1      42.280  23.107  27.636  1.00  0.00    -0.014 A 
BRANCH  32  33
ATOM     33  C   UNL A   1      42.418  24.415  28.260  1.00  0.00     0.031 A 
ATOM     34  C   UNL A   1      41.270  25.323  28.001  1.00  0.00     0.074 A 
ATOM     35  C   UNL A   1      43.338  24.622  29.231  1.00  0.00     0.049 A 
ATOM     36  N   UNL A   1      41.267  26.412  27.308  1.00  0.00    -0.248 NA
ATOM     37  C   UNL A   1      39.920  24.874  28.399  1.00  0.00     0.031 C 
ATOM     38  C   UNL A   1      44.304  23.656  29.781  1.00  0.00     0.029 A 
ATOM     39  N   UNL A   1      43.503  25.687  30.057  1.00  0.00    -0.354 N 
ATOM     40  C   UNL A   1      39.977  26.922  27.419  1.00  0.00     0.074 A 
ATOM     41  C   UNL A   1      39.155  25.827  27.864  1.00  0.00     0.031 C 
ATOM     42  C   UNL A   1      44.741  24.082  30.986  1.00  0.00     0.029 A 
ATOM     43  C   UNL A   1      44.225  25.418  31.220  1.00  0.00     0.049 A 
ATOM     44  H   UNL A   1      43.143  26.580  29.850  1.00  0.00     0.167 HD
ATOM     45  C   UNL A   1      39.750  28.267  27.449  1.00  0.00     0.031 A 
ATOM     46  C   UNL A   1      44.352  26.219  32.312  1.00  0.00     0.031 A 
ATOM     47  C   UNL A   1      40.928  29.001  27.056  1.00  0.00     0.049 A 
ATOM     48  C   UNL A   1      43.984  27.589  31.875  1.00  0.00     0.074 A 
ATOM     49  C   UNL A   1      41.730  29.021  25.931  1.00  0.00     0.029 A 
ATOM     50  N   UNL A   1      41.680  29.549  28.071  1.00  0.00    -0.354 N 
ATOM     51  N   UNL A   1      44.678  28.266  31.002  1.00  0.00    -0.248 NA
ATOM     52  C   UNL A   1      42.594  27.997  32.015  1.00  0.00     0.031 C 
ATOM     53  C   UNL A   1      43.060  29.125  26.434  1.00  0.00     0.029 A 
ATOM     54  C   UNL A   1      42.998  29.267  27.822  1.00  0.00     0.049 A 
ATOM     55  H   UNL A   1      41.332  30.055  28.841  1.00  0.00     0.167 HD
ATOM     56  C   UNL A   1      43.729  28.847  30.172  1.00  0.00     0.074 A 
ATOM     57  C   UNL A   1      42.467  28.732  30.905  1.00  0.00     0.031 C 
ATOM     58  C   UNL A   1      43.998  29.088  28.854  1.00  0.00     0.031 A 
BRANCH  45  59
ATOM     59  C   UNL A   1      38.651  28.919  28.261  1.00  0.00    -0.014 A 
ATOM     60  C   UNL A   1      37.682  29.685  27.580  1.00  0.00     0.010 A 
ATOM     61  C   UNL A   1      38.691  29.051  29.665  1.00  0.00     0.010 A 
ATOM     62  C   UNL A   1      36.875  30.608  28.257  1.00  0.00     0.020 A 
ATOM     63  C   UNL A   1      37.860  29.935  30.354  1.00  0.00     0.020 A 
ATOM     64  C   UNL A   1      36.985  30.739  29.640  1.00  0.00     0.054 A 
BRANCH  64  65
ATOM     65  S   UNL A   1      36.031  32.018  30.489  1.00  0.00     0.124 S 
ATOM     66  O   UNL A   1      35.748  31.379  31.769  1.00  0.00    -0.237 OA
ATOM     67  O   UNL A   1      36.977  33.131  30.528  1.00  0.00    -0.237 OA
ATOM     68  O   UNL A   1      34.876  32.218  29.616  1.00  0.00    -0.744 OA
ENDBRANCH  64  65
ENDBRANCH  45  59
BRANCH  46  69
ATOM     69  C   UNL A   1      44.485  25.839  33.746  1.00  0.00    -0.014 A 
ATOM     70  C   UNL A   1      45.748  25.687  34.352  1.00  0.00     0.010 A 
ATOM     71  C   UNL A   1      43.364  25.900  34.598  1.00  0.00     0.010 A 
ATOM     72  C   UNL A   1      45.889  25.665  35.755  1.00  0.00     0.020 A 
ATOM     73  C   UNL A   1      43.494  25.875  35.995  1.00  0.00     0.020 A 
ATOM     74  C   UNL A   1      44.759  25.785  36.569  1.00  0.00     0.054 A 
BRANCH  74  75
ATOM     75  S   UNL A   1      44.959  25.953  38.371  1.00  0.00     0.124 S 
ATOM     76  O   UNL A   1      43.657  26.466  38.784  1.00  0.00    -0.237 OA
ATOM     77  O   UNL A   1      45.262  24.588  38.789  1.00  0.00    -0.237 OA
ATOM     78  O   UNL A   1      46.068  26.898  38.507  1.00  0.00    -0.744 OA
ENDBRANCH  74  75
ENDBRANCH  46  69
BRANCH  58  79
ATOM     79  C   UNL A   1      45.429  28.949  28.374  1.00  0.00    -0.014 A 
ATOM     80  C   UNL A   1      46.024  27.724  28.005  1.00  0.00     0.010 A 
ATOM     81  C   UNL A   1      46.141  30.135  28.134  1.00  0.00     0.010 A 
ATOM     82  C   UNL A   1      47.310  27.693  27.440  1.00  0.00     0.020 A 
ATOM     83  C   UNL A   1      47.411  30.112  27.554  1.00  0.00     0.020 A 
ATOM     84  C   UNL A   1      47.996  28.891  27.220  1.00  0.00     0.054 A 
BRANCH  84  85
ATOM     85  S   UNL A   1      49.644  28.856  26.461  1.00  0.00     0.124 S 
ATOM     86  O   UNL A   1      49.377  28.269  25.151  1.00  0.00    -0.237 OA
ATOM     87  O   UNL A   1      50.031  30.264  26.454  1.00  0.00    -0.237 OA
ATOM     88  O   UNL A   1      50.426  28.013  27.367  1.00  0.00    -0.744 OA
ENDBRANCH  84  85
ENDBRANCH  58  79
ENDBRANCH  32  33
ENDBRANCH  24  27
ENDBRANCH  22  23
ENDBRANCH   1  22
TORSDOF 15
ENDMDL
MODEL 2
REMARK VINA RESULT:     -12.0      2.836      7.484
REMARK SMILES CC(=O)c1nnn(-c2ccc(C(=O)NCCCNC(=O)c3ccc(-c4c5nc(c(-c6ccc(S(=O)(=O)[O-])cc6)c6ccc([nH]6)c(-c6ccc(S(=O)(=O)[O-])cc6)c6nc(c(-c7ccc(S(=O)(=O)[O-])cc7)c7ccc4[nH]7)C=C6)C=C5)cc3)cc2)c1C
REMARK SMILES IDX 16 1 15 2 14 3 12 4 13 5 11 7 8 8 9 9 82 10 10 11 81 12 7 13
REMARK SMILES IDX 4 14 5 15 83 16 6 17 84 18 2 19 1 20 3 21 17 22 18 23 19 24
REMARK SMILES IDX 20 26 21 27 22 28 80 29 23 30 79 31 24 32 25 33 26 34 73 35
REMARK SMILES IDX 27 36 78 37 72 38 74 39 28 40 77 41 71 42 70 43 29 45 59 46
REMARK SMILES IDX 40 47 58 48 41 49 44 50 57 51 75 52 42 53 43 54 56 56 76 57
REMARK SMILES IDX 45 58 30 59 31 60 39 61 32 62 38 63 33 64 34 65 35 66 36 67
REMARK SMILES IDX 37 68 60 69 61 70 69 71 62 72 68 73 63 74 64 75 65 76 66 77
REMARK SMILES IDX 67 78 46 79 47 80 55 81 48 82 54 83 49 84 50 85 51 86 52 87
REMARK SMILES IDX 53 88
REMARK H PARENT 14 6 18 25 74 44 44 55
REMARK Flexibility Score: inf
ROOT
ATOM      1  C   UNL A   1      35.802  22.081  25.872  1.00  0.00     0.042 C 
ENDROOT
BRANCH   1   2
ATOM      2  C   UNL A   1      35.744  20.917  24.872  1.00  0.00     0.118 C 
BRANCH   2   3
ATOM      3  N   UNL A   1      34.714  19.947  25.216  1.00  0.00    -0.352 N 
ATOM      4  C   UNL A   1      33.340  20.015  25.214  1.00  0.00     0.251 C 
ATOM      5  O   UNL A   1      32.710  18.983  25.437  1.00  0.00    -0.269 OA
ATOM      6  H   UNL A   1      35.068  19.075  25.506  1.00  0.00     0.163 HD
BRANCH   4   7
ATOM      7  C   UNL A   1      32.589  21.259  24.880  1.00  0.00     0.039 A 
ATOM      8  C   UNL A   1      31.507  23.736  24.192  1.00  0.00     0.067 A 
ATOM      9  C   UNL A   1      32.008  22.915  23.182  1.00  0.00     0.029 A 
ATOM     10  C   UNL A   1      31.410  23.278  25.504  1.00  0.00     0.029 A 
ATOM     11  C   UNL A   1      32.578  21.688  23.539  1.00  0.00     0.016 A 
ATOM     12  C   UNL A   1      31.910  22.023  25.828  1.00  0.00     0.016 A 
BRANCH   8  13
ATOM     13  N   UNL A   1      31.174  25.072  23.922  1.00  0.00    -0.217 N 
ATOM     14  C   UNL A   1      31.173  27.237  23.729  1.00  0.00     0.151 A 
ATOM     15  N   UNL A   1      29.909  26.767  23.488  1.00  0.00    -0.126 NA
ATOM     16  C   UNL A   1      32.019  26.169  23.976  1.00  0.00     0.073 A 
ATOM     17  N   UNL A   1      29.949  25.441  23.506  1.00  0.00    -0.061 NA
ATOM     18  C   UNL A   1      33.490  26.074  24.155  1.00  0.00     0.069 C 
BRANCH  14  19
ATOM     19  C   UNL A   1      31.506  28.647  23.626  1.00  0.00     0.181 C 
ATOM     20  C   UNL A   1      31.581  29.429  24.913  1.00  0.00     0.095 C 
ATOM     21  O   UNL A   1      31.742  29.185  22.545  1.00  0.00    -0.293 OA
ENDBRANCH  14  19
ENDBRANCH   8  13
ENDBRANCH   4   7
ENDBRANCH   2   3
ENDBRANCH   1   2
BRANCH   1  22
ATOM     22  C   UNL A   1      37.154  22.765  25.873  1.00  0.00     0.118 C 
BRANCH  22  23
ATOM     23  N   UNL A   1      38.244  21.841  26.205  1.00  0.00    -0.352 N 
ATOM     24  C   UNL A   1      39.559  22.138  26.526  1.00  0.00     0.251 C 
ATOM     25  H   UNL A   1      38.010  20.884  26.200  1.00  0.00     0.163 HD
ATOM     26  O   UNL A   1      40.430  21.290  26.433  1.00  0.00    -0.269 OA
BRANCH  24  27
ATOM     27  C   UNL A   1      39.871  23.501  26.993  1.00  0.00     0.039 A 
ATOM     28  C   UNL A   1      38.934  24.539  26.968  1.00  0.00     0.014 A 
ATOM     29  C   UNL A   1      41.148  23.710  27.499  1.00  0.00     0.014 A 
ATOM     30  C   UNL A   1      39.283  25.769  27.526  1.00  0.00     0.010 A 
ATOM     31  C   UNL A   1      41.401  24.821  28.244  1.00  0.00     0.010 A 
ATOM     32  C   UNL A   1      40.520  25.891  28.172  1.00  0.00    -0.014 A 
BRANCH  32  33
ATOM     33  C   UNL A   1      40.924  27.086  28.898  1.00  0.00     0.031 A 
ATOM     34  C   UNL A   1      42.044  27.824  28.256  1.00  0.00     0.074 A 
ATOM     35  C   UNL A   1      40.128  27.613  29.858  1.00  0.00     0.049 A 
ATOM     36  N   UNL A   1      43.245  27.977  28.703  1.00  0.00    -0.248 NA
ATOM     37  C   UNL A   1      41.866  28.290  26.866  1.00  0.00     0.031 C 
ATOM     38  C   UNL A   1      38.823  27.111  30.324  1.00  0.00     0.029 A 
ATOM     39  N   UNL A   1      40.223  28.799  30.511  1.00  0.00    -0.354 N 
ATOM     40  C   UNL A   1      43.887  28.791  27.774  1.00  0.00     0.074 A 
ATOM     41  C   UNL A   1      43.093  28.728  26.575  1.00  0.00     0.031 C 
ATOM     42  C   UNL A   1      38.154  28.099  30.957  1.00  0.00     0.029 A 
ATOM     43  C   UNL A   1      39.035  29.244  31.092  1.00  0.00     0.049 A 
ATOM     44  H   UNL A   1      41.065  29.306  30.571  1.00  0.00     0.167 HD
ATOM     45  C   UNL A   1      44.830  29.698  28.163  1.00  0.00     0.031 A 
ATOM     46  C   UNL A   1      38.783  30.477  31.606  1.00  0.00     0.031 A 
ATOM     47  C   UNL A   1      45.243  29.464  29.525  1.00  0.00     0.049 A 
ATOM     48  C   UNL A   1      40.104  31.107  31.859  1.00  0.00     0.074 A 
ATOM     49  C   UNL A   1      45.793  28.393  30.203  1.00  0.00     0.029 A 
ATOM     50  N   UNL A   1      44.693  30.284  30.486  1.00  0.00    -0.354 N 
ATOM     51  N   UNL A   1      40.950  30.649  32.741  1.00  0.00    -0.248 NA
ATOM     52  C   UNL A   1      40.687  31.914  30.798  1.00  0.00     0.031 C 
ATOM     53  C   UNL A   1      45.128  28.382  31.464  1.00  0.00     0.029 A 
ATOM     54  C   UNL A   1      44.289  29.496  31.533  1.00  0.00     0.049 A 
ATOM     55  H   UNL A   1      44.604  31.262  30.430  1.00  0.00     0.167 HD
ATOM     56  C   UNL A   1      42.185  30.710  32.108  1.00  0.00     0.074 A 
ATOM     57  C   UNL A   1      41.975  31.591  30.957  1.00  0.00     0.031 C 
ATOM     58  C   UNL A   1      43.170  29.807  32.397  1.00  0.00     0.031 A 
BRANCH  45  59
ATOM     59  C   UNL A   1      45.030  31.044  27.499  1.00  0.00    -0.014 A 
ATOM     60  C   UNL A   1      46.331  31.396  27.082  1.00  0.00     0.010 A 
ATOM     61  C   UNL A   1      44.072  32.078  27.528  1.00  0.00     0.010 A 
ATOM     62  C   UNL A   1      46.674  32.727  26.814  1.00  0.00     0.020 A 
ATOM     63  C   UNL A   1      44.393  33.401  27.219  1.00  0.00     0.020 A 
ATOM     64  C   UNL A   1      45.704  33.724  26.904  1.00  0.00     0.054 A 
BRANCH  64  65
ATOM     65  S   UNL A   1      46.183  35.452  26.679  1.00  0.00     0.124 S 
ATOM     66  O   UNL A   1      46.971  35.702  27.881  1.00  0.00    -0.237 OA
ATOM     67  O   UNL A   1      46.932  35.402  25.426  1.00  0.00    -0.237 OA
ATOM     68  O   UNL A   1      44.903  36.153  26.607  1.00  0.00    -0.744 OA
ENDBRANCH  64  65
ENDBRANCH  45  59
BRANCH  46  69
ATOM     69  C   UNL A   1      37.508  31.247  31.622  1.00  0.00    -0.014 A 
ATOM     70  C   UNL A   1      36.766  31.416  32.808  1.00  0.00     0.010 A 
ATOM     71  C   UNL A   1      37.161  32.059  30.523  1.00  0.00     0.010 A 
ATOM     72  C   UNL A   1      35.764  32.403  32.910  1.00  0.00     0.020 A 
ATOM     73  C   UNL A   1      36.163  33.040  30.614  1.00  0.00     0.020 A 
ATOM     74  C   UNL A   1      35.486  33.227  31.816  1.00  0.00     0.054 A 
BRANCH  74  75
ATOM     75  S   UNL A   1      34.335  34.625  32.009  1.00  0.00     0.124 S 
ATOM     76  O   UNL A   1      33.241  34.027  32.769  1.00  0.00    -0.237 OA
ATOM     77  O   UNL A   1      35.141  35.606  32.729  1.00  0.00    -0.237 OA
ATOM     78  O   UNL A   1      34.005  34.991  30.633  1.00  0.00    -0.744 OA
ENDBRANCH  74  75
ENDBRANCH  46  69
BRANCH  58  79
ATOM     79  C   UNL A   1      42.987  28.902  33.598  1.00  0.00    -0.014 A 
ATOM     80  C   UNL A   1      43.353  29.251  34.915  1.00  0.00     0.010 A 
ATOM     81  C   UNL A   1      42.264  27.715  33.399  1.00  0.00     0.010 A 
ATOM     82  C   UNL A   1      43.027  28.415  35.996  1.00  0.00     0.020 A 
ATOM     83  C   UNL A   1      41.919  26.889  34.472  1.00  0.00     0.020 A 
ATOM     84  C   UNL A   1      42.312  27.236  35.764  1.00  0.00     0.054 A 
BRANCH  84  85
ATOM     85  S   UNL A   1      41.862  26.169  37.163  1.00  0.00     0.124 S 
ATOM     86  O   UNL A   1      42.978  26.368  38.084  1.00  0.00    -0.237 OA
ATOM     87  O   UNL A   1      40.581  26.722  37.596  1.00  0.00    -0.237 OA
ATOM     88  O   UNL A   1      41.782  24.834  36.569  1.00  0.00    -0.744 OA
ENDBRANCH  84  85
ENDBRANCH  58  79
ENDBRANCH  32  33
ENDBRANCH  24  27
ENDBRANCH  22  23
ENDBRANCH   1  22
TORSDOF 15
ENDMDL
MODEL 3
REMARK VINA RESULT:     -12.0      4.087     10.134
REMARK SMILES CC(=O)c1nnn(-c2ccc(C(=O)NCCCNC(=O)c3ccc(-c4c5nc(c(-c6ccc(S(=O)(=O)[O-])cc6)c6ccc([nH]6)c(-c6ccc(S(=O)(=O)[O-])cc6)c6nc(c(-c7ccc(S(=O)(=O)[O-])cc7)c7ccc4[nH]7)C=C6)C=C5)cc3)cc2)c1C
REMARK SMILES IDX 16 1 15 2 14 3 12 4 13 5 11 7 8 8 9 9 82 10 10 11 81 12 7 13
REMARK SMILES IDX 4 14 5 15 83 16 6 17 84 18 2 19 1 20 3 21 17 22 18 23 19 24
REMARK SMILES IDX 20 26 21 27 22 28 80 29 23 30 79 31 24 32 25 33 26 34 73 35
REMARK SMILES IDX 27 36 78 37 72 38 74 39 28 40 77 41 71 42 70 43 29 45 59 46
REMARK SMILES IDX 40 47 58 48 41 49 44 50 57 51 75 52 42 53 43 54 56 56 76 57
REMARK SMILES IDX 45 58 30 59 31 60 39 61 32 62 38 63 33 64 34 65 35 66 36 67
REMARK SMILES IDX 37 68 60 69 61 70 69 71 62 72 68 73 63 74 64 75 65 76 66 77
REMARK SMILES IDX 67 78 46 79 47 80 55 81 48 82 54 83 49 84 50 85 51 86 52 87
REMARK SMILES IDX 53 88
REMARK H PARENT 14 6 18 25 74 44 44 55
REMARK Flexibility Score: inf
ROOT
ATOM      1  C   UNL A   1      31.405  31.879  26.418  1.00  0.00     0.042 C 
ENDROOT
BRANCH   1   2
ATOM      2  C   UNL A   1      31.801  30.474  25.940  1.00  0.00     0.118 C 
BRANCH   2   3
ATOM      3  N   UNL A   1      31.066  30.072  24.748  1.00  0.00    -0.352 N 
ATOM      4  C   UNL A   1      30.903  28.855  24.128  1.00  0.00     0.251 C 
ATOM      5  O   UNL A   1      30.111  28.787  23.190  1.00  0.00    -0.269 OA
ATOM      6  H   UNL A   1      30.595  30.812  24.302  1.00  0.00     0.163 HD
BRANCH   4   7
ATOM      7  C   UNL A   1      31.582  27.611  24.589  1.00  0.00     0.039 A 
ATOM      8  C   UNL A   1      32.710  25.124  25.161  1.00  0.00     0.067 A 
ATOM      9  C   UNL A   1      33.250  25.889  24.127  1.00  0.00     0.029 A 
ATOM     10  C   UNL A   1      31.720  25.644  25.992  1.00  0.00     0.029 A 
ATOM     11  C   UNL A   1      32.660  27.121  23.826  1.00  0.00     0.016 A 
ATOM     12  C   UNL A   1      31.197  26.903  25.727  1.00  0.00     0.016 A 
BRANCH   8  13
ATOM     13  N   UNL A   1      33.088  23.783  25.326  1.00  0.00    -0.217 N 
ATOM     14  C   UNL A   1      33.196  21.613  25.285  1.00  0.00     0.151 A 
ATOM     15  N   UNL A   1      34.116  22.089  26.183  1.00  0.00    -0.126 NA
ATOM     16  C   UNL A   1      32.543  22.679  24.691  1.00  0.00     0.073 A 
ATOM     17  N   UNL A   1      34.111  23.414  26.119  1.00  0.00    -0.061 NA
ATOM     18  C   UNL A   1      31.573  22.763  23.570  1.00  0.00     0.069 C 
BRANCH  14  19
ATOM     19  C   UNL A   1      33.062  20.196  24.995  1.00  0.00     0.181 C 
ATOM     20  C   UNL A   1      34.329  19.438  24.686  1.00  0.00     0.095 C 
ATOM     21  O   UNL A   1      31.974  19.624  25.022  1.00  0.00    -0.293 OA
ENDBRANCH  14  19
ENDBRANCH   8  13
ENDBRANCH   4   7
ENDBRANCH   2   3
ENDBRANCH   1   2
BRANCH   1  22
ATOM     22  C   UNL A   1      32.339  32.399  27.492  1.00  0.00     0.118 C 
BRANCH  22  23
ATOM     23  N   UNL A   1      32.231  33.851  27.667  1.00  0.00    -0.352 N 
ATOM     24  C   UNL A   1      32.972  34.678  28.496  1.00  0.00     0.251 C 
ATOM     25  H   UNL A   1      31.541  34.297  27.124  1.00  0.00     0.163 HD
ATOM     26  O   UNL A   1      32.559  35.781  28.809  1.00  0.00    -0.269 OA
BRANCH  24  27
ATOM     27  C   UNL A   1      34.278  34.191  28.978  1.00  0.00     0.039 A 
ATOM     28  C   UNL A   1      34.473  33.721  30.281  1.00  0.00     0.014 A 
ATOM     29  C   UNL A   1      35.320  34.185  28.059  1.00  0.00     0.014 A 
ATOM     30  C   UNL A   1      35.714  33.182  30.619  1.00  0.00     0.010 A 
ATOM     31  C   UNL A   1      36.439  33.454  28.317  1.00  0.00     0.010 A 
ATOM     32  C   UNL A   1      36.687  33.045  29.620  1.00  0.00    -0.014 A 
BRANCH  32  33
ATOM     33  C   UNL A   1      37.962  32.378  29.837  1.00  0.00     0.031 A 
ATOM     34  C   UNL A   1      37.971  30.955  29.406  1.00  0.00     0.074 A 
ATOM     35  C   UNL A   1      39.082  33.095  30.089  1.00  0.00     0.049 A 
ATOM     36  N   UNL A   1      38.074  29.907  30.153  1.00  0.00    -0.248 NA
ATOM     37  C   UNL A   1      37.638  30.649  28.001  1.00  0.00     0.031 C 
ATOM     38  C   UNL A   1      39.210  34.559  30.203  1.00  0.00     0.029 A 
ATOM     39  N   UNL A   1      40.378  32.694  30.135  1.00  0.00    -0.354 N 
ATOM     40  C   UNL A   1      38.095  28.826  29.276  1.00  0.00     0.074 A 
ATOM     41  C   UNL A   1      37.569  29.316  28.030  1.00  0.00     0.031 C 
ATOM     42  C   UNL A   1      40.502  34.918  30.033  1.00  0.00     0.029 A 
ATOM     43  C   UNL A   1      41.312  33.717  29.968  1.00  0.00     0.049 A 
ATOM     44  H   UNL A   1      40.639  31.755  30.276  1.00  0.00     0.167 HD
ATOM     45  C   UNL A   1      38.836  27.713  29.547  1.00  0.00     0.031 A 
ATOM     46  C   UNL A   1      42.648  33.582  29.749  1.00  0.00     0.031 A 
ATOM     47  C   UNL A   1      39.291  27.712  30.916  1.00  0.00     0.049 A 
ATOM     48  C   UNL A   1      43.008  32.205  30.172  1.00  0.00     0.074 A 
ATOM     49  C   UNL A   1      38.666  27.765  32.147  1.00  0.00     0.029 A 
ATOM     50  N   UNL A   1      40.596  28.096  31.132  1.00  0.00    -0.354 N 
ATOM     51  N   UNL A   1      42.927  31.800  31.410  1.00  0.00    -0.248 NA
ATOM     52  C   UNL A   1      42.964  31.152  29.168  1.00  0.00     0.031 C 
ATOM     53  C   UNL A   1      39.483  28.631  32.932  1.00  0.00     0.029 A 
ATOM     54  C   UNL A   1      40.609  28.977  32.182  1.00  0.00     0.049 A 
ATOM     55  H   UNL A   1      41.381  27.793  30.622  1.00  0.00     0.167 HD
ATOM     56  C   UNL A   1      42.365  30.532  31.329  1.00  0.00     0.074 A 
ATOM     57  C   UNL A   1      42.507  30.147  29.923  1.00  0.00     0.031 C 
ATOM     58  C   UNL A   1      41.573  30.048  32.331  1.00  0.00     0.031 A 
BRANCH  45  59
ATOM     59  C   UNL A   1      39.528  26.882  28.487  1.00  0.00    -0.014 A 
ATOM     60  C   UNL A   1      39.308  25.489  28.479  1.00  0.00     0.010 A 
ATOM     61  C   UNL A   1      40.593  27.360  27.694  1.00  0.00     0.010 A 
ATOM     62  C   UNL A   1      40.170  24.618  27.802  1.00  0.00     0.020 A 
ATOM     63  C   UNL A   1      41.432  26.504  26.978  1.00  0.00     0.020 A 
ATOM     64  C   UNL A   1      41.239  25.134  27.072  1.00  0.00     0.054 A 
BRANCH  64  65
ATOM     65  S   UNL A   1      42.419  23.999  26.304  1.00  0.00     0.124 S 
ATOM     66  O   UNL A   1      42.761  24.710  25.077  1.00  0.00    -0.237 OA
ATOM     67  O   UNL A   1      43.474  23.925  27.312  1.00  0.00    -0.237 OA
ATOM     68  O   UNL A   1      41.645  22.772  26.127  1.00  0.00    -0.744 OA
ENDBRANCH  64  65
ENDBRANCH  45  59
BRANCH  46  69
ATOM     69  C   UNL A   1      43.561  34.442  28.946  1.00  0.00    -0.014 A 
ATOM     70  C   UNL A   1      44.527  35.264  29.560  1.00  0.00     0.010 A 
ATOM     71  C   UNL A   1      43.673  34.243  27.554  1.00  0.00     0.010 A 
ATOM     72  C   UNL A   1      45.599  35.808  28.823  1.00  0.00     0.020 A 
ATOM     73  C   UNL A   1      44.734  34.785  26.813  1.00  0.00     0.020 A 
ATOM     74  C   UNL A   1      45.708  35.544  27.456  1.00  0.00     0.054 A 
BRANCH  74  75
ATOM     75  S   UNL A   1      47.193  36.082  26.548  1.00  0.00     0.124 S 
ATOM     76  O   UNL A   1      46.856  37.455  26.184  1.00  0.00    -0.237 OA
ATOM     77  O   UNL A   1      48.249  35.934  27.545  1.00  0.00    -0.237 OA
ATOM     78  O   UNL A   1      47.269  35.146  25.428  1.00  0.00    -0.744 OA
ENDBRANCH  74  75
ENDBRANCH  46  69
BRANCH  58  79
ATOM     79  C   UNL A   1      41.524  30.806  33.642  1.00  0.00    -0.014 A 
ATOM     80  C   UNL A   1      40.659  31.891  33.897  1.00  0.00     0.010 A 
ATOM     81  C   UNL A   1      42.275  30.287  34.709  1.00  0.00     0.010 A 
ATOM     82  C   UNL A   1      40.575  32.455  35.181  1.00  0.00     0.020 A 
ATOM     83  C   UNL A   1      42.180  30.831  35.992  1.00  0.00     0.020 A 
ATOM     84  C   UNL A   1      41.340  31.920  36.221  1.00  0.00     0.054 A 
BRANCH  84  85
ATOM     85  S   UNL A   1      41.209  32.627  37.887  1.00  0.00     0.124 S 
ATOM     86  O   UNL A   1      42.028  31.717  38.683  1.00  0.00    -0.237 OA
ATOM     87  O   UNL A   1      41.750  33.973  37.714  1.00  0.00    -0.237 OA
ATOM     88  O   UNL A   1      39.775  32.578  38.174  1.00  0.00    -0.744 OA
ENDBRANCH  84  85
ENDBRANCH  58  79
ENDBRANCH  32  33
ENDBRANCH  24  27
ENDBRANCH  22  23
ENDBRANCH   1  22
TORSDOF 15
ENDMDL
