MODEL 1
REMARK VINA RESULT:     -10.3      0.000      0.000
REMARK SMILES Cn1cc(SCC[C@@H]2CCC[C@@]2([NH3+])C(=O)NCCCNC(=O)c2ccc(-c3c4nc(c(-c5ccc(S(=O)(=O)[O-])cc5)c5ccc([nH]5)c(-c5ccc(S(=O)(=O)[O-])cc5)c5nc(c(-c6ccc(S(=O)(=O)[O-])cc6)c6ccc3[nH]6)C=C5)C=C4)cc2)cn1
REMARK SMILES IDX 17 1 16 2 14 3 15 4 12 6 8 7 9 8 10 9 11 10 7 11 6 12 5 13
REMARK SMILES IDX 4 14 1 15 2 16 3 17 84 18 83 19 13 20 18 24 19 25 20 26
REMARK SMILES IDX 21 27 22 29 23 30 24 31 82 32 25 33 81 34 26 35 27 36 28 37
REMARK SMILES IDX 75 38 29 39 80 40 74 41 76 42 30 43 79 44 73 45 72 46 31 48
REMARK SMILES IDX 61 49 42 50 60 51 43 52 46 53 59 54 77 55 44 56 45 57 58 59
REMARK SMILES IDX 78 60 47 61 32 62 33 63 41 64 34 65 40 66 35 67 36 68 37 69
REMARK SMILES IDX 38 70 39 71 62 72 63 73 71 74 64 75 70 76 65 77 66 78 67 79
REMARK SMILES IDX 68 80 69 81 48 82 49 83 57 84 50 85 56 86 51 87 52 88 53 89
REMARK SMILES IDX 54 90 55 91
REMARK H PARENT 16 5 13 21 13 22 13 23 20 28 76 47 46 58
REMARK Flexibility Score: inf
ROOT
ATOM      1  C   UNL A   1      33.589  29.121  24.891  1.00  0.00     0.118 C 
ENDROOT
BRANCH   1   2
ATOM      2  N   UNL A   1      33.954  28.747  23.550  1.00  0.00    -0.351 N 
ATOM      3  C   UNL A   1      33.355  28.016  22.588  1.00  0.00     0.281 C 
ATOM      4  O   UNL A   1      34.053  27.854  21.572  1.00  0.00    -0.268 OA
ATOM      5  H   UNL A   1      34.831  29.100  23.275  1.00  0.00     0.163 HD
BRANCH   3   6
ATOM      6  C   UNL A   1      31.930  27.361  22.633  1.00  0.00     0.176 C 
ATOM      7  C   UNL A   1      31.331  26.617  23.859  1.00  0.00     0.061 C 
ATOM      8  C   UNL A   1      29.811  26.787  23.641  1.00  0.00     0.011 C 
ATOM      9  C   UNL A   1      29.620  28.185  23.094  1.00  0.00     0.008 C 
ATOM     10  C   UNL A   1      30.989  28.609  22.596  1.00  0.00     0.079 C 
BRANCH   7  11
ATOM     11  C   UNL A   1      31.653  25.113  24.047  1.00  0.00     0.022 C 
BRANCH  11  12
ATOM     12  C   UNL A   1      32.940  24.807  24.850  1.00  0.00     0.075 C 
BRANCH  12  13
ATOM     13  S   UNL A   1      32.928  23.388  25.989  1.00  0.00    -0.123 SA
BRANCH  13  14
ATOM     14  C   UNL A   1      34.140  22.309  25.366  1.00  0.00     0.045 A 
ATOM     15  C   UNL A   1      37.416  20.977  24.880  1.00  0.00     0.173 C 
ATOM     16  N   UNL A   1      36.009  21.296  24.877  1.00  0.00    -0.275 N 
ATOM     17  C   UNL A   1      35.453  22.537  25.037  1.00  0.00     0.123 A 
ATOM     18  N   UNL A   1      35.101  20.301  24.864  1.00  0.00    -0.181 NA
ATOM     19  C   UNL A   1      33.957  20.925  25.167  1.00  0.00     0.150 A 
ENDBRANCH  13  14
ENDBRANCH  12  13
ENDBRANCH  11  12
ENDBRANCH   7  11
BRANCH   6  20
ATOM     20  N   UNL A   1      31.776  26.562  21.398  1.00  0.00    -0.345 N 
ATOM     21  H   UNL A   1      32.567  25.925  21.304  1.00  0.00     0.345 HD
ATOM     22  H   UNL A   1      31.744  27.185  20.591  1.00  0.00     0.345 HD
ATOM     23  H   UNL A   1      30.910  26.025  21.447  1.00  0.00     0.345 HD
ENDBRANCH   6  20
ENDBRANCH   3   6
ENDBRANCH   1   2
BRANCH   1  24
ATOM     24  C   UNL A   1      33.966  28.057  25.913  1.00  0.00     0.042 C 
BRANCH  24  25
ATOM     25  C   UNL A   1      33.481  28.362  27.327  1.00  0.00     0.118 C 
BRANCH  25  26
ATOM     26  N   UNL A   1      33.427  29.792  27.605  1.00  0.00    -0.352 N 
ATOM     27  C   UNL A   1      34.371  30.618  28.160  1.00  0.00     0.251 C 
ATOM     28  H   UNL A   1      32.583  30.233  27.356  1.00  0.00     0.163 HD
ATOM     29  O   UNL A   1      34.054  31.764  28.481  1.00  0.00    -0.269 OA
BRANCH  27  30
ATOM     30  C   UNL A   1      35.749  30.138  28.390  1.00  0.00     0.039 A 
ATOM     31  C   UNL A   1      36.686  30.249  27.360  1.00  0.00     0.014 A 
ATOM     32  C   UNL A   1      36.117  29.565  29.610  1.00  0.00     0.014 A 
ATOM     33  C   UNL A   1      38.006  29.848  27.575  1.00  0.00     0.010 A 
ATOM     34  C   UNL A   1      37.449  29.241  29.851  1.00  0.00     0.010 A 
ATOM     35  C   UNL A   1      38.409  29.376  28.836  1.00  0.00    -0.014 A 
BRANCH  35  36
ATOM     36  C   UNL A   1      39.825  29.024  29.116  1.00  0.00     0.031 A 
ATOM     37  C   UNL A   1      40.762  30.052  29.692  1.00  0.00     0.074 A 
ATOM     38  C   UNL A   1      40.285  27.801  28.786  1.00  0.00     0.049 A 
ATOM     39  N   UNL A   1      42.044  29.954  29.936  1.00  0.00    -0.248 NA
ATOM     40  C   UNL A   1      40.190  31.370  30.014  1.00  0.00     0.031 C 
ATOM     41  C   UNL A   1      39.487  26.727  28.188  1.00  0.00     0.029 A 
ATOM     42  N   UNL A   1      41.539  27.254  28.899  1.00  0.00    -0.354 N 
ATOM     43  C   UNL A   1      42.434  31.196  30.421  1.00  0.00     0.074 A 
ATOM     44  C   UNL A   1      41.264  32.048  30.390  1.00  0.00     0.031 C 
ATOM     45  C   UNL A   1      40.263  25.647  28.012  1.00  0.00     0.029 A 
ATOM     46  C   UNL A   1      41.623  25.962  28.436  1.00  0.00     0.049 A 
ATOM     47  H   UNL A   1      42.308  27.742  29.275  1.00  0.00     0.167 HD
ATOM     48  C   UNL A   1      43.650  31.589  30.871  1.00  0.00     0.031 A 
ATOM     49  C   UNL A   1      42.676  25.126  28.350  1.00  0.00     0.031 A 
ATOM     50  C   UNL A   1      44.810  30.738  30.904  1.00  0.00     0.049 A 
ATOM     51  C   UNL A   1      44.022  25.593  28.833  1.00  0.00     0.074 A 
ATOM     52  C   UNL A   1      46.073  31.025  31.389  1.00  0.00     0.029 A 
ATOM     53  N   UNL A   1      44.850  29.434  30.431  1.00  0.00    -0.354 N 
ATOM     54  N   UNL A   1      44.356  26.752  29.350  1.00  0.00    -0.248 NA
ATOM     55  C   UNL A   1      45.132  24.636  28.731  1.00  0.00     0.031 C 
ATOM     56  C   UNL A   1      46.894  29.918  31.154  1.00  0.00     0.029 A 
ATOM     57  C   UNL A   1      46.125  28.915  30.587  1.00  0.00     0.049 A 
ATOM     58  H   UNL A   1      44.086  28.950  30.042  1.00  0.00     0.167 HD
ATOM     59  C   UNL A   1      45.707  26.651  29.664  1.00  0.00     0.074 A 
ATOM     60  C   UNL A   1      46.125  25.315  29.292  1.00  0.00     0.031 C 
ATOM     61  C   UNL A   1      46.527  27.581  30.214  1.00  0.00     0.031 A 
BRANCH  48  62
ATOM     62  C   UNL A   1      43.792  33.011  31.354  1.00  0.00    -0.014 A 
ATOM     63  C   UNL A   1      43.594  33.344  32.706  1.00  0.00     0.010 A 
ATOM     64  C   UNL A   1      44.172  34.021  30.451  1.00  0.00     0.010 A 
ATOM     65  C   UNL A   1      43.731  34.666  33.139  1.00  0.00     0.020 A 
ATOM     66  C   UNL A   1      44.341  35.340  30.885  1.00  0.00     0.020 A 
ATOM     67  C   UNL A   1      44.102  35.656  32.223  1.00  0.00     0.054 A 
BRANCH  67  68
ATOM     68  S   UNL A   1      44.294  37.358  32.819  1.00  0.00     0.124 S 
ATOM     69  O   UNL A   1      43.174  37.479  33.749  1.00  0.00    -0.237 OA
ATOM     70  O   UNL A   1      45.619  37.335  33.430  1.00  0.00    -0.237 OA
ATOM     71  O   UNL A   1      44.184  38.166  31.606  1.00  0.00    -0.744 OA
ENDBRANCH  67  68
ENDBRANCH  48  62
BRANCH  49  72
ATOM     72  C   UNL A   1      42.496  23.756  27.792  1.00  0.00    -0.014 A 
ATOM     73  C   UNL A   1      42.755  23.497  26.435  1.00  0.00     0.010 A 
ATOM     74  C   UNL A   1      42.073  22.700  28.620  1.00  0.00     0.010 A 
ATOM     75  C   UNL A   1      42.577  22.213  25.912  1.00  0.00     0.020 A 
ATOM     76  C   UNL A   1      41.922  21.408  28.108  1.00  0.00     0.020 A 
ATOM     77  C   UNL A   1      42.164  21.176  26.754  1.00  0.00     0.054 A 
BRANCH  77  78
ATOM     78  S   UNL A   1      41.987  19.508  26.061  1.00  0.00     0.124 S 
ATOM     79  O   UNL A   1      40.552  19.434  25.809  1.00  0.00    -0.237 OA
ATOM     80  O   UNL A   1      42.837  19.568  24.875  1.00  0.00    -0.237 OA
ATOM     81  O   UNL A   1      42.481  18.641  27.130  1.00  0.00    -0.744 OA
ENDBRANCH  77  78
ENDBRANCH  49  72
BRANCH  61  82
ATOM     82  C   UNL A   1      47.953  27.178  30.489  1.00  0.00    -0.014 A 
ATOM     83  C   UNL A   1      48.990  27.491  29.593  1.00  0.00     0.010 A 
ATOM     84  C   UNL A   1      48.264  26.529  31.698  1.00  0.00     0.010 A 
ATOM     85  C   UNL A   1      50.308  27.135  29.887  1.00  0.00     0.020 A 
ATOM     86  C   UNL A   1      49.585  26.200  32.010  1.00  0.00     0.020 A 
ATOM     87  C   UNL A   1      50.599  26.495  31.097  1.00  0.00     0.054 A 
BRANCH  87  88
ATOM     88  S   UNL A   1      52.325  26.090  31.478  1.00  0.00     0.124 S 
ATOM     89  O   UNL A   1      52.707  27.190  32.360  1.00  0.00    -0.237 OA
ATOM     90  O   UNL A   1      52.212  24.782  32.119  1.00  0.00    -0.237 OA
ATOM     91  O   UNL A   1      52.977  26.084  30.172  1.00  0.00    -0.744 OA
ENDBRANCH  87  88
ENDBRANCH  61  82
ENDBRANCH  35  36
ENDBRANCH  27  30
ENDBRANCH  25  26
ENDBRANCH  24  25
ENDBRANCH   1  24
TORSDOF 18
ENDMDL
MODEL 2
REMARK VINA RESULT:     -10.3      1.546      3.307
REMARK SMILES Cn1cc(SCC[C@@H]2CCC[C@@]2([NH3+])C(=O)NCCCNC(=O)c2ccc(-c3c4nc(c(-c5ccc(S(=O)(=O)[O-])cc5)c5ccc([nH]5)c(-c5ccc(S(=O)(=O)[O-])cc5)c5nc(c(-c6ccc(S(=O)(=O)[O-])cc6)c6ccc3[nH]6)C=C5)C=C4)cc2)cn1
REMARK SMILES IDX 17 1 16 2 14 3 15 4 12 6 8 7 9 8 10 9 11 10 7 11 6 12 5 13
REMARK SMILES IDX 4 14 1 15 2 16 3 17 84 18 83 19 13 20 18 24 19 25 20 26
REMARK SMILES IDX 21 27 22 29 23 30 24 31 82 32 25 33 81 34 26 35 27 36 28 37
REMARK SMILES IDX 75 38 29 39 80 40 74 41 76 42 30 43 79 44 73 45 72 46 31 48
REMARK SMILES IDX 61 49 42 50 60 51 43 52 46 53 59 54 77 55 44 56 45 57 58 59
REMARK SMILES IDX 78 60 47 61 32 62 33 63 41 64 34 65 40 66 35 67 36 68 37 69
REMARK SMILES IDX 38 70 39 71 62 72 63 73 71 74 64 75 70 76 65 77 66 78 67 79
REMARK SMILES IDX 68 80 69 81 48 82 49 83 57 84 50 85 56 86 51 87 52 88 53 89
REMARK SMILES IDX 54 90 55 91
REMARK H PARENT 16 5 13 21 13 22 13 23 20 28 76 47 46 58
REMARK Flexibility Score: inf
ROOT
ATOM      1  C   UNL A   1      32.636  26.164  26.411  1.00  0.00     0.118 C 
ENDROOT
BRANCH   1   2
ATOM      2  N   UNL A   1      31.497  25.374  26.801  1.00  0.00    -0.351 N 
ATOM      3  C   UNL A   1      31.218  24.056  26.767  1.00  0.00     0.281 C 
ATOM      4  O   UNL A   1      30.062  23.776  27.128  1.00  0.00    -0.268 OA
ATOM      5  H   UNL A   1      30.762  25.914  27.173  1.00  0.00     0.163 HD
BRANCH   3   6
ATOM      6  C   UNL A   1      32.167  22.889  26.314  1.00  0.00     0.176 C 
ATOM      7  C   UNL A   1      33.361  23.045  25.333  1.00  0.00     0.061 C 
ATOM      8  C   UNL A   1      34.289  21.882  25.751  1.00  0.00     0.011 C 
ATOM      9  C   UNL A   1      34.203  21.800  27.260  1.00  0.00     0.008 C 
ATOM     10  C   UNL A   1      32.946  22.566  27.631  1.00  0.00     0.079 C 
BRANCH   7  11
ATOM     11  C   UNL A   1      33.090  22.957  23.810  1.00  0.00     0.022 C 
BRANCH  11  12
ATOM     12  C   UNL A   1      33.820  24.014  22.945  1.00  0.00     0.075 C 
BRANCH  12  13
ATOM     13  S   UNL A   1      32.837  24.984  21.760  1.00  0.00    -0.123 SA
BRANCH  13  14
ATOM     14  C   UNL A   1      31.877  26.046  22.745  1.00  0.00     0.045 A 
ATOM     15  C   UNL A   1      30.332  29.109  23.732  1.00  0.00     0.173 C 
ATOM     16  N   UNL A   1      30.835  27.763  23.594  1.00  0.00    -0.275 N 
ATOM     17  C   UNL A   1      32.010  27.388  23.001  1.00  0.00     0.123 A 
ATOM     18  N   UNL A   1      30.050  26.722  23.933  1.00  0.00    -0.181 NA
ATOM     19  C   UNL A   1      30.690  25.672  23.408  1.00  0.00     0.150 A 
ENDBRANCH  13  14
ENDBRANCH  12  13
ENDBRANCH  11  12
ENDBRANCH   7  11
BRANCH   6  20
ATOM     20  N   UNL A   1      31.307  21.750  25.930  1.00  0.00    -0.345 N 
ATOM     21  H   UNL A   1      31.222  21.106  26.717  1.00  0.00     0.345 HD
ATOM     22  H   UNL A   1      31.724  21.262  25.136  1.00  0.00     0.345 HD
ATOM     23  H   UNL A   1      30.383  22.094  25.669  1.00  0.00     0.345 HD
ENDBRANCH   6  20
ENDBRANCH   3   6
ENDBRANCH   1   2
BRANCH   1  24
ATOM     24  C   UNL A   1      32.487  27.629  26.801  1.00  0.00     0.042 C 
BRANCH  24  25
ATOM     25  C   UNL A   1      33.748  28.457  26.576  1.00  0.00     0.118 C 
BRANCH  25  26
ATOM     26  N   UNL A   1      33.613  29.826  27.059  1.00  0.00    -0.352 N 
ATOM     27  C   UNL A   1      34.453  30.569  27.848  1.00  0.00     0.251 C 
ATOM     28  H   UNL A   1      32.792  30.289  26.775  1.00  0.00     0.163 HD
ATOM     29  O   UNL A   1      34.062  31.647  28.297  1.00  0.00    -0.269 OA
BRANCH  27  30
ATOM     30  C   UNL A   1      35.808  30.078  28.175  1.00  0.00     0.039 A 
ATOM     31  C   UNL A   1      36.795  30.104  27.187  1.00  0.00     0.014 A 
ATOM     32  C   UNL A   1      36.105  29.578  29.446  1.00  0.00     0.014 A 
ATOM     33  C   UNL A   1      38.094  29.692  27.492  1.00  0.00     0.010 A 
ATOM     34  C   UNL A   1      37.417  29.245  29.772  1.00  0.00     0.010 A 
ATOM     35  C   UNL A   1      38.426  29.295  28.798  1.00  0.00    -0.014 A 
BRANCH  35  36
ATOM     36  C   UNL A   1      39.819  28.935  29.168  1.00  0.00     0.031 A 
ATOM     37  C   UNL A   1      40.711  29.946  29.839  1.00  0.00     0.074 A 
ATOM     38  C   UNL A   1      40.304  27.721  28.838  1.00  0.00     0.049 A 
ATOM     39  N   UNL A   1      41.972  29.841  30.172  1.00  0.00    -0.248 NA
ATOM     40  C   UNL A   1      40.116  31.255  30.157  1.00  0.00     0.031 C 
ATOM     41  C   UNL A   1      39.552  26.666  28.155  1.00  0.00     0.029 A 
ATOM     42  N   UNL A   1      41.547  27.171  29.025  1.00  0.00    -0.354 N 
ATOM     43  C   UNL A   1      42.325  31.068  30.718  1.00  0.00     0.074 A 
ATOM     44  C   UNL A   1      41.159  31.921  30.627  1.00  0.00     0.031 C 
ATOM     45  C   UNL A   1      40.340  25.590  28.004  1.00  0.00     0.029 A 
ATOM     46  C   UNL A   1      41.666  25.892  28.533  1.00  0.00     0.049 A 
ATOM     47  H   UNL A   1      42.286  27.648  29.468  1.00  0.00     0.167 HD
ATOM     48  C   UNL A   1      43.505  31.448  31.264  1.00  0.00     0.031 A 
ATOM     49  C   UNL A   1      42.724  25.058  28.499  1.00  0.00     0.031 A 
ATOM     50  C   UNL A   1      44.661  30.595  31.356  1.00  0.00     0.049 A 
ATOM     51  C   UNL A   1      44.031  25.511  29.090  1.00  0.00     0.074 A 
ATOM     52  C   UNL A   1      45.886  30.868  31.938  1.00  0.00     0.029 A 
ATOM     53  N   UNL A   1      44.736  29.306  30.851  1.00  0.00    -0.354 N 
ATOM     54  N   UNL A   1      44.325  26.655  29.662  1.00  0.00    -0.248 NA
ATOM     55  C   UNL A   1      45.147  24.557  29.041  1.00  0.00     0.031 C 
ATOM     56  C   UNL A   1      46.723  29.768  31.731  1.00  0.00     0.029 A 
ATOM     57  C   UNL A   1      45.997  28.781  31.082  1.00  0.00     0.049 A 
ATOM     58  H   UNL A   1      44.003  28.833  30.395  1.00  0.00     0.167 HD
ATOM     59  C   UNL A   1      45.651  26.545  30.069  1.00  0.00     0.074 A 
ATOM     60  C   UNL A   1      46.096  25.219  29.690  1.00  0.00     0.031 C 
ATOM     61  C   UNL A   1      46.427  27.458  30.702  1.00  0.00     0.031 A 
BRANCH  48  62
ATOM     62  C   UNL A   1      43.610  32.855  31.796  1.00  0.00    -0.014 A 
ATOM     63  C   UNL A   1      44.048  33.912  30.977  1.00  0.00     0.010 A 
ATOM     64  C   UNL A   1      43.222  33.133  33.120  1.00  0.00     0.010 A 
ATOM     65  C   UNL A   1      44.138  35.212  31.484  1.00  0.00     0.020 A 
ATOM     66  C   UNL A   1      43.280  34.437  33.621  1.00  0.00     0.020 A 
ATOM     67  C   UNL A   1      43.755  35.465  32.805  1.00  0.00     0.054 A 
BRANCH  67  68
ATOM     68  S   UNL A   1      43.861  37.164  33.427  1.00  0.00     0.124 S 
ATOM     69  O   UNL A   1      42.666  37.255  34.262  1.00  0.00    -0.237 OA
ATOM     70  O   UNL A   1      45.132  37.162  34.147  1.00  0.00    -0.237 OA
ATOM     71  O   UNL A   1      43.837  37.981  32.216  1.00  0.00    -0.744 OA
ENDBRANCH  67  68
ENDBRANCH  48  62
BRANCH  49  72
ATOM     72  C   UNL A   1      42.586  23.705  27.891  1.00  0.00    -0.014 A 
ATOM     73  C   UNL A   1      42.966  23.479  26.557  1.00  0.00     0.010 A 
ATOM     74  C   UNL A   1      42.083  22.632  28.649  1.00  0.00     0.010 A 
ATOM     75  C   UNL A   1      42.827  22.210  25.986  1.00  0.00     0.020 A 
ATOM     76  C   UNL A   1      41.971  21.355  28.093  1.00  0.00     0.020 A 
ATOM     77  C   UNL A   1      42.333  21.155  26.759  1.00  0.00     0.054 A 
BRANCH  77  78
ATOM     78  S   UNL A   1      42.209  19.508  26.010  1.00  0.00     0.124 S 
ATOM     79  O   UNL A   1      42.681  18.646  27.090  1.00  0.00    -0.237 OA
ATOM     80  O   UNL A   1      40.785  19.410  25.698  1.00  0.00    -0.237 OA
ATOM     81  O   UNL A   1      43.090  19.595  24.847  1.00  0.00    -0.744 OA
ENDBRANCH  77  78
ENDBRANCH  49  72
BRANCH  61  82
ATOM     82  C   UNL A   1      47.831  27.047  31.066  1.00  0.00    -0.014 A 
ATOM     83  C   UNL A   1      48.100  26.303  32.228  1.00  0.00     0.010 A 
ATOM     84  C   UNL A   1      48.889  27.362  30.193  1.00  0.00     0.010 A 
ATOM     85  C   UNL A   1      49.406  25.906  32.525  1.00  0.00     0.020 A 
ATOM     86  C   UNL A   1      50.191  26.940  30.471  1.00  0.00     0.020 A 
ATOM     87  C   UNL A   1      50.444  26.224  31.643  1.00  0.00     0.054 A 
BRANCH  87  88
ATOM     88  S   UNL A   1      52.121  25.653  32.026  1.00  0.00     0.124 S 
ATOM     89  O   UNL A   1      52.820  25.895  30.767  1.00  0.00    -0.237 OA
ATOM     90  O   UNL A   1      52.508  26.520  33.137  1.00  0.00    -0.237 OA
ATOM     91  O   UNL A   1      51.938  24.247  32.375  1.00  0.00    -0.744 OA
ENDBRANCH  87  88
ENDBRANCH  61  82
ENDBRANCH  35  36
ENDBRANCH  27  30
ENDBRANCH  25  26
ENDBRANCH  24  25
ENDBRANCH   1  24
TORSDOF 18
ENDMDL
MODEL 3
REMARK VINA RESULT:     -10.1      2.971      4.616
REMARK SMILES Cn1cc(SCC[C@@H]2CCC[C@@]2([NH3+])C(=O)NCCCNC(=O)c2ccc(-c3c4nc(c(-c5ccc(S(=O)(=O)[O-])cc5)c5ccc([nH]5)c(-c5ccc(S(=O)(=O)[O-])cc5)c5nc(c(-c6ccc(S(=O)(=O)[O-])cc6)c6ccc3[nH]6)C=C5)C=C4)cc2)cn1
REMARK SMILES IDX 17 1 16 2 14 3 15 4 12 6 8 7 9 8 10 9 11 10 7 11 6 12 5 13
REMARK SMILES IDX 4 14 1 15 2 16 3 17 84 18 83 19 13 20 18 24 19 25 20 26
REMARK SMILES IDX 21 27 22 29 23 30 24 31 82 32 25 33 81 34 26 35 27 36 28 37
REMARK SMILES IDX 75 38 29 39 80 40 74 41 76 42 30 43 79 44 73 45 72 46 31 48
REMARK SMILES IDX 61 49 42 50 60 51 43 52 46 53 59 54 77 55 44 56 45 57 58 59
REMARK SMILES IDX 78 60 47 61 32 62 33 63 41 64 34 65 40 66 35 67 36 68 37 69
REMARK SMILES IDX 38 70 39 71 62 72 63 73 71 74 64 75 70 76 65 77 66 78 67 79
REMARK SMILES IDX 68 80 69 81 48 82 49 83 57 84 50 85 56 86 51 87 52 88 53 89
REMARK SMILES IDX 54 90 55 91
REMARK H PARENT 16 5 13 21 13 22 13 23 20 28 76 47 46 58
REMARK Flexibility Score: inf
ROOT
ATOM      1  C   UNL A   1      32.007  27.420  26.268  1.00  0.00     0.118 C 
ENDROOT
BRANCH   1   2
ATOM      2  N   UNL A   1      31.515  26.175  26.797  1.00  0.00    -0.351 N 
ATOM      3  C   UNL A   1      31.705  24.881  26.471  1.00  0.00     0.281 C 
ATOM      4  O   UNL A   1      31.017  24.089  27.137  1.00  0.00    -0.268 OA
ATOM      5  H   UNL A   1      30.907  26.294  27.563  1.00  0.00     0.163 HD
BRANCH   3   6
ATOM      6  C   UNL A   1      32.656  24.303  25.364  1.00  0.00     0.176 C 
ATOM      7  C   UNL A   1      32.936  24.977  23.992  1.00  0.00     0.061 C 
ATOM      8  C   UNL A   1      34.336  24.430  23.632  1.00  0.00     0.011 C 
ATOM      9  C   UNL A   1      35.113  24.381  24.929  1.00  0.00     0.008 C 
ATOM     10  C   UNL A   1      34.065  24.456  26.025  1.00  0.00     0.079 C 
BRANCH   7  11
ATOM     11  C   UNL A   1      31.965  24.703  22.816  1.00  0.00     0.022 C 
BRANCH  11  12
ATOM     12  C   UNL A   1      31.463  25.961  22.065  1.00  0.00     0.075 C 
BRANCH  12  13
ATOM     13  S   UNL A   1      31.916  27.596  22.723  1.00  0.00    -0.123 SA
BRANCH  13  14
ATOM     14  C   UNL A   1      30.458  28.536  22.616  1.00  0.00     0.045 A 
ATOM     15  C   UNL A   1      28.076  30.747  21.140  1.00  0.00     0.173 C 
ATOM     16  N   UNL A   1      28.850  29.863  21.979  1.00  0.00    -0.275 N 
ATOM     17  C   UNL A   1      30.212  29.731  21.987  1.00  0.00     0.123 A 
ATOM     18  N   UNL A   1      28.218  28.953  22.746  1.00  0.00    -0.181 NA
ATOM     19  C   UNL A   1      29.207  28.140  23.133  1.00  0.00     0.150 A 
ENDBRANCH  13  14
ENDBRANCH  12  13
ENDBRANCH  11  12
ENDBRANCH   7  11
BRANCH   6  20
ATOM     20  N   UNL A   1      32.316  22.875  25.196  1.00  0.00    -0.345 N 
ATOM     21  H   UNL A   1      32.186  22.445  26.112  1.00  0.00     0.345 HD
ATOM     22  H   UNL A   1      33.074  22.401  24.704  1.00  0.00     0.345 HD
ATOM     23  H   UNL A   1      31.455  22.792  24.655  1.00  0.00     0.345 HD
ENDBRANCH   6  20
ENDBRANCH   3   6
ENDBRANCH   1   2
BRANCH   1  24
ATOM     24  C   UNL A   1      33.378  27.785  26.821  1.00  0.00     0.042 C 
BRANCH  24  25
ATOM     25  C   UNL A   1      34.090  28.879  26.031  1.00  0.00     0.118 C 
BRANCH  25  26
ATOM     26  N   UNL A   1      33.817  30.214  26.550  1.00  0.00    -0.352 N 
ATOM     27  C   UNL A   1      34.437  30.911  27.556  1.00  0.00     0.251 C 
ATOM     28  H   UNL A   1      33.073  30.687  26.113  1.00  0.00     0.163 HD
ATOM     29  O   UNL A   1      33.929  31.955  27.966  1.00  0.00    -0.269 OA
BRANCH  27  30
ATOM     30  C   UNL A   1      35.691  30.411  28.156  1.00  0.00     0.039 A 
ATOM     31  C   UNL A   1      36.910  30.765  27.572  1.00  0.00     0.014 A 
ATOM     32  C   UNL A   1      35.670  29.582  29.280  1.00  0.00     0.014 A 
ATOM     33  C   UNL A   1      38.107  30.344  28.155  1.00  0.00     0.010 A 
ATOM     34  C   UNL A   1      36.862  29.231  29.907  1.00  0.00     0.010 A 
ATOM     35  C   UNL A   1      38.095  29.605  29.350  1.00  0.00    -0.014 A 
BRANCH  35  36
ATOM     36  C   UNL A   1      39.356  29.219  30.036  1.00  0.00     0.031 A 
ATOM     37  C   UNL A   1      39.832  29.991  31.238  1.00  0.00     0.074 A 
ATOM     38  C   UNL A   1      40.107  28.219  29.534  1.00  0.00     0.049 A 
ATOM     39  N   UNL A   1      40.937  29.850  31.923  1.00  0.00    -0.248 NA
ATOM     40  C   UNL A   1      38.963  31.078  31.720  1.00  0.00     0.031 C 
ATOM     41  C   UNL A   1      39.774  27.418  28.354  1.00  0.00     0.029 A 
ATOM     42  N   UNL A   1      41.312  27.709  29.949  1.00  0.00    -0.354 N 
ATOM     43  C   UNL A   1      40.907  30.836  32.901  1.00  0.00     0.074 A 
ATOM     44  C   UNL A   1      39.698  31.602  32.690  1.00  0.00     0.031 C 
ATOM     45  C   UNL A   1      40.736  26.504  28.156  1.00  0.00     0.029 A 
ATOM     46  C   UNL A   1      41.778  26.682  29.162  1.00  0.00     0.049 A 
ATOM     47  H   UNL A   1      41.798  28.047  30.736  1.00  0.00     0.167 HD
ATOM     48  C   UNL A   1      41.794  31.073  33.896  1.00  0.00     0.031 A 
ATOM     49  C   UNL A   1      42.920  25.970  29.231  1.00  0.00     0.031 A 
ATOM     50  C   UNL A   1      42.994  30.306  34.106  1.00  0.00     0.049 A 
ATOM     51  C   UNL A   1      43.901  26.268  30.332  1.00  0.00     0.074 A 
ATOM     52  C   UNL A   1      43.930  30.434  35.116  1.00  0.00     0.029 A 
ATOM     53  N   UNL A   1      43.425  29.271  33.288  1.00  0.00    -0.354 N 
ATOM     54  N   UNL A   1      43.822  27.163  31.287  1.00  0.00    -0.248 NA
ATOM     55  C   UNL A   1      45.122  25.451  30.370  1.00  0.00     0.031 C 
ATOM     56  C   UNL A   1      44.959  29.518  34.877  1.00  0.00     0.029 A 
ATOM     57  C   UNL A   1      44.629  28.771  33.757  1.00  0.00     0.049 A 
ATOM     58  H   UNL A   1      42.947  28.941  32.494  1.00  0.00     0.167 HD
ATOM     59  C   UNL A   1      44.968  26.996  32.058  1.00  0.00     0.074 A 
ATOM     60  C   UNL A   1      45.715  25.905  31.467  1.00  0.00     0.031 C 
ATOM     61  C   UNL A   1      45.362  27.682  33.159  1.00  0.00     0.031 A 
BRANCH  48  62
ATOM     62  C   UNL A   1      41.506  32.220  34.833  1.00  0.00    -0.014 A 
ATOM     63  C   UNL A   1      42.010  33.509  34.582  1.00  0.00     0.010 A 
ATOM     64  C   UNL A   1      40.682  32.015  35.955  1.00  0.00     0.010 A 
ATOM     65  C   UNL A   1      41.732  34.562  35.459  1.00  0.00     0.020 A 
ATOM     66  C   UNL A   1      40.375  33.073  36.818  1.00  0.00     0.020 A 
ATOM     67  C   UNL A   1      40.918  34.336  36.573  1.00  0.00     0.054 A 
BRANCH  67  68
ATOM     68  S   UNL A   1      40.557  35.726  37.679  1.00  0.00     0.124 S 
ATOM     69  O   UNL A   1      39.770  36.602  36.814  1.00  0.00    -0.237 OA
ATOM     70  O   UNL A   1      39.819  35.088  38.765  1.00  0.00    -0.237 OA
ATOM     71  O   UNL A   1      41.878  36.235  38.042  1.00  0.00    -0.744 OA
ENDBRANCH  67  68
ENDBRANCH  48  62
BRANCH  49  72
ATOM     72  C   UNL A   1      43.191  24.898  28.232  1.00  0.00    -0.014 A 
ATOM     73  C   UNL A   1      43.894  25.185  27.049  1.00  0.00     0.010 A 
ATOM     74  C   UNL A   1      42.754  23.581  28.465  1.00  0.00     0.010 A 
ATOM     75  C   UNL A   1      44.139  24.179  26.109  1.00  0.00     0.020 A 
ATOM     76  C   UNL A   1      43.024  22.566  27.543  1.00  0.00     0.020 A 
ATOM     77  C   UNL A   1      43.705  22.875  26.364  1.00  0.00     0.054 A 
BRANCH  77  78
ATOM     78  S   UNL A   1      44.078  21.578  25.152  1.00  0.00     0.124 S 
ATOM     79  O   UNL A   1      43.950  22.296  23.888  1.00  0.00    -0.237 OA
ATOM     80  O   UNL A   1      45.435  21.183  25.521  1.00  0.00    -0.237 OA
ATOM     81  O   UNL A   1      43.052  20.568  25.406  1.00  0.00    -0.744 OA
ENDBRANCH  77  78
ENDBRANCH  49  72
BRANCH  61  82
ATOM     82  C   UNL A   1      46.642  27.251  33.828  1.00  0.00    -0.014 A 
ATOM     83  C   UNL A   1      47.877  27.836  33.497  1.00  0.00     0.010 A 
ATOM     84  C   UNL A   1      46.593  26.285  34.851  1.00  0.00     0.010 A 
ATOM     85  C   UNL A   1      49.044  27.441  34.155  1.00  0.00     0.020 A 
ATOM     86  C   UNL A   1      47.753  25.911  35.533  1.00  0.00     0.020 A 
ATOM     87  C   UNL A   1      48.974  26.483  35.173  1.00  0.00     0.054 A 
BRANCH  87  88
ATOM     88  S   UNL A   1      50.496  26.027  36.047  1.00  0.00     0.124 S 
ATOM     89  O   UNL A   1      51.497  26.839  35.361  1.00  0.00    -0.237 OA
ATOM     90  O   UNL A   1      50.204  26.421  37.423  1.00  0.00    -0.237 OA
ATOM     91  O   UNL A   1      50.605  24.587  35.827  1.00  0.00    -0.744 OA
ENDBRANCH  87  88
ENDBRANCH  61  82
ENDBRANCH  35  36
ENDBRANCH  27  30
ENDBRANCH  25  26
ENDBRANCH  24  25
ENDBRANCH   1  24
TORSDOF 18
ENDMDL
