MODEL 1
REMARK VINA RESULT:     -11.2      0.000      0.000
REMARK SMILES COc1ccc(C(=O)/C=C(\Nc2cccc(C(F)(F)F)c2)C(=O)NCCCNC(=O)c2ccc(-c3c4nc(c(-c5ccc(S(=O)(=O)[O-])cc5)c5ccc([nH]5)c(-c5ccc(S(=O)(=O)[O-])cc5)c5nc(c(-c6ccc(S(=O)(=O)[O-])cc6)c6ccc3[nH]6)C=C5)C=C4)cc2)cc1
REMARK SMILES IDX 26 1 25 2 24 3 22 4 23 5 10 7 9 8 7 9 8 10 6 11 3 12 4 13
REMARK SMILES IDX 92 14 5 15 91 16 2 17 1 18 11 19 12 21 13 22 21 23 14 24
REMARK SMILES IDX 16 25 15 26 17 27 18 28 19 29 20 30 27 31 28 32 29 33 30 35
REMARK SMILES IDX 31 36 32 37 90 38 33 39 89 40 34 41 35 42 36 43 83 44 37 45
REMARK SMILES IDX 88 46 82 47 84 48 38 49 87 50 81 51 80 52 39 54 69 55 50 56
REMARK SMILES IDX 68 57 51 58 54 59 67 60 85 61 52 62 53 63 66 65 86 66 55 67
REMARK SMILES IDX 40 68 41 69 49 70 42 71 48 72 43 73 44 74 45 75 46 76 47 77
REMARK SMILES IDX 70 78 71 79 79 80 72 81 78 82 73 83 74 84 75 85 76 86 77 87
REMARK SMILES IDX 56 88 57 89 65 90 58 91 64 92 59 93 60 94 61 95 62 96 63 97
REMARK H PARENT 24 6 11 20 28 34 84 53 54 64
REMARK Flexibility Score: inf
ROOT
ATOM      1  C   UNL A   1      32.015  28.980  26.042  1.00  0.00     0.042 C 
ENDROOT
BRANCH   1   2
ATOM      2  C   UNL A   1      31.886  28.125  24.798  1.00  0.00     0.118 C 
BRANCH   2   3
ATOM      3  N   UNL A   1      30.627  28.174  24.097  1.00  0.00    -0.351 N 
ATOM      4  C   UNL A   1      29.688  27.185  23.999  1.00  0.00     0.267 C 
ATOM      5  O   UNL A   1      28.600  27.462  23.488  1.00  0.00    -0.268 OA
ATOM      6  H   UNL A   1      30.419  29.018  23.634  1.00  0.00     0.163 HD
BRANCH   4   7
ATOM      7  C   UNL A   1      29.997  25.748  24.394  1.00  0.00     0.108 C 
ATOM      8  C   UNL A   1      30.257  25.685  25.719  1.00  0.00     0.084 C 
BRANCH   8   9
ATOM      9  C   UNL A   1      30.686  24.521  26.544  1.00  0.00     0.188 C 
ATOM     10  O   UNL A   1      29.850  23.897  27.193  1.00  0.00    -0.289 OA
BRANCH   9  11
ATOM     11  C   UNL A   1      32.107  24.109  26.601  1.00  0.00     0.022 A 
ATOM     12  C   UNL A   1      34.758  23.274  26.397  1.00  0.00     0.118 A 
ATOM     13  C   UNL A   1      34.411  24.570  26.021  1.00  0.00     0.047 A 
ATOM     14  C   UNL A   1      33.813  22.440  26.990  1.00  0.00     0.047 A 
ATOM     15  C   UNL A   1      33.082  24.990  26.118  1.00  0.00     0.016 A 
ATOM     16  C   UNL A   1      32.485  22.860  27.101  1.00  0.00     0.016 A 
BRANCH  12  17
ATOM     17  O   UNL A   1      36.058  22.885  26.221  1.00  0.00    -0.497 OA
ATOM     18  C   UNL A   1      36.150  21.588  25.625  1.00  0.00     0.278 C 
ENDBRANCH  12  17
ENDBRANCH   9  11
ENDBRANCH   8   9
BRANCH   7  19
ATOM     19  N   UNL A   1      30.146  24.722  23.463  1.00  0.00    -0.351 N 
ATOM     20  H   UNL A   1      29.356  24.529  22.909  1.00  0.00     0.167 HD
BRANCH  19  21
ATOM     21  C   UNL A   1      31.275  23.929  23.212  1.00  0.00     0.039 A 
ATOM     22  C   UNL A   1      32.412  24.500  22.617  1.00  0.00     0.026 A 
ATOM     23  C   UNL A   1      31.310  22.580  23.565  1.00  0.00     0.039 A 
ATOM     24  C   UNL A   1      33.592  23.773  22.467  1.00  0.00     0.003 A 
ATOM     25  C   UNL A   1      32.490  21.827  23.404  1.00  0.00     0.058 A 
ATOM     26  C   UNL A   1      33.634  22.443  22.870  1.00  0.00     0.013 A 
BRANCH  25  27
ATOM     27  C   UNL A   1      32.557  20.405  23.899  1.00  0.00     0.416 C 
ATOM     28  F   UNL A   1      31.838  20.189  25.033  1.00  0.00    -0.166 F 
ATOM     29  F   UNL A   1      32.106  19.520  22.967  1.00  0.00    -0.166 F 
ATOM     30  F   UNL A   1      33.830  20.012  24.190  1.00  0.00    -0.166 F 
ENDBRANCH  25  27
ENDBRANCH  19  21
ENDBRANCH   7  19
ENDBRANCH   4   7
ENDBRANCH   2   3
ENDBRANCH   1   2
BRANCH   1  31
ATOM     31  C   UNL A   1      33.414  29.548  26.273  1.00  0.00     0.118 C 
BRANCH  31  32
ATOM     32  N   UNL A   1      33.452  30.868  26.905  1.00  0.00    -0.352 N 
ATOM     33  C   UNL A   1      34.303  31.472  27.807  1.00  0.00     0.251 C 
ATOM     34  H   UNL A   1      32.709  31.451  26.626  1.00  0.00     0.163 HD
ATOM     35  O   UNL A   1      33.998  32.567  28.265  1.00  0.00    -0.269 OA
BRANCH  33  36
ATOM     36  C   UNL A   1      35.542  30.810  28.285  1.00  0.00     0.039 A 
ATOM     37  C   UNL A   1      36.783  31.329  27.894  1.00  0.00     0.014 A 
ATOM     38  C   UNL A   1      35.508  29.688  29.104  1.00  0.00     0.014 A 
ATOM     39  C   UNL A   1      37.964  30.809  28.436  1.00  0.00     0.010 A 
ATOM     40  C   UNL A   1      36.661  29.265  29.751  1.00  0.00     0.010 A 
ATOM     41  C   UNL A   1      37.906  29.826  29.435  1.00  0.00    -0.014 A 
BRANCH  41  42
ATOM     42  C   UNL A   1      39.110  29.360  30.175  1.00  0.00     0.031 A 
ATOM     43  C   UNL A   1      39.541  30.080  31.428  1.00  0.00     0.074 A 
ATOM     44  C   UNL A   1      39.877  28.378  29.659  1.00  0.00     0.049 A 
ATOM     45  N   UNL A   1      40.661  29.977  32.097  1.00  0.00    -0.248 NA
ATOM     46  C   UNL A   1      38.610  31.083  31.974  1.00  0.00     0.031 C 
ATOM     47  C   UNL A   1      39.594  27.628  28.432  1.00  0.00     0.029 A 
ATOM     48  N   UNL A   1      41.068  27.850  30.095  1.00  0.00    -0.354 N 
ATOM     49  C   UNL A   1      40.582  30.924  33.113  1.00  0.00     0.074 A 
ATOM     50  C   UNL A   1      39.334  31.632  32.935  1.00  0.00     0.031 C 
ATOM     51  C   UNL A   1      40.561  26.718  28.234  1.00  0.00     0.029 A 
ATOM     52  C   UNL A   1      41.565  26.858  29.282  1.00  0.00     0.049 A 
ATOM     53  H   UNL A   1      41.523  28.155  30.913  1.00  0.00     0.167 HD
ATOM     54  C   UNL A   1      41.453  31.163  34.121  1.00  0.00     0.031 A 
ATOM     55  C   UNL A   1      42.708  26.150  29.361  1.00  0.00     0.031 A 
ATOM     56  C   UNL A   1      42.673  30.427  34.316  1.00  0.00     0.049 A 
ATOM     57  C   UNL A   1      43.661  26.435  30.490  1.00  0.00     0.074 A 
ATOM     58  C   UNL A   1      43.607  30.557  35.329  1.00  0.00     0.029 A 
ATOM     59  N   UNL A   1      43.119  29.410  33.487  1.00  0.00    -0.354 N 
ATOM     60  N   UNL A   1      43.554  27.317  31.455  1.00  0.00    -0.248 NA
ATOM     61  C   UNL A   1      44.887  25.628  30.541  1.00  0.00     0.031 C 
ATOM     62  C   UNL A   1      44.635  29.639  35.094  1.00  0.00     0.029 A 
ATOM     63  C   UNL A   1      44.317  28.904  33.963  1.00  0.00     0.049 A 
ATOM     64  H   UNL A   1      42.654  29.092  32.680  1.00  0.00     0.167 HD
ATOM     65  C   UNL A   1      44.683  27.147  32.247  1.00  0.00     0.074 A 
ATOM     66  C   UNL A   1      45.451  26.071  31.656  1.00  0.00     0.031 C 
ATOM     67  C   UNL A   1      45.055  27.823  33.362  1.00  0.00     0.031 A 
BRANCH  54  68
ATOM     68  C   UNL A   1      41.101  32.253  35.101  1.00  0.00    -0.014 A 
ATOM     69  C   UNL A   1      41.318  33.606  34.781  1.00  0.00     0.010 A 
ATOM     70  C   UNL A   1      40.524  31.929  36.342  1.00  0.00     0.010 A 
ATOM     71  C   UNL A   1      41.008  34.611  35.701  1.00  0.00     0.020 A 
ATOM     72  C   UNL A   1      40.182  32.934  37.253  1.00  0.00     0.020 A 
ATOM     73  C   UNL A   1      40.444  34.268  36.933  1.00  0.00     0.054 A 
BRANCH  73  74
ATOM     74  S   UNL A   1      40.031  35.597  38.096  1.00  0.00     0.124 S 
ATOM     75  O   UNL A   1      38.778  35.113  38.673  1.00  0.00    -0.237 OA
ATOM     76  O   UNL A   1      41.178  35.599  39.000  1.00  0.00    -0.237 OA
ATOM     77  O   UNL A   1      39.910  36.777  37.245  1.00  0.00    -0.744 OA
ENDBRANCH  73  74
ENDBRANCH  54  68
BRANCH  55  78
ATOM     78  C   UNL A   1      43.015  25.096  28.354  1.00  0.00    -0.014 A 
ATOM     79  C   UNL A   1      43.742  25.416  27.193  1.00  0.00     0.010 A 
ATOM     80  C   UNL A   1      42.575  23.773  28.540  1.00  0.00     0.010 A 
ATOM     81  C   UNL A   1      43.994  24.442  26.222  1.00  0.00     0.020 A 
ATOM     82  C   UNL A   1      42.852  22.789  27.585  1.00  0.00     0.020 A 
ATOM     83  C   UNL A   1      43.545  23.135  26.423  1.00  0.00     0.054 A 
BRANCH  83  84
ATOM     84  S   UNL A   1      43.907  21.880  25.163  1.00  0.00     0.124 S 
ATOM     85  O   UNL A   1      45.271  21.490  25.507  1.00  0.00    -0.237 OA
ATOM     86  O   UNL A   1      42.878  20.874  25.413  1.00  0.00    -0.237 OA
ATOM     87  O   UNL A   1      43.761  22.609  23.905  1.00  0.00    -0.744 OA
ENDBRANCH  83  84
ENDBRANCH  55  78
BRANCH  67  88
ATOM     88  C   UNL A   1      46.324  27.387  34.040  1.00  0.00    -0.014 A 
ATOM     89  C   UNL A   1      47.559  27.979  33.724  1.00  0.00     0.010 A 
ATOM     90  C   UNL A   1      46.268  26.406  35.047  1.00  0.00     0.010 A 
ATOM     91  C   UNL A   1      48.722  27.577  34.384  1.00  0.00     0.020 A 
ATOM     92  C   UNL A   1      47.424  26.021  35.728  1.00  0.00     0.020 A 
ATOM     93  C   UNL A   1      48.647  26.600  35.382  1.00  0.00     0.054 A 
BRANCH  93  94
ATOM     94  S   UNL A   1      50.163  26.130  36.258  1.00  0.00     0.124 S 
ATOM     95  O   UNL A   1      49.814  24.813  36.782  1.00  0.00    -0.237 OA
ATOM     96  O   UNL A   1      51.165  26.138  35.193  1.00  0.00    -0.237 OA
ATOM     97  O   UNL A   1      50.323  27.179  37.263  1.00  0.00    -0.744 OA
ENDBRANCH  93  94
ENDBRANCH  67  88
ENDBRANCH  41  42
ENDBRANCH  33  36
ENDBRANCH  31  32
ENDBRANCH   1  31
TORSDOF 19
ENDMDL
MODEL 2
REMARK VINA RESULT:     -11.0      5.009      7.769
REMARK SMILES COc1ccc(C(=O)/C=C(\Nc2cccc(C(F)(F)F)c2)C(=O)NCCCNC(=O)c2ccc(-c3c4nc(c(-c5ccc(S(=O)(=O)[O-])cc5)c5ccc([nH]5)c(-c5ccc(S(=O)(=O)[O-])cc5)c5nc(c(-c6ccc(S(=O)(=O)[O-])cc6)c6ccc3[nH]6)C=C5)C=C4)cc2)cc1
REMARK SMILES IDX 26 1 25 2 24 3 22 4 23 5 10 7 9 8 7 9 8 10 6 11 3 12 4 13
REMARK SMILES IDX 92 14 5 15 91 16 2 17 1 18 11 19 12 21 13 22 21 23 14 24
REMARK SMILES IDX 16 25 15 26 17 27 18 28 19 29 20 30 27 31 28 32 29 33 30 35
REMARK SMILES IDX 31 36 32 37 90 38 33 39 89 40 34 41 35 42 36 43 83 44 37 45
REMARK SMILES IDX 88 46 82 47 84 48 38 49 87 50 81 51 80 52 39 54 69 55 50 56
REMARK SMILES IDX 68 57 51 58 54 59 67 60 85 61 52 62 53 63 66 65 86 66 55 67
REMARK SMILES IDX 40 68 41 69 49 70 42 71 48 72 43 73 44 74 45 75 46 76 47 77
REMARK SMILES IDX 70 78 71 79 79 80 72 81 78 82 73 83 74 84 75 85 76 86 77 87
REMARK SMILES IDX 56 88 57 89 65 90 58 91 64 92 59 93 60 94 61 95 62 96 63 97
REMARK H PARENT 24 6 11 20 28 34 84 53 54 64
REMARK Flexibility Score: inf
ROOT
ATOM      1  C   UNL A   1      35.584  22.839  24.920  1.00  0.00     0.042 C 
ENDROOT
BRANCH   1   2
ATOM      2  C   UNL A   1      34.575  23.966  24.835  1.00  0.00     0.118 C 
BRANCH   2   3
ATOM      3  N   UNL A   1      34.462  24.649  23.570  1.00  0.00    -0.351 N 
ATOM      4  C   UNL A   1      33.649  25.705  23.262  1.00  0.00     0.267 C 
ATOM      5  O   UNL A   1      33.801  26.260  22.171  1.00  0.00    -0.268 OA
ATOM      6  H   UNL A   1      35.035  24.316  22.843  1.00  0.00     0.163 HD
BRANCH   4   7
ATOM      7  C   UNL A   1      32.504  26.124  24.174  1.00  0.00     0.108 C 
ATOM      8  C   UNL A   1      31.362  26.218  23.457  1.00  0.00     0.084 C 
BRANCH   8   9
ATOM      9  C   UNL A   1      30.009  26.668  23.889  1.00  0.00     0.188 C 
ATOM     10  O   UNL A   1      29.421  26.055  24.776  1.00  0.00    -0.289 OA
BRANCH   9  11
ATOM     11  C   UNL A   1      29.357  27.839  23.258  1.00  0.00     0.022 A 
ATOM     12  C   UNL A   1      28.228  30.209  22.323  1.00  0.00     0.118 A 
ATOM     13  C   UNL A   1      29.591  29.977  22.148  1.00  0.00     0.047 A 
ATOM     14  C   UNL A   1      27.410  29.210  22.847  1.00  0.00     0.047 A 
ATOM     15  C   UNL A   1      30.160  28.792  22.620  1.00  0.00     0.016 A 
ATOM     16  C   UNL A   1      27.972  28.018  23.308  1.00  0.00     0.016 A 
BRANCH  12  17
ATOM     17  O   UNL A   1      27.727  31.411  21.906  1.00  0.00    -0.497 OA
ATOM     18  C   UNL A   1      28.165  31.744  20.586  1.00  0.00     0.278 C 
ENDBRANCH  12  17
ENDBRANCH   9  11
ENDBRANCH   8   9
BRANCH   7  19
ATOM     19  N   UNL A   1      32.693  26.507  25.499  1.00  0.00    -0.351 N 
ATOM     20  H   UNL A   1      32.667  25.780  26.163  1.00  0.00     0.167 HD
BRANCH  19  21
ATOM     21  C   UNL A   1      32.914  27.793  26.013  1.00  0.00     0.039 A 
ATOM     22  C   UNL A   1      31.860  28.720  26.052  1.00  0.00     0.026 A 
ATOM     23  C   UNL A   1      34.158  28.172  26.517  1.00  0.00     0.039 A 
ATOM     24  C   UNL A   1      32.011  29.962  26.668  1.00  0.00     0.003 A 
ATOM     25  C   UNL A   1      34.331  29.430  27.127  1.00  0.00     0.058 A 
ATOM     26  C   UNL A   1      33.240  30.311  27.215  1.00  0.00     0.013 A 
BRANCH  25  27
ATOM     27  C   UNL A   1      35.645  29.785  27.777  1.00  0.00     0.416 C 
ATOM     28  F   UNL A   1      35.560  29.938  29.126  1.00  0.00    -0.166 F 
ATOM     29  F   UNL A   1      36.599  28.843  27.542  1.00  0.00    -0.166 F 
ATOM     30  F   UNL A   1      36.162  30.955  27.305  1.00  0.00    -0.166 F 
ENDBRANCH  25  27
ENDBRANCH  19  21
ENDBRANCH   7  19
ENDBRANCH   4   7
ENDBRANCH   2   3
ENDBRANCH   1   2
BRANCH   1  31
ATOM     31  C   UNL A   1      36.598  22.986  26.053  1.00  0.00     0.118 C 
BRANCH  31  32
ATOM     32  N   UNL A   1      37.777  22.123  25.948  1.00  0.00    -0.352 N 
ATOM     33  C   UNL A   1      39.113  22.291  26.245  1.00  0.00     0.251 C 
ATOM     34  H   UNL A   1      37.572  21.231  25.586  1.00  0.00     0.163 HD
ATOM     35  O   UNL A   1      39.905  21.415  25.919  1.00  0.00    -0.269 OA
BRANCH  33  36
ATOM     36  C   UNL A   1      39.627  23.523  26.891  1.00  0.00     0.039 A 
ATOM     37  C   UNL A   1      40.478  23.406  27.998  1.00  0.00     0.014 A 
ATOM     38  C   UNL A   1      39.285  24.791  26.435  1.00  0.00     0.014 A 
ATOM     39  C   UNL A   1      41.084  24.544  28.543  1.00  0.00     0.010 A 
ATOM     40  C   UNL A   1      39.991  25.902  26.878  1.00  0.00     0.010 A 
ATOM     41  C   UNL A   1      40.909  25.795  27.932  1.00  0.00    -0.014 A 
BRANCH  41  42
ATOM     42  C   UNL A   1      41.662  27.007  28.351  1.00  0.00     0.031 A 
ATOM     43  C   UNL A   1      40.915  28.200  28.893  1.00  0.00     0.074 A 
ATOM     44  C   UNL A   1      42.991  27.080  28.133  1.00  0.00     0.049 A 
ATOM     45  N   UNL A   1      41.347  29.416  29.112  1.00  0.00    -0.248 NA
ATOM     46  C   UNL A   1      39.482  28.014  29.181  1.00  0.00     0.031 C 
ATOM     47  C   UNL A   1      43.826  26.012  27.577  1.00  0.00     0.029 A 
ATOM     48  N   UNL A   1      43.875  28.111  28.338  1.00  0.00    -0.354 N 
ATOM     49  C   UNL A   1      40.235  30.142  29.524  1.00  0.00     0.074 A 
ATOM     50  C   UNL A   1      39.099  29.248  29.466  1.00  0.00     0.031 C 
ATOM     51  C   UNL A   1      45.101  26.429  27.518  1.00  0.00     0.029 A 
ATOM     52  C   UNL A   1      45.168  27.813  27.972  1.00  0.00     0.049 A 
ATOM     53  H   UNL A   1      43.609  28.983  28.710  1.00  0.00     0.167 HD
ATOM     54  C   UNL A   1      40.167  31.427  29.944  1.00  0.00     0.031 A 
ATOM     55  C   UNL A   1      46.280  28.573  27.985  1.00  0.00     0.031 A 
ATOM     56  C   UNL A   1      41.307  32.299  30.039  1.00  0.00     0.049 A 
ATOM     57  C   UNL A   1      46.179  29.998  28.454  1.00  0.00     0.074 A 
ATOM     58  C   UNL A   1      41.358  33.606  30.493  1.00  0.00     0.029 A 
ATOM     59  N   UNL A   1      42.600  31.944  29.690  1.00  0.00    -0.354 N 
ATOM     60  N   UNL A   1      45.122  30.657  28.866  1.00  0.00    -0.248 NA
ATOM     61  C   UNL A   1      47.422  30.782  28.464  1.00  0.00     0.031 C 
ATOM     62  C   UNL A   1      42.679  34.051  30.387  1.00  0.00     0.029 A 
ATOM     63  C   UNL A   1      43.458  33.007  29.914  1.00  0.00     0.049 A 
ATOM     64  H   UNL A   1      42.870  31.066  29.335  1.00  0.00     0.167 HD
ATOM     65  C   UNL A   1      45.579  31.923  29.214  1.00  0.00     0.074 A 
ATOM     66  C   UNL A   1      47.008  31.932  28.979  1.00  0.00     0.031 C 
ATOM     67  C   UNL A   1      44.880  32.985  29.683  1.00  0.00     0.031 A 
BRANCH  54  68
ATOM     68  C   UNL A   1      38.815  31.957  30.352  1.00  0.00    -0.014 A 
ATOM     69  C   UNL A   1      38.368  31.842  31.681  1.00  0.00     0.010 A 
ATOM     70  C   UNL A   1      37.994  32.600  29.409  1.00  0.00     0.010 A 
ATOM     71  C   UNL A   1      37.107  32.318  32.049  1.00  0.00     0.020 A 
ATOM     72  C   UNL A   1      36.744  33.106  29.780  1.00  0.00     0.020 A 
ATOM     73  C   UNL A   1      36.301  32.945  31.095  1.00  0.00     0.054 A 
BRANCH  73  74
ATOM     74  S   UNL A   1      34.680  33.572  31.609  1.00  0.00     0.124 S 
ATOM     75  O   UNL A   1      34.029  33.812  30.322  1.00  0.00    -0.237 OA
ATOM     76  O   UNL A   1      34.138  32.461  32.387  1.00  0.00    -0.237 OA
ATOM     77  O   UNL A   1      35.000  34.771  32.378  1.00  0.00    -0.744 OA
ENDBRANCH  73  74
ENDBRANCH  54  68
BRANCH  55  78
ATOM     78  C   UNL A   1      47.588  28.004  27.554  1.00  0.00    -0.014 A 
ATOM     79  C   UNL A   1      47.991  28.095  26.209  1.00  0.00     0.010 A 
ATOM     80  C   UNL A   1      48.432  27.360  28.477  1.00  0.00     0.010 A 
ATOM     81  C   UNL A   1      49.195  27.523  25.789  1.00  0.00     0.020 A 
ATOM     82  C   UNL A   1      49.653  26.814  28.065  1.00  0.00     0.020 A 
ATOM     83  C   UNL A   1      50.018  26.884  26.719  1.00  0.00     0.054 A 
BRANCH  83  84
ATOM     84  S   UNL A   1      51.591  26.174  26.156  1.00  0.00     0.124 S 
ATOM     85  O   UNL A   1      52.565  27.037  26.815  1.00  0.00    -0.237 OA
ATOM     86  O   UNL A   1      51.515  24.803  26.658  1.00  0.00    -0.237 OA
ATOM     87  O   UNL A   1      51.520  26.301  24.702  1.00  0.00    -0.744 OA
ENDBRANCH  83  84
ENDBRANCH  55  78
BRANCH  67  88
ATOM     88  C   UNL A   1      45.657  34.228  30.016  1.00  0.00    -0.014 A 
ATOM     89  C   UNL A   1      45.849  35.244  29.063  1.00  0.00     0.010 A 
ATOM     90  C   UNL A   1      46.156  34.402  31.320  1.00  0.00     0.010 A 
ATOM     91  C   UNL A   1      46.552  36.402  29.402  1.00  0.00     0.020 A 
ATOM     92  C   UNL A   1      46.836  35.571  31.669  1.00  0.00     0.020 A 
ATOM     93  C   UNL A   1      47.042  36.558  30.702  1.00  0.00     0.054 A 
BRANCH  93  94
ATOM     94  S   UNL A   1      47.909  38.091  31.130  1.00  0.00     0.124 S 
ATOM     95  O   UNL A   1      47.823  38.846  29.883  1.00  0.00    -0.237 OA
ATOM     96  O   UNL A   1      47.111  38.613  32.238  1.00  0.00    -0.237 OA
ATOM     97  O   UNL A   1      49.251  37.641  31.495  1.00  0.00    -0.744 OA
ENDBRANCH  93  94
ENDBRANCH  67  88
ENDBRANCH  41  42
ENDBRANCH  33  36
ENDBRANCH  31  32
ENDBRANCH   1  31
TORSDOF 19
ENDMDL
MODEL 3
REMARK VINA RESULT:     -11.0      5.456      7.090
REMARK SMILES COc1ccc(C(=O)/C=C(\Nc2cccc(C(F)(F)F)c2)C(=O)NCCCNC(=O)c2ccc(-c3c4nc(c(-c5ccc(S(=O)(=O)[O-])cc5)c5ccc([nH]5)c(-c5ccc(S(=O)(=O)[O-])cc5)c5nc(c(-c6ccc(S(=O)(=O)[O-])cc6)c6ccc3[nH]6)C=C5)C=C4)cc2)cc1
REMARK SMILES IDX 26 1 25 2 24 3 22 4 23 5 10 7 9 8 7 9 8 10 6 11 3 12 4 13
REMARK SMILES IDX 92 14 5 15 91 16 2 17 1 18 11 19 12 21 13 22 21 23 14 24
REMARK SMILES IDX 16 25 15 26 17 27 18 28 19 29 20 30 27 31 28 32 29 33 30 35
REMARK SMILES IDX 31 36 32 37 90 38 33 39 89 40 34 41 35 42 36 43 83 44 37 45
REMARK SMILES IDX 88 46 82 47 84 48 38 49 87 50 81 51 80 52 39 54 69 55 50 56
REMARK SMILES IDX 68 57 51 58 54 59 67 60 85 61 52 62 53 63 66 65 86 66 55 67
REMARK SMILES IDX 40 68 41 69 49 70 42 71 48 72 43 73 44 74 45 75 46 76 47 77
REMARK SMILES IDX 70 78 71 79 79 80 72 81 78 82 73 83 74 84 75 85 76 86 77 87
REMARK SMILES IDX 56 88 57 89 65 90 58 91 64 92 59 93 60 94 61 95 62 96 63 97
REMARK H PARENT 24 6 11 20 28 34 84 53 54 64
REMARK Flexibility Score: inf
ROOT
ATOM      1  C   UNL A   1      35.261  29.688  27.762  1.00  0.00     0.042 C 
ENDROOT
BRANCH   1   2
ATOM      2  C   UNL A   1      33.973  29.807  26.972  1.00  0.00     0.118 C 
BRANCH   2   3
ATOM      3  N   UNL A   1      32.808  29.158  27.519  1.00  0.00    -0.351 N 
ATOM      4  C   UNL A   1      32.059  28.167  26.946  1.00  0.00     0.267 C 
ATOM      5  O   UNL A   1      31.188  27.624  27.630  1.00  0.00    -0.268 OA
ATOM      6  H   UNL A   1      32.515  29.465  28.407  1.00  0.00     0.163 HD
BRANCH   4   7
ATOM      7  C   UNL A   1      32.199  27.810  25.473  1.00  0.00     0.108 C 
ATOM      8  C   UNL A   1      32.895  26.658  25.348  1.00  0.00     0.084 C 
BRANCH   8   9
ATOM      9  C   UNL A   1      33.350  25.958  24.114  1.00  0.00     0.188 C 
ATOM     10  O   UNL A   1      33.550  26.603  23.089  1.00  0.00    -0.289 OA
BRANCH   9  11
ATOM     11  C   UNL A   1      33.559  24.491  24.103  1.00  0.00     0.022 A 
ATOM     12  C   UNL A   1      33.936  21.746  24.399  1.00  0.00     0.118 A 
ATOM     13  C   UNL A   1      32.651  22.278  24.471  1.00  0.00     0.047 A 
ATOM     14  C   UNL A   1      35.013  22.561  24.056  1.00  0.00     0.047 A 
ATOM     15  C   UNL A   1      32.459  23.654  24.327  1.00  0.00     0.016 A 
ATOM     16  C   UNL A   1      34.824  23.936  23.898  1.00  0.00     0.016 A 
BRANCH  12  17
ATOM     17  O   UNL A   1      34.084  20.403  24.613  1.00  0.00    -0.497 OA
ATOM     18  C   UNL A   1      32.999  19.861  25.372  1.00  0.00     0.278 C 
ENDBRANCH  12  17
ENDBRANCH   9  11
ENDBRANCH   8   9
BRANCH   7  19
ATOM     19  N   UNL A   1      31.804  28.663  24.446  1.00  0.00    -0.351 N 
ATOM     20  H   UNL A   1      32.514  29.226  24.059  1.00  0.00     0.167 HD
BRANCH  19  21
ATOM     21  C   UNL A   1      30.527  28.828  23.892  1.00  0.00     0.039 A 
ATOM     22  C   UNL A   1      29.757  27.700  23.564  1.00  0.00     0.026 A 
ATOM     23  C   UNL A   1      29.983  30.095  23.678  1.00  0.00     0.039 A 
ATOM     24  C   UNL A   1      28.438  27.825  23.127  1.00  0.00     0.003 A 
ATOM     25  C   UNL A   1      28.658  30.238  23.221  1.00  0.00     0.058 A 
ATOM     26  C   UNL A   1      27.887  29.091  22.968  1.00  0.00     0.013 A 
BRANCH  25  27
ATOM     27  C   UNL A   1      28.038  31.608  23.109  1.00  0.00     0.416 C 
ATOM     28  F   UNL A   1      28.862  32.612  23.510  1.00  0.00    -0.166 F 
ATOM     29  F   UNL A   1      27.657  31.890  21.832  1.00  0.00    -0.166 F 
ATOM     30  F   UNL A   1      26.908  31.734  23.863  1.00  0.00    -0.166 F 
ENDBRANCH  25  27
ENDBRANCH  19  21
ENDBRANCH   7  19
ENDBRANCH   4   7
ENDBRANCH   2   3
ENDBRANCH   1   2
BRANCH   1  31
ATOM     31  C   UNL A   1      35.633  30.943  28.551  1.00  0.00     0.118 C 
BRANCH  31  32
ATOM     32  N   UNL A   1      35.631  30.786  30.006  1.00  0.00    -0.352 N 
ATOM     33  C   UNL A   1      36.605  30.481  30.935  1.00  0.00     0.251 C 
ATOM     34  H   UNL A   1      34.745  30.926  30.409  1.00  0.00     0.163 HD
ATOM     35  O   UNL A   1      36.270  30.284  32.097  1.00  0.00    -0.269 OA
BRANCH  33  36
ATOM     36  C   UNL A   1      38.031  30.326  30.559  1.00  0.00     0.039 A 
ATOM     37  C   UNL A   1      38.942  29.871  31.522  1.00  0.00     0.014 A 
ATOM     38  C   UNL A   1      38.492  30.623  29.282  1.00  0.00     0.014 A 
ATOM     39  C   UNL A   1      40.264  29.587  31.159  1.00  0.00     0.010 A 
ATOM     40  C   UNL A   1      39.757  30.209  28.887  1.00  0.00     0.010 A 
ATOM     41  C   UNL A   1      40.660  29.675  29.817  1.00  0.00    -0.014 A 
BRANCH  41  42
ATOM     42  C   UNL A   1      41.993  29.220  29.340  1.00  0.00     0.031 A 
ATOM     43  C   UNL A   1      43.133  30.204  29.255  1.00  0.00     0.074 A 
ATOM     44  C   UNL A   1      42.145  27.964  28.872  1.00  0.00     0.049 A 
ATOM     45  N   UNL A   1      44.298  30.071  28.675  1.00  0.00    -0.248 NA
ATOM     46  C   UNL A   1      42.914  31.529  29.862  1.00  0.00     0.031 C 
ATOM     47  C   UNL A   1      41.111  26.925  28.858  1.00  0.00     0.029 A 
ATOM     48  N   UNL A   1      43.231  27.349  28.297  1.00  0.00    -0.354 N 
ATOM     49  C   UNL A   1      44.931  31.302  28.815  1.00  0.00     0.074 A 
ATOM     50  C   UNL A   1      43.998  32.185  29.478  1.00  0.00     0.031 C 
ATOM     51  C   UNL A   1      41.620  25.797  28.338  1.00  0.00     0.029 A 
ATOM     52  C   UNL A   1      42.995  26.045  27.923  1.00  0.00     0.049 A 
ATOM     53  H   UNL A   1      44.096  27.799  28.165  1.00  0.00     0.167 HD
ATOM     54  C   UNL A   1      46.185  31.659  28.452  1.00  0.00     0.031 A 
ATOM     55  C   UNL A   1      43.792  25.154  27.302  1.00  0.00     0.031 A 
ATOM     56  C   UNL A   1      47.123  30.764  27.829  1.00  0.00     0.049 A 
ATOM     57  C   UNL A   1      45.181  25.575  26.908  1.00  0.00     0.074 A 
ATOM     58  C   UNL A   1      48.434  31.008  27.461  1.00  0.00     0.029 A 
ATOM     59  N   UNL A   1      46.852  29.445  27.500  1.00  0.00    -0.354 N 
ATOM     60  N   UNL A   1      45.769  26.736  27.074  1.00  0.00    -0.248 NA
ATOM     61  C   UNL A   1      46.016  24.563  26.246  1.00  0.00     0.031 C 
ATOM     62  C   UNL A   1      48.946  29.845  26.878  1.00  0.00     0.029 A 
ATOM     63  C   UNL A   1      47.970  28.862  26.929  1.00  0.00     0.049 A 
ATOM     64  H   UNL A   1      45.993  28.989  27.651  1.00  0.00     0.167 HD
ATOM     65  C   UNL A   1      47.053  26.584  26.566  1.00  0.00     0.074 A 
ATOM     66  C   UNL A   1      47.161  25.216  26.101  1.00  0.00     0.031 C 
ATOM     67  C   UNL A   1      48.055  27.494  26.486  1.00  0.00     0.031 A 
BRANCH  54  68
ATOM     68  C   UNL A   1      46.619  33.073  28.743  1.00  0.00    -0.014 A 
ATOM     69  C   UNL A   1      46.400  34.100  27.805  1.00  0.00     0.010 A 
ATOM     70  C   UNL A   1      47.224  33.390  29.972  1.00  0.00     0.010 A 
ATOM     71  C   UNL A   1      46.821  35.405  28.071  1.00  0.00     0.020 A 
ATOM     72  C   UNL A   1      47.618  34.701  30.256  1.00  0.00     0.020 A 
ATOM     73  C   UNL A   1      47.430  35.697  29.295  1.00  0.00     0.054 A 
BRANCH  73  74
ATOM     74  S   UNL A   1      47.944  37.405  29.620  1.00  0.00     0.124 S 
ATOM     75  O   UNL A   1      49.342  37.384  29.197  1.00  0.00    -0.237 OA
ATOM     76  O   UNL A   1      47.043  38.178  28.769  1.00  0.00    -0.237 OA
ATOM     77  O   UNL A   1      47.729  37.565  31.056  1.00  0.00    -0.744 OA
ENDBRANCH  73  74
ENDBRANCH  54  68
BRANCH  55  78
ATOM     78  C   UNL A   1      43.306  23.774  27.023  1.00  0.00    -0.014 A 
ATOM     79  C   UNL A   1      43.012  22.899  28.085  1.00  0.00     0.010 A 
ATOM     80  C   UNL A   1      43.148  23.319  25.701  1.00  0.00     0.010 A 
ATOM     81  C   UNL A   1      42.600  21.587  27.830  1.00  0.00     0.020 A 
ATOM     82  C   UNL A   1      42.706  22.017  25.443  1.00  0.00     0.020 A 
ATOM     83  C   UNL A   1      42.452  21.154  26.511  1.00  0.00     0.054 A 
BRANCH  83  84
ATOM     84  S   UNL A   1      41.889  19.456  26.204  1.00  0.00     0.124 S 
ATOM     85  O   UNL A   1      42.634  19.103  25.000  1.00  0.00    -0.237 OA
ATOM     86  O   UNL A   1      42.293  18.763  27.426  1.00  0.00    -0.237 OA
ATOM     87  O   UNL A   1      40.445  19.602  26.030  1.00  0.00    -0.744 OA
ENDBRANCH  83  84
ENDBRANCH  55  78
BRANCH  67  88
ATOM     88  C   UNL A   1      49.366  27.027  25.918  1.00  0.00    -0.014 A 
ATOM     89  C   UNL A   1      49.658  27.168  24.550  1.00  0.00     0.010 A 
ATOM     90  C   UNL A   1      50.340  26.488  26.779  1.00  0.00     0.010 A 
ATOM     91  C   UNL A   1      50.892  26.752  24.047  1.00  0.00     0.020 A 
ATOM     92  C   UNL A   1      51.585  26.096  26.284  1.00  0.00     0.020 A 
ATOM     93  C   UNL A   1      51.848  26.218  24.917  1.00  0.00     0.054 A 
BRANCH  93  94
ATOM     94  S   UNL A   1      53.460  25.729  24.249  1.00  0.00     0.124 S 
ATOM     95  O   UNL A   1      53.275  25.951  22.817  1.00  0.00    -0.237 OA
ATOM     96  O   UNL A   1      54.377  26.651  24.915  1.00  0.00    -0.237 OA
ATOM     97  O   UNL A   1      53.593  24.330  24.651  1.00  0.00    -0.744 OA
ENDBRANCH  93  94
ENDBRANCH  67  88
ENDBRANCH  41  42
ENDBRANCH  33  36
ENDBRANCH  31  32
ENDBRANCH   1  31
TORSDOF 19
ENDMDL
