MODEL 1
REMARK VINA RESULT:     -11.5      0.000      0.000
REMARK SMILES CCCc1cc(OC(F)(F)F)cc2c1O[C@H](C(F)(F)F)C(C(=O)NCCCNC(=O)c1ccc(-c3c4nc(c(-c5ccc(S(=O)(=O)[O-])cc5)c5ccc([nH]5)c(-c5ccc(S(=O)(=O)[O-])cc5)c5nc(c(-c6ccc(S(=O)(=O)[O-])cc6)c6ccc3[nH]6)C=C5)C=C4)cc1)=C2
REMARK SMILES IDX 26 1 25 2 24 3 22 4 23 5 21 7 4 8 5 9 14 10 6 11 13 12 15 13
REMARK SMILES IDX 12 14 91 15 16 16 3 17 2 18 1 19 7 20 8 21 9 22 10 23 11 24
REMARK SMILES IDX 17 25 18 26 19 27 20 28 27 29 28 30 29 31 30 33 31 34 32 35
REMARK SMILES IDX 90 36 33 37 89 38 34 39 35 40 36 41 83 42 37 43 88 44 82 45
REMARK SMILES IDX 84 46 38 47 87 48 81 49 80 50 39 52 69 53 50 54 68 55 51 56
REMARK SMILES IDX 54 57 67 58 85 59 52 60 53 61 66 63 86 64 55 65 40 66 41 67
REMARK SMILES IDX 49 68 42 69 48 70 43 71 44 72 45 73 46 74 47 75 70 76 71 77
REMARK SMILES IDX 79 78 72 79 78 80 73 81 74 82 75 83 76 84 77 85 56 86 57 87
REMARK SMILES IDX 65 88 58 89 64 90 59 91 60 92 61 93 62 94 63 95
REMARK H PARENT 24 6 28 32 84 51 54 62
REMARK Flexibility Score: inf
ROOT
ATOM      1  C   UNL A   1      33.052  27.577  26.512  1.00  0.00     0.042 C 
ENDROOT
BRANCH   1   2
ATOM      2  C   UNL A   1      31.942  27.468  25.467  1.00  0.00     0.118 C 
BRANCH   2   3
ATOM      3  N   UNL A   1      30.811  26.727  25.987  1.00  0.00    -0.352 N 
ATOM      4  C   UNL A   1      30.569  25.404  26.139  1.00  0.00     0.251 C 
ATOM      5  O   UNL A   1      29.502  25.088  26.668  1.00  0.00    -0.270 OA
ATOM      6  H   UNL A   1      30.072  27.300  26.292  1.00  0.00     0.163 HD
BRANCH   4   7
ATOM      7  C   UNL A   1      31.559  24.338  25.806  1.00  0.00     0.067 C 
ATOM      8  C   UNL A   1      33.657  20.731  25.182  1.00  0.00    -0.002 A 
ATOM      9  C   UNL A   1      35.042  20.719  25.479  1.00  0.00     0.054 A 
ATOM     10  C   UNL A   1      32.949  21.928  25.379  1.00  0.00     0.131 A 
ATOM     11  C   UNL A   1      35.704  21.856  25.944  1.00  0.00     0.130 A 
ATOM     12  C   UNL A   1      33.613  23.079  25.831  1.00  0.00     0.021 A 
ATOM     13  O   UNL A   1      31.593  21.937  25.195  1.00  0.00    -0.475 OA
ATOM     14  C   UNL A   1      34.982  23.036  26.108  1.00  0.00     0.058 A 
ATOM     15  C   UNL A   1      32.859  24.296  26.123  1.00  0.00     0.025 C 
ATOM     16  C   UNL A   1      30.963  23.225  24.967  1.00  0.00     0.314 C 
BRANCH   8  17
ATOM     17  C   UNL A   1      33.078  19.406  24.709  1.00  0.00     0.039 C 
BRANCH  17  18
ATOM     18  C   UNL A   1      32.468  19.254  23.311  1.00  0.00     0.001 C 
ATOM     19  C   UNL A   1      32.714  17.886  22.692  1.00  0.00     0.004 C 
ENDBRANCH  17  18
ENDBRANCH   8  17
BRANCH  11  20
ATOM     20  O   UNL A   1      37.021  21.952  26.289  1.00  0.00    -0.406 OA
BRANCH  20  21
ATOM     21  C   UNL A   1      37.917  22.525  25.352  1.00  0.00     0.573 C 
ATOM     22  F   UNL A   1      37.513  22.286  24.085  1.00  0.00    -0.132 F 
ATOM     23  F   UNL A   1      38.034  23.856  25.541  1.00  0.00    -0.132 F 
ATOM     24  F   UNL A   1      39.135  21.964  25.513  1.00  0.00    -0.132 F 
ENDBRANCH  20  21
ENDBRANCH  11  20
BRANCH  16  25
ATOM     25  C   UNL A   1      30.943  23.576  23.464  1.00  0.00     0.429 C 
ATOM     26  F   UNL A   1      30.975  22.493  22.657  1.00  0.00    -0.167 F 
ATOM     27  F   UNL A   1      29.833  24.276  23.122  1.00  0.00    -0.167 F 
ATOM     28  F   UNL A   1      32.013  24.341  23.134  1.00  0.00    -0.167 F 
ENDBRANCH  16  25
ENDBRANCH   4   7
ENDBRANCH   2   3
ENDBRANCH   1   2
BRANCH   1  29
ATOM     29  C   UNL A   1      34.147  28.557  26.103  1.00  0.00     0.118 C 
BRANCH  29  30
ATOM     30  N   UNL A   1      33.921  29.877  26.676  1.00  0.00    -0.352 N 
ATOM     31  C   UNL A   1      34.614  30.530  27.664  1.00  0.00     0.251 C 
ATOM     32  H   UNL A   1      33.160  30.373  26.300  1.00  0.00     0.163 HD
ATOM     33  O   UNL A   1      34.107  31.502  28.215  1.00  0.00    -0.269 OA
BRANCH  31  34
ATOM     34  C   UNL A   1      35.961  30.067  28.053  1.00  0.00     0.039 A 
ATOM     35  C   UNL A   1      37.007  30.170  27.133  1.00  0.00     0.014 A 
ATOM     36  C   UNL A   1      36.181  29.496  29.309  1.00  0.00     0.014 A 
ATOM     37  C   UNL A   1      38.287  29.741  27.492  1.00  0.00     0.010 A 
ATOM     38  C   UNL A   1      37.468  29.136  29.691  1.00  0.00     0.010 A 
ATOM     39  C   UNL A   1      38.532  29.246  28.783  1.00  0.00    -0.014 A 
BRANCH  39  40
ATOM     40  C   UNL A   1      39.890  28.828  29.209  1.00  0.00     0.031 A 
ATOM     41  C   UNL A   1      40.796  29.812  29.901  1.00  0.00     0.074 A 
ATOM     42  C   UNL A   1      40.333  27.594  28.899  1.00  0.00     0.049 A 
ATOM     43  N   UNL A   1      42.046  29.672  30.254  1.00  0.00    -0.248 NA
ATOM     44  C   UNL A   1      40.230  31.137  30.211  1.00  0.00     0.031 C 
ATOM     45  C   UNL A   1      39.560  26.569  28.191  1.00  0.00     0.029 A 
ATOM     46  N   UNL A   1      41.548  26.997  29.121  1.00  0.00    -0.354 N 
ATOM     47  C   UNL A   1      42.426  30.893  30.800  1.00  0.00     0.074 A 
ATOM     48  C   UNL A   1      41.284  31.775  30.698  1.00  0.00     0.031 C 
ATOM     49  C   UNL A   1      40.316  25.468  28.049  1.00  0.00     0.029 A 
ATOM     50  C   UNL A   1      41.638  25.722  28.613  1.00  0.00     0.049 A 
ATOM     51  H   UNL A   1      42.286  27.439  29.598  1.00  0.00     0.167 HD
ATOM     52  C   UNL A   1      43.613  31.242  31.348  1.00  0.00     0.031 A 
ATOM     53  C   UNL A   1      42.674  24.860  28.586  1.00  0.00     0.031 A 
ATOM     54  C   UNL A   1      44.734  30.349  31.469  1.00  0.00     0.049 A 
ATOM     55  C   UNL A   1      43.979  25.271  29.211  1.00  0.00     0.074 A 
ATOM     56  C   UNL A   1      45.955  30.582  32.076  1.00  0.00     0.029 A 
ATOM     57  N   UNL A   1      44.772  29.054  30.975  1.00  0.00    -0.354 N 
ATOM     58  N   UNL A   1      44.293  26.405  29.791  1.00  0.00    -0.248 NA
ATOM     59  C   UNL A   1      45.067  24.284  29.189  1.00  0.00     0.031 C 
ATOM     60  C   UNL A   1      46.752  29.446  31.902  1.00  0.00     0.029 A 
ATOM     61  C   UNL A   1      46.004  28.484  31.242  1.00  0.00     0.049 A 
ATOM     62  H   UNL A   1      44.031  28.605  30.506  1.00  0.00     0.167 HD
ATOM     63  C   UNL A   1      45.604  26.256  30.228  1.00  0.00     0.074 A 
ATOM     64  C   UNL A   1      46.019  24.918  29.860  1.00  0.00     0.031 C 
ATOM     65  C   UNL A   1      46.395  27.145  30.877  1.00  0.00     0.031 A 
BRANCH  52  66
ATOM     66  C   UNL A   1      43.770  32.650  31.860  1.00  0.00    -0.014 A 
ATOM     67  C   UNL A   1      44.227  33.682  31.021  1.00  0.00     0.010 A 
ATOM     68  C   UNL A   1      43.380  32.959  33.176  1.00  0.00     0.010 A 
ATOM     69  C   UNL A   1      44.317  34.993  31.497  1.00  0.00     0.020 A 
ATOM     70  C   UNL A   1      43.442  34.273  33.647  1.00  0.00     0.020 A 
ATOM     71  C   UNL A   1      43.921  35.281  32.807  1.00  0.00     0.054 A 
BRANCH  71  72
ATOM     72  S   UNL A   1      43.997  37.000  33.378  1.00  0.00     0.124 S 
ATOM     73  O   UNL A   1      44.020  37.737  32.118  1.00  0.00    -0.237 OA
ATOM     74  O   UNL A   1      42.770  37.132  34.160  1.00  0.00    -0.237 OA
ATOM     75  O   UNL A   1      45.235  37.055  34.154  1.00  0.00    -0.744 OA
ENDBRANCH  71  72
ENDBRANCH  52  66
BRANCH  53  76
ATOM     76  C   UNL A   1      42.521  23.528  27.941  1.00  0.00    -0.014 A 
ATOM     77  C   UNL A   1      41.807  22.499  28.580  1.00  0.00     0.010 A 
ATOM     78  C   UNL A   1      43.099  23.277  26.683  1.00  0.00     0.010 A 
ATOM     79  C   UNL A   1      41.701  21.236  27.988  1.00  0.00     0.020 A 
ATOM     80  C   UNL A   1      42.970  22.026  26.074  1.00  0.00     0.020 A 
ATOM     81  C   UNL A   1      42.286  21.007  26.740  1.00  0.00     0.054 A 
BRANCH  81  82
ATOM     82  S   UNL A   1      42.115  19.370  25.979  1.00  0.00     0.124 S 
ATOM     83  O   UNL A   1      40.673  19.281  25.770  1.00  0.00    -0.237 OA
ATOM     84  O   UNL A   1      42.924  19.498  24.769  1.00  0.00    -0.237 OA
ATOM     85  O   UNL A   1      42.659  18.465  26.990  1.00  0.00    -0.744 OA
ENDBRANCH  81  82
ENDBRANCH  53  76
BRANCH  65  86
ATOM     86  C   UNL A   1      47.773  26.692  31.273  1.00  0.00    -0.014 A 
ATOM     87  C   UNL A   1      48.011  26.073  32.511  1.00  0.00     0.010 A 
ATOM     88  C   UNL A   1      48.833  26.827  30.356  1.00  0.00     0.010 A 
ATOM     89  C   UNL A   1      49.292  25.617  32.836  1.00  0.00     0.020 A 
ATOM     90  C   UNL A   1      50.107  26.346  30.666  1.00  0.00     0.020 A 
ATOM     91  C   UNL A   1      50.330  25.755  31.910  1.00  0.00     0.054 A 
BRANCH  91  92
ATOM     92  S   UNL A   1      51.969  25.103  32.334  1.00  0.00     0.124 S 
ATOM     93  O   UNL A   1      51.742  23.662  32.296  1.00  0.00    -0.237 OA
ATOM     94  O   UNL A   1      52.812  25.637  31.267  1.00  0.00    -0.237 OA
ATOM     95  O   UNL A   1      52.230  25.658  33.661  1.00  0.00    -0.744 OA
ENDBRANCH  91  92
ENDBRANCH  65  86
ENDBRANCH  39  40
ENDBRANCH  31  34
ENDBRANCH  29  30
ENDBRANCH   1  29
TORSDOF 18
ENDMDL
MODEL 2
REMARK VINA RESULT:     -11.2      3.000      3.648
REMARK SMILES CCCc1cc(OC(F)(F)F)cc2c1O[C@H](C(F)(F)F)C(C(=O)NCCCNC(=O)c1ccc(-c3c4nc(c(-c5ccc(S(=O)(=O)[O-])cc5)c5ccc([nH]5)c(-c5ccc(S(=O)(=O)[O-])cc5)c5nc(c(-c6ccc(S(=O)(=O)[O-])cc6)c6ccc3[nH]6)C=C5)C=C4)cc1)=C2
REMARK SMILES IDX 26 1 25 2 24 3 22 4 23 5 21 7 4 8 5 9 14 10 6 11 13 12 15 13
REMARK SMILES IDX 12 14 91 15 16 16 3 17 2 18 1 19 7 20 8 21 9 22 10 23 11 24
REMARK SMILES IDX 17 25 18 26 19 27 20 28 27 29 28 30 29 31 30 33 31 34 32 35
REMARK SMILES IDX 90 36 33 37 89 38 34 39 35 40 36 41 83 42 37 43 88 44 82 45
REMARK SMILES IDX 84 46 38 47 87 48 81 49 80 50 39 52 69 53 50 54 68 55 51 56
REMARK SMILES IDX 54 57 67 58 85 59 52 60 53 61 66 63 86 64 55 65 40 66 41 67
REMARK SMILES IDX 49 68 42 69 48 70 43 71 44 72 45 73 46 74 47 75 70 76 71 77
REMARK SMILES IDX 79 78 72 79 78 80 73 81 74 82 75 83 76 84 77 85 56 86 57 87
REMARK SMILES IDX 65 88 58 89 64 90 59 91 60 92 61 93 62 94 63 95
REMARK H PARENT 24 6 28 32 84 51 54 62
REMARK Flexibility Score: inf
ROOT
ATOM      1  C   UNL A   1      34.017  29.454  26.741  1.00  0.00     0.042 C 
ENDROOT
BRANCH   1   2
ATOM      2  C   UNL A   1      33.593  28.212  25.959  1.00  0.00     0.118 C 
BRANCH   2   3
ATOM      3  N   UNL A   1      32.267  27.780  26.351  1.00  0.00    -0.352 N 
ATOM      4  C   UNL A   1      31.641  26.581  26.315  1.00  0.00     0.251 C 
ATOM      5  O   UNL A   1      30.500  26.532  26.775  1.00  0.00    -0.270 OA
ATOM      6  H   UNL A   1      31.710  28.505  26.717  1.00  0.00     0.163 HD
BRANCH   4   7
ATOM      7  C   UNL A   1      32.295  25.321  25.857  1.00  0.00     0.067 C 
ATOM      8  C   UNL A   1      33.296  21.356  24.817  1.00  0.00    -0.002 A 
ATOM      9  C   UNL A   1      34.613  20.917  25.100  1.00  0.00     0.054 A 
ATOM     10  C   UNL A   1      32.953  22.676  25.152  1.00  0.00     0.131 A 
ATOM     11  C   UNL A   1      35.559  21.760  25.685  1.00  0.00     0.130 A 
ATOM     12  C   UNL A   1      33.906  23.533  25.725  1.00  0.00     0.021 A 
ATOM     13  O   UNL A   1      31.661  23.091  24.981  1.00  0.00    -0.475 OA
ATOM     14  C   UNL A   1      35.199  23.071  25.985  1.00  0.00     0.058 A 
ATOM     15  C   UNL A   1      33.521  24.875  26.157  1.00  0.00     0.025 C 
ATOM     16  C   UNL A   1      31.428  24.522  24.904  1.00  0.00     0.314 C 
BRANCH   8  17
ATOM     17  C   UNL A   1      32.376  20.311  24.204  1.00  0.00     0.039 C 
BRANCH  17  18
ATOM     18  C   UNL A   1      32.874  18.897  23.884  1.00  0.00     0.001 C 
ATOM     19  C   UNL A   1      32.173  18.268  22.689  1.00  0.00     0.004 C 
ENDBRANCH  17  18
ENDBRANCH   8  17
BRANCH  11  20
ATOM     20  O   UNL A   1      36.841  21.438  26.028  1.00  0.00    -0.406 OA
BRANCH  20  21
ATOM     21  C   UNL A   1      37.759  21.151  24.987  1.00  0.00     0.573 C 
ATOM     22  F   UNL A   1      37.766  19.831  24.696  1.00  0.00    -0.132 F 
ATOM     23  F   UNL A   1      37.468  21.854  23.873  1.00  0.00    -0.132 F 
ATOM     24  F   UNL A   1      39.001  21.493  25.394  1.00  0.00    -0.132 F 
ENDBRANCH  20  21
ENDBRANCH  11  20
BRANCH  16  25
ATOM     25  C   UNL A   1      31.545  25.026  23.450  1.00  0.00     0.429 C 
ATOM     26  F   UNL A   1      30.899  26.193  23.229  1.00  0.00    -0.167 F 
ATOM     27  F   UNL A   1      32.836  25.227  23.085  1.00  0.00    -0.167 F 
ATOM     28  F   UNL A   1      31.024  24.122  22.583  1.00  0.00    -0.167 F 
ENDBRANCH  16  25
ENDBRANCH   4   7
ENDBRANCH   2   3
ENDBRANCH   1   2
BRANCH   1  29
ATOM     29  C   UNL A   1      35.294  29.231  27.547  1.00  0.00     0.118 C 
BRANCH  29  30
ATOM     30  N   UNL A   1      35.325  30.072  28.737  1.00  0.00    -0.352 N 
ATOM     31  C   UNL A   1      36.322  30.234  29.665  1.00  0.00     0.251 C 
ATOM     32  H   UNL A   1      34.512  30.600  28.899  1.00  0.00     0.163 HD
ATOM     33  O   UNL A   1      36.062  30.752  30.746  1.00  0.00    -0.269 OA
BRANCH  31  34
ATOM     34  C   UNL A   1      37.698  29.793  29.358  1.00  0.00     0.039 A 
ATOM     35  C   UNL A   1      38.138  29.813  28.033  1.00  0.00     0.014 A 
ATOM     36  C   UNL A   1      38.536  29.323  30.372  1.00  0.00     0.014 A 
ATOM     37  C   UNL A   1      39.439  29.404  27.731  1.00  0.00     0.010 A 
ATOM     38  C   UNL A   1      39.852  28.985  30.081  1.00  0.00     0.010 A 
ATOM     39  C   UNL A   1      40.315  29.013  28.757  1.00  0.00    -0.014 A 
BRANCH  39  40
ATOM     40  C   UNL A   1      41.716  28.620  28.473  1.00  0.00     0.031 A 
ATOM     41  C   UNL A   1      42.795  29.669  28.422  1.00  0.00     0.074 A 
ATOM     42  C   UNL A   1      41.999  27.335  28.180  1.00  0.00     0.049 A 
ATOM     43  N   UNL A   1      44.052  29.542  28.088  1.00  0.00    -0.248 NA
ATOM     44  C   UNL A   1      42.401  31.048  28.764  1.00  0.00     0.031 C 
ATOM     45  C   UNL A   1      41.028  26.237  28.155  1.00  0.00     0.029 A 
ATOM     46  N   UNL A   1      43.183  26.737  27.829  1.00  0.00    -0.354 N 
ATOM     47  C   UNL A   1      44.593  30.821  28.151  1.00  0.00     0.074 A 
ATOM     48  C   UNL A   1      43.519  31.717  28.519  1.00  0.00     0.031 C 
ATOM     49  C   UNL A   1      41.658  25.100  27.818  1.00  0.00     0.029 A 
ATOM     50  C   UNL A   1      43.065  25.393  27.561  1.00  0.00     0.049 A 
ATOM     51  H   UNL A   1      44.037  27.224  27.772  1.00  0.00     0.167 HD
ATOM     52  C   UNL A   1      45.871  31.210  27.936  1.00  0.00     0.031 A 
ATOM     53  C   UNL A   1      43.980  24.500  27.137  1.00  0.00     0.031 A 
ATOM     54  C   UNL A   1      46.938  30.307  27.596  1.00  0.00     0.049 A 
ATOM     55  C   UNL A   1      45.396  24.959  26.914  1.00  0.00     0.074 A 
ATOM     56  C   UNL A   1      48.282  30.590  27.430  1.00  0.00     0.029 A 
ATOM     57  N   UNL A   1      46.784  28.948  27.371  1.00  0.00    -0.354 N 
ATOM     58  N   UNL A   1      45.904  26.160  27.054  1.00  0.00    -0.248 NA
ATOM     59  C   UNL A   1      46.365  23.940  26.487  1.00  0.00     0.031 C 
ATOM     60  C   UNL A   1      48.932  29.412  27.052  1.00  0.00     0.029 A 
ATOM     61  C   UNL A   1      48.004  28.383  27.043  1.00  0.00     0.049 A 
ATOM     62  H   UNL A   1      45.933  28.456  27.435  1.00  0.00     0.167 HD
ATOM     63  C   UNL A   1      47.257  26.035  26.761  1.00  0.00     0.074 A 
ATOM     64  C   UNL A   1      47.491  24.640  26.451  1.00  0.00     0.031 C 
ATOM     65  C   UNL A   1      48.219  26.989  26.749  1.00  0.00     0.031 A 
BRANCH  52  66
ATOM     66  C   UNL A   1      46.194  32.676  28.056  1.00  0.00    -0.014 A 
ATOM     67  C   UNL A   1      46.604  33.233  29.281  1.00  0.00     0.010 A 
ATOM     68  C   UNL A   1      46.163  33.492  26.910  1.00  0.00     0.010 A 
ATOM     69  C   UNL A   1      46.950  34.585  29.363  1.00  0.00     0.020 A 
ATOM     70  C   UNL A   1      46.535  34.837  26.982  1.00  0.00     0.020 A 
ATOM     71  C   UNL A   1      46.916  35.377  28.212  1.00  0.00     0.054 A 
BRANCH  71  72
ATOM     72  S   UNL A   1      47.424  37.114  28.339  1.00  0.00     0.124 S 
ATOM     73  O   UNL A   1      47.759  37.432  26.954  1.00  0.00    -0.237 OA
ATOM     74  O   UNL A   1      46.222  37.761  28.858  1.00  0.00    -0.237 OA
ATOM     75  O   UNL A   1      48.557  37.080  29.261  1.00  0.00    -0.744 OA
ENDBRANCH  71  72
ENDBRANCH  52  66
BRANCH  53  76
ATOM     76  C   UNL A   1      43.587  23.086  26.891  1.00  0.00    -0.014 A 
ATOM     77  C   UNL A   1      43.881  22.463  25.666  1.00  0.00     0.010 A 
ATOM     78  C   UNL A   1      42.906  22.356  27.882  1.00  0.00     0.010 A 
ATOM     79  C   UNL A   1      43.474  21.146  25.424  1.00  0.00     0.020 A 
ATOM     80  C   UNL A   1      42.524  21.030  27.656  1.00  0.00     0.020 A 
ATOM     81  C   UNL A   1      42.795  20.440  26.420  1.00  0.00     0.054 A 
BRANCH  81  82
ATOM     82  S   UNL A   1      42.298  18.726  26.096  1.00  0.00     0.124 S 
ATOM     83  O   UNL A   1      43.178  18.359  24.991  1.00  0.00    -0.237 OA
ATOM     84  O   UNL A   1      42.576  18.070  27.371  1.00  0.00    -0.237 OA
ATOM     85  O   UNL A   1      40.881  18.840  25.759  1.00  0.00    -0.744 OA
ENDBRANCH  81  82
ENDBRANCH  53  76
BRANCH  65  86
ATOM     86  C   UNL A   1      49.625  26.556  26.435  1.00  0.00    -0.014 A 
ATOM     87  C   UNL A   1      50.476  26.054  27.434  1.00  0.00     0.010 A 
ATOM     88  C   UNL A   1      50.074  26.585  25.100  1.00  0.00     0.010 A 
ATOM     89  C   UNL A   1      51.761  25.613  27.108  1.00  0.00     0.020 A 
ATOM     90  C   UNL A   1      51.347  26.118  24.768  1.00  0.00     0.020 A 
ATOM     91  C   UNL A   1      52.187  25.645  25.777  1.00  0.00     0.054 A 
BRANCH  91  92
ATOM     92  S   UNL A   1      53.838  25.013  25.374  1.00  0.00     0.124 S 
ATOM     93  O   UNL A   1      54.570  25.261  26.613  1.00  0.00    -0.237 OA
ATOM     94  O   UNL A   1      53.577  23.608  25.067  1.00  0.00    -0.237 OA
ATOM     95  O   UNL A   1      54.252  25.826  24.233  1.00  0.00    -0.744 OA
ENDBRANCH  91  92
ENDBRANCH  65  86
ENDBRANCH  39  40
ENDBRANCH  31  34
ENDBRANCH  29  30
ENDBRANCH   1  29
TORSDOF 18
ENDMDL
MODEL 3
REMARK VINA RESULT:     -11.0      2.287      8.108
REMARK SMILES CCCc1cc(OC(F)(F)F)cc2c1O[C@H](C(F)(F)F)C(C(=O)NCCCNC(=O)c1ccc(-c3c4nc(c(-c5ccc(S(=O)(=O)[O-])cc5)c5ccc([nH]5)c(-c5ccc(S(=O)(=O)[O-])cc5)c5nc(c(-c6ccc(S(=O)(=O)[O-])cc6)c6ccc3[nH]6)C=C5)C=C4)cc1)=C2
REMARK SMILES IDX 26 1 25 2 24 3 22 4 23 5 21 7 4 8 5 9 14 10 6 11 13 12 15 13
REMARK SMILES IDX 12 14 91 15 16 16 3 17 2 18 1 19 7 20 8 21 9 22 10 23 11 24
REMARK SMILES IDX 17 25 18 26 19 27 20 28 27 29 28 30 29 31 30 33 31 34 32 35
REMARK SMILES IDX 90 36 33 37 89 38 34 39 35 40 36 41 83 42 37 43 88 44 82 45
REMARK SMILES IDX 84 46 38 47 87 48 81 49 80 50 39 52 69 53 50 54 68 55 51 56
REMARK SMILES IDX 54 57 67 58 85 59 52 60 53 61 66 63 86 64 55 65 40 66 41 67
REMARK SMILES IDX 49 68 42 69 48 70 43 71 44 72 45 73 46 74 47 75 70 76 71 77
REMARK SMILES IDX 79 78 72 79 78 80 73 81 74 82 75 83 76 84 77 85 56 86 57 87
REMARK SMILES IDX 65 88 58 89 64 90 59 91 60 92 61 93 62 94 63 95
REMARK H PARENT 24 6 28 32 84 51 54 62
REMARK Flexibility Score: inf
ROOT
ATOM      1  C   UNL A   1      33.218  27.830  26.649  1.00  0.00     0.042 C 
ENDROOT
BRANCH   1   2
ATOM      2  C   UNL A   1      32.261  27.405  25.536  1.00  0.00     0.118 C 
BRANCH   2   3
ATOM      3  N   UNL A   1      31.096  26.738  26.080  1.00  0.00    -0.352 N 
ATOM      4  C   UNL A   1      30.754  25.434  26.198  1.00  0.00     0.251 C 
ATOM      5  O   UNL A   1      29.688  25.185  26.763  1.00  0.00    -0.270 OA
ATOM      6  H   UNL A   1      30.419  27.357  26.436  1.00  0.00     0.163 HD
BRANCH   4   7
ATOM      7  C   UNL A   1      31.639  24.306  25.787  1.00  0.00     0.067 C 
ATOM      8  C   UNL A   1      33.391  20.569  24.911  1.00  0.00    -0.002 A 
ATOM      9  C   UNL A   1      34.771  20.411  25.190  1.00  0.00     0.054 A 
ATOM     10  C   UNL A   1      32.799  21.811  25.191  1.00  0.00     0.131 A 
ATOM     11  C   UNL A   1      35.538  21.450  25.719  1.00  0.00     0.130 A 
ATOM     12  C   UNL A   1      33.568  22.864  25.708  1.00  0.00     0.021 A 
ATOM     13  O   UNL A   1      31.448  21.956  25.024  1.00  0.00    -0.475 OA
ATOM     14  C   UNL A   1      34.929  22.679  25.966  1.00  0.00     0.058 A 
ATOM     15  C   UNL A   1      32.931  24.124  26.085  1.00  0.00     0.025 C 
ATOM     16  C   UNL A   1      30.938  23.308  24.887  1.00  0.00     0.314 C 
BRANCH   8  17
ATOM     17  C   UNL A   1      32.690  19.336  24.361  1.00  0.00     0.039 C 
BRANCH  17  18
ATOM     18  C   UNL A   1      33.319  17.943  24.472  1.00  0.00     0.001 C 
ATOM     19  C   UNL A   1      33.555  17.280  23.124  1.00  0.00     0.004 C 
ENDBRANCH  17  18
ENDBRANCH   8  17
BRANCH  11  20
ATOM     20  O   UNL A   1      36.861  21.403  26.054  1.00  0.00    -0.406 OA
BRANCH  20  21
ATOM     21  C   UNL A   1      37.808  21.237  25.013  1.00  0.00     0.573 C 
ATOM     22  F   UNL A   1      39.014  21.730  25.370  1.00  0.00    -0.132 F 
ATOM     23  F   UNL A   1      37.938  19.937  24.676  1.00  0.00    -0.132 F 
ATOM     24  F   UNL A   1      37.386  21.918  23.926  1.00  0.00    -0.132 F 
ENDBRANCH  20  21
ENDBRANCH  11  20
BRANCH  16  25
ATOM     25  C   UNL A   1      30.942  23.755  23.409  1.00  0.00     0.429 C 
ATOM     26  F   UNL A   1      29.819  24.411  23.041  1.00  0.00    -0.167 F 
ATOM     27  F   UNL A   1      31.979  24.584  23.133  1.00  0.00    -0.167 F 
ATOM     28  F   UNL A   1      31.057  22.686  22.583  1.00  0.00    -0.167 F 
ENDBRANCH  16  25
ENDBRANCH   4   7
ENDBRANCH   2   3
ENDBRANCH   1   2
BRANCH   1  29
ATOM     29  C   UNL A   1      34.218  28.887  26.190  1.00  0.00     0.118 C 
BRANCH  29  30
ATOM     30  N   UNL A   1      33.763  30.231  26.523  1.00  0.00    -0.352 N 
ATOM     31  C   UNL A   1      34.184  31.073  27.520  1.00  0.00     0.251 C 
ATOM     32  H   UNL A   1      33.047  30.585  25.948  1.00  0.00     0.163 HD
ATOM     33  O   UNL A   1      33.491  32.038  27.829  1.00  0.00    -0.269 OA
BRANCH  31  34
ATOM     34  C   UNL A   1      35.465  30.822  28.210  1.00  0.00     0.039 A 
ATOM     35  C   UNL A   1      35.570  29.726  29.070  1.00  0.00     0.014 A 
ATOM     36  C   UNL A   1      36.547  31.689  28.038  1.00  0.00     0.014 A 
ATOM     37  C   UNL A   1      36.778  29.474  29.723  1.00  0.00     0.010 A 
ATOM     38  C   UNL A   1      37.769  31.397  28.632  1.00  0.00     0.010 A 
ATOM     39  C   UNL A   1      37.895  30.292  29.488  1.00  0.00    -0.014 A 
BRANCH  39  40
ATOM     40  C   UNL A   1      39.205  30.021  30.129  1.00  0.00     0.031 A 
ATOM     41  C   UNL A   1      40.074  28.904  29.618  1.00  0.00     0.074 A 
ATOM     42  C   UNL A   1      39.568  30.726  31.219  1.00  0.00     0.049 A 
ATOM     43  N   UNL A   1      41.196  28.445  30.107  1.00  0.00    -0.248 NA
ATOM     44  C   UNL A   1      39.606  28.189  28.417  1.00  0.00     0.031 C 
ATOM     45  C   UNL A   1      38.787  31.804  31.832  1.00  0.00     0.029 A 
ATOM     46  N   UNL A   1      40.679  30.629  32.018  1.00  0.00    -0.354 N 
ATOM     47  C   UNL A   1      41.554  27.375  29.294  1.00  0.00     0.074 A 
ATOM     48  C   UNL A   1      40.511  27.228  28.303  1.00  0.00     0.031 C 
ATOM     49  C   UNL A   1      39.449  32.274  32.902  1.00  0.00     0.029 A 
ATOM     50  C   UNL A   1      40.677  31.505  33.077  1.00  0.00     0.049 A 
ATOM     51  H   UNL A   1      41.410  29.991  31.849  1.00  0.00     0.167 HD
ATOM     52  C   UNL A   1      42.659  26.595  29.361  1.00  0.00     0.031 A 
ATOM     53  C   UNL A   1      41.553  31.660  34.089  1.00  0.00     0.031 A 
ATOM     54  C   UNL A   1      43.703  26.766  30.334  1.00  0.00     0.049 A 
ATOM     55  C   UNL A   1      42.776  30.785  34.133  1.00  0.00     0.074 A 
ATOM     56  C   UNL A   1      44.898  26.076  30.441  1.00  0.00     0.029 A 
ATOM     57  N   UNL A   1      43.680  27.689  31.368  1.00  0.00    -0.354 N 
ATOM     58  N   UNL A   1      43.135  29.829  33.310  1.00  0.00    -0.248 NA
ATOM     59  C   UNL A   1      43.720  31.017  35.235  1.00  0.00     0.031 C 
ATOM     60  C   UNL A   1      45.574  26.547  31.571  1.00  0.00     0.029 A 
ATOM     61  C   UNL A   1      44.828  27.571  32.131  1.00  0.00     0.049 A 
ATOM     62  H   UNL A   1      42.955  28.335  31.534  1.00  0.00     0.167 HD
ATOM     63  C   UNL A   1      44.359  29.366  33.778  1.00  0.00     0.074 A 
ATOM     64  C   UNL A   1      44.687  30.157  34.946  1.00  0.00     0.031 C 
ATOM     65  C   UNL A   1      45.142  28.376  33.285  1.00  0.00     0.031 A 
BRANCH  52  66
ATOM     66  C   UNL A   1      42.800  25.481  28.357  1.00  0.00    -0.014 A 
ATOM     67  C   UNL A   1      43.454  25.686  27.129  1.00  0.00     0.010 A 
ATOM     68  C   UNL A   1      42.339  24.191  28.680  1.00  0.00     0.010 A 
ATOM     69  C   UNL A   1      43.622  24.628  26.232  1.00  0.00     0.020 A 
ATOM     70  C   UNL A   1      42.530  23.124  27.798  1.00  0.00     0.020 A 
ATOM     71  C   UNL A   1      43.161  23.353  26.573  1.00  0.00     0.054 A 
BRANCH  71  72
ATOM     72  S   UNL A   1      43.443  21.989  25.412  1.00  0.00     0.124 S 
ATOM     73  O   UNL A   1      42.314  21.109  25.701  1.00  0.00    -0.237 OA
ATOM     74  O   UNL A   1      43.399  22.659  24.114  1.00  0.00    -0.237 OA
ATOM     75  O   UNL A   1      44.753  21.468  25.796  1.00  0.00    -0.744 OA
ENDBRANCH  71  72
ENDBRANCH  52  66
BRANCH  53  76
ATOM     76  C   UNL A   1      41.304  32.679  35.145  1.00  0.00    -0.014 A 
ATOM     77  C   UNL A   1      41.886  33.956  35.061  1.00  0.00     0.010 A 
ATOM     78  C   UNL A   1      40.486  32.373  36.248  1.00  0.00     0.010 A 
ATOM     79  C   UNL A   1      41.681  34.897  36.077  1.00  0.00     0.020 A 
ATOM     80  C   UNL A   1      40.255  33.320  37.250  1.00  0.00     0.020 A 
ATOM     81  C   UNL A   1      40.869  34.571  37.166  1.00  0.00     0.054 A 
BRANCH  81  82
ATOM     82  S   UNL A   1      40.596  35.813  38.459  1.00  0.00     0.124 S 
ATOM     83  O   UNL A   1      41.918  36.417  38.582  1.00  0.00    -0.237 OA
ATOM     84  O   UNL A   1      39.564  36.662  37.868  1.00  0.00    -0.237 OA
ATOM     85  O   UNL A   1      40.158  35.021  39.606  1.00  0.00    -0.744 OA
ENDBRANCH  81  82
ENDBRANCH  53  76
BRANCH  65  86
ATOM     86  C   UNL A   1      46.453  28.115  33.976  1.00  0.00    -0.014 A 
ATOM     87  C   UNL A   1      46.560  27.162  35.003  1.00  0.00     0.010 A 
ATOM     88  C   UNL A   1      47.609  28.788  33.538  1.00  0.00     0.010 A 
ATOM     89  C   UNL A   1      47.799  26.903  35.597  1.00  0.00     0.020 A 
ATOM     90  C   UNL A   1      48.852  28.511  34.110  1.00  0.00     0.020 A 
ATOM     91  C   UNL A   1      48.937  27.578  35.144  1.00  0.00     0.054 A 
BRANCH  91  92
ATOM     92  S   UNL A   1      50.541  27.182  35.893  1.00  0.00     0.124 S 
ATOM     93  O   UNL A   1      50.188  27.022  37.300  1.00  0.00    -0.237 OA
ATOM     94  O   UNL A   1      50.925  25.956  35.197  1.00  0.00    -0.237 OA
ATOM     95  O   UNL A   1      51.364  28.349  35.586  1.00  0.00    -0.744 OA
ENDBRANCH  91  92
ENDBRANCH  65  86
ENDBRANCH  39  40
ENDBRANCH  31  34
ENDBRANCH  29  30
ENDBRANCH   1  29
TORSDOF 18
ENDMDL
