MODEL 1
REMARK VINA RESULT:     -13.0      0.000      0.000
REMARK SMILES C[C@H]1CC[C@H]([NH2+]Cc2c(C(=O)NCCCNC(=O)c3ccc(-c4c5nc(c(-c6ccc(S(=O)(=O)[O-])cc6)c6ccc([nH]6)c(-c6ccc(S(=O)(=O)[O-])cc6)c6nc(c(-c7ccc(S(=O)(=O)[O-])cc7)c7ccc4[nH]7)C=C6)C=C5)cc3)n(Cc3ccccc3F)c3ccccc23)CC1
REMARK SMILES IDX 14 1 13 2 12 3 10 4 11 5 9 7 8 8 93 9 79 10 88 11 92 12
REMARK SMILES IDX 89 13 91 14 90 15 7 16 6 17 5 20 1 21 2 22 3 23 95 24 4 25
REMARK SMILES IDX 94 26 80 27 81 28 82 29 86 30 83 31 85 32 87 33 84 34 15 35
REMARK SMILES IDX 16 36 17 37 18 39 19 40 20 41 78 42 21 43 77 44 22 45 23 46
REMARK SMILES IDX 24 47 71 48 25 49 76 50 70 51 72 52 26 53 75 54 69 55 68 56
REMARK SMILES IDX 27 58 57 59 38 60 56 61 39 62 42 63 55 64 73 65 40 66 41 67
REMARK SMILES IDX 54 69 74 70 43 71 28 72 29 73 37 74 30 75 36 76 31 77 32 78
REMARK SMILES IDX 33 79 34 80 35 81 58 82 59 83 67 84 60 85 66 86 61 87 62 88
REMARK SMILES IDX 63 89 64 90 65 91 44 92 45 93 53 94 46 95 52 96 47 97 48 98
REMARK SMILES IDX 49 99 50 100 51 101
REMARK H PARENT 12 6 6 18 6 19 16 38 72 57 42 68
REMARK Flexibility Score: inf
ROOT
ATOM      1  C   UNL A   1      32.927  27.127  26.308  1.00  0.00     0.042 C 
ENDROOT
BRANCH   1   2
ATOM      2  C   UNL A   1      33.941  26.099  25.818  1.00  0.00     0.118 C 
BRANCH   2   3
ATOM      3  N   UNL A   1      34.135  25.988  24.396  1.00  0.00    -0.351 N 
ATOM      4  C   UNL A   1      34.129  24.875  23.579  1.00  0.00     0.268 C 
ATOM      5  O   UNL A   1      34.176  25.161  22.377  1.00  0.00    -0.268 OA
ATOM      6  H   UNL A   1      34.297  26.841  23.931  1.00  0.00     0.163 HD
BRANCH   4   7
ATOM      7  C   UNL A   1      34.134  23.477  24.049  1.00  0.00     0.117 A 
ATOM      8  C   UNL A   1      34.943  22.747  24.943  1.00  0.00     0.045 A 
ATOM      9  C   UNL A   1      34.709  21.363  24.651  1.00  0.00     0.009 A 
ATOM     10  N   UNL A   1      33.071  22.573  23.774  1.00  0.00    -0.331 N 
ATOM     11  C   UNL A   1      33.419  21.284  24.161  1.00  0.00     0.049 A 
ATOM     12  C   UNL A   1      35.413  20.172  24.934  1.00  0.00     0.011 A 
ATOM     13  C   UNL A   1      32.729  20.057  24.146  1.00  0.00     0.027 A 
ATOM     14  C   UNL A   1      34.791  18.938  24.744  1.00  0.00     0.001 A 
ATOM     15  C   UNL A   1      33.448  18.885  24.400  1.00  0.00     0.002 A 
BRANCH   8  16
ATOM     16  C   UNL A   1      35.911  23.081  26.046  1.00  0.00     0.300 C 
BRANCH  16  17
ATOM     17  N   UNL A   1      36.986  23.997  25.723  1.00  0.00    -0.340 N 
ATOM     18  H   UNL A   1      36.837  24.267  24.750  1.00  0.00     0.346 HD
ATOM     19  H   UNL A   1      36.892  24.677  26.477  1.00  0.00     0.346 HD
BRANCH  17  20
ATOM     20  C   UNL A   1      38.406  23.666  25.827  1.00  0.00     0.182 C 
ATOM     21  C   UNL A   1      41.886  22.394  28.262  1.00  0.00     0.007 C 
ATOM     22  C   UNL A   1      40.492  22.708  27.736  1.00  0.00    -0.014 C 
ATOM     23  C   UNL A   1      40.201  21.952  26.436  1.00  0.00     0.009 C 
ATOM     24  C   UNL A   1      40.306  24.206  27.494  1.00  0.00     0.009 C 
ATOM     25  C   UNL A   1      38.754  22.188  26.015  1.00  0.00     0.065 C 
ATOM     26  C   UNL A   1      38.881  24.501  27.040  1.00  0.00     0.065 C 
ENDBRANCH  17  20
ENDBRANCH  16  17
ENDBRANCH   8  16
BRANCH  10  27
ATOM     27  C   UNL A   1      31.723  22.902  23.278  1.00  0.00     0.161 C 
BRANCH  27  28
ATOM     28  C   UNL A   1      30.971  23.927  24.100  1.00  0.00     0.008 A 
ATOM     29  C   UNL A   1      30.687  23.741  25.464  1.00  0.00     0.008 A 
ATOM     30  C   UNL A   1      30.600  25.152  23.541  1.00  0.00     0.128 A 
ATOM     31  C   UNL A   1      30.022  24.710  26.219  1.00  0.00     0.001 A 
ATOM     32  C   UNL A   1      29.923  26.122  24.283  1.00  0.00     0.039 A 
ATOM     33  F   UNL A   1      30.930  25.448  22.277  1.00  0.00    -0.207 F 
ATOM     34  C   UNL A   1      29.626  25.899  25.624  1.00  0.00     0.003 A 
ENDBRANCH  27  28
ENDBRANCH  10  27
ENDBRANCH   4   7
ENDBRANCH   2   3
ENDBRANCH   1   2
BRANCH   1  35
ATOM     35  C   UNL A   1      33.088  28.557  25.759  1.00  0.00     0.118 C 
BRANCH  35  36
ATOM     36  N   UNL A   1      32.336  29.611  26.428  1.00  0.00    -0.352 N 
ATOM     37  C   UNL A   1      32.693  30.842  26.918  1.00  0.00     0.251 C 
ATOM     38  H   UNL A   1      31.383  29.398  26.554  1.00  0.00     0.163 HD
ATOM     39  O   UNL A   1      31.855  31.742  26.831  1.00  0.00    -0.269 OA
BRANCH  37  40
ATOM     40  C   UNL A   1      33.951  31.107  27.669  1.00  0.00     0.039 A 
ATOM     41  C   UNL A   1      34.608  32.333  27.662  1.00  0.00     0.014 A 
ATOM     42  C   UNL A   1      34.593  29.996  28.256  1.00  0.00     0.014 A 
ATOM     43  C   UNL A   1      35.916  32.429  28.126  1.00  0.00     0.010 A 
ATOM     44  C   UNL A   1      35.899  30.091  28.732  1.00  0.00     0.010 A 
ATOM     45  C   UNL A   1      36.578  31.298  28.612  1.00  0.00    -0.014 A 
BRANCH  45  46
ATOM     46  C   UNL A   1      37.975  31.461  29.011  1.00  0.00     0.031 A 
ATOM     47  C   UNL A   1      38.820  30.236  28.924  1.00  0.00     0.074 A 
ATOM     48  C   UNL A   1      38.522  32.634  29.385  1.00  0.00     0.049 A 
ATOM     49  N   UNL A   1      39.421  29.609  29.881  1.00  0.00    -0.248 NA
ATOM     50  C   UNL A   1      38.927  29.580  27.614  1.00  0.00     0.031 C 
ATOM     51  C   UNL A   1      37.961  33.983  29.278  1.00  0.00     0.029 A 
ATOM     52  N   UNL A   1      39.778  32.859  29.861  1.00  0.00    -0.354 N 
ATOM     53  C   UNL A   1      40.098  28.544  29.289  1.00  0.00     0.074 A 
ATOM     54  C   UNL A   1      39.674  28.515  27.911  1.00  0.00     0.031 C 
ATOM     55  C   UNL A   1      38.956  34.888  29.444  1.00  0.00     0.029 A 
ATOM     56  C   UNL A   1      40.174  34.187  29.813  1.00  0.00     0.049 A 
ATOM     57  H   UNL A   1      40.355  32.142  30.210  1.00  0.00     0.167 HD
ATOM     58  C   UNL A   1      41.063  27.828  29.934  1.00  0.00     0.031 A 
ATOM     59  C   UNL A   1      41.439  34.653  29.971  1.00  0.00     0.031 A 
ATOM     60  C   UNL A   1      41.044  28.048  31.353  1.00  0.00     0.049 A 
ATOM     61  C   UNL A   1      42.198  33.622  30.722  1.00  0.00     0.074 A 
ATOM     62  C   UNL A   1      40.128  27.795  32.355  1.00  0.00     0.029 A 
ATOM     63  N   UNL A   1      41.945  28.940  31.884  1.00  0.00    -0.354 N 
ATOM     64  N   UNL A   1      41.956  33.308  31.964  1.00  0.00    -0.248 NA
ATOM     65  C   UNL A   1      42.961  32.638  29.969  1.00  0.00     0.031 C 
ATOM     66  C   UNL A   1      40.235  28.906  33.237  1.00  0.00     0.029 A 
ATOM     67  C   UNL A   1      41.244  29.741  32.752  1.00  0.00     0.049 A 
ATOM     68  H   UNL A   1      42.907  28.994  31.681  1.00  0.00     0.167 HD
ATOM     69  C   UNL A   1      42.153  31.936  32.029  1.00  0.00     0.074 A 
ATOM     70  C   UNL A   1      42.867  31.597  30.800  1.00  0.00     0.031 C 
ATOM     71  C   UNL A   1      41.482  31.160  32.932  1.00  0.00     0.031 A 
BRANCH  58  72
ATOM     72  C   UNL A   1      42.194  27.106  29.248  1.00  0.00    -0.014 A 
ATOM     73  C   UNL A   1      42.933  26.082  29.875  1.00  0.00     0.010 A 
ATOM     74  C   UNL A   1      42.390  27.276  27.861  1.00  0.00     0.010 A 
ATOM     75  C   UNL A   1      43.834  25.282  29.170  1.00  0.00     0.020 A 
ATOM     76  C   UNL A   1      43.258  26.447  27.135  1.00  0.00     0.020 A 
ATOM     77  C   UNL A   1      43.977  25.455  27.799  1.00  0.00     0.054 A 
BRANCH  77  78
ATOM     78  S   UNL A   1      45.044  24.301  26.900  1.00  0.00     0.124 S 
ATOM     79  O   UNL A   1      46.133  25.173  26.469  1.00  0.00    -0.237 OA
ATOM     80  O   UNL A   1      45.388  23.326  27.931  1.00  0.00    -0.237 OA
ATOM     81  O   UNL A   1      44.184  23.799  25.832  1.00  0.00    -0.744 OA
ENDBRANCH  77  78
ENDBRANCH  58  72
BRANCH  59  82
ATOM     82  C   UNL A   1      42.115  35.654  29.103  1.00  0.00    -0.014 A 
ATOM     83  C   UNL A   1      42.993  36.601  29.669  1.00  0.00     0.010 A 
ATOM     84  C   UNL A   1      41.656  35.886  27.792  1.00  0.00     0.010 A 
ATOM     85  C   UNL A   1      43.318  37.784  29.000  1.00  0.00     0.020 A 
ATOM     86  C   UNL A   1      41.973  37.076  27.115  1.00  0.00     0.020 A 
ATOM     87  C   UNL A   1      42.767  38.037  27.747  1.00  0.00     0.054 A 
BRANCH  87  88
ATOM     88  S   UNL A   1      43.012  39.680  27.018  1.00  0.00     0.124 S 
ATOM     89  O   UNL A   1      41.762  39.867  26.278  1.00  0.00    -0.237 OA
ATOM     90  O   UNL A   1      43.162  40.529  28.203  1.00  0.00    -0.237 OA
ATOM     91  O   UNL A   1      44.205  39.530  26.206  1.00  0.00    -0.744 OA
ENDBRANCH  87  88
ENDBRANCH  59  82
BRANCH  71  92
ATOM     92  C   UNL A   1      40.671  31.830  34.024  1.00  0.00    -0.014 A 
ATOM     93  C   UNL A   1      41.106  31.681  35.355  1.00  0.00     0.010 A 
ATOM     94  C   UNL A   1      39.397  32.391  33.799  1.00  0.00     0.010 A 
ATOM     95  C   UNL A   1      40.282  32.036  36.427  1.00  0.00     0.020 A 
ATOM     96  C   UNL A   1      38.577  32.776  34.870  1.00  0.00     0.020 A 
ATOM     97  C   UNL A   1      39.015  32.567  36.178  1.00  0.00     0.054 A 
BRANCH  97  98
ATOM     98  S   UNL A   1      37.943  32.936  37.596  1.00  0.00     0.124 S 
ATOM     99  O   UNL A   1      38.543  34.157  38.128  1.00  0.00    -0.237 OA
ATOM    100  O   UNL A   1      36.632  33.106  36.974  1.00  0.00    -0.237 OA
ATOM    101  O   UNL A   1      38.071  31.760  38.454  1.00  0.00    -0.744 OA
ENDBRANCH  97  98
ENDBRANCH  71  92
ENDBRANCH  45  46
ENDBRANCH  37  40
ENDBRANCH  35  36
ENDBRANCH   1  35
TORSDOF 18
ENDMDL
MODEL 2
REMARK VINA RESULT:     -13.0      3.161      7.376
REMARK SMILES C[C@H]1CC[C@H]([NH2+]Cc2c(C(=O)NCCCNC(=O)c3ccc(-c4c5nc(c(-c6ccc(S(=O)(=O)[O-])cc6)c6ccc([nH]6)c(-c6ccc(S(=O)(=O)[O-])cc6)c6nc(c(-c7ccc(S(=O)(=O)[O-])cc7)c7ccc4[nH]7)C=C6)C=C5)cc3)n(Cc3ccccc3F)c3ccccc23)CC1
REMARK SMILES IDX 14 1 13 2 12 3 10 4 11 5 9 7 8 8 93 9 79 10 88 11 92 12
REMARK SMILES IDX 89 13 91 14 90 15 7 16 6 17 5 20 1 21 2 22 3 23 95 24 4 25
REMARK SMILES IDX 94 26 80 27 81 28 82 29 86 30 83 31 85 32 87 33 84 34 15 35
REMARK SMILES IDX 16 36 17 37 18 39 19 40 20 41 78 42 21 43 77 44 22 45 23 46
REMARK SMILES IDX 24 47 71 48 25 49 76 50 70 51 72 52 26 53 75 54 69 55 68 56
REMARK SMILES IDX 27 58 57 59 38 60 56 61 39 62 42 63 55 64 73 65 40 66 41 67
REMARK SMILES IDX 54 69 74 70 43 71 28 72 29 73 37 74 30 75 36 76 31 77 32 78
REMARK SMILES IDX 33 79 34 80 35 81 58 82 59 83 67 84 60 85 66 86 61 87 62 88
REMARK SMILES IDX 63 89 64 90 65 91 44 92 45 93 53 94 46 95 52 96 47 97 48 98
REMARK SMILES IDX 49 99 50 100 51 101
REMARK H PARENT 12 6 6 18 6 19 16 38 72 57 42 68
REMARK Flexibility Score: inf
ROOT
ATOM      1  C   UNL A   1      33.162  27.843  26.124  1.00  0.00     0.042 C 
ENDROOT
BRANCH   1   2
ATOM      2  C   UNL A   1      33.764  26.524  25.651  1.00  0.00     0.118 C 
BRANCH   2   3
ATOM      3  N   UNL A   1      33.956  26.355  24.234  1.00  0.00    -0.351 N 
ATOM      4  C   UNL A   1      34.075  25.205  23.480  1.00  0.00     0.268 C 
ATOM      5  O   UNL A   1      34.076  25.425  22.265  1.00  0.00    -0.268 OA
ATOM      6  H   UNL A   1      34.011  27.194  23.720  1.00  0.00     0.163 HD
BRANCH   4   7
ATOM      7  C   UNL A   1      34.251  23.847  24.027  1.00  0.00     0.117 A 
ATOM      8  C   UNL A   1      35.180  23.258  24.910  1.00  0.00     0.045 A 
ATOM      9  C   UNL A   1      35.074  21.842  24.711  1.00  0.00     0.009 A 
ATOM     10  N   UNL A   1      33.273  22.825  23.871  1.00  0.00    -0.331 N 
ATOM     11  C   UNL A   1      33.774  21.604  24.307  1.00  0.00     0.049 A 
ATOM     12  C   UNL A   1      35.912  20.747  25.016  1.00  0.00     0.011 A 
ATOM     13  C   UNL A   1      33.214  20.316  24.405  1.00  0.00     0.027 A 
ATOM     14  C   UNL A   1      35.411  19.447  24.935  1.00  0.00     0.001 A 
ATOM     15  C   UNL A   1      34.064  19.239  24.679  1.00  0.00     0.002 A 
BRANCH   8  16
ATOM     16  C   UNL A   1      36.169  23.755  25.929  1.00  0.00     0.300 C 
BRANCH  16  17
ATOM     17  N   UNL A   1      37.335  22.930  26.171  1.00  0.00    -0.340 N 
ATOM     18  H   UNL A   1      37.164  22.462  27.061  1.00  0.00     0.346 HD
ATOM     19  H   UNL A   1      37.380  22.401  25.300  1.00  0.00     0.346 HD
BRANCH  17  20
ATOM     20  C   UNL A   1      38.701  23.443  26.251  1.00  0.00     0.182 C 
ATOM     21  C   UNL A   1      42.020  25.180  28.626  1.00  0.00     0.007 C 
ATOM     22  C   UNL A   1      40.736  24.505  28.162  1.00  0.00    -0.014 C 
ATOM     23  C   UNL A   1      41.029  23.278  27.295  1.00  0.00     0.009 C 
ATOM     24  C   UNL A   1      39.845  25.469  27.378  1.00  0.00     0.009 C 
ATOM     25  C   UNL A   1      39.727  22.557  26.963  1.00  0.00     0.065 C 
ATOM     26  C   UNL A   1      38.536  24.793  26.990  1.00  0.00     0.065 C 
ENDBRANCH  17  20
ENDBRANCH  16  17
ENDBRANCH   8  16
BRANCH  10  27
ATOM     27  C   UNL A   1      31.873  22.987  23.443  1.00  0.00     0.161 C 
BRANCH  27  28
ATOM     28  C   UNL A   1      31.103  24.073  24.164  1.00  0.00     0.008 A 
ATOM     29  C   UNL A   1      30.470  25.129  23.486  1.00  0.00     0.008 A 
ATOM     30  C   UNL A   1      30.923  24.016  25.548  1.00  0.00     0.128 A 
ATOM     31  C   UNL A   1      29.735  26.105  24.161  1.00  0.00     0.001 A 
ATOM     32  C   UNL A   1      30.201  24.994  26.235  1.00  0.00     0.039 A 
ATOM     33  F   UNL A   1      31.404  22.983  26.252  1.00  0.00    -0.207 F 
ATOM     34  C   UNL A   1      29.610  26.047  25.541  1.00  0.00     0.003 A 
ENDBRANCH  27  28
ENDBRANCH  10  27
ENDBRANCH   4   7
ENDBRANCH   2   3
ENDBRANCH   1   2
BRANCH   1  35
ATOM     35  C   UNL A   1      34.048  29.093  25.959  1.00  0.00     0.118 C 
BRANCH  35  36
ATOM     36  N   UNL A   1      33.893  30.150  26.950  1.00  0.00    -0.352 N 
ATOM     37  C   UNL A   1      34.794  30.953  27.603  1.00  0.00     0.251 C 
ATOM     38  H   UNL A   1      32.956  30.321  27.202  1.00  0.00     0.163 HD
ATOM     39  O   UNL A   1      34.434  32.106  27.850  1.00  0.00    -0.269 OA
BRANCH  37  40
ATOM     40  C   UNL A   1      36.093  30.477  28.150  1.00  0.00     0.039 A 
ATOM     41  C   UNL A   1      37.090  31.327  28.618  1.00  0.00     0.014 A 
ATOM     42  C   UNL A   1      36.386  29.105  28.002  1.00  0.00     0.014 A 
ATOM     43  C   UNL A   1      38.378  30.847  28.828  1.00  0.00     0.010 A 
ATOM     44  C   UNL A   1      37.673  28.618  28.221  1.00  0.00     0.010 A 
ATOM     45  C   UNL A   1      38.681  29.505  28.580  1.00  0.00    -0.014 A 
BRANCH  45  46
ATOM     46  C   UNL A   1      40.073  29.091  28.751  1.00  0.00     0.031 A 
ATOM     47  C   UNL A   1      40.479  28.750  30.144  1.00  0.00     0.074 A 
ATOM     48  C   UNL A   1      40.951  28.958  27.738  1.00  0.00     0.049 A 
ATOM     49  N   UNL A   1      41.365  29.331  30.885  1.00  0.00    -0.248 NA
ATOM     50  C   UNL A   1      39.733  27.683  30.825  1.00  0.00     0.031 C 
ATOM     51  C   UNL A   1      40.697  28.969  26.296  1.00  0.00     0.029 A 
ATOM     52  N   UNL A   1      42.282  28.673  27.815  1.00  0.00    -0.354 N 
ATOM     53  C   UNL A   1      41.394  28.629  32.088  1.00  0.00     0.074 A 
ATOM     54  C   UNL A   1      40.297  27.693  32.033  1.00  0.00     0.031 C 
ATOM     55  C   UNL A   1      41.778  28.465  25.654  1.00  0.00     0.029 A 
ATOM     56  C   UNL A   1      42.839  28.240  26.622  1.00  0.00     0.049 A 
ATOM     57  H   UNL A   1      42.802  28.767  28.646  1.00  0.00     0.167 HD
ATOM     58  C   UNL A   1      42.392  28.770  33.006  1.00  0.00     0.031 A 
ATOM     59  C   UNL A   1      44.052  27.650  26.471  1.00  0.00     0.031 A 
ATOM     60  C   UNL A   1      43.184  29.945  32.769  1.00  0.00     0.049 A 
ATOM     61  C   UNL A   1      44.877  28.032  27.644  1.00  0.00     0.074 A 
ATOM     62  C   UNL A   1      42.924  31.301  32.782  1.00  0.00     0.029 A 
ATOM     63  N   UNL A   1      44.383  29.799  32.112  1.00  0.00    -0.354 N 
ATOM     64  N   UNL A   1      45.287  29.248  27.874  1.00  0.00    -0.248 NA
ATOM     65  C   UNL A   1      44.905  27.138  28.792  1.00  0.00     0.031 C 
ATOM     66  C   UNL A   1      43.704  31.833  31.717  1.00  0.00     0.029 A 
ATOM     67  C   UNL A   1      44.432  30.782  31.155  1.00  0.00     0.049 A 
ATOM     68  H   UNL A   1      45.072  29.119  32.293  1.00  0.00     0.167 HD
ATOM     69  C   UNL A   1      45.215  29.393  29.252  1.00  0.00     0.074 A 
ATOM     70  C   UNL A   1      45.072  28.033  29.768  1.00  0.00     0.031 C 
ATOM     71  C   UNL A   1      45.001  30.611  29.833  1.00  0.00     0.031 A 
BRANCH  58  72
ATOM     72  C   UNL A   1      42.809  27.706  33.988  1.00  0.00    -0.014 A 
ATOM     73  C   UNL A   1      43.541  26.564  33.607  1.00  0.00     0.010 A 
ATOM     74  C   UNL A   1      42.677  27.946  35.372  1.00  0.00     0.010 A 
ATOM     75  C   UNL A   1      44.098  25.694  34.546  1.00  0.00     0.020 A 
ATOM     76  C   UNL A   1      43.272  27.104  36.323  1.00  0.00     0.020 A 
ATOM     77  C   UNL A   1      43.977  25.980  35.900  1.00  0.00     0.054 A 
BRANCH  77  78
ATOM     78  S   UNL A   1      44.839  24.907  37.078  1.00  0.00     0.124 S 
ATOM     79  O   UNL A   1      44.566  23.581  36.531  1.00  0.00    -0.237 OA
ATOM     80  O   UNL A   1      46.222  25.363  36.962  1.00  0.00    -0.237 OA
ATOM     81  O   UNL A   1      44.190  25.204  38.352  1.00  0.00    -0.744 OA
ENDBRANCH  77  78
ENDBRANCH  58  72
BRANCH  59  82
ATOM     82  C   UNL A   1      44.333  26.426  25.673  1.00  0.00    -0.014 A 
ATOM     83  C   UNL A   1      43.273  25.591  25.264  1.00  0.00     0.010 A 
ATOM     84  C   UNL A   1      45.642  25.912  25.594  1.00  0.00     0.010 A 
ATOM     85  C   UNL A   1      43.495  24.263  24.891  1.00  0.00     0.020 A 
ATOM     86  C   UNL A   1      45.872  24.576  25.227  1.00  0.00     0.020 A 
ATOM     87  C   UNL A   1      44.788  23.749  24.922  1.00  0.00     0.054 A 
BRANCH  87  88
ATOM     88  S   UNL A   1      45.008  21.965  24.672  1.00  0.00     0.124 S 
ATOM     89  O   UNL A   1      44.115  21.409  25.691  1.00  0.00    -0.237 OA
ATOM     90  O   UNL A   1      44.558  21.785  23.290  1.00  0.00    -0.237 OA
ATOM     91  O   UNL A   1      46.427  21.752  24.897  1.00  0.00    -0.744 OA
ENDBRANCH  87  88
ENDBRANCH  59  82
BRANCH  71  92
ATOM     92  C   UNL A   1      45.055  31.859  28.973  1.00  0.00    -0.014 A 
ATOM     93  C   UNL A   1      43.870  32.275  28.338  1.00  0.00     0.010 A 
ATOM     94  C   UNL A   1      46.265  32.482  28.599  1.00  0.00     0.010 A 
ATOM     95  C   UNL A   1      43.893  33.245  27.331  1.00  0.00     0.020 A 
ATOM     96  C   UNL A   1      46.290  33.476  27.610  1.00  0.00     0.020 A 
ATOM     97  C   UNL A   1      45.106  33.829  26.961  1.00  0.00     0.054 A 
BRANCH  97  98
ATOM     98  S   UNL A   1      45.106  35.021  25.594  1.00  0.00     0.124 S 
ATOM     99  O   UNL A   1      43.793  35.647  25.729  1.00  0.00    -0.237 OA
ATOM    100  O   UNL A   1      46.242  35.882  25.915  1.00  0.00    -0.237 OA
ATOM    101  O   UNL A   1      45.276  34.194  24.401  1.00  0.00    -0.744 OA
ENDBRANCH  97  98
ENDBRANCH  71  92
ENDBRANCH  45  46
ENDBRANCH  37  40
ENDBRANCH  35  36
ENDBRANCH   1  35
TORSDOF 18
ENDMDL
MODEL 3
REMARK VINA RESULT:     -13.0      3.961     10.770
REMARK SMILES C[C@H]1CC[C@H]([NH2+]Cc2c(C(=O)NCCCNC(=O)c3ccc(-c4c5nc(c(-c6ccc(S(=O)(=O)[O-])cc6)c6ccc([nH]6)c(-c6ccc(S(=O)(=O)[O-])cc6)c6nc(c(-c7ccc(S(=O)(=O)[O-])cc7)c7ccc4[nH]7)C=C6)C=C5)cc3)n(Cc3ccccc3F)c3ccccc23)CC1
REMARK SMILES IDX 14 1 13 2 12 3 10 4 11 5 9 7 8 8 93 9 79 10 88 11 92 12
REMARK SMILES IDX 89 13 91 14 90 15 7 16 6 17 5 20 1 21 2 22 3 23 95 24 4 25
REMARK SMILES IDX 94 26 80 27 81 28 82 29 86 30 83 31 85 32 87 33 84 34 15 35
REMARK SMILES IDX 16 36 17 37 18 39 19 40 20 41 78 42 21 43 77 44 22 45 23 46
REMARK SMILES IDX 24 47 71 48 25 49 76 50 70 51 72 52 26 53 75 54 69 55 68 56
REMARK SMILES IDX 27 58 57 59 38 60 56 61 39 62 42 63 55 64 73 65 40 66 41 67
REMARK SMILES IDX 54 69 74 70 43 71 28 72 29 73 37 74 30 75 36 76 31 77 32 78
REMARK SMILES IDX 33 79 34 80 35 81 58 82 59 83 67 84 60 85 66 86 61 87 62 88
REMARK SMILES IDX 63 89 64 90 65 91 44 92 45 93 53 94 46 95 52 96 47 97 48 98
REMARK SMILES IDX 49 99 50 100 51 101
REMARK H PARENT 12 6 6 18 6 19 16 38 72 57 42 68
REMARK Flexibility Score: inf
ROOT
ATOM      1  C   UNL A   1      34.604  22.571  25.447  1.00  0.00     0.042 C 
ENDROOT
BRANCH   1   2
ATOM      2  C   UNL A   1      33.133  22.188  25.566  1.00  0.00     0.118 C 
BRANCH   2   3
ATOM      3  N   UNL A   1      32.324  22.947  26.483  1.00  0.00    -0.351 N 
ATOM      4  C   UNL A   1      31.716  24.177  26.331  1.00  0.00     0.268 C 
ATOM      5  O   UNL A   1      30.966  24.462  27.270  1.00  0.00    -0.268 OA
ATOM      6  H   UNL A   1      32.181  22.521  27.360  1.00  0.00     0.163 HD
BRANCH   4   7
ATOM      7  C   UNL A   1      31.958  25.110  25.215  1.00  0.00     0.117 A 
ATOM      8  C   UNL A   1      31.254  25.431  24.035  1.00  0.00     0.045 A 
ATOM      9  C   UNL A   1      32.198  26.080  23.174  1.00  0.00     0.009 A 
ATOM     10  N   UNL A   1      32.985  26.093  25.246  1.00  0.00    -0.331 N 
ATOM     11  C   UNL A   1      33.117  26.697  24.001  1.00  0.00     0.049 A 
ATOM     12  C   UNL A   1      32.236  26.341  21.786  1.00  0.00     0.011 A 
ATOM     13  C   UNL A   1      33.937  27.734  23.518  1.00  0.00     0.027 A 
ATOM     14  C   UNL A   1      33.176  27.235  21.275  1.00  0.00     0.001 A 
ATOM     15  C   UNL A   1      33.985  27.959  22.139  1.00  0.00     0.002 A 
BRANCH   8  16
ATOM     16  C   UNL A   1      29.846  25.257  23.535  1.00  0.00     0.300 C 
BRANCH  16  17
ATOM     17  N   UNL A   1      28.908  26.324  23.826  1.00  0.00    -0.340 N 
ATOM     18  H   UNL A   1      27.981  25.922  23.689  1.00  0.00     0.346 HD
ATOM     19  H   UNL A   1      29.225  26.610  24.753  1.00  0.00     0.346 HD
BRANCH  17  20
ATOM     20  C   UNL A   1      28.887  27.610  23.134  1.00  0.00     0.182 C 
ATOM     21  C   UNL A   1      27.991  31.953  23.121  1.00  0.00     0.007 C 
ATOM     22  C   UNL A   1      28.258  30.505  23.509  1.00  0.00    -0.014 C 
ATOM     23  C   UNL A   1      29.647  30.050  23.052  1.00  0.00     0.009 C 
ATOM     24  C   UNL A   1      27.206  29.562  22.924  1.00  0.00     0.009 C 
ATOM     25  C   UNL A   1      29.927  28.644  23.574  1.00  0.00     0.065 C 
ATOM     26  C   UNL A   1      27.453  28.132  23.387  1.00  0.00     0.065 C 
ENDBRANCH  17  20
ENDBRANCH  16  17
ENDBRANCH   8  16
BRANCH  10  27
ATOM     27  C   UNL A   1      33.748  26.551  26.421  1.00  0.00     0.161 C 
BRANCH  27  28
ATOM     28  C   UNL A   1      33.560  28.010  26.778  1.00  0.00     0.008 A 
ATOM     29  C   UNL A   1      34.641  28.893  26.939  1.00  0.00     0.008 A 
ATOM     30  C   UNL A   1      32.279  28.557  26.880  1.00  0.00     0.128 A 
ATOM     31  C   UNL A   1      34.453  30.245  27.235  1.00  0.00     0.001 A 
ATOM     32  C   UNL A   1      32.079  29.904  27.188  1.00  0.00     0.039 A 
ATOM     33  F   UNL A   1      31.199  27.804  26.634  1.00  0.00    -0.207 F 
ATOM     34  C   UNL A   1      33.169  30.751  27.374  1.00  0.00     0.003 A 
ENDBRANCH  27  28
ENDBRANCH  10  27
ENDBRANCH   4   7
ENDBRANCH   2   3
ENDBRANCH   1   2
BRANCH   1  35
ATOM     35  C   UNL A   1      35.612  21.611  26.106  1.00  0.00     0.118 C 
BRANCH  35  36
ATOM     36  N   UNL A   1      36.566  20.947  25.226  1.00  0.00    -0.352 N 
ATOM     37  C   UNL A   1      37.908  20.683  25.339  1.00  0.00     0.251 C 
ATOM     38  H   UNL A   1      36.169  20.624  24.385  1.00  0.00     0.163 HD
ATOM     39  O   UNL A   1      38.312  19.628  24.844  1.00  0.00    -0.269 OA
BRANCH  37  40
ATOM     40  C   UNL A   1      38.905  21.647  25.878  1.00  0.00     0.039 A 
ATOM     41  C   UNL A   1      40.042  21.266  26.584  1.00  0.00     0.014 A 
ATOM     42  C   UNL A   1      38.567  23.016  25.826  1.00  0.00     0.014 A 
ATOM     43  C   UNL A   1      40.762  22.207  27.312  1.00  0.00     0.010 A 
ATOM     44  C   UNL A   1      39.291  23.963  26.546  1.00  0.00     0.010 A 
ATOM     45  C   UNL A   1      40.356  23.545  27.336  1.00  0.00    -0.014 A 
BRANCH  45  46
ATOM     46  C   UNL A   1      41.117  24.459  28.184  1.00  0.00     0.031 A 
ATOM     47  C   UNL A   1      40.509  25.803  28.395  1.00  0.00     0.074 A 
ATOM     48  C   UNL A   1      42.270  24.134  28.803  1.00  0.00     0.049 A 
ATOM     49  N   UNL A   1      40.978  26.958  28.048  1.00  0.00    -0.248 NA
ATOM     50  C   UNL A   1      39.164  25.853  28.983  1.00  0.00     0.031 C 
ATOM     51  C   UNL A   1      42.887  22.816  28.957  1.00  0.00     0.029 A 
ATOM     52  N   UNL A   1      43.089  24.946  29.528  1.00  0.00    -0.354 N 
ATOM     53  C   UNL A   1      40.054  27.905  28.488  1.00  0.00     0.074 A 
ATOM     54  C   UNL A   1      38.912  27.162  28.961  1.00  0.00     0.031 C 
ATOM     55  C   UNL A   1      43.835  22.883  29.922  1.00  0.00     0.029 A 
ATOM     56  C   UNL A   1      43.988  24.268  30.337  1.00  0.00     0.049 A 
ATOM     57  H   UNL A   1      43.048  25.928  29.481  1.00  0.00     0.167 HD
ATOM     58  C   UNL A   1      40.334  29.238  28.553  1.00  0.00     0.031 A 
ATOM     59  C   UNL A   1      44.727  24.805  31.340  1.00  0.00     0.031 A 
ATOM     60  C   UNL A   1      41.510  29.583  27.804  1.00  0.00     0.049 A 
ATOM     61  C   UNL A   1      44.833  26.263  31.078  1.00  0.00     0.074 A 
ATOM     62  C   UNL A   1      41.847  29.537  26.466  1.00  0.00     0.029 A 
ATOM     63  N   UNL A   1      42.694  29.732  28.486  1.00  0.00    -0.354 N 
ATOM     64  N   UNL A   1      45.486  26.769  30.070  1.00  0.00    -0.248 NA
ATOM     65  C   UNL A   1      43.865  27.151  31.703  1.00  0.00     0.031 C 
ATOM     66  C   UNL A   1      43.219  29.157  26.449  1.00  0.00     0.029 A 
ATOM     67  C   UNL A   1      43.648  29.049  27.773  1.00  0.00     0.049 A 
ATOM     68  H   UNL A   1      42.831  30.230  29.324  1.00  0.00     0.167 HD
ATOM     69  C   UNL A   1      44.728  27.858  29.667  1.00  0.00     0.074 A 
ATOM     70  C   UNL A   1      43.800  28.103  30.769  1.00  0.00     0.031 C 
ATOM     71  C   UNL A   1      44.731  28.291  28.370  1.00  0.00     0.031 A 
BRANCH  58  72
ATOM     72  C   UNL A   1      39.675  30.204  29.503  1.00  0.00    -0.014 A 
ATOM     73  C   UNL A   1      38.432  30.811  29.230  1.00  0.00     0.010 A 
ATOM     74  C   UNL A   1      40.180  30.347  30.813  1.00  0.00     0.010 A 
ATOM     75  C   UNL A   1      37.734  31.537  30.197  1.00  0.00     0.020 A 
ATOM     76  C   UNL A   1      39.465  31.036  31.805  1.00  0.00     0.020 A 
ATOM     77  C   UNL A   1      38.246  31.629  31.486  1.00  0.00     0.054 A 
BRANCH  77  78
ATOM     78  S   UNL A   1      37.240  32.454  32.746  1.00  0.00     0.124 S 
ATOM     79  O   UNL A   1      38.047  32.263  33.947  1.00  0.00    -0.237 OA
ATOM     80  O   UNL A   1      37.173  33.824  32.244  1.00  0.00    -0.237 OA
ATOM     81  O   UNL A   1      35.979  31.719  32.715  1.00  0.00    -0.744 OA
ENDBRANCH  77  78
ENDBRANCH  58  72
BRANCH  59  82
ATOM     82  C   UNL A   1      44.892  24.235  32.704  1.00  0.00    -0.014 A 
ATOM     83  C   UNL A   1      46.109  24.401  33.396  1.00  0.00     0.010 A 
ATOM     84  C   UNL A   1      43.990  23.266  33.186  1.00  0.00     0.010 A 
ATOM     85  C   UNL A   1      46.462  23.566  34.460  1.00  0.00     0.020 A 
ATOM     86  C   UNL A   1      44.340  22.418  34.250  1.00  0.00     0.020 A 
ATOM     87  C   UNL A   1      45.596  22.548  34.849  1.00  0.00     0.054 A 
BRANCH  87  88
ATOM     88  S   UNL A   1      46.188  21.335  36.062  1.00  0.00     0.124 S 
ATOM     89  O   UNL A   1      47.637  21.386  35.851  1.00  0.00    -0.237 OA
ATOM     90  O   UNL A   1      45.726  21.908  37.328  1.00  0.00    -0.237 OA
ATOM     91  O   UNL A   1      45.540  20.098  35.666  1.00  0.00    -0.744 OA
ENDBRANCH  87  88
ENDBRANCH  59  82
BRANCH  71  92
ATOM     92  C   UNL A   1      45.740  27.708  27.399  1.00  0.00    -0.014 A 
ATOM     93  C   UNL A   1      46.879  28.476  27.092  1.00  0.00     0.010 A 
ATOM     94  C   UNL A   1      45.485  26.557  26.626  1.00  0.00     0.010 A 
ATOM     95  C   UNL A   1      47.711  28.136  26.021  1.00  0.00     0.020 A 
ATOM     96  C   UNL A   1      46.332  26.194  25.569  1.00  0.00     0.020 A 
ATOM     97  C   UNL A   1      47.423  27.004  25.255  1.00  0.00     0.054 A 
BRANCH  97  98
ATOM     98  S   UNL A   1      48.478  26.644  23.823  1.00  0.00     0.124 S 
ATOM     99  O   UNL A   1      48.059  27.666  22.865  1.00  0.00    -0.237 OA
ATOM    100  O   UNL A   1      49.825  26.813  24.363  1.00  0.00    -0.237 OA
ATOM    101  O   UNL A   1      48.126  25.274  23.457  1.00  0.00    -0.744 OA
ENDBRANCH  97  98
ENDBRANCH  71  92
ENDBRANCH  45  46
ENDBRANCH  37  40
ENDBRANCH  35  36
ENDBRANCH   1  35
TORSDOF 18
ENDMDL
