MODEL 1
REMARK VINA RESULT:     -14.5      0.000      0.000
REMARK SMILES Cc1cnn(C2(C(=O)NCCCNC(=O)c3ccc(-c4c5nc(c(-c6ccc(S(=O)(=O)[O-])cc6)c6ccc([nH]6)c(-c6ccc(S(=O)(=O)[O-])cc6)c6nc(c(-c7ccc(S(=O)(=O)[O-])cc7)c7ccc4[nH]7)C=C6)C=C5)cc3)CCN(C(=O)c3cc4ccccc4[nH]3)CC2)c1
REMARK SMILES IDX 12 1 11 2 10 3 9 4 7 5 8 6 6 8 76 9 91 10 77 11 90 12 78 13
REMARK SMILES IDX 79 14 80 15 5 16 1 17 2 18 3 19 92 20 4 21 81 22 82 23 89 24
REMARK SMILES IDX 83 25 88 26 84 28 87 29 85 30 86 31 13 32 14 33 15 35 16 36
REMARK SMILES IDX 17 37 75 38 18 39 74 40 19 41 20 42 21 43 68 44 22 45 73 46
REMARK SMILES IDX 67 47 69 48 23 49 72 50 66 51 65 52 24 54 54 55 35 56 53 57
REMARK SMILES IDX 36 58 39 59 52 60 70 61 37 62 38 63 51 65 71 66 40 67 25 68
REMARK SMILES IDX 26 69 34 70 27 71 33 72 28 73 29 74 30 75 31 76 32 77 55 78
REMARK SMILES IDX 56 79 64 80 57 81 63 82 58 83 59 84 60 85 61 86 62 87 41 88
REMARK SMILES IDX 42 89 50 90 43 91 49 92 44 93 45 94 46 95 47 96 48 97
REMARK H PARENT 9 7 89 27 13 34 69 53 39 64
REMARK Flexibility Score: inf
ROOT
ATOM      1  C   UNL A   1      33.472  29.076  27.202  1.00  0.00     0.118 C 
ENDROOT
BRANCH   1   2
ATOM      2  C   UNL A   1      32.301  28.193  27.586  1.00  0.00     0.042 C 
BRANCH   2   3
ATOM      3  C   UNL A   1      31.361  27.896  26.415  1.00  0.00     0.117 C 
BRANCH   3   4
ATOM      4  N   UNL A   1      30.568  26.678  26.577  1.00  0.00    -0.354 N 
ATOM      5  C   UNL A   1      30.742  25.370  26.166  1.00  0.00     0.248 C 
ATOM      6  O   UNL A   1      29.872  24.606  26.585  1.00  0.00    -0.272 OA
ATOM      7  H   UNL A   1      29.737  26.819  27.085  1.00  0.00     0.163 HD
BRANCH   5   8
ATOM      8  C   UNL A   1      31.957  24.959  25.268  1.00  0.00     0.144 C 
ATOM      9  C   UNL A   1      33.216  25.101  26.162  1.00  0.00     0.062 C 
ATOM     10  C   UNL A   1      31.639  23.536  24.735  1.00  0.00     0.062 C 
ATOM     11  C   UNL A   1      34.323  24.101  25.893  1.00  0.00     0.123 C 
ATOM     12  C   UNL A   1      32.851  22.640  24.531  1.00  0.00     0.123 C 
ATOM     13  N   UNL A   1      33.821  22.767  25.613  1.00  0.00    -0.337 N 
ATOM     14  C   UNL A   1      34.332  21.692  26.342  1.00  0.00     0.270 C 
ATOM     15  O   UNL A   1      34.896  21.843  27.419  1.00  0.00    -0.267 OA
BRANCH   8  16
ATOM     16  N   UNL A   1      32.190  25.806  24.052  1.00  0.00    -0.257 N 
ATOM     17  C   UNL A   1      34.076  28.149  21.957  1.00  0.00     0.048 C 
ATOM     18  C   UNL A   1      33.151  27.191  22.599  1.00  0.00    -0.013 A 
ATOM     19  C   UNL A   1      32.015  26.555  22.070  1.00  0.00     0.138 A 
ATOM     20  C   UNL A   1      33.226  26.701  23.882  1.00  0.00     0.113 A 
ATOM     21  N   UNL A   1      31.456  25.707  22.934  1.00  0.00    -0.180 NA
ENDBRANCH   8  16
BRANCH  14  22
ATOM     22  C   UNL A   1      34.133  20.376  25.784  1.00  0.00     0.105 A 
ATOM     23  C   UNL A   1      34.752  19.756  24.713  1.00  0.00     0.042 A 
ATOM     24  N   UNL A   1      33.255  19.466  26.319  1.00  0.00    -0.351 N 
ATOM     25  C   UNL A   1      34.161  18.477  24.542  1.00  0.00     0.000 A 
ATOM     26  C   UNL A   1      33.196  18.337  25.538  1.00  0.00     0.046 A 
ATOM     27  H   UNL A   1      32.740  19.603  27.147  1.00  0.00     0.167 HD
ATOM     28  C   UNL A   1      34.351  17.426  23.626  1.00  0.00     0.010 A 
ATOM     29  C   UNL A   1      32.378  17.208  25.644  1.00  0.00     0.026 A 
ATOM     30  C   UNL A   1      33.552  16.282  23.727  1.00  0.00     0.001 A 
ATOM     31  C   UNL A   1      32.575  16.182  24.715  1.00  0.00     0.002 A 
ENDBRANCH  14  22
ENDBRANCH   5   8
ENDBRANCH   3   4
ENDBRANCH   2   3
ENDBRANCH   1   2
BRANCH   1  32
ATOM     32  N   UNL A   1      33.221  30.499  27.429  1.00  0.00    -0.352 N 
ATOM     33  C   UNL A   1      34.082  31.424  27.994  1.00  0.00     0.251 C 
ATOM     34  H   UNL A   1      32.340  30.837  27.151  1.00  0.00     0.163 HD
ATOM     35  O   UNL A   1      33.653  32.480  28.442  1.00  0.00    -0.269 OA
BRANCH  33  36
ATOM     36  C   UNL A   1      35.520  31.104  28.051  1.00  0.00     0.039 A 
ATOM     37  C   UNL A   1      36.456  32.032  28.512  1.00  0.00     0.014 A 
ATOM     38  C   UNL A   1      35.915  29.820  27.682  1.00  0.00     0.014 A 
ATOM     39  C   UNL A   1      37.777  31.624  28.686  1.00  0.00     0.010 A 
ATOM     40  C   UNL A   1      37.171  29.375  28.004  1.00  0.00     0.010 A 
ATOM     41  C   UNL A   1      38.121  30.281  28.457  1.00  0.00    -0.014 A 
BRANCH  41  42
ATOM     42  C   UNL A   1      39.441  29.771  28.815  1.00  0.00     0.031 A 
ATOM     43  C   UNL A   1      39.682  29.672  30.278  1.00  0.00     0.074 A 
ATOM     44  C   UNL A   1      40.287  29.215  27.920  1.00  0.00     0.049 A 
ATOM     45  N   UNL A   1      40.463  30.415  30.990  1.00  0.00    -0.248 NA
ATOM     46  C   UNL A   1      38.845  28.757  31.073  1.00  0.00     0.031 C 
ATOM     47  C   UNL A   1      40.055  28.967  26.492  1.00  0.00     0.029 A 
ATOM     48  N   UNL A   1      41.493  28.622  28.130  1.00  0.00    -0.354 N 
ATOM     49  C   UNL A   1      40.414  29.890  32.276  1.00  0.00     0.074 A 
ATOM     50  C   UNL A   1      39.253  29.038  32.313  1.00  0.00     0.031 C 
ATOM     51  C   UNL A   1      40.951  28.063  26.039  1.00  0.00     0.029 A 
ATOM     52  C   UNL A   1      41.919  27.802  27.089  1.00  0.00     0.049 A 
ATOM     53  H   UNL A   1      42.021  28.763  28.949  1.00  0.00     0.167 HD
ATOM     54  C   UNL A   1      41.489  29.973  33.111  1.00  0.00     0.031 A 
ATOM     55  C   UNL A   1      42.968  26.940  27.102  1.00  0.00     0.031 A 
ATOM     56  C   UNL A   1      42.484  30.887  32.603  1.00  0.00     0.049 A 
ATOM     57  C   UNL A   1      43.878  27.391  28.184  1.00  0.00     0.074 A 
ATOM     58  C   UNL A   1      42.479  32.216  32.224  1.00  0.00     0.029 A 
ATOM     59  N   UNL A   1      43.599  30.330  32.020  1.00  0.00    -0.354 N 
ATOM     60  N   UNL A   1      44.523  28.523  28.144  1.00  0.00    -0.248 NA
ATOM     61  C   UNL A   1      43.707  26.819  29.511  1.00  0.00     0.031 C 
ATOM     62  C   UNL A   1      43.293  32.264  31.055  1.00  0.00     0.029 A 
ATOM     63  C   UNL A   1      43.825  30.991  30.841  1.00  0.00     0.049 A 
ATOM     64  H   UNL A   1      44.138  29.591  32.385  1.00  0.00     0.167 HD
ATOM     65  C   UNL A   1      44.425  29.028  29.433  1.00  0.00     0.074 A 
ATOM     66  C   UNL A   1      44.011  27.889  30.252  1.00  0.00     0.031 C 
ATOM     67  C   UNL A   1      44.404  30.374  29.665  1.00  0.00     0.031 A 
BRANCH  54  68
ATOM     68  C   UNL A   1      41.842  28.919  34.136  1.00  0.00    -0.014 A 
ATOM     69  C   UNL A   1      42.306  27.667  33.682  1.00  0.00     0.010 A 
ATOM     70  C   UNL A   1      41.469  29.007  35.493  1.00  0.00     0.010 A 
ATOM     71  C   UNL A   1      42.308  26.544  34.518  1.00  0.00     0.020 A 
ATOM     72  C   UNL A   1      41.513  27.905  36.348  1.00  0.00     0.020 A 
ATOM     73  C   UNL A   1      41.898  26.671  35.845  1.00  0.00     0.054 A 
BRANCH  73  74
ATOM     74  S   UNL A   1      41.811  25.198  36.890  1.00  0.00     0.124 S 
ATOM     75  O   UNL A   1      41.672  24.136  35.898  1.00  0.00    -0.237 OA
ATOM     76  O   UNL A   1      43.089  25.246  37.595  1.00  0.00    -0.237 OA
ATOM     77  O   UNL A   1      40.636  25.439  37.723  1.00  0.00    -0.744 OA
ENDBRANCH  73  74
ENDBRANCH  54  68
BRANCH  55  78
ATOM     78  C   UNL A   1      43.084  25.611  26.445  1.00  0.00    -0.014 A 
ATOM     79  C   UNL A   1      43.814  25.454  25.250  1.00  0.00     0.010 A 
ATOM     80  C   UNL A   1      42.722  24.438  27.141  1.00  0.00     0.010 A 
ATOM     81  C   UNL A   1      44.240  24.185  24.817  1.00  0.00     0.020 A 
ATOM     82  C   UNL A   1      43.132  23.169  26.710  1.00  0.00     0.020 A 
ATOM     83  C   UNL A   1      43.918  23.051  25.567  1.00  0.00     0.054 A 
BRANCH  83  84
ATOM     84  S   UNL A   1      44.655  21.447  25.129  1.00  0.00     0.124 S 
ATOM     85  O   UNL A   1      44.629  21.478  23.670  1.00  0.00    -0.237 OA
ATOM     86  O   UNL A   1      45.979  21.527  25.740  1.00  0.00    -0.237 OA
ATOM     87  O   UNL A   1      43.752  20.475  25.745  1.00  0.00    -0.744 OA
ENDBRANCH  83  84
ENDBRANCH  55  78
BRANCH  67  88
ATOM     88  C   UNL A   1      44.791  31.315  28.546  1.00  0.00    -0.014 A 
ATOM     89  C   UNL A   1      44.010  31.543  27.396  1.00  0.00     0.010 A 
ATOM     90  C   UNL A   1      45.926  32.121  28.753  1.00  0.00     0.010 A 
ATOM     91  C   UNL A   1      44.373  32.533  26.467  1.00  0.00     0.020 A 
ATOM     92  C   UNL A   1      46.281  33.119  27.844  1.00  0.00     0.020 A 
ATOM     93  C   UNL A   1      45.509  33.315  26.699  1.00  0.00     0.054 A 
BRANCH  93  94
ATOM     94  S   UNL A   1      45.957  34.621  25.521  1.00  0.00     0.124 S 
ATOM     95  O   UNL A   1      45.549  35.835  26.223  1.00  0.00    -0.237 OA
ATOM     96  O   UNL A   1      47.398  34.439  25.364  1.00  0.00    -0.237 OA
ATOM     97  O   UNL A   1      45.168  34.303  24.331  1.00  0.00    -0.744 OA
ENDBRANCH  93  94
ENDBRANCH  67  88
ENDBRANCH  41  42
ENDBRANCH  33  36
ENDBRANCH   1  32
TORSDOF 15
ENDMDL
MODEL 2
REMARK VINA RESULT:     -13.9      2.186      3.218
REMARK SMILES Cc1cnn(C2(C(=O)NCCCNC(=O)c3ccc(-c4c5nc(c(-c6ccc(S(=O)(=O)[O-])cc6)c6ccc([nH]6)c(-c6ccc(S(=O)(=O)[O-])cc6)c6nc(c(-c7ccc(S(=O)(=O)[O-])cc7)c7ccc4[nH]7)C=C6)C=C5)cc3)CCN(C(=O)c3cc4ccccc4[nH]3)CC2)c1
REMARK SMILES IDX 12 1 11 2 10 3 9 4 7 5 8 6 6 8 76 9 91 10 77 11 90 12 78 13
REMARK SMILES IDX 79 14 80 15 5 16 1 17 2 18 3 19 92 20 4 21 81 22 82 23 89 24
REMARK SMILES IDX 83 25 88 26 84 28 87 29 85 30 86 31 13 32 14 33 15 35 16 36
REMARK SMILES IDX 17 37 75 38 18 39 74 40 19 41 20 42 21 43 68 44 22 45 73 46
REMARK SMILES IDX 67 47 69 48 23 49 72 50 66 51 65 52 24 54 54 55 35 56 53 57
REMARK SMILES IDX 36 58 39 59 52 60 70 61 37 62 38 63 51 65 71 66 40 67 25 68
REMARK SMILES IDX 26 69 34 70 27 71 33 72 28 73 29 74 30 75 31 76 32 77 55 78
REMARK SMILES IDX 56 79 64 80 57 81 63 82 58 83 59 84 60 85 61 86 62 87 41 88
REMARK SMILES IDX 42 89 50 90 43 91 49 92 44 93 45 94 46 95 47 96 48 97
REMARK H PARENT 9 7 89 27 13 34 69 53 39 64
REMARK Flexibility Score: inf
ROOT
ATOM      1  C   UNL A   1      33.665  29.594  26.547  1.00  0.00     0.118 C 
ENDROOT
BRANCH   1   2
ATOM      2  C   UNL A   1      32.691  28.497  26.931  1.00  0.00     0.042 C 
BRANCH   2   3
ATOM      3  C   UNL A   1      31.743  28.108  25.794  1.00  0.00     0.117 C 
BRANCH   3   4
ATOM      4  N   UNL A   1      32.380  28.035  24.480  1.00  0.00    -0.354 N 
ATOM      5  C   UNL A   1      32.898  26.995  23.732  1.00  0.00     0.248 C 
ATOM      6  O   UNL A   1      33.278  27.340  22.613  1.00  0.00    -0.272 OA
ATOM      7  H   UNL A   1      32.455  28.910  24.034  1.00  0.00     0.163 HD
BRANCH   5   8
ATOM      8  C   UNL A   1      32.955  25.538  24.303  1.00  0.00     0.144 C 
ATOM      9  C   UNL A   1      33.175  24.609  23.081  1.00  0.00     0.062 C 
ATOM     10  C   UNL A   1      34.068  25.541  25.384  1.00  0.00     0.062 C 
ATOM     11  C   UNL A   1      34.014  23.373  23.344  1.00  0.00     0.123 C 
ATOM     12  C   UNL A   1      34.835  24.235  25.521  1.00  0.00     0.123 C 
ATOM     13  N   UNL A   1      35.138  23.634  24.227  1.00  0.00    -0.337 N 
ATOM     14  C   UNL A   1      36.414  23.244  23.819  1.00  0.00     0.270 C 
ATOM     15  O   UNL A   1      36.688  23.030  22.644  1.00  0.00    -0.267 OA
BRANCH   8  16
ATOM     16  N   UNL A   1      31.714  25.056  24.996  1.00  0.00    -0.257 N 
ATOM     17  C   UNL A   1      29.818  22.915  27.288  1.00  0.00     0.048 C 
ATOM     18  C   UNL A   1      30.358  23.907  26.334  1.00  0.00    -0.013 A 
ATOM     19  C   UNL A   1      29.732  25.028  25.763  1.00  0.00     0.138 A 
ATOM     20  C   UNL A   1      31.626  23.943  25.806  1.00  0.00     0.113 A 
ATOM     21  N   UNL A   1      30.554  25.729  24.981  1.00  0.00    -0.180 NA
ENDBRANCH   8  16
BRANCH  14  22
ATOM     22  C   UNL A   1      37.420  23.137  24.848  1.00  0.00     0.105 A 
ATOM     23  C   UNL A   1      37.839  24.064  25.788  1.00  0.00     0.042 A 
ATOM     24  N   UNL A   1      38.126  21.984  25.083  1.00  0.00    -0.351 N 
ATOM     25  C   UNL A   1      38.892  23.482  26.541  1.00  0.00     0.000 A 
ATOM     26  C   UNL A   1      39.080  22.191  26.050  1.00  0.00     0.046 A 
ATOM     27  H   UNL A   1      37.971  21.128  24.621  1.00  0.00     0.167 HD
ATOM     28  C   UNL A   1      39.711  23.936  27.591  1.00  0.00     0.010 A 
ATOM     29  C   UNL A   1      40.076  21.337  26.533  1.00  0.00     0.026 A 
ATOM     30  C   UNL A   1      40.703  23.089  28.097  1.00  0.00     0.001 A 
ATOM     31  C   UNL A   1      40.887  21.813  27.567  1.00  0.00     0.002 A 
ENDBRANCH  14  22
ENDBRANCH   5   8
ENDBRANCH   3   4
ENDBRANCH   2   3
ENDBRANCH   1   2
BRANCH   1  32
ATOM     32  N   UNL A   1      33.381  30.872  27.199  1.00  0.00    -0.352 N 
ATOM     33  C   UNL A   1      34.174  31.543  28.114  1.00  0.00     0.251 C 
ATOM     34  H   UNL A   1      32.529  31.304  26.961  1.00  0.00     0.163 HD
ATOM     35  O   UNL A   1      33.694  32.407  28.837  1.00  0.00    -0.269 OA
BRANCH  33  36
ATOM     36  C   UNL A   1      35.601  31.185  28.203  1.00  0.00     0.039 A 
ATOM     37  C   UNL A   1      36.569  32.131  28.550  1.00  0.00     0.014 A 
ATOM     38  C   UNL A   1      35.953  29.855  27.984  1.00  0.00     0.014 A 
ATOM     39  C   UNL A   1      37.878  31.703  28.766  1.00  0.00     0.010 A 
ATOM     40  C   UNL A   1      37.196  29.410  28.351  1.00  0.00     0.010 A 
ATOM     41  C   UNL A   1      38.178  30.332  28.693  1.00  0.00    -0.014 A 
BRANCH  41  42
ATOM     42  C   UNL A   1      39.483  29.825  29.104  1.00  0.00     0.031 A 
ATOM     43  C   UNL A   1      39.693  29.793  30.574  1.00  0.00     0.074 A 
ATOM     44  C   UNL A   1      40.342  29.217  28.254  1.00  0.00     0.049 A 
ATOM     45  N   UNL A   1      40.467  30.560  31.267  1.00  0.00    -0.248 NA
ATOM     46  C   UNL A   1      38.828  28.926  31.393  1.00  0.00     0.031 C 
ATOM     47  C   UNL A   1      40.137  28.905  26.835  1.00  0.00     0.029 A 
ATOM     48  N   UNL A   1      41.535  28.623  28.518  1.00  0.00    -0.354 N 
ATOM     49  C   UNL A   1      40.385  30.098  32.575  1.00  0.00     0.074 A 
ATOM     50  C   UNL A   1      39.213  29.261  32.627  1.00  0.00     0.031 C 
ATOM     51  C   UNL A   1      41.032  27.971  26.444  1.00  0.00     0.029 A 
ATOM     52  C   UNL A   1      41.974  27.749  27.526  1.00  0.00     0.049 A 
ATOM     53  H   UNL A   1      42.048  28.796  29.341  1.00  0.00     0.167 HD
ATOM     54  C   UNL A   1      41.443  30.209  33.429  1.00  0.00     0.031 A 
ATOM     55  C   UNL A   1      43.012  26.877  27.603  1.00  0.00     0.031 A 
ATOM     56  C   UNL A   1      42.459  31.086  32.900  1.00  0.00     0.049 A 
ATOM     57  C   UNL A   1      43.904  27.368  28.682  1.00  0.00     0.074 A 
ATOM     58  C   UNL A   1      42.478  32.395  32.458  1.00  0.00     0.029 A 
ATOM     59  N   UNL A   1      43.580  30.490  32.368  1.00  0.00    -0.354 N 
ATOM     60  N   UNL A   1      44.563  28.491  28.603  1.00  0.00    -0.248 NA
ATOM     61  C   UNL A   1      43.698  26.862  30.030  1.00  0.00     0.031 C 
ATOM     62  C   UNL A   1      43.318  32.378  31.306  1.00  0.00     0.029 A 
ATOM     63  C   UNL A   1      43.839  31.091  31.164  1.00  0.00     0.049 A 
ATOM     64  H   UNL A   1      44.102  29.763  32.779  1.00  0.00     0.167 HD
ATOM     65  C   UNL A   1      44.445  29.057  29.864  1.00  0.00     0.074 A 
ATOM     66  C   UNL A   1      43.999  27.963  30.727  1.00  0.00     0.031 C 
ATOM     67  C   UNL A   1      44.435  30.413  30.031  1.00  0.00     0.031 A 
BRANCH  54  68
ATOM     68  C   UNL A   1      41.761  29.201  34.509  1.00  0.00    -0.014 A 
ATOM     69  C   UNL A   1      42.283  29.668  35.734  1.00  0.00     0.010 A 
ATOM     70  C   UNL A   1      41.839  27.813  34.270  1.00  0.00     0.010 A 
ATOM     71  C   UNL A   1      42.928  28.804  36.627  1.00  0.00     0.020 A 
ATOM     72  C   UNL A   1      42.438  26.936  35.177  1.00  0.00     0.020 A 
ATOM     73  C   UNL A   1      43.012  27.443  36.333  1.00  0.00     0.054 A 
BRANCH  73  74
ATOM     74  S   UNL A   1      43.932  26.352  37.444  1.00  0.00     0.124 S 
ATOM     75  O   UNL A   1      45.040  25.926  36.594  1.00  0.00    -0.237 OA
ATOM     76  O   UNL A   1      44.281  27.252  38.540  1.00  0.00    -0.237 OA
ATOM     77  O   UNL A   1      42.961  25.313  37.781  1.00  0.00    -0.744 OA
ENDBRANCH  73  74
ENDBRANCH  54  68
BRANCH  55  78
ATOM     78  C   UNL A   1      43.126  25.516  27.012  1.00  0.00    -0.014 A 
ATOM     79  C   UNL A   1      42.713  25.265  25.689  1.00  0.00     0.010 A 
ATOM     80  C   UNL A   1      43.906  24.527  27.647  1.00  0.00     0.010 A 
ATOM     81  C   UNL A   1      43.138  24.114  25.000  1.00  0.00     0.020 A 
ATOM     82  C   UNL A   1      44.323  23.372  26.972  1.00  0.00     0.020 A 
ATOM     83  C   UNL A   1      43.965  23.187  25.640  1.00  0.00     0.054 A 
BRANCH  83  84
ATOM     84  S   UNL A   1      44.690  21.821  24.682  1.00  0.00     0.124 S 
ATOM     85  O   UNL A   1      46.041  21.738  25.230  1.00  0.00    -0.237 OA
ATOM     86  O   UNL A   1      43.808  20.703  25.002  1.00  0.00    -0.237 OA
ATOM     87  O   UNL A   1      44.610  22.290  23.300  1.00  0.00    -0.744 OA
ENDBRANCH  83  84
ENDBRANCH  55  78
BRANCH  67  88
ATOM     88  C   UNL A   1      44.857  31.295  28.878  1.00  0.00    -0.014 A 
ATOM     89  C   UNL A   1      44.079  31.519  27.725  1.00  0.00     0.010 A 
ATOM     90  C   UNL A   1      46.028  32.054  29.050  1.00  0.00     0.010 A 
ATOM     91  C   UNL A   1      44.481  32.457  26.759  1.00  0.00     0.020 A 
ATOM     92  C   UNL A   1      46.423  33.003  28.105  1.00  0.00     0.020 A 
ATOM     93  C   UNL A   1      45.653  33.194  26.957  1.00  0.00     0.054 A 
BRANCH  93  94
ATOM     94  S   UNL A   1      46.152  34.436  25.732  1.00  0.00     0.124 S 
ATOM     95  O   UNL A   1      45.873  35.692  26.422  1.00  0.00    -0.237 OA
ATOM     96  O   UNL A   1      47.566  34.135  25.520  1.00  0.00    -0.237 OA
ATOM     97  O   UNL A   1      45.290  34.158  24.583  1.00  0.00    -0.744 OA
ENDBRANCH  93  94
ENDBRANCH  67  88
ENDBRANCH  41  42
ENDBRANCH  33  36
ENDBRANCH   1  32
TORSDOF 15
ENDMDL
MODEL 3
REMARK VINA RESULT:     -13.9      2.731      7.039
REMARK SMILES Cc1cnn(C2(C(=O)NCCCNC(=O)c3ccc(-c4c5nc(c(-c6ccc(S(=O)(=O)[O-])cc6)c6ccc([nH]6)c(-c6ccc(S(=O)(=O)[O-])cc6)c6nc(c(-c7ccc(S(=O)(=O)[O-])cc7)c7ccc4[nH]7)C=C6)C=C5)cc3)CCN(C(=O)c3cc4ccccc4[nH]3)CC2)c1
REMARK SMILES IDX 12 1 11 2 10 3 9 4 7 5 8 6 6 8 76 9 91 10 77 11 90 12 78 13
REMARK SMILES IDX 79 14 80 15 5 16 1 17 2 18 3 19 92 20 4 21 81 22 82 23 89 24
REMARK SMILES IDX 83 25 88 26 84 28 87 29 85 30 86 31 13 32 14 33 15 35 16 36
REMARK SMILES IDX 17 37 75 38 18 39 74 40 19 41 20 42 21 43 68 44 22 45 73 46
REMARK SMILES IDX 67 47 69 48 23 49 72 50 66 51 65 52 24 54 54 55 35 56 53 57
REMARK SMILES IDX 36 58 39 59 52 60 70 61 37 62 38 63 51 65 71 66 40 67 25 68
REMARK SMILES IDX 26 69 34 70 27 71 33 72 28 73 29 74 30 75 31 76 32 77 55 78
REMARK SMILES IDX 56 79 64 80 57 81 63 82 58 83 59 84 60 85 61 86 62 87 41 88
REMARK SMILES IDX 42 89 50 90 43 91 49 92 44 93 45 94 46 95 47 96 48 97
REMARK H PARENT 9 7 89 27 13 34 69 53 39 64
REMARK Flexibility Score: inf
ROOT
ATOM      1  C   UNL A   1      32.748  32.512  27.232  1.00  0.00     0.118 C 
ENDROOT
BRANCH   1   2
ATOM      2  C   UNL A   1      31.524  31.814  26.670  1.00  0.00     0.042 C 
BRANCH   2   3
ATOM      3  C   UNL A   1      31.849  30.478  25.997  1.00  0.00     0.117 C 
BRANCH   3   4
ATOM      4  N   UNL A   1      31.553  29.304  26.818  1.00  0.00    -0.354 N 
ATOM      5  C   UNL A   1      31.522  27.947  26.560  1.00  0.00     0.248 C 
ATOM      6  O   UNL A   1      31.308  27.264  27.561  1.00  0.00    -0.272 OA
ATOM      7  H   UNL A   1      31.330  29.528  27.751  1.00  0.00     0.163 HD
BRANCH   5   8
ATOM      8  C   UNL A   1      31.760  27.394  25.114  1.00  0.00     0.144 C 
ATOM      9  C   UNL A   1      33.270  27.592  24.824  1.00  0.00     0.062 C 
ATOM     10  C   UNL A   1      31.238  25.932  25.120  1.00  0.00     0.062 C 
ATOM     11  C   UNL A   1      33.912  26.529  23.954  1.00  0.00     0.123 C 
ATOM     12  C   UNL A   1      31.994  24.976  24.209  1.00  0.00     0.123 C 
ATOM     13  N   UNL A   1      33.436  25.190  24.258  1.00  0.00    -0.337 N 
ATOM     14  C   UNL A   1      34.372  24.187  24.513  1.00  0.00     0.270 C 
ATOM     15  O   UNL A   1      35.524  24.439  24.844  1.00  0.00    -0.267 OA
BRANCH   8  16
ATOM     16  N   UNL A   1      31.012  28.089  24.014  1.00  0.00    -0.257 N 
ATOM     17  C   UNL A   1      28.011  29.337  22.320  1.00  0.00     0.048 C 
ATOM     18  C   UNL A   1      29.352  28.958  22.815  1.00  0.00    -0.013 A 
ATOM     19  C   UNL A   1      30.619  29.342  22.343  1.00  0.00     0.138 A 
ATOM     20  C   UNL A   1      29.640  28.138  23.879  1.00  0.00     0.113 A 
ATOM     21  N   UNL A   1      31.612  28.840  23.078  1.00  0.00    -0.180 NA
ENDBRANCH   8  16
BRANCH  14  22
ATOM     22  C   UNL A   1      33.909  22.825  24.406  1.00  0.00     0.105 A 
ATOM     23  C   UNL A   1      33.316  22.163  23.344  1.00  0.00     0.042 A 
ATOM     24  N   UNL A   1      34.051  21.909  25.418  1.00  0.00    -0.351 N 
ATOM     25  C   UNL A   1      33.006  20.843  23.765  1.00  0.00     0.000 A 
ATOM     26  C   UNL A   1      33.441  20.723  25.084  1.00  0.00     0.046 A 
ATOM     27  H   UNL A   1      34.524  22.077  26.265  1.00  0.00     0.167 HD
ATOM     28  C   UNL A   1      32.387  19.740  23.150  1.00  0.00     0.010 A 
ATOM     29  C   UNL A   1      33.254  19.561  25.838  1.00  0.00     0.026 A 
ATOM     30  C   UNL A   1      32.206  18.563  23.884  1.00  0.00     0.001 A 
ATOM     31  C   UNL A   1      32.625  18.481  25.211  1.00  0.00     0.002 A 
ENDBRANCH  14  22
ENDBRANCH   5   8
ENDBRANCH   3   4
ENDBRANCH   2   3
ENDBRANCH   1   2
BRANCH   1  32
ATOM     32  N   UNL A   1      32.469  33.865  27.714  1.00  0.00    -0.352 N 
ATOM     33  C   UNL A   1      33.108  34.539  28.740  1.00  0.00     0.251 C 
ATOM     34  H   UNL A   1      31.745  34.350  27.258  1.00  0.00     0.163 HD
ATOM     35  O   UNL A   1      32.577  35.505  29.274  1.00  0.00    -0.269 OA
BRANCH  33  36
ATOM     36  C   UNL A   1      34.430  34.060  29.180  1.00  0.00     0.039 A 
ATOM     37  C   UNL A   1      34.571  33.223  30.290  1.00  0.00     0.014 A 
ATOM     38  C   UNL A   1      35.539  34.424  28.420  1.00  0.00     0.014 A 
ATOM     39  C   UNL A   1      35.825  32.682  30.567  1.00  0.00     0.010 A 
ATOM     40  C   UNL A   1      36.730  33.769  28.595  1.00  0.00     0.010 A 
ATOM     41  C   UNL A   1      36.897  32.936  29.696  1.00  0.00    -0.014 A 
BRANCH  41  42
ATOM     42  C   UNL A   1      38.167  32.234  29.840  1.00  0.00     0.031 A 
ATOM     43  C   UNL A   1      38.154  30.836  29.338  1.00  0.00     0.074 A 
ATOM     44  C   UNL A   1      39.321  32.853  30.177  1.00  0.00     0.049 A 
ATOM     45  N   UNL A   1      38.189  29.755  30.044  1.00  0.00    -0.248 NA
ATOM     46  C   UNL A   1      37.909  30.601  27.905  1.00  0.00     0.031 C 
ATOM     47  C   UNL A   1      39.544  34.286  30.403  1.00  0.00     0.029 A 
ATOM     48  N   UNL A   1      40.579  32.343  30.256  1.00  0.00    -0.354 N 
ATOM     49  C   UNL A   1      38.237  28.708  29.132  1.00  0.00     0.074 A 
ATOM     50  C   UNL A   1      37.837  29.268  27.865  1.00  0.00     0.031 C 
ATOM     51  C   UNL A   1      40.866  34.555  30.331  1.00  0.00     0.029 A 
ATOM     52  C   UNL A   1      41.590  33.300  30.229  1.00  0.00     0.049 A 
ATOM     53  H   UNL A   1      40.760  31.378  30.326  1.00  0.00     0.167 HD
ATOM     54  C   UNL A   1      38.876  27.541  29.431  1.00  0.00     0.031 A 
ATOM     55  C   UNL A   1      42.923  33.081  30.092  1.00  0.00     0.031 A 
ATOM     56  C   UNL A   1      39.193  27.458  30.836  1.00  0.00     0.049 A 
ATOM     57  C   UNL A   1      43.168  31.676  30.499  1.00  0.00     0.074 A 
ATOM     58  C   UNL A   1      38.459  27.538  32.004  1.00  0.00     0.029 A 
ATOM     59  N   UNL A   1      40.501  27.695  31.193  1.00  0.00    -0.354 N 
ATOM     60  N   UNL A   1      42.998  31.249  31.720  1.00  0.00    -0.248 NA
ATOM     61  C   UNL A   1      43.141  30.645  29.472  1.00  0.00     0.031 C 
ATOM     62  C   UNL A   1      39.274  28.295  32.895  1.00  0.00     0.029 A 
ATOM     63  C   UNL A   1      40.491  28.553  32.262  1.00  0.00     0.049 A 
ATOM     64  H   UNL A   1      41.300  27.316  30.759  1.00  0.00     0.167 HD
ATOM     65  C   UNL A   1      42.389  30.010  31.577  1.00  0.00     0.074 A 
ATOM     66  C   UNL A   1      42.603  29.645  30.177  1.00  0.00     0.031 C 
ATOM     67  C   UNL A   1      41.522  29.537  32.522  1.00  0.00     0.031 A 
BRANCH  54  68
ATOM     68  C   UNL A   1      39.601  26.693  28.412  1.00  0.00    -0.014 A 
ATOM     69  C   UNL A   1      39.262  25.328  28.307  1.00  0.00     0.010 A 
ATOM     70  C   UNL A   1      40.783  27.108  27.764  1.00  0.00     0.010 A 
ATOM     71  C   UNL A   1      40.108  24.414  27.667  1.00  0.00     0.020 A 
ATOM     72  C   UNL A   1      41.609  26.214  27.081  1.00  0.00     0.020 A 
ATOM     73  C   UNL A   1      41.285  24.865  27.069  1.00  0.00     0.054 A 
BRANCH  73  74
ATOM     74  S   UNL A   1      42.419  23.666  26.330  1.00  0.00     0.124 S 
ATOM     75  O   UNL A   1      42.890  24.387  25.151  1.00  0.00    -0.237 OA
ATOM     76  O   UNL A   1      43.402  23.476  27.394  1.00  0.00    -0.237 OA
ATOM     77  O   UNL A   1      41.566  22.510  26.063  1.00  0.00    -0.744 OA
ENDBRANCH  73  74
ENDBRANCH  54  68
BRANCH  55  78
ATOM     78  C   UNL A   1      43.929  33.904  29.369  1.00  0.00    -0.014 A 
ATOM     79  C   UNL A   1      45.308  33.669  29.530  1.00  0.00     0.010 A 
ATOM     80  C   UNL A   1      43.533  34.733  28.297  1.00  0.00     0.010 A 
ATOM     81  C   UNL A   1      46.244  34.167  28.606  1.00  0.00     0.020 A 
ATOM     82  C   UNL A   1      44.461  35.244  27.380  1.00  0.00     0.020 A 
ATOM     83  C   UNL A   1      45.810  34.931  27.519  1.00  0.00     0.054 A 
BRANCH  83  84
ATOM     84  S   UNL A   1      46.991  35.383  26.212  1.00  0.00     0.124 S 
ATOM     85  O   UNL A   1      48.265  35.376  26.924  1.00  0.00    -0.237 OA
ATOM     86  O   UNL A   1      46.807  34.316  25.232  1.00  0.00    -0.237 OA
ATOM     87  O   UNL A   1      46.532  36.702  25.776  1.00  0.00    -0.744 OA
ENDBRANCH  83  84
ENDBRANCH  55  78
BRANCH  67  88
ATOM     88  C   UNL A   1      41.459  30.225  33.867  1.00  0.00    -0.014 A 
ATOM     89  C   UNL A   1      42.277  29.896  34.965  1.00  0.00     0.010 A 
ATOM     90  C   UNL A   1      40.640  31.364  33.963  1.00  0.00     0.010 A 
ATOM     91  C   UNL A   1      42.252  30.670  36.137  1.00  0.00     0.020 A 
ATOM     92  C   UNL A   1      40.625  32.151  35.117  1.00  0.00     0.020 A 
ATOM     93  C   UNL A   1      41.424  31.795  36.203  1.00  0.00     0.054 A 
BRANCH  93  94
ATOM     94  S   UNL A   1      41.421  32.822  37.700  1.00  0.00     0.124 S 
ATOM     95  O   UNL A   1      40.102  33.447  37.653  1.00  0.00    -0.237 OA
ATOM     96  O   UNL A   1      41.614  31.842  38.768  1.00  0.00    -0.237 OA
ATOM     97  O   UNL A   1      42.545  33.735  37.499  1.00  0.00    -0.744 OA
ENDBRANCH  93  94
ENDBRANCH  67  88
ENDBRANCH  41  42
ENDBRANCH  33  36
ENDBRANCH   1  32
TORSDOF 15
ENDMDL
