MODEL 1
REMARK VINA RESULT:     -13.0      0.000      0.000
REMARK SMILES C=C(C)[C@@H]1CC=C(CN2C[C@]34C=C[C@H](O3)[C@H](C(=O)NCCCNC(=O)c3ccc(-c5c6nc(c(-c7ccc(S(=O)(=O)[O-])cc7)c7ccc([nH]7)c(-c7ccc(S(=O)(=O)[O-])cc7)c7nc(c(-c8ccc(S(=O)(=O)[O-])cc8)c8ccc5[nH]8)C=C7)C=C6)cc3)[C@@H]4C2=O)CC1
REMARK SMILES IDX 21 1 20 2 19 3 17 4 18 5 16 7 9 8 10 9 87 10 11 11 86 12
REMARK SMILES IDX 88 13 12 14 15 15 13 16 14 17 8 18 7 19 4 20 5 21 90 22 6 23
REMARK SMILES IDX 89 24 2 25 1 26 3 27 22 28 23 29 24 30 25 32 26 33 27 34
REMARK SMILES IDX 85 35 28 36 84 37 29 38 30 39 31 40 78 41 32 42 83 43 77 44
REMARK SMILES IDX 79 45 33 46 82 47 76 48 75 49 34 51 64 52 45 53 63 54 46 55
REMARK SMILES IDX 49 56 62 57 80 58 47 59 48 60 61 62 81 63 50 64 35 65 36 66
REMARK SMILES IDX 44 67 37 68 43 69 38 70 39 71 40 72 41 73 42 74 65 75 66 76
REMARK SMILES IDX 74 77 67 78 73 79 68 80 69 81 70 82 71 83 72 84 51 85 52 86
REMARK SMILES IDX 60 87 53 88 59 89 54 90 55 91 56 92 57 93 58 94
REMARK H PARENT 19 6 23 31 79 50 49 61
REMARK Flexibility Score: inf
ROOT
ATOM      1  C   UNL A   1      34.450  29.254  27.380  1.00  0.00     0.042 C 
ENDROOT
BRANCH   1   2
ATOM      2  C   UNL A   1      33.197  29.733  26.649  1.00  0.00     0.117 C 
BRANCH   2   3
ATOM      3  N   UNL A   1      33.390  29.777  25.213  1.00  0.00    -0.356 N 
ATOM      4  C   UNL A   1      32.711  29.189  24.196  1.00  0.00     0.227 C 
ATOM      5  O   UNL A   1      33.239  29.216  23.084  1.00  0.00    -0.275 OA
ATOM      6  H   UNL A   1      34.151  30.333  24.924  1.00  0.00     0.163 HD
BRANCH   4   7
ATOM      7  C   UNL A   1      31.330  28.609  24.437  1.00  0.00     0.127 C 
ATOM      8  N   UNL A   1      32.363  25.309  23.546  1.00  0.00    -0.335 N 
ATOM      9  C   UNL A   1      30.976  25.228  23.099  1.00  0.00     0.160 C 
ATOM     10  C   UNL A   1      32.550  26.294  24.507  1.00  0.00     0.230 C 
ATOM     11  C   UNL A   1      30.485  26.617  23.411  1.00  0.00     0.117 C 
ATOM     12  C   UNL A   1      31.272  27.085  24.650  1.00  0.00     0.132 C 
ATOM     13  O   UNL A   1      33.550  26.463  25.189  1.00  0.00    -0.274 OA
ATOM     14  C   UNL A   1      29.051  27.036  23.487  1.00  0.00     0.009 C 
ATOM     15  O   UNL A   1      30.928  27.574  22.412  1.00  0.00    -0.360 OA
ATOM     16  C   UNL A   1      29.072  28.372  23.340  1.00  0.00     0.004 C 
ATOM     17  C   UNL A   1      30.514  28.759  23.131  1.00  0.00     0.155 C 
BRANCH   8  18
ATOM     18  C   UNL A   1      33.436  24.425  23.125  1.00  0.00     0.150 C 
BRANCH  18  19
ATOM     19  C   UNL A   1      33.082  22.992  23.414  1.00  0.00    -0.055 C 
ATOM     20  C   UNL A   1      32.463  20.228  24.096  1.00  0.00     0.018 C 
ATOM     21  C   UNL A   1      32.196  20.761  22.673  1.00  0.00     0.035 C 
ATOM     22  C   UNL A   1      33.677  20.917  24.739  1.00  0.00     0.013 C 
ATOM     23  C   UNL A   1      32.470  22.224  22.495  1.00  0.00    -0.025 C 
ATOM     24  C   UNL A   1      33.512  22.441  24.755  1.00  0.00     0.033 C 
BRANCH  20  25
ATOM     25  C   UNL A   1      32.582  18.706  24.096  1.00  0.00    -0.077 C 
ATOM     26  C   UNL A   1      32.782  18.028  25.238  1.00  0.00     0.008 C 
ATOM     27  C   UNL A   1      32.457  17.979  22.782  1.00  0.00     0.039 C 
ENDBRANCH  20  25
ENDBRANCH  18  19
ENDBRANCH   8  18
ENDBRANCH   4   7
ENDBRANCH   2   3
ENDBRANCH   1   2
BRANCH   1  28
ATOM     28  C   UNL A   1      35.446  30.349  27.764  1.00  0.00     0.118 C 
BRANCH  28  29
ATOM     29  N   UNL A   1      35.444  30.655  29.188  1.00  0.00    -0.352 N 
ATOM     30  C   UNL A   1      36.415  30.425  30.133  1.00  0.00     0.251 C 
ATOM     31  H   UNL A   1      34.627  31.091  29.522  1.00  0.00     0.163 HD
ATOM     32  O   UNL A   1      36.168  30.647  31.317  1.00  0.00    -0.269 OA
BRANCH  30  33
ATOM     33  C   UNL A   1      37.736  29.879  29.745  1.00  0.00     0.039 A 
ATOM     34  C   UNL A   1      38.102  29.914  28.397  1.00  0.00     0.014 A 
ATOM     35  C   UNL A   1      38.609  29.328  30.688  1.00  0.00     0.014 A 
ATOM     36  C   UNL A   1      39.366  29.462  28.006  1.00  0.00     0.010 A 
ATOM     37  C   UNL A   1      39.894  28.937  30.305  1.00  0.00     0.010 A 
ATOM     38  C   UNL A   1      40.290  29.006  28.960  1.00  0.00    -0.014 A 
BRANCH  38  39
ATOM     39  C   UNL A   1      41.676  28.637  28.563  1.00  0.00     0.031 A 
ATOM     40  C   UNL A   1      42.772  29.670  28.535  1.00  0.00     0.074 A 
ATOM     41  C   UNL A   1      41.938  27.370  28.180  1.00  0.00     0.049 A 
ATOM     42  N   UNL A   1      44.033  29.522  28.215  1.00  0.00    -0.248 NA
ATOM     43  C   UNL A   1      42.404  31.049  28.893  1.00  0.00     0.031 C 
ATOM     44  C   UNL A   1      40.956  26.283  28.114  1.00  0.00     0.029 A 
ATOM     45  N   UNL A   1      43.110  26.779  27.773  1.00  0.00    -0.354 N 
ATOM     46  C   UNL A   1      44.603  30.786  28.312  1.00  0.00     0.074 A 
ATOM     47  C   UNL A   1      43.543  31.696  28.688  1.00  0.00     0.031 C 
ATOM     48  C   UNL A   1      41.572  25.154  27.727  1.00  0.00     0.029 A 
ATOM     49  C   UNL A   1      42.981  25.440  27.480  1.00  0.00     0.049 A 
ATOM     50  H   UNL A   1      43.960  27.267  27.699  1.00  0.00     0.167 HD
ATOM     51  C   UNL A   1      45.894  31.153  28.120  1.00  0.00     0.031 A 
ATOM     52  C   UNL A   1      43.892  24.542  27.059  1.00  0.00     0.031 A 
ATOM     53  C   UNL A   1      46.952  30.243  27.767  1.00  0.00     0.049 A 
ATOM     54  C   UNL A   1      45.319  24.979  26.857  1.00  0.00     0.074 A 
ATOM     55  C   UNL A   1      48.305  30.510  27.635  1.00  0.00     0.029 A 
ATOM     56  N   UNL A   1      46.782  28.897  27.483  1.00  0.00    -0.354 N 
ATOM     57  N   UNL A   1      45.853  26.161  27.049  1.00  0.00    -0.248 NA
ATOM     58  C   UNL A   1      46.266  23.956  26.394  1.00  0.00     0.031 C 
ATOM     59  C   UNL A   1      48.943  29.337  27.217  1.00  0.00     0.029 A 
ATOM     60  C   UNL A   1      47.998  28.328  27.145  1.00  0.00     0.049 A 
ATOM     61  H   UNL A   1      45.923  28.417  27.517  1.00  0.00     0.167 HD
ATOM     62  C   UNL A   1      47.205  26.015  26.757  1.00  0.00     0.074 A 
ATOM     63  C   UNL A   1      47.409  24.627  26.395  1.00  0.00     0.031 C 
ATOM     64  C   UNL A   1      48.190  26.946  26.786  1.00  0.00     0.031 A 
BRANCH  51  65
ATOM     65  C   UNL A   1      46.244  32.610  28.280  1.00  0.00    -0.014 A 
ATOM     66  C   UNL A   1      46.697  33.118  29.510  1.00  0.00     0.010 A 
ATOM     67  C   UNL A   1      46.194  33.464  27.164  1.00  0.00     0.010 A 
ATOM     68  C   UNL A   1      47.069  34.462  29.626  1.00  0.00     0.020 A 
ATOM     69  C   UNL A   1      46.588  34.801  27.269  1.00  0.00     0.020 A 
ATOM     70  C   UNL A   1      47.013  35.294  28.504  1.00  0.00     0.054 A 
BRANCH  70  71
ATOM     71  S   UNL A   1      47.550  37.019  28.673  1.00  0.00     0.124 S 
ATOM     72  O   UNL A   1      46.317  37.677  29.099  1.00  0.00    -0.237 OA
ATOM     73  O   UNL A   1      48.598  36.931  29.687  1.00  0.00    -0.237 OA
ATOM     74  O   UNL A   1      48.013  37.372  27.333  1.00  0.00    -0.744 OA
ENDBRANCH  70  71
ENDBRANCH  51  65
BRANCH  52  75
ATOM     75  C   UNL A   1      43.496  23.128  26.807  1.00  0.00    -0.014 A 
ATOM     76  C   UNL A   1      42.892  22.367  27.823  1.00  0.00     0.010 A 
ATOM     77  C   UNL A   1      43.742  22.530  25.558  1.00  0.00     0.010 A 
ATOM     78  C   UNL A   1      42.574  21.022  27.607  1.00  0.00     0.020 A 
ATOM     79  C   UNL A   1      43.398  21.194  25.330  1.00  0.00     0.020 A 
ATOM     80  C   UNL A   1      42.834  20.444  26.362  1.00  0.00     0.054 A 
BRANCH  80  81
ATOM     81  S   UNL A   1      42.394  18.703  26.095  1.00  0.00     0.124 S 
ATOM     82  O   UNL A   1      40.988  18.802  25.716  1.00  0.00    -0.237 OA
ATOM     83  O   UNL A   1      43.311  18.303  25.031  1.00  0.00    -0.237 OA
ATOM     84  O   UNL A   1      42.651  18.084  27.393  1.00  0.00    -0.744 OA
ENDBRANCH  80  81
ENDBRANCH  52  75
BRANCH  64  85
ATOM     85  C   UNL A   1      49.584  26.487  26.451  1.00  0.00    -0.014 A 
ATOM     86  C   UNL A   1      50.437  25.964  27.439  1.00  0.00     0.010 A 
ATOM     87  C   UNL A   1      50.035  26.552  25.120  1.00  0.00     0.010 A 
ATOM     88  C   UNL A   1      51.733  25.555  27.109  1.00  0.00     0.020 A 
ATOM     89  C   UNL A   1      51.320  26.116  24.781  1.00  0.00     0.020 A 
ATOM     90  C   UNL A   1      52.166  25.638  25.783  1.00  0.00     0.054 A 
BRANCH  90  91
ATOM     91  S   UNL A   1      53.842  25.077  25.374  1.00  0.00     0.124 S 
ATOM     92  O   UNL A   1      54.166  25.907  24.217  1.00  0.00    -0.237 OA
ATOM     93  O   UNL A   1      54.590  25.379  26.593  1.00  0.00    -0.237 OA
ATOM     94  O   UNL A   1      53.673  23.653  25.092  1.00  0.00    -0.744 OA
ENDBRANCH  90  91
ENDBRANCH  64  85
ENDBRANCH  38  39
ENDBRANCH  30  33
ENDBRANCH  28  29
ENDBRANCH   1  28
TORSDOF 16
ENDMDL
MODEL 2
REMARK VINA RESULT:     -12.9      6.121     11.852
REMARK SMILES C=C(C)[C@@H]1CC=C(CN2C[C@]34C=C[C@H](O3)[C@H](C(=O)NCCCNC(=O)c3ccc(-c5c6nc(c(-c7ccc(S(=O)(=O)[O-])cc7)c7ccc([nH]7)c(-c7ccc(S(=O)(=O)[O-])cc7)c7nc(c(-c8ccc(S(=O)(=O)[O-])cc8)c8ccc5[nH]8)C=C7)C=C6)cc3)[C@@H]4C2=O)CC1
REMARK SMILES IDX 21 1 20 2 19 3 17 4 18 5 16 7 9 8 10 9 87 10 11 11 86 12
REMARK SMILES IDX 88 13 12 14 15 15 13 16 14 17 8 18 7 19 4 20 5 21 90 22 6 23
REMARK SMILES IDX 89 24 2 25 1 26 3 27 22 28 23 29 24 30 25 32 26 33 27 34
REMARK SMILES IDX 85 35 28 36 84 37 29 38 30 39 31 40 78 41 32 42 83 43 77 44
REMARK SMILES IDX 79 45 33 46 82 47 76 48 75 49 34 51 64 52 45 53 63 54 46 55
REMARK SMILES IDX 49 56 62 57 80 58 47 59 48 60 61 62 81 63 50 64 35 65 36 66
REMARK SMILES IDX 44 67 37 68 43 69 38 70 39 71 40 72 41 73 42 74 65 75 66 76
REMARK SMILES IDX 74 77 67 78 73 79 68 80 69 81 70 82 71 83 72 84 51 85 52 86
REMARK SMILES IDX 60 87 53 88 59 89 54 90 55 91 56 92 57 93 58 94
REMARK H PARENT 19 6 23 31 79 50 49 61
REMARK Flexibility Score: inf
ROOT
ATOM      1  C   UNL A   1      39.147  21.859  26.182  1.00  0.00     0.042 C 
ENDROOT
BRANCH   1   2
ATOM      2  C   UNL A   1      37.839  22.010  25.406  1.00  0.00     0.117 C 
BRANCH   2   3
ATOM      3  N   UNL A   1      36.767  22.515  26.242  1.00  0.00    -0.356 N 
ATOM      4  C   UNL A   1      35.427  22.301  26.213  1.00  0.00     0.227 C 
ATOM      5  O   UNL A   1      34.729  23.044  26.903  1.00  0.00    -0.275 OA
ATOM      6  H   UNL A   1      37.065  23.122  26.958  1.00  0.00     0.163 HD
BRANCH   4   7
ATOM      7  C   UNL A   1      34.858  21.139  25.421  1.00  0.00     0.127 C 
ATOM      8  N   UNL A   1      33.229  23.293  23.085  1.00  0.00    -0.335 N 
ATOM      9  C   UNL A   1      32.281  22.183  23.053  1.00  0.00     0.160 C 
ATOM     10  C   UNL A   1      34.488  22.896  23.517  1.00  0.00     0.230 C 
ATOM     11  C   UNL A   1      32.892  21.244  24.058  1.00  0.00     0.117 C 
ATOM     12  C   UNL A   1      34.415  21.461  23.983  1.00  0.00     0.132 C 
ATOM     13  O   UNL A   1      35.515  23.558  23.468  1.00  0.00    -0.274 OA
ATOM     14  C   UNL A   1      32.556  19.795  24.211  1.00  0.00     0.009 C 
ATOM     15  O   UNL A   1      32.610  21.666  25.420  1.00  0.00    -0.360 OA
ATOM     16  C   UNL A   1      32.966  19.472  25.450  1.00  0.00     0.004 C 
ATOM     17  C   UNL A   1      33.511  20.736  26.065  1.00  0.00     0.155 C 
BRANCH   8  18
ATOM     18  C   UNL A   1      32.953  24.649  22.644  1.00  0.00     0.150 C 
BRANCH  18  19
ATOM     19  C   UNL A   1      33.102  25.615  23.786  1.00  0.00    -0.055 C 
ATOM     20  C   UNL A   1      33.323  27.399  26.080  1.00  0.00     0.018 C 
ATOM     21  C   UNL A   1      33.727  27.883  24.671  1.00  0.00     0.035 C 
ATOM     22  C   UNL A   1      32.179  26.374  26.019  1.00  0.00     0.013 C 
ATOM     23  C   UNL A   1      33.654  26.829  23.607  1.00  0.00    -0.025 C 
ATOM     24  C   UNL A   1      32.539  25.185  25.122  1.00  0.00     0.033 C 
BRANCH  20  25
ATOM     25  C   UNL A   1      33.007  28.580  26.993  1.00  0.00    -0.077 C 
ATOM     26  C   UNL A   1      33.947  29.493  27.293  1.00  0.00     0.008 C 
ATOM     27  C   UNL A   1      31.610  28.708  27.541  1.00  0.00     0.039 C 
ENDBRANCH  20  25
ENDBRANCH  18  19
ENDBRANCH   8  18
ENDBRANCH   4   7
ENDBRANCH   2   3
ENDBRANCH   1   2
BRANCH   1  28
ATOM     28  C   UNL A   1      39.788  23.166  26.649  1.00  0.00     0.118 C 
BRANCH  28  29
ATOM     29  N   UNL A   1      41.093  23.412  26.051  1.00  0.00    -0.352 N 
ATOM     30  C   UNL A   1      41.958  24.463  26.241  1.00  0.00     0.251 C 
ATOM     31  H   UNL A   1      41.401  22.725  25.417  1.00  0.00     0.163 HD
ATOM     32  O   UNL A   1      42.965  24.549  25.541  1.00  0.00    -0.269 OA
BRANCH  30  33
ATOM     33  C   UNL A   1      41.670  25.509  27.251  1.00  0.00     0.039 A 
ATOM     34  C   UNL A   1      40.623  25.295  28.152  1.00  0.00     0.014 A 
ATOM     35  C   UNL A   1      42.408  26.694  27.312  1.00  0.00     0.014 A 
ATOM     36  C   UNL A   1      40.364  26.233  29.155  1.00  0.00     0.010 A 
ATOM     37  C   UNL A   1      42.189  27.599  28.352  1.00  0.00     0.010 A 
ATOM     38  C   UNL A   1      41.170  27.377  29.290  1.00  0.00    -0.014 A 
BRANCH  38  39
ATOM     39  C   UNL A   1      40.973  28.316  30.427  1.00  0.00     0.031 A 
ATOM     40  C   UNL A   1      41.835  28.230  31.659  1.00  0.00     0.074 A 
ATOM     41  C   UNL A   1      39.977  29.225  30.368  1.00  0.00     0.049 A 
ATOM     42  N   UNL A   1      41.800  28.968  32.740  1.00  0.00    -0.248 NA
ATOM     43  C   UNL A   1      42.854  27.169  31.692  1.00  0.00     0.031 C 
ATOM     44  C   UNL A   1      39.037  29.382  29.253  1.00  0.00     0.029 A 
ATOM     45  N   UNL A   1      39.587  30.191  31.264  1.00  0.00    -0.354 N 
ATOM     46  C   UNL A   1      42.774  28.451  33.587  1.00  0.00     0.074 A 
ATOM     47  C   UNL A   1      43.360  27.315  32.909  1.00  0.00     0.031 C 
ATOM     48  C   UNL A   1      38.206  30.403  29.517  1.00  0.00     0.029 A 
ATOM     49  C   UNL A   1      38.524  30.950  30.832  1.00  0.00     0.049 A 
ATOM     50  H   UNL A   1      40.027  30.326  32.134  1.00  0.00     0.167 HD
ATOM     51  C   UNL A   1      43.155  28.890  34.812  1.00  0.00     0.031 A 
ATOM     52  C   UNL A   1      37.876  31.972  31.424  1.00  0.00     0.031 A 
ATOM     53  C   UNL A   1      42.587  30.034  35.476  1.00  0.00     0.049 A 
ATOM     54  C   UNL A   1      38.325  32.439  32.783  1.00  0.00     0.074 A 
ATOM     55  C   UNL A   1      42.968  30.603  36.680  1.00  0.00     0.029 A 
ATOM     56  N   UNL A   1      41.517  30.777  35.004  1.00  0.00    -0.354 N 
ATOM     57  N   UNL A   1      39.312  31.994  33.523  1.00  0.00    -0.248 NA
ATOM     58  C   UNL A   1      37.578  33.555  33.380  1.00  0.00     0.031 C 
ATOM     59  C   UNL A   1      42.093  31.658  36.961  1.00  0.00     0.029 A 
ATOM     60  C   UNL A   1      41.203  31.780  35.907  1.00  0.00     0.049 A 
ATOM     61  H   UNL A   1      41.049  30.617  34.153  1.00  0.00     0.167 HD
ATOM     62  C   UNL A   1      39.321  32.797  34.660  1.00  0.00     0.074 A 
ATOM     63  C   UNL A   1      38.255  33.764  34.500  1.00  0.00     0.031 C 
ATOM     64  C   UNL A   1      40.140  32.737  35.739  1.00  0.00     0.031 A 
BRANCH  51  65
ATOM     65  C   UNL A   1      44.241  28.129  35.527  1.00  0.00    -0.014 A 
ATOM     66  C   UNL A   1      43.932  27.095  36.428  1.00  0.00     0.010 A 
ATOM     67  C   UNL A   1      45.589  28.401  35.235  1.00  0.00     0.010 A 
ATOM     68  C   UNL A   1      44.953  26.363  37.043  1.00  0.00     0.020 A 
ATOM     69  C   UNL A   1      46.613  27.655  35.827  1.00  0.00     0.020 A 
ATOM     70  C   UNL A   1      46.288  26.648  36.737  1.00  0.00     0.054 A 
BRANCH  70  71
ATOM     71  S   UNL A   1      47.589  25.648  37.511  1.00  0.00     0.124 S 
ATOM     72  O   UNL A   1      47.657  26.229  38.851  1.00  0.00    -0.237 OA
ATOM     73  O   UNL A   1      47.041  24.297  37.439  1.00  0.00    -0.237 OA
ATOM     74  O   UNL A   1      48.759  25.888  36.669  1.00  0.00    -0.744 OA
ENDBRANCH  70  71
ENDBRANCH  51  65
BRANCH  52  75
ATOM     75  C   UNL A   1      36.736  32.640  30.738  1.00  0.00    -0.014 A 
ATOM     76  C   UNL A   1      36.971  33.592  29.730  1.00  0.00     0.010 A 
ATOM     77  C   UNL A   1      35.410  32.346  31.104  1.00  0.00     0.010 A 
ATOM     78  C   UNL A   1      35.903  34.264  29.126  1.00  0.00     0.020 A 
ATOM     79  C   UNL A   1      34.340  32.994  30.482  1.00  0.00     0.020 A 
ATOM     80  C   UNL A   1      34.594  33.963  29.510  1.00  0.00     0.054 A 
BRANCH  80  81
ATOM     81  S   UNL A   1      33.222  34.830  28.698  1.00  0.00     0.124 S 
ATOM     82  O   UNL A   1      33.906  35.955  28.067  1.00  0.00    -0.237 OA
ATOM     83  O   UNL A   1      32.697  33.815  27.789  1.00  0.00    -0.237 OA
ATOM     84  O   UNL A   1      32.336  35.178  29.808  1.00  0.00    -0.744 OA
ENDBRANCH  80  81
ENDBRANCH  52  75
BRANCH  64  85
ATOM     85  C   UNL A   1      39.937  33.769  36.816  1.00  0.00    -0.014 A 
ATOM     86  C   UNL A   1      40.579  35.019  36.759  1.00  0.00     0.010 A 
ATOM     87  C   UNL A   1      39.067  33.494  37.886  1.00  0.00     0.010 A 
ATOM     88  C   UNL A   1      40.386  35.959  37.776  1.00  0.00     0.020 A 
ATOM     89  C   UNL A   1      38.849  34.442  38.890  1.00  0.00     0.020 A 
ATOM     90  C   UNL A   1      39.526  35.662  38.837  1.00  0.00     0.054 A 
BRANCH  90  91
ATOM     91  S   UNL A   1      39.273  36.907  40.132  1.00  0.00     0.124 S 
ATOM     92  O   UNL A   1      38.619  37.984  39.394  1.00  0.00    -0.237 OA
ATOM     93  O   UNL A   1      38.430  36.203  41.096  1.00  0.00    -0.237 OA
ATOM     94  O   UNL A   1      40.627  37.202  40.598  1.00  0.00    -0.744 OA
ENDBRANCH  90  91
ENDBRANCH  64  85
ENDBRANCH  38  39
ENDBRANCH  30  33
ENDBRANCH  28  29
ENDBRANCH   1  28
TORSDOF 16
ENDMDL
MODEL 3
REMARK VINA RESULT:     -12.9      6.315     12.132
REMARK SMILES C=C(C)[C@@H]1CC=C(CN2C[C@]34C=C[C@H](O3)[C@H](C(=O)NCCCNC(=O)c3ccc(-c5c6nc(c(-c7ccc(S(=O)(=O)[O-])cc7)c7ccc([nH]7)c(-c7ccc(S(=O)(=O)[O-])cc7)c7nc(c(-c8ccc(S(=O)(=O)[O-])cc8)c8ccc5[nH]8)C=C7)C=C6)cc3)[C@@H]4C2=O)CC1
REMARK SMILES IDX 21 1 20 2 19 3 17 4 18 5 16 7 9 8 10 9 87 10 11 11 86 12
REMARK SMILES IDX 88 13 12 14 15 15 13 16 14 17 8 18 7 19 4 20 5 21 90 22 6 23
REMARK SMILES IDX 89 24 2 25 1 26 3 27 22 28 23 29 24 30 25 32 26 33 27 34
REMARK SMILES IDX 85 35 28 36 84 37 29 38 30 39 31 40 78 41 32 42 83 43 77 44
REMARK SMILES IDX 79 45 33 46 82 47 76 48 75 49 34 51 64 52 45 53 63 54 46 55
REMARK SMILES IDX 49 56 62 57 80 58 47 59 48 60 61 62 81 63 50 64 35 65 36 66
REMARK SMILES IDX 44 67 37 68 43 69 38 70 39 71 40 72 41 73 42 74 65 75 66 76
REMARK SMILES IDX 74 77 67 78 73 79 68 80 69 81 70 82 71 83 72 84 51 85 52 86
REMARK SMILES IDX 60 87 53 88 59 89 54 90 55 91 56 92 57 93 58 94
REMARK H PARENT 19 6 23 31 79 50 49 61
REMARK Flexibility Score: inf
ROOT
ATOM      1  C   UNL A   1      38.320  22.592  26.077  1.00  0.00     0.042 C 
ENDROOT
BRANCH   1   2
ATOM      2  C   UNL A   1      36.888  22.890  25.633  1.00  0.00     0.117 C 
BRANCH   2   3
ATOM      3  N   UNL A   1      35.911  22.257  26.497  1.00  0.00    -0.356 N 
ATOM      4  C   UNL A   1      34.653  21.809  26.254  1.00  0.00     0.227 C 
ATOM      5  O   UNL A   1      33.964  21.524  27.233  1.00  0.00    -0.275 OA
ATOM      6  H   UNL A   1      36.213  22.131  27.426  1.00  0.00     0.163 HD
BRANCH   4   7
ATOM      7  C   UNL A   1      34.181  21.602  24.827  1.00  0.00     0.127 C 
ATOM      8  N   UNL A   1      31.775  24.231  25.050  1.00  0.00    -0.335 N 
ATOM      9  C   UNL A   1      31.065  23.368  24.111  1.00  0.00     0.160 C 
ATOM     10  C   UNL A   1      33.144  23.995  25.050  1.00  0.00     0.230 C 
ATOM     11  C   UNL A   1      32.015  22.206  24.001  1.00  0.00     0.117 C 
ATOM     12  C   UNL A   1      33.430  22.786  24.191  1.00  0.00     0.132 C 
ATOM     13  O   UNL A   1      33.999  24.682  25.589  1.00  0.00    -0.274 OA
ATOM     14  C   UNL A   1      31.995  21.164  22.930  1.00  0.00     0.009 C 
ATOM     15  O   UNL A   1      31.911  21.324  25.151  1.00  0.00    -0.360 OA
ATOM     16  C   UNL A   1      32.677  20.125  23.443  1.00  0.00     0.004 C 
ATOM     17  C   UNL A   1      33.074  20.521  24.842  1.00  0.00     0.155 C 
BRANCH   8  18
ATOM     18  C   UNL A   1      31.171  25.284  25.847  1.00  0.00     0.150 C 
BRANCH  18  19
ATOM     19  C   UNL A   1      30.743  26.429  24.971  1.00  0.00    -0.055 C 
ATOM     20  C   UNL A   1      30.034  28.714  23.307  1.00  0.00     0.018 C 
ATOM     21  C   UNL A   1      29.005  27.597  23.583  1.00  0.00     0.035 C 
ATOM     22  C   UNL A   1      30.992  28.904  24.494  1.00  0.00     0.013 C 
ATOM     23  C   UNL A   1      29.540  26.440  24.371  1.00  0.00    -0.025 C 
ATOM     24  C   UNL A   1      31.701  27.595  24.857  1.00  0.00     0.033 C 
BRANCH  20  25
ATOM     25  C   UNL A   1      29.337  30.009  22.900  1.00  0.00    -0.077 C 
ATOM     26  C   UNL A   1      29.188  31.019  23.774  1.00  0.00     0.008 C 
ATOM     27  C   UNL A   1      28.829  30.135  21.487  1.00  0.00     0.039 C 
ENDBRANCH  20  25
ENDBRANCH  18  19
ENDBRANCH   8  18
ENDBRANCH   4   7
ENDBRANCH   2   3
ENDBRANCH   1   2
BRANCH   1  28
ATOM     28  C   UNL A   1      39.083  23.774  26.674  1.00  0.00     0.118 C 
BRANCH  28  29
ATOM     29  N   UNL A   1      40.447  23.889  26.178  1.00  0.00    -0.352 N 
ATOM     30  C   UNL A   1      41.400  24.841  26.452  1.00  0.00     0.251 C 
ATOM     31  H   UNL A   1      40.729  23.181  25.556  1.00  0.00     0.163 HD
ATOM     32  O   UNL A   1      42.460  24.829  25.830  1.00  0.00    -0.269 OA
BRANCH  30  33
ATOM     33  C   UNL A   1      41.147  25.899  27.458  1.00  0.00     0.039 A 
ATOM     34  C   UNL A   1      40.128  25.700  28.394  1.00  0.00     0.014 A 
ATOM     35  C   UNL A   1      41.891  27.082  27.484  1.00  0.00     0.014 A 
ATOM     36  C   UNL A   1      39.904  26.651  29.393  1.00  0.00     0.010 A 
ATOM     37  C   UNL A   1      41.708  28.000  28.520  1.00  0.00     0.010 A 
ATOM     38  C   UNL A   1      40.717  27.792  29.491  1.00  0.00    -0.014 A 
BRANCH  38  39
ATOM     39  C   UNL A   1      40.559  28.744  30.623  1.00  0.00     0.031 A 
ATOM     40  C   UNL A   1      41.418  28.632  31.854  1.00  0.00     0.074 A 
ATOM     41  C   UNL A   1      39.599  29.691  30.559  1.00  0.00     0.049 A 
ATOM     42  N   UNL A   1      41.414  29.377  32.931  1.00  0.00    -0.248 NA
ATOM     43  C   UNL A   1      42.395  27.531  31.892  1.00  0.00     0.031 C 
ATOM     44  C   UNL A   1      38.665  29.879  29.445  1.00  0.00     0.029 A 
ATOM     45  N   UNL A   1      39.249  30.677  31.450  1.00  0.00    -0.354 N 
ATOM     46  C   UNL A   1      42.368  28.826  33.780  1.00  0.00     0.074 A 
ATOM     47  C   UNL A   1      42.908  27.665  33.108  1.00  0.00     0.031 C 
ATOM     48  C   UNL A   1      37.875  30.934  29.704  1.00  0.00     0.029 A 
ATOM     49  C   UNL A   1      38.216  31.476  31.015  1.00  0.00     0.049 A 
ATOM     50  H   UNL A   1      39.695  30.800  32.319  1.00  0.00     0.167 HD
ATOM     51  C   UNL A   1      42.768  29.257  35.001  1.00  0.00     0.031 A 
ATOM     52  C   UNL A   1      37.610  32.525  31.602  1.00  0.00     0.031 A 
ATOM     53  C   UNL A   1      42.246  30.426  35.660  1.00  0.00     0.049 A 
ATOM     54  C   UNL A   1      38.078  32.982  32.958  1.00  0.00     0.074 A 
ATOM     55  C   UNL A   1      42.651  30.987  36.860  1.00  0.00     0.029 A 
ATOM     56  N   UNL A   1      41.205  31.208  35.185  1.00  0.00    -0.354 N 
ATOM     57  N   UNL A   1      39.048  32.503  33.699  1.00  0.00    -0.248 NA
ATOM     58  C   UNL A   1      37.377  34.130  33.549  1.00  0.00     0.031 C 
ATOM     59  C   UNL A   1      41.818  32.077  37.137  1.00  0.00     0.029 A 
ATOM     60  C   UNL A   1      40.933  32.228  36.082  1.00  0.00     0.049 A 
ATOM     61  H   UNL A   1      40.730  31.062  34.335  1.00  0.00     0.167 HD
ATOM     62  C   UNL A   1      39.091  33.311  34.831  1.00  0.00     0.074 A 
ATOM     63  C   UNL A   1      38.063  34.318  34.668  1.00  0.00     0.031 C 
ATOM     64  C   UNL A   1      39.908  33.226  35.910  1.00  0.00     0.031 A 
BRANCH  51  65
ATOM     65  C   UNL A   1      43.824  28.458  35.720  1.00  0.00    -0.014 A 
ATOM     66  C   UNL A   1      45.189  28.763  35.578  1.00  0.00     0.010 A 
ATOM     67  C   UNL A   1      43.439  27.440  36.611  1.00  0.00     0.010 A 
ATOM     68  C   UNL A   1      46.152  28.045  36.295  1.00  0.00     0.020 A 
ATOM     69  C   UNL A   1      44.397  26.738  37.349  1.00  0.00     0.020 A 
ATOM     70  C   UNL A   1      45.749  27.037  37.177  1.00  0.00     0.054 A 
BRANCH  70  71
ATOM     71  S   UNL A   1      47.017  26.158  38.131  1.00  0.00     0.124 S 
ATOM     72  O   UNL A   1      46.622  24.763  37.943  1.00  0.00    -0.237 OA
ATOM     73  O   UNL A   1      48.254  26.555  37.464  1.00  0.00    -0.237 OA
ATOM     74  O   UNL A   1      46.852  26.674  39.488  1.00  0.00    -0.744 OA
ENDBRANCH  70  71
ENDBRANCH  51  65
BRANCH  52  75
ATOM     75  C   UNL A   1      36.496  33.234  30.913  1.00  0.00    -0.014 A 
ATOM     76  C   UNL A   1      36.728  33.926  29.712  1.00  0.00     0.010 A 
ATOM     77  C   UNL A   1      35.203  33.240  31.467  1.00  0.00     0.010 A 
ATOM     78  C   UNL A   1      35.697  34.642  29.095  1.00  0.00     0.020 A 
ATOM     79  C   UNL A   1      34.163  33.930  30.837  1.00  0.00     0.020 A 
ATOM     80  C   UNL A   1      34.422  34.642  29.665  1.00  0.00     0.054 A 
BRANCH  80  81
ATOM     81  S   UNL A   1      33.092  35.559  28.837  1.00  0.00     0.124 S 
ATOM     82  O   UNL A   1      32.453  34.515  28.043  1.00  0.00    -0.237 OA
ATOM     83  O   UNL A   1      32.310  36.069  29.961  1.00  0.00    -0.237 OA
ATOM     84  O   UNL A   1      33.807  36.579  28.073  1.00  0.00    -0.744 OA
ENDBRANCH  80  81
ENDBRANCH  52  75
BRANCH  64  85
ATOM     85  C   UNL A   1      39.747  34.270  36.982  1.00  0.00    -0.014 A 
ATOM     86  C   UNL A   1      38.952  34.034  38.117  1.00  0.00     0.010 A 
ATOM     87  C   UNL A   1      40.429  35.495  36.865  1.00  0.00     0.010 A 
ATOM     88  C   UNL A   1      38.807  35.023  39.095  1.00  0.00     0.020 A 
ATOM     89  C   UNL A   1      40.310  36.474  37.856  1.00  0.00     0.020 A 
ATOM     90  C   UNL A   1      39.483  36.237  38.956  1.00  0.00     0.054 A 
BRANCH  90  91
ATOM     91  S   UNL A   1      39.299  37.495  40.250  1.00  0.00     0.124 S 
ATOM     92  O   UNL A   1      38.304  38.389  39.665  1.00  0.00    -0.237 OA
ATOM     93  O   UNL A   1      38.846  36.713  41.398  1.00  0.00    -0.237 OA
ATOM     94  O   UNL A   1      40.643  38.057  40.380  1.00  0.00    -0.744 OA
ENDBRANCH  90  91
ENDBRANCH  64  85
ENDBRANCH  38  39
ENDBRANCH  30  33
ENDBRANCH  28  29
ENDBRANCH   1  28
TORSDOF 16
ENDMDL
