MODEL 1
REMARK VINA RESULT:     -11.8      0.000      0.000
REMARK SMILES O=C(C[C@@H]1C(=O)NCCN1C(=O)OCC1c2ccccc2-c2ccccc21)NCCCNC(=O)c1ccc(-c2c3nc(c(-c4ccc(S(=O)(=O)[O-])cc4)c4ccc([nH]4)c(-c4ccc(S(=O)(=O)[O-])cc4)c4nc(c(-c5ccc(S(=O)(=O)[O-])cc5)c5ccc2[nH]5)C=C4)C=C3)cc1
REMARK SMILES IDX 29 1 28 2 1 3 2 4 3 6 4 7 5 8 10 9 6 10 7 11 9 12 8 13 11 15
REMARK SMILES IDX 12 16 13 17 14 18 15 19 16 20 27 21 17 22 21 23 22 24 26 25
REMARK SMILES IDX 18 26 20 27 23 28 25 29 19 30 24 31 30 32 31 33 32 34 33 35
REMARK SMILES IDX 34 37 35 38 36 39 94 40 37 41 93 42 38 43 39 44 40 45 87 46
REMARK SMILES IDX 41 47 92 48 86 49 88 50 42 51 91 52 85 53 84 54 43 56 73 57
REMARK SMILES IDX 54 58 72 59 55 60 58 61 71 62 89 63 56 64 57 65 70 67 90 68
REMARK SMILES IDX 59 69 44 70 45 71 53 72 46 73 52 74 47 75 48 76 49 77 50 78
REMARK SMILES IDX 51 79 74 80 75 81 83 82 76 83 82 84 77 85 78 86 79 87 80 88
REMARK SMILES IDX 81 89 60 90 61 91 69 92 62 93 68 94 63 95 64 96 65 97 66 98
REMARK SMILES IDX 67 99
REMARK H PARENT 28 5 7 14 32 36 88 55 58 66
REMARK Flexibility Score: inf
ROOT
ATOM      1  C   UNL A   1      33.533  31.206  27.260  1.00  0.00     0.117 C 
ENDROOT
BRANCH   1   2
ATOM      2  N   UNL A   1      34.027  32.182  28.210  1.00  0.00    -0.356 N 
ATOM      3  O   UNL A   1      32.523  33.820  27.727  1.00  0.00    -0.275 OA
ATOM      4  C   UNL A   1      33.478  33.426  28.387  1.00  0.00     0.222 C 
ATOM      5  H   UNL A   1      34.805  31.937  28.763  1.00  0.00     0.163 HD
BRANCH   4   6
ATOM      6  C   UNL A   1      34.218  34.339  29.354  1.00  0.00     0.135 C 
BRANCH   6   7
ATOM      7  C   UNL A   1      33.428  35.068  30.466  1.00  0.00     0.187 C 
ATOM      8  C   UNL A   1      32.933  36.446  29.931  1.00  0.00     0.243 C 
ATOM      9  N   UNL A   1      33.952  35.111  31.866  1.00  0.00    -0.294 N 
ATOM     10  O   UNL A   1      32.356  36.553  28.846  1.00  0.00    -0.273 OA
ATOM     11  N   UNL A   1      33.176  37.574  30.664  1.00  0.00    -0.353 N 
ATOM     12  C   UNL A   1      33.528  36.253  32.673  1.00  0.00     0.145 C 
ATOM     13  C   UNL A   1      33.836  37.549  31.946  1.00  0.00     0.137 C 
ATOM     14  H   UNL A   1      32.889  38.442  30.300  1.00  0.00     0.163 HD
BRANCH   9  15
ATOM     15  C   UNL A   1      34.413  34.024  32.591  1.00  0.00     0.410 C 
ATOM     16  O   UNL A   1      33.723  33.041  32.849  1.00  0.00    -0.224 OA
BRANCH  15  17
ATOM     17  O   UNL A   1      35.675  34.175  33.034  1.00  0.00    -0.448 OA
BRANCH  17  18
ATOM     18  C   UNL A   1      36.216  33.115  33.847  1.00  0.00     0.248 C 
BRANCH  18  19
ATOM     19  C   UNL A   1      37.120  32.105  33.103  1.00  0.00     0.088 C 
ATOM     20  C   UNL A   1      37.797  32.618  31.838  1.00  0.00    -0.029 A 
ATOM     21  C   UNL A   1      38.315  31.587  33.901  1.00  0.00    -0.029 A 
ATOM     22  C   UNL A   1      37.223  33.192  30.719  1.00  0.00     0.005 A 
ATOM     23  C   UNL A   1      39.197  32.437  31.923  1.00  0.00    -0.014 A 
ATOM     24  C   UNL A   1      39.510  31.790  33.178  1.00  0.00    -0.014 A 
ATOM     25  C   UNL A   1      38.321  30.951  35.133  1.00  0.00     0.005 A 
ATOM     26  C   UNL A   1      38.065  33.610  29.685  1.00  0.00     0.000 A 
ATOM     27  C   UNL A   1      40.031  32.858  30.899  1.00  0.00     0.009 A 
ATOM     28  C   UNL A   1      40.726  31.371  33.692  1.00  0.00     0.009 A 
ATOM     29  C   UNL A   1      39.547  30.527  35.650  1.00  0.00     0.000 A 
ATOM     30  C   UNL A   1      39.456  33.453  29.775  1.00  0.00     0.001 A 
ATOM     31  C   UNL A   1      40.739  30.736  34.936  1.00  0.00     0.001 A 
ENDBRANCH  18  19
ENDBRANCH  17  18
ENDBRANCH  15  17
ENDBRANCH   9  15
ENDBRANCH   6   7
ENDBRANCH   4   6
ENDBRANCH   1   2
BRANCH   1  32
ATOM     32  C   UNL A   1      34.238  29.862  27.400  1.00  0.00     0.042 C 
BRANCH  32  33
ATOM     33  C   UNL A   1      35.609  29.924  28.069  1.00  0.00     0.118 C 
BRANCH  33  34
ATOM     34  N   UNL A   1      35.551  29.818  29.521  1.00  0.00    -0.352 N 
ATOM     35  C   UNL A   1      36.556  29.566  30.424  1.00  0.00     0.251 C 
ATOM     36  H   UNL A   1      34.658  29.947  29.914  1.00  0.00     0.163 HD
ATOM     37  O   UNL A   1      36.281  29.386  31.607  1.00  0.00    -0.269 OA
BRANCH  35  38
ATOM     38  C   UNL A   1      37.962  29.482  29.970  1.00  0.00     0.039 A 
ATOM     39  C   UNL A   1      38.931  29.002  30.855  1.00  0.00     0.014 A 
ATOM     40  C   UNL A   1      38.329  29.873  28.678  1.00  0.00     0.014 A 
ATOM     41  C   UNL A   1      40.249  28.835  30.418  1.00  0.00     0.010 A 
ATOM     42  C   UNL A   1      39.625  29.639  28.224  1.00  0.00     0.010 A 
ATOM     43  C   UNL A   1      40.599  29.112  29.087  1.00  0.00    -0.014 A 
BRANCH  43  44
ATOM     44  C   UNL A   1      41.965  28.832  28.571  1.00  0.00     0.031 A 
ATOM     45  C   UNL A   1      42.340  27.447  28.118  1.00  0.00     0.074 A 
ATOM     46  C   UNL A   1      42.894  29.809  28.581  1.00  0.00     0.049 A 
ATOM     47  N   UNL A   1      43.501  26.998  27.712  1.00  0.00    -0.248 NA
ATOM     48  C   UNL A   1      41.280  26.426  28.148  1.00  0.00     0.031 C 
ATOM     49  C   UNL A   1      42.673  31.185  29.034  1.00  0.00     0.029 A 
ATOM     50  N   UNL A   1      44.216  29.793  28.209  1.00  0.00    -0.354 N 
ATOM     51  C   UNL A   1      43.317  25.643  27.459  1.00  0.00     0.074 A 
ATOM     52  C   UNL A   1      41.945  25.335  27.797  1.00  0.00     0.031 C 
ATOM     53  C   UNL A   1      43.811  31.884  28.893  1.00  0.00     0.029 A 
ATOM     54  C   UNL A   1      44.853  31.000  28.379  1.00  0.00     0.049 A 
ATOM     55  H   UNL A   1      44.666  28.993  27.855  1.00  0.00     0.167 HD
ATOM     56  C   UNL A   1      44.205  24.742  26.972  1.00  0.00     0.031 A 
ATOM     57  C   UNL A   1      46.133  31.359  28.157  1.00  0.00     0.031 A 
ATOM     58  C   UNL A   1      45.566  25.053  26.624  1.00  0.00     0.049 A 
ATOM     59  C   UNL A   1      47.099  30.339  27.619  1.00  0.00     0.074 A 
ATOM     60  C   UNL A   1      46.524  24.220  26.072  1.00  0.00     0.029 A 
ATOM     61  N   UNL A   1      46.164  26.293  26.792  1.00  0.00    -0.354 N 
ATOM     62  N   UNL A   1      46.889  29.078  27.329  1.00  0.00    -0.248 NA
ATOM     63  C   UNL A   1      48.475  30.795  27.369  1.00  0.00     0.031 C 
ATOM     64  C   UNL A   1      47.714  24.942  25.950  1.00  0.00     0.029 A 
ATOM     65  C   UNL A   1      47.484  26.241  26.373  1.00  0.00     0.049 A 
ATOM     66  H   UNL A   1      45.717  27.091  27.156  1.00  0.00     0.167 HD
ATOM     67  C   UNL A   1      48.096  28.598  26.832  1.00  0.00     0.074 A 
ATOM     68  C   UNL A   1      49.029  29.706  26.853  1.00  0.00     0.031 C 
ATOM     69  C   UNL A   1      48.401  27.352  26.393  1.00  0.00     0.031 A 
BRANCH  56  70
ATOM     70  C   UNL A   1      43.728  23.325  26.792  1.00  0.00    -0.014 A 
ATOM     71  C   UNL A   1      43.244  22.577  27.881  1.00  0.00     0.010 A 
ATOM     72  C   UNL A   1      43.725  22.745  25.510  1.00  0.00     0.010 A 
ATOM     73  C   UNL A   1      42.809  21.262  27.701  1.00  0.00     0.020 A 
ATOM     74  C   UNL A   1      43.263  21.439  25.321  1.00  0.00     0.020 A 
ATOM     75  C   UNL A   1      42.825  20.699  26.422  1.00  0.00     0.054 A 
BRANCH  75  76
ATOM     76  S   UNL A   1      42.237  18.997  26.213  1.00  0.00     0.124 S 
ATOM     77  O   UNL A   1      40.846  19.206  25.816  1.00  0.00    -0.237 OA
ATOM     78  O   UNL A   1      43.116  18.478  25.168  1.00  0.00    -0.237 OA
ATOM     79  O   UNL A   1      42.424  18.400  27.534  1.00  0.00    -0.744 OA
ENDBRANCH  75  76
ENDBRANCH  56  70
BRANCH  57  80
ATOM     80  C   UNL A   1      46.570  32.756  28.428  1.00  0.00    -0.014 A 
ATOM     81  C   UNL A   1      47.206  33.080  29.639  1.00  0.00     0.010 A 
ATOM     82  C   UNL A   1      46.367  33.765  27.470  1.00  0.00     0.010 A 
ATOM     83  C   UNL A   1      47.616  34.392  29.895  1.00  0.00     0.020 A 
ATOM     84  C   UNL A   1      46.799  35.073  27.711  1.00  0.00     0.020 A 
ATOM     85  C   UNL A   1      47.411  35.380  28.928  1.00  0.00     0.054 A 
BRANCH  85  86
ATOM     86  S   UNL A   1      47.997  37.065  29.259  1.00  0.00     0.124 S 
ATOM     87  O   UNL A   1      47.022  37.874  28.536  1.00  0.00    -0.237 OA
ATOM     88  O   UNL A   1      47.927  37.142  30.717  1.00  0.00    -0.237 OA
ATOM     89  O   UNL A   1      49.350  37.070  28.707  1.00  0.00    -0.744 OA
ENDBRANCH  85  86
ENDBRANCH  57  80
BRANCH  69  90
ATOM     90  C   UNL A   1      49.789  27.123  25.859  1.00  0.00    -0.014 A 
ATOM     91  C   UNL A   1      50.820  26.640  26.683  1.00  0.00     0.010 A 
ATOM     92  C   UNL A   1      50.046  27.336  24.491  1.00  0.00     0.010 A 
ATOM     93  C   UNL A   1      52.092  26.399  26.154  1.00  0.00     0.020 A 
ATOM     94  C   UNL A   1      51.309  27.072  23.955  1.00  0.00     0.020 A 
ATOM     95  C   UNL A   1      52.327  26.616  24.792  1.00  0.00     0.054 A 
BRANCH  95  96
ATOM     96  S   UNL A   1      53.970  26.245  24.120  1.00  0.00     0.124 S 
ATOM     97  O   UNL A   1      54.750  27.395  24.569  1.00  0.00    -0.237 OA
ATOM     98  O   UNL A   1      54.300  24.974  24.760  1.00  0.00    -0.237 OA
ATOM     99  O   UNL A   1      53.745  26.170  22.677  1.00  0.00    -0.744 OA
ENDBRANCH  95  96
ENDBRANCH  69  90
ENDBRANCH  43  44
ENDBRANCH  35  38
ENDBRANCH  33  34
ENDBRANCH  32  33
ENDBRANCH   1  32
TORSDOF 18
ENDMDL
MODEL 2
REMARK VINA RESULT:     -11.8      3.780     10.293
REMARK SMILES O=C(C[C@@H]1C(=O)NCCN1C(=O)OCC1c2ccccc2-c2ccccc21)NCCCNC(=O)c1ccc(-c2c3nc(c(-c4ccc(S(=O)(=O)[O-])cc4)c4ccc([nH]4)c(-c4ccc(S(=O)(=O)[O-])cc4)c4nc(c(-c5ccc(S(=O)(=O)[O-])cc5)c5ccc2[nH]5)C=C4)C=C3)cc1
REMARK SMILES IDX 29 1 28 2 1 3 2 4 3 6 4 7 5 8 10 9 6 10 7 11 9 12 8 13 11 15
REMARK SMILES IDX 12 16 13 17 14 18 15 19 16 20 27 21 17 22 21 23 22 24 26 25
REMARK SMILES IDX 18 26 20 27 23 28 25 29 19 30 24 31 30 32 31 33 32 34 33 35
REMARK SMILES IDX 34 37 35 38 36 39 94 40 37 41 93 42 38 43 39 44 40 45 87 46
REMARK SMILES IDX 41 47 92 48 86 49 88 50 42 51 91 52 85 53 84 54 43 56 73 57
REMARK SMILES IDX 54 58 72 59 55 60 58 61 71 62 89 63 56 64 57 65 70 67 90 68
REMARK SMILES IDX 59 69 44 70 45 71 53 72 46 73 52 74 47 75 48 76 49 77 50 78
REMARK SMILES IDX 51 79 74 80 75 81 83 82 76 83 82 84 77 85 78 86 79 87 80 88
REMARK SMILES IDX 81 89 60 90 61 91 69 92 62 93 68 94 63 95 64 96 65 97 66 98
REMARK SMILES IDX 67 99
REMARK H PARENT 28 5 7 14 32 36 88 55 58 66
REMARK Flexibility Score: inf
ROOT
ATOM      1  C   UNL A   1      33.480  28.456  26.770  1.00  0.00     0.117 C 
ENDROOT
BRANCH   1   2
ATOM      2  N   UNL A   1      33.453  28.240  25.337  1.00  0.00    -0.356 N 
ATOM      3  O   UNL A   1      31.906  29.837  24.850  1.00  0.00    -0.275 OA
ATOM      4  C   UNL A   1      32.671  28.958  24.469  1.00  0.00     0.222 C 
ATOM      5  H   UNL A   1      34.032  27.536  24.964  1.00  0.00     0.163 HD
BRANCH   4   6
ATOM      6  C   UNL A   1      32.706  28.497  23.019  1.00  0.00     0.135 C 
BRANCH   6   7
ATOM      7  C   UNL A   1      31.777  27.347  22.564  1.00  0.00     0.187 C 
ATOM      8  C   UNL A   1      30.301  27.846  22.555  1.00  0.00     0.243 C 
ATOM      9  N   UNL A   1      31.952  25.968  23.115  1.00  0.00    -0.294 N 
ATOM     10  O   UNL A   1      29.975  28.907  22.016  1.00  0.00    -0.273 OA
ATOM     11  N   UNL A   1      29.343  27.110  23.195  1.00  0.00    -0.353 N 
ATOM     12  C   UNL A   1      30.754  25.131  23.136  1.00  0.00     0.145 C 
ATOM     13  C   UNL A   1      29.625  25.854  23.847  1.00  0.00     0.137 C 
ATOM     14  H   UNL A   1      28.420  27.451  23.212  1.00  0.00     0.163 HD
BRANCH   9  15
ATOM     15  C   UNL A   1      33.149  25.275  23.198  1.00  0.00     0.410 C 
ATOM     16  O   UNL A   1      33.671  24.711  22.240  1.00  0.00    -0.224 OA
BRANCH  15  17
ATOM     17  O   UNL A   1      33.655  25.232  24.445  1.00  0.00    -0.448 OA
BRANCH  17  18
ATOM     18  C   UNL A   1      35.027  24.811  24.581  1.00  0.00     0.248 C 
BRANCH  18  19
ATOM     19  C   UNL A   1      35.272  23.674  25.600  1.00  0.00     0.088 C 
ATOM     20  C   UNL A   1      34.674  22.318  25.246  1.00  0.00    -0.029 A 
ATOM     21  C   UNL A   1      36.737  23.311  25.832  1.00  0.00    -0.029 A 
ATOM     22  C   UNL A   1      33.362  22.000  24.947  1.00  0.00     0.005 A 
ATOM     23  C   UNL A   1      35.678  21.322  25.252  1.00  0.00    -0.014 A 
ATOM     24  C   UNL A   1      36.936  21.928  25.628  1.00  0.00    -0.014 A 
ATOM     25  C   UNL A   1      37.778  24.133  26.235  1.00  0.00     0.005 A 
ATOM     26  C   UNL A   1      33.059  20.674  24.628  1.00  0.00     0.000 A 
ATOM     27  C   UNL A   1      35.377  20.008  24.929  1.00  0.00     0.009 A 
ATOM     28  C   UNL A   1      38.186  21.359  25.811  1.00  0.00     0.009 A 
ATOM     29  C   UNL A   1      39.038  23.558  26.421  1.00  0.00     0.000 A 
ATOM     30  C   UNL A   1      34.056  19.688  24.610  1.00  0.00     0.001 A 
ATOM     31  C   UNL A   1      39.240  22.184  26.210  1.00  0.00     0.001 A 
ENDBRANCH  18  19
ENDBRANCH  17  18
ENDBRANCH  15  17
ENDBRANCH   9  15
ENDBRANCH   6   7
ENDBRANCH   4   6
ENDBRANCH   1   2
BRANCH   1  32
ATOM     32  C   UNL A   1      34.323  29.668  27.150  1.00  0.00     0.042 C 
BRANCH  32  33
ATOM     33  C   UNL A   1      35.539  29.357  28.019  1.00  0.00     0.118 C 
BRANCH  33  34
ATOM     34  N   UNL A   1      35.420  29.853  29.383  1.00  0.00    -0.352 N 
ATOM     35  C   UNL A   1      36.389  30.035  30.339  1.00  0.00     0.251 C 
ATOM     36  H   UNL A   1      34.507  30.095  29.661  1.00  0.00     0.163 HD
ATOM     37  O   UNL A   1      36.068  30.345  31.483  1.00  0.00    -0.269 OA
BRANCH  35  38
ATOM     38  C   UNL A   1      37.816  29.830  30.002  1.00  0.00     0.039 A 
ATOM     39  C   UNL A   1      38.678  29.331  30.983  1.00  0.00     0.014 A 
ATOM     40  C   UNL A   1      38.306  30.125  28.726  1.00  0.00     0.014 A 
ATOM     41  C   UNL A   1      40.009  29.051  30.660  1.00  0.00     0.010 A 
ATOM     42  C   UNL A   1      39.613  29.779  28.388  1.00  0.00     0.010 A 
ATOM     43  C   UNL A   1      40.477  29.232  29.349  1.00  0.00    -0.014 A 
BRANCH  43  44
ATOM     44  C   UNL A   1      41.854  28.832  28.956  1.00  0.00     0.031 A 
ATOM     45  C   UNL A   1      42.964  29.849  28.922  1.00  0.00     0.074 A 
ATOM     46  C   UNL A   1      42.092  27.566  28.555  1.00  0.00     0.049 A 
ATOM     47  N   UNL A   1      44.205  29.703  28.533  1.00  0.00    -0.248 NA
ATOM     48  C   UNL A   1      42.629  31.214  29.358  1.00  0.00     0.031 C 
ATOM     49  C   UNL A   1      41.096  26.492  28.501  1.00  0.00     0.029 A 
ATOM     50  N   UNL A   1      43.245  26.969  28.107  1.00  0.00    -0.354 N 
ATOM     51  C   UNL A   1      44.792  30.956  28.657  1.00  0.00     0.074 A 
ATOM     52  C   UNL A   1      43.761  31.860  29.118  1.00  0.00     0.031 C 
ATOM     53  C   UNL A   1      41.685  25.366  28.068  1.00  0.00     0.029 A 
ATOM     54  C   UNL A   1      43.088  25.644  27.773  1.00  0.00     0.049 A 
ATOM     55  H   UNL A   1      44.103  27.445  28.031  1.00  0.00     0.167 HD
ATOM     56  C   UNL A   1      46.078  31.319  28.427  1.00  0.00     0.031 A 
ATOM     57  C   UNL A   1      43.968  24.751  27.278  1.00  0.00     0.031 A 
ATOM     58  C   UNL A   1      47.107  30.416  27.982  1.00  0.00     0.049 A 
ATOM     59  C   UNL A   1      45.388  25.179  27.029  1.00  0.00     0.074 A 
ATOM     60  C   UNL A   1      48.450  30.679  27.774  1.00  0.00     0.029 A 
ATOM     61  N   UNL A   1      46.909  29.078  27.676  1.00  0.00    -0.354 N 
ATOM     62  N   UNL A   1      45.938  26.355  27.211  1.00  0.00    -0.248 NA
ATOM     63  C   UNL A   1      46.310  24.155  26.515  1.00  0.00     0.031 C 
ATOM     64  C   UNL A   1      49.055  29.512  27.298  1.00  0.00     0.029 A 
ATOM     65  C   UNL A   1      48.102  28.507  27.263  1.00  0.00     0.049 A 
ATOM     66  H   UNL A   1      46.049  28.604  27.742  1.00  0.00     0.167 HD
ATOM     67  C   UNL A   1      47.277  26.205  26.866  1.00  0.00     0.074 A 
ATOM     68  C   UNL A   1      47.456  24.822  26.472  1.00  0.00     0.031 C 
ATOM     69  C   UNL A   1      48.268  27.129  26.879  1.00  0.00     0.031 A 
BRANCH  56  70
ATOM     70  C   UNL A   1      46.443  32.763  28.649  1.00  0.00    -0.014 A 
ATOM     71  C   UNL A   1      46.917  33.209  29.896  1.00  0.00     0.010 A 
ATOM     72  C   UNL A   1      46.348  33.680  27.586  1.00  0.00     0.010 A 
ATOM     73  C   UNL A   1      47.248  34.553  30.089  1.00  0.00     0.020 A 
ATOM     74  C   UNL A   1      46.705  35.020  27.767  1.00  0.00     0.020 A 
ATOM     75  C   UNL A   1      47.136  35.451  29.024  1.00  0.00     0.054 A 
BRANCH  75  76
ATOM     76  S   UNL A   1      47.589  37.186  29.297  1.00  0.00     0.124 S 
ATOM     77  O   UNL A   1      48.854  37.283  28.571  1.00  0.00    -0.237 OA
ATOM     78  O   UNL A   1      46.468  37.909  28.703  1.00  0.00    -0.237 OA
ATOM     79  O   UNL A   1      47.696  37.292  30.751  1.00  0.00    -0.744 OA
ENDBRANCH  75  76
ENDBRANCH  56  70
BRANCH  57  80
ATOM     80  C   UNL A   1      43.532  23.355  27.002  1.00  0.00    -0.014 A 
ATOM     81  C   UNL A   1      43.606  22.831  25.700  1.00  0.00     0.010 A 
ATOM     82  C   UNL A   1      43.056  22.538  28.043  1.00  0.00     0.010 A 
ATOM     83  C   UNL A   1      43.195  21.521  25.439  1.00  0.00     0.020 A 
ATOM     84  C   UNL A   1      42.670  21.217  27.791  1.00  0.00     0.020 A 
ATOM     85  C   UNL A   1      42.731  20.721  26.487  1.00  0.00     0.054 A 
BRANCH  85  86
ATOM     86  S   UNL A   1      42.253  19.006  26.135  1.00  0.00     0.124 S 
ATOM     87  O   UNL A   1      42.514  18.350  27.412  1.00  0.00    -0.237 OA
ATOM     88  O   UNL A   1      40.845  19.141  25.768  1.00  0.00    -0.237 OA
ATOM     89  O   UNL A   1      43.140  18.623  25.039  1.00  0.00    -0.744 OA
ENDBRANCH  85  86
ENDBRANCH  57  80
BRANCH  69  90
ATOM     90  C   UNL A   1      49.650  26.671  26.496  1.00  0.00    -0.014 A 
ATOM     91  C   UNL A   1      50.447  25.928  27.384  1.00  0.00     0.010 A 
ATOM     92  C   UNL A   1      50.132  26.937  25.200  1.00  0.00     0.010 A 
ATOM     93  C   UNL A   1      51.713  25.481  26.992  1.00  0.00     0.020 A 
ATOM     94  C   UNL A   1      51.385  26.470  24.797  1.00  0.00     0.020 A 
ATOM     95  C   UNL A   1      52.173  25.755  25.700  1.00  0.00     0.054 A 
BRANCH  95  96
ATOM     96  S   UNL A   1      53.796  25.119  25.197  1.00  0.00     0.124 S 
ATOM     97  O   UNL A   1      54.686  25.760  26.161  1.00  0.00    -0.237 OA
ATOM     98  O   UNL A   1      53.637  23.675  25.352  1.00  0.00    -0.237 OA
ATOM     99  O   UNL A   1      53.936  25.581  23.817  1.00  0.00    -0.744 OA
ENDBRANCH  95  96
ENDBRANCH  69  90
ENDBRANCH  43  44
ENDBRANCH  35  38
ENDBRANCH  33  34
ENDBRANCH  32  33
ENDBRANCH   1  32
TORSDOF 18
ENDMDL
MODEL 3
REMARK VINA RESULT:     -11.7      6.127     12.535
REMARK SMILES O=C(C[C@@H]1C(=O)NCCN1C(=O)OCC1c2ccccc2-c2ccccc21)NCCCNC(=O)c1ccc(-c2c3nc(c(-c4ccc(S(=O)(=O)[O-])cc4)c4ccc([nH]4)c(-c4ccc(S(=O)(=O)[O-])cc4)c4nc(c(-c5ccc(S(=O)(=O)[O-])cc5)c5ccc2[nH]5)C=C4)C=C3)cc1
REMARK SMILES IDX 29 1 28 2 1 3 2 4 3 6 4 7 5 8 10 9 6 10 7 11 9 12 8 13 11 15
REMARK SMILES IDX 12 16 13 17 14 18 15 19 16 20 27 21 17 22 21 23 22 24 26 25
REMARK SMILES IDX 18 26 20 27 23 28 25 29 19 30 24 31 30 32 31 33 32 34 33 35
REMARK SMILES IDX 34 37 35 38 36 39 94 40 37 41 93 42 38 43 39 44 40 45 87 46
REMARK SMILES IDX 41 47 92 48 86 49 88 50 42 51 91 52 85 53 84 54 43 56 73 57
REMARK SMILES IDX 54 58 72 59 55 60 58 61 71 62 89 63 56 64 57 65 70 67 90 68
REMARK SMILES IDX 59 69 44 70 45 71 53 72 46 73 52 74 47 75 48 76 49 77 50 78
REMARK SMILES IDX 51 79 74 80 75 81 83 82 76 83 82 84 77 85 78 86 79 87 80 88
REMARK SMILES IDX 81 89 60 90 61 91 69 92 62 93 68 94 63 95 64 96 65 97 66 98
REMARK SMILES IDX 67 99
REMARK H PARENT 28 5 7 14 32 36 88 55 58 66
REMARK Flexibility Score: inf
ROOT
ATOM      1  C   UNL A   1      37.702  23.624  25.916  1.00  0.00     0.117 C 
ENDROOT
BRANCH   1   2
ATOM      2  N   UNL A   1      36.459  23.301  26.587  1.00  0.00    -0.356 N 
ATOM      3  O   UNL A   1      35.260  22.809  24.716  1.00  0.00    -0.275 OA
ATOM      4  C   UNL A   1      35.319  22.902  25.937  1.00  0.00     0.222 C 
ATOM      5  H   UNL A   1      36.432  23.370  27.569  1.00  0.00     0.163 HD
BRANCH   4   6
ATOM      6  C   UNL A   1      34.091  22.721  26.818  1.00  0.00     0.135 C 
BRANCH   6   7
ATOM      7  C   UNL A   1      32.686  22.713  26.170  1.00  0.00     0.187 C 
ATOM      8  C   UNL A   1      32.556  21.477  25.229  1.00  0.00     0.243 C 
ATOM      9  N   UNL A   1      32.102  23.970  25.610  1.00  0.00    -0.294 N 
ATOM     10  O   UNL A   1      32.872  20.343  25.598  1.00  0.00    -0.273 OA
ATOM     11  N   UNL A   1      32.117  21.657  23.948  1.00  0.00    -0.353 N 
ATOM     12  C   UNL A   1      31.129  23.799  24.534  1.00  0.00     0.145 C 
ATOM     13  C   UNL A   1      31.719  22.942  23.428  1.00  0.00     0.137 C 
ATOM     14  H   UNL A   1      32.071  20.875  23.352  1.00  0.00     0.163 HD
BRANCH   9  15
ATOM     15  C   UNL A   1      32.049  25.195  26.255  1.00  0.00     0.410 C 
ATOM     16  O   UNL A   1      31.002  25.718  26.628  1.00  0.00    -0.224 OA
BRANCH  15  17
ATOM     17  O   UNL A   1      33.253  25.784  26.382  1.00  0.00    -0.448 OA
BRANCH  17  18
ATOM     18  C   UNL A   1      33.953  26.114  25.166  1.00  0.00     0.248 C 
BRANCH  18  19
ATOM     19  C   UNL A   1      33.770  27.567  24.670  1.00  0.00     0.088 C 
ATOM     20  C   UNL A   1      32.445  27.879  23.987  1.00  0.00    -0.029 A 
ATOM     21  C   UNL A   1      33.814  28.638  25.758  1.00  0.00    -0.029 A 
ATOM     22  C   UNL A   1      31.859  27.253  22.903  1.00  0.00     0.005 A 
ATOM     23  C   UNL A   1      31.809  28.970  24.625  1.00  0.00    -0.014 A 
ATOM     24  C   UNL A   1      32.656  29.444  25.696  1.00  0.00    -0.014 A 
ATOM     25  C   UNL A   1      34.818  28.894  26.679  1.00  0.00     0.005 A 
ATOM     26  C   UNL A   1      30.612  27.710  22.469  1.00  0.00     0.000 A 
ATOM     27  C   UNL A   1      30.569  29.419  24.197  1.00  0.00     0.009 A 
ATOM     28  C   UNL A   1      32.488  30.506  26.571  1.00  0.00     0.009 A 
ATOM     29  C   UNL A   1      34.648  29.966  27.559  1.00  0.00     0.000 A 
ATOM     30  C   UNL A   1      29.967  28.777  23.113  1.00  0.00     0.001 A 
ATOM     31  C   UNL A   1      33.493  30.764  27.505  1.00  0.00     0.001 A 
ENDBRANCH  18  19
ENDBRANCH  17  18
ENDBRANCH  15  17
ENDBRANCH   9  15
ENDBRANCH   6   7
ENDBRANCH   4   6
ENDBRANCH   1   2
BRANCH   1  32
ATOM     32  C   UNL A   1      38.798  22.609  26.222  1.00  0.00     0.042 C 
BRANCH  32  33
ATOM     33  C   UNL A   1      39.985  23.164  27.007  1.00  0.00     0.118 C 
BRANCH  33  34
ATOM     34  N   UNL A   1      41.095  23.583  26.161  1.00  0.00    -0.352 N 
ATOM     35  C   UNL A   1      41.773  24.777  26.131  1.00  0.00     0.251 C 
ATOM     36  H   UNL A   1      41.405  22.908  25.515  1.00  0.00     0.163 HD
ATOM     37  O   UNL A   1      42.603  24.985  25.250  1.00  0.00    -0.269 OA
BRANCH  35  38
ATOM     38  C   UNL A   1      41.487  25.823  27.139  1.00  0.00     0.039 A 
ATOM     39  C   UNL A   1      40.518  25.574  28.116  1.00  0.00     0.014 A 
ATOM     40  C   UNL A   1      42.169  27.043  27.128  1.00  0.00     0.014 A 
ATOM     41  C   UNL A   1      40.293  26.513  29.126  1.00  0.00     0.010 A 
ATOM     42  C   UNL A   1      41.994  27.946  28.175  1.00  0.00     0.010 A 
ATOM     43  C   UNL A   1      41.059  27.688  29.190  1.00  0.00    -0.014 A 
BRANCH  43  44
ATOM     44  C   UNL A   1      40.918  28.644  30.319  1.00  0.00     0.031 A 
ATOM     45  C   UNL A   1      41.803  28.529  31.531  1.00  0.00     0.074 A 
ATOM     46  C   UNL A   1      39.940  29.572  30.289  1.00  0.00     0.049 A 
ATOM     47  N   UNL A   1      41.775  29.221  32.642  1.00  0.00    -0.248 NA
ATOM     48  C   UNL A   1      42.840  27.484  31.502  1.00  0.00     0.031 C 
ATOM     49  C   UNL A   1      38.986  29.764  29.193  1.00  0.00     0.029 A 
ATOM     50  N   UNL A   1      39.577  30.523  31.212  1.00  0.00    -0.354 N 
ATOM     51  C   UNL A   1      42.771  28.684  33.450  1.00  0.00     0.074 A 
ATOM     52  C   UNL A   1      43.357  27.583  32.718  1.00  0.00     0.031 C 
ATOM     53  C   UNL A   1      38.165  30.782  29.496  1.00  0.00     0.029 A 
ATOM     54  C   UNL A   1      38.503  31.289  30.823  1.00  0.00     0.049 A 
ATOM     55  H   UNL A   1      40.042  30.645  32.070  1.00  0.00     0.167 HD
ATOM     56  C   UNL A   1      43.174  29.084  34.681  1.00  0.00     0.031 A 
ATOM     57  C   UNL A   1      37.854  32.283  31.461  1.00  0.00     0.031 A 
ATOM     58  C   UNL A   1      42.600  30.188  35.402  1.00  0.00     0.049 A 
ATOM     59  C   UNL A   1      38.319  32.706  32.828  1.00  0.00     0.074 A 
ATOM     60  C   UNL A   1      42.977  30.702  36.631  1.00  0.00     0.029 A 
ATOM     61  N   UNL A   1      41.527  30.950  34.963  1.00  0.00    -0.354 N 
ATOM     62  N   UNL A   1      39.303  32.224  33.548  1.00  0.00    -0.248 NA
ATOM     63  C   UNL A   1      37.591  33.814  33.464  1.00  0.00     0.031 C 
ATOM     64  C   UNL A   1      42.104  31.745  36.956  1.00  0.00     0.029 A 
ATOM     65  C   UNL A   1      41.218  31.918  35.905  1.00  0.00     0.049 A 
ATOM     66  H   UNL A   1      41.055  30.822  34.108  1.00  0.00     0.167 HD
ATOM     67  C   UNL A   1      39.333  32.992  34.708  1.00  0.00     0.074 A 
ATOM     68  C   UNL A   1      38.274  33.973  34.589  1.00  0.00     0.031 C 
ATOM     69  C   UNL A   1      40.166  32.893  35.773  1.00  0.00     0.031 A 
BRANCH  56  70
ATOM     70  C   UNL A   1      44.293  28.312  35.330  1.00  0.00    -0.014 A 
ATOM     71  C   UNL A   1      45.638  28.652  35.101  1.00  0.00     0.010 A 
ATOM     72  C   UNL A   1      43.995  27.257  36.212  1.00  0.00     0.010 A 
ATOM     73  C   UNL A   1      46.666  27.924  35.707  1.00  0.00     0.020 A 
ATOM     74  C   UNL A   1      45.020  26.545  36.843  1.00  0.00     0.020 A 
ATOM     75  C   UNL A   1      46.351  26.872  36.571  1.00  0.00     0.054 A 
BRANCH  75  76
ATOM     76  S   UNL A   1      47.704  25.957  37.357  1.00  0.00     0.124 S 
ATOM     77  O   UNL A   1      48.048  24.984  36.323  1.00  0.00    -0.237 OA
ATOM     78  O   UNL A   1      48.700  26.997  37.597  1.00  0.00    -0.237 OA
ATOM     79  O   UNL A   1      47.091  25.396  38.560  1.00  0.00    -0.744 OA
ENDBRANCH  75  76
ENDBRANCH  56  70
BRANCH  57  80
ATOM     80  C   UNL A   1      36.702  32.959  30.804  1.00  0.00    -0.014 A 
ATOM     81  C   UNL A   1      35.389  32.710  31.239  1.00  0.00     0.010 A 
ATOM     82  C   UNL A   1      36.914  33.867  29.751  1.00  0.00     0.010 A 
ATOM     83  C   UNL A   1      34.306  33.343  30.622  1.00  0.00     0.020 A 
ATOM     84  C   UNL A   1      35.836  34.523  29.149  1.00  0.00     0.020 A 
ATOM     85  C   UNL A   1      34.537  34.248  29.581  1.00  0.00     0.054 A 
BRANCH  85  86
ATOM     86  S   UNL A   1      33.121  35.098  28.828  1.00  0.00     0.124 S 
ATOM     87  O   UNL A   1      32.643  34.104  27.874  1.00  0.00    -0.237 OA
ATOM     88  O   UNL A   1      32.253  35.342  29.978  1.00  0.00    -0.237 OA
ATOM     89  O   UNL A   1      33.717  36.297  28.242  1.00  0.00    -0.744 OA
ENDBRANCH  85  86
ENDBRANCH  57  80
BRANCH  69  90
ATOM     90  C   UNL A   1      40.000  33.898  36.881  1.00  0.00    -0.014 A 
ATOM     91  C   UNL A   1      40.740  35.093  36.902  1.00  0.00     0.010 A 
ATOM     92  C   UNL A   1      39.039  33.667  37.884  1.00  0.00     0.010 A 
ATOM     93  C   UNL A   1      40.540  36.028  37.922  1.00  0.00     0.020 A 
ATOM     94  C   UNL A   1      38.820  34.611  38.890  1.00  0.00     0.020 A 
ATOM     95  C   UNL A   1      39.580  35.781  38.909  1.00  0.00     0.054 A 
BRANCH  95  96
ATOM     96  S   UNL A   1      39.303  37.034  40.191  1.00  0.00     0.124 S 
ATOM     97  O   UNL A   1      38.542  38.048  39.466  1.00  0.00    -0.237 OA
ATOM     98  O   UNL A   1      38.556  36.296  41.206  1.00  0.00    -0.237 OA
ATOM     99  O   UNL A   1      40.653  37.432  40.584  1.00  0.00    -0.744 OA
ENDBRANCH  95  96
ENDBRANCH  69  90
ENDBRANCH  43  44
ENDBRANCH  35  38
ENDBRANCH  33  34
ENDBRANCH  32  33
ENDBRANCH   1  32
TORSDOF 18
ENDMDL
