MODEL 1
REMARK VINA RESULT:     -10.8      0.000      0.000
REMARK SMILES Cc1cc(F)ccc1CCNc1ccc(Cl)c(C(=O)NCCCNC(=O)c2ccc(-c3c4nc(c(-c5ccc(S(=O)(=O)[O-])cc5)c5ccc([nH]5)c(-c5ccc(S(=O)(=O)[O-])cc5)c5nc(c(-c6ccc(S(=O)(=O)[O-])cc6)c6ccc3[nH]6)C=C5)C=C4)cc2)n1
REMARK SMILES IDX 21 1 20 2 18 3 19 4 17 6 12 7 13 8 87 9 14 10 15 11 16 12
REMARK SMILES IDX 11 13 10 15 9 16 8 17 1 18 2 19 3 20 4 21 7 22 5 23 6 24
REMARK SMILES IDX 22 25 23 26 24 27 25 28 26 30 27 31 28 32 86 33 29 34 85 35
REMARK SMILES IDX 30 36 31 37 32 38 79 39 33 40 84 41 78 42 80 43 34 44 83 45
REMARK SMILES IDX 77 46 76 47 35 49 65 50 46 51 64 52 47 53 50 54 63 55 81 56
REMARK SMILES IDX 48 57 49 58 62 60 82 61 51 62 36 63 37 64 45 65 38 66 44 67
REMARK SMILES IDX 39 68 40 69 41 70 42 71 43 72 66 73 67 74 75 75 68 76 74 77
REMARK SMILES IDX 69 78 70 79 71 80 72 81 73 82 52 83 53 84 61 85 54 86 60 87
REMARK SMILES IDX 55 88 56 89 57 90 58 91 59 92
REMARK H PARENT 20 5 11 14 24 29 80 48 50 59
REMARK Flexibility Score: inf
ROOT
ATOM      1  C   UNL A   1      35.393  22.258  26.348  1.00  0.00     0.118 C 
ENDROOT
BRANCH   1   2
ATOM      2  N   UNL A   1      34.208  22.540  27.110  1.00  0.00    -0.351 N 
ATOM      3  C   UNL A   1      32.872  22.684  26.848  1.00  0.00     0.271 C 
ATOM      4  O   UNL A   1      32.182  22.655  27.879  1.00  0.00    -0.267 OA
ATOM      5  H   UNL A   1      34.408  22.662  28.066  1.00  0.00     0.163 HD
BRANCH   3   6
ATOM      6  C   UNL A   1      32.169  22.955  25.531  1.00  0.00     0.149 A 
ATOM      7  C   UNL A   1      30.656  24.548  24.662  1.00  0.00     0.126 A 
ATOM      8  C   UNL A   1      30.697  23.973  23.414  1.00  0.00     0.048 A 
ATOM      9  N   UNL A   1      31.431  24.110  25.662  1.00  0.00    -0.224 NA
ATOM     10  C   UNL A   1      31.439  22.817  23.248  1.00  0.00     0.027 A 
ATOM     11  C   UNL A   1      32.115  22.243  24.335  1.00  0.00     0.072 A 
ATOM     12  Cl  UNL A   1      32.554  20.613  24.024  1.00  0.00    -0.082 Cl
BRANCH   7  13
ATOM     13  N   UNL A   1      29.760  25.546  24.983  1.00  0.00    -0.370 N 
ATOM     14  H   UNL A   1      28.808  25.469  24.748  1.00  0.00     0.162 HD
BRANCH  13  15
ATOM     15  C   UNL A   1      30.270  26.726  25.686  1.00  0.00     0.119 C 
BRANCH  15  16
ATOM     16  C   UNL A   1      31.196  27.579  24.795  1.00  0.00     0.057 C 
BRANCH  16  17
ATOM     17  C   UNL A   1      32.178  28.406  25.602  1.00  0.00    -0.043 A 
ATOM     18  C   UNL A   1      33.980  26.562  25.698  1.00  0.00     0.045 C 
ATOM     19  C   UNL A   1      33.415  27.907  26.069  1.00  0.00    -0.045 A 
ATOM     20  C   UNL A   1      34.209  28.725  26.894  1.00  0.00     0.043 A 
ATOM     21  C   UNL A   1      33.782  29.997  27.256  1.00  0.00     0.123 A 
ATOM     22  C   UNL A   1      31.794  29.719  25.949  1.00  0.00     0.007 A 
ATOM     23  F   UNL A   1      34.546  30.745  28.063  1.00  0.00    -0.207 F 
ATOM     24  C   UNL A   1      32.583  30.505  26.784  1.00  0.00     0.039 A 
ENDBRANCH  16  17
ENDBRANCH  15  16
ENDBRANCH  13  15
ENDBRANCH   7  13
ENDBRANCH   3   6
ENDBRANCH   1   2
BRANCH   1  25
ATOM     25  C   UNL A   1      35.610  23.176  25.159  1.00  0.00     0.042 C 
BRANCH  25  26
ATOM     26  C   UNL A   1      36.994  23.811  25.173  1.00  0.00     0.118 C 
BRANCH  26  27
ATOM     27  N   UNL A   1      38.049  22.838  25.459  1.00  0.00    -0.352 N 
ATOM     28  C   UNL A   1      39.265  22.981  26.069  1.00  0.00     0.251 C 
ATOM     29  H   UNL A   1      37.851  21.922  25.160  1.00  0.00     0.163 HD
ATOM     30  O   UNL A   1      40.080  22.058  26.004  1.00  0.00    -0.269 OA
BRANCH  28  31
ATOM     31  C   UNL A   1      39.600  24.216  26.800  1.00  0.00     0.039 A 
ATOM     32  C   UNL A   1      40.385  25.186  26.171  1.00  0.00     0.014 A 
ATOM     33  C   UNL A   1      39.185  24.398  28.120  1.00  0.00     0.014 A 
ATOM     34  C   UNL A   1      40.725  26.348  26.862  1.00  0.00     0.010 A 
ATOM     35  C   UNL A   1      39.417  25.605  28.760  1.00  0.00     0.010 A 
ATOM     36  C   UNL A   1      40.228  26.573  28.156  1.00  0.00    -0.014 A 
BRANCH  36  37
ATOM     37  C   UNL A   1      40.610  27.775  28.933  1.00  0.00     0.031 A 
ATOM     38  C   UNL A   1      41.950  27.815  29.623  1.00  0.00     0.074 A 
ATOM     39  C   UNL A   1      39.742  28.796  29.054  1.00  0.00     0.049 A 
ATOM     40  N   UNL A   1      42.454  28.745  30.390  1.00  0.00    -0.248 NA
ATOM     41  C   UNL A   1      42.825  26.638  29.460  1.00  0.00     0.031 C 
ATOM     42  C   UNL A   1      38.399  28.844  28.470  1.00  0.00     0.029 A 
ATOM     43  N   UNL A   1      39.861  29.993  29.711  1.00  0.00    -0.354 N 
ATOM     44  C   UNL A   1      43.684  28.256  30.818  1.00  0.00     0.074 A 
ATOM     45  C   UNL A   1      43.822  26.922  30.283  1.00  0.00     0.031 C 
ATOM     46  C   UNL A   1      37.835  30.027  28.760  1.00  0.00     0.029 A 
ATOM     47  C   UNL A   1      38.757  30.802  29.585  1.00  0.00     0.049 A 
ATOM     48  H   UNL A   1      40.661  30.249  30.223  1.00  0.00     0.167 HD
ATOM     49  C   UNL A   1      44.629  28.874  31.564  1.00  0.00     0.031 A 
ATOM     50  C   UNL A   1      38.519  32.032  30.078  1.00  0.00     0.031 A 
ATOM     51  C   UNL A   1      44.494  30.215  32.064  1.00  0.00     0.049 A 
ATOM     52  C   UNL A   1      39.594  32.707  30.887  1.00  0.00     0.074 A 
ATOM     53  C   UNL A   1      45.412  30.962  32.779  1.00  0.00     0.029 A 
ATOM     54  N   UNL A   1      43.373  31.012  31.890  1.00  0.00    -0.354 N 
ATOM     55  N   UNL A   1      40.775  32.251  31.233  1.00  0.00    -0.248 NA
ATOM     56  C   UNL A   1      39.312  34.070  31.352  1.00  0.00     0.031 C 
ATOM     57  C   UNL A   1      44.825  32.194  33.084  1.00  0.00     0.029 A 
ATOM     58  C   UNL A   1      43.569  32.239  32.498  1.00  0.00     0.049 A 
ATOM     59  H   UNL A   1      42.558  30.744  31.408  1.00  0.00     0.167 HD
ATOM     60  C   UNL A   1      41.394  33.290  31.919  1.00  0.00     0.074 A 
ATOM     61  C   UNL A   1      40.460  34.397  31.929  1.00  0.00     0.031 C 
ATOM     62  C   UNL A   1      42.626  33.329  32.486  1.00  0.00     0.031 A 
BRANCH  49  63
ATOM     63  C   UNL A   1      45.888  28.108  31.874  1.00  0.00    -0.014 A 
ATOM     64  C   UNL A   1      47.028  28.211  31.054  1.00  0.00     0.010 A 
ATOM     65  C   UNL A   1      45.948  27.300  33.025  1.00  0.00     0.010 A 
ATOM     66  C   UNL A   1      48.187  27.492  31.356  1.00  0.00     0.020 A 
ATOM     67  C   UNL A   1      47.117  26.605  33.350  1.00  0.00     0.020 A 
ATOM     68  C   UNL A   1      48.225  26.695  32.504  1.00  0.00     0.054 A 
BRANCH  68  69
ATOM     69  S   UNL A   1      49.757  25.805  32.893  1.00  0.00     0.124 S 
ATOM     70  O   UNL A   1      50.657  26.898  33.253  1.00  0.00    -0.237 OA
ATOM     71  O   UNL A   1      49.350  24.938  33.995  1.00  0.00    -0.237 OA
ATOM     72  O   UNL A   1      50.084  25.115  31.648  1.00  0.00    -0.744 OA
ENDBRANCH  68  69
ENDBRANCH  49  63
BRANCH  50  73
ATOM     73  C   UNL A   1      37.226  32.713  29.794  1.00  0.00    -0.014 A 
ATOM     74  C   UNL A   1      36.131  32.563  30.663  1.00  0.00     0.010 A 
ATOM     75  C   UNL A   1      37.083  33.520  28.651  1.00  0.00     0.010 A 
ATOM     76  C   UNL A   1      34.908  33.179  30.379  1.00  0.00     0.020 A 
ATOM     77  C   UNL A   1      35.873  34.165  28.380  1.00  0.00     0.020 A 
ATOM     78  C   UNL A   1      34.788  33.977  29.237  1.00  0.00     0.054 A 
BRANCH  78  79
ATOM     79  S   UNL A   1      33.202  34.793  28.903  1.00  0.00     0.124 S 
ATOM     80  O   UNL A   1      33.630  36.094  28.399  1.00  0.00    -0.237 OA
ATOM     81  O   UNL A   1      32.592  33.901  27.918  1.00  0.00    -0.237 OA
ATOM     82  O   UNL A   1      32.545  34.810  30.207  1.00  0.00    -0.744 OA
ENDBRANCH  78  79
ENDBRANCH  50  73
BRANCH  62  83
ATOM     83  C   UNL A   1      43.061  34.632  33.104  1.00  0.00    -0.014 A 
ATOM     84  C   UNL A   1      42.970  34.858  34.489  1.00  0.00     0.010 A 
ATOM     85  C   UNL A   1      43.606  35.631  32.279  1.00  0.00     0.010 A 
ATOM     86  C   UNL A   1      43.368  36.084  35.028  1.00  0.00     0.020 A 
ATOM     87  C   UNL A   1      44.039  36.844  32.819  1.00  0.00     0.020 A 
ATOM     88  C   UNL A   1      43.896  37.070  34.189  1.00  0.00     0.054 A 
BRANCH  88  89
ATOM     89  S   UNL A   1      44.422  38.646  34.914  1.00  0.00     0.124 S 
ATOM     90  O   UNL A   1      43.651  39.610  34.133  1.00  0.00    -0.237 OA
ATOM     91  O   UNL A   1      44.020  38.505  36.312  1.00  0.00    -0.237 OA
ATOM     92  O   UNL A   1      45.864  38.670  34.685  1.00  0.00    -0.744 OA
ENDBRANCH  88  89
ENDBRANCH  62  83
ENDBRANCH  36  37
ENDBRANCH  28  31
ENDBRANCH  26  27
ENDBRANCH  25  26
ENDBRANCH   1  25
TORSDOF 17
ENDMDL
MODEL 2
REMARK VINA RESULT:     -10.7      3.067      9.286
REMARK SMILES Cc1cc(F)ccc1CCNc1ccc(Cl)c(C(=O)NCCCNC(=O)c2ccc(-c3c4nc(c(-c5ccc(S(=O)(=O)[O-])cc5)c5ccc([nH]5)c(-c5ccc(S(=O)(=O)[O-])cc5)c5nc(c(-c6ccc(S(=O)(=O)[O-])cc6)c6ccc3[nH]6)C=C5)C=C4)cc2)n1
REMARK SMILES IDX 21 1 20 2 18 3 19 4 17 6 12 7 13 8 87 9 14 10 15 11 16 12
REMARK SMILES IDX 11 13 10 15 9 16 8 17 1 18 2 19 3 20 4 21 7 22 5 23 6 24
REMARK SMILES IDX 22 25 23 26 24 27 25 28 26 30 27 31 28 32 86 33 29 34 85 35
REMARK SMILES IDX 30 36 31 37 32 38 79 39 33 40 84 41 78 42 80 43 34 44 83 45
REMARK SMILES IDX 77 46 76 47 35 49 65 50 46 51 64 52 47 53 50 54 63 55 81 56
REMARK SMILES IDX 48 57 49 58 62 60 82 61 51 62 36 63 37 64 45 65 38 66 44 67
REMARK SMILES IDX 39 68 40 69 41 70 42 71 43 72 66 73 67 74 75 75 68 76 74 77
REMARK SMILES IDX 69 78 70 79 71 80 72 81 73 82 52 83 53 84 61 85 54 86 60 87
REMARK SMILES IDX 55 88 56 89 57 90 58 91 59 92
REMARK H PARENT 20 5 11 14 24 29 80 48 50 59
REMARK Flexibility Score: inf
ROOT
ATOM      1  C   UNL A   1      31.762  28.051  26.542  1.00  0.00     0.118 C 
ENDROOT
BRANCH   1   2
ATOM      2  N   UNL A   1      31.246  28.732  25.387  1.00  0.00    -0.351 N 
ATOM      3  C   UNL A   1      31.096  28.451  24.055  1.00  0.00     0.271 C 
ATOM      4  O   UNL A   1      30.340  29.253  23.484  1.00  0.00    -0.267 OA
ATOM      5  H   UNL A   1      30.916  29.633  25.609  1.00  0.00     0.163 HD
BRANCH   3   6
ATOM      6  C   UNL A   1      31.776  27.391  23.208  1.00  0.00     0.149 A 
ATOM      7  C   UNL A   1      31.485  25.096  22.729  1.00  0.00     0.126 A 
ATOM      8  C   UNL A   1      32.532  25.103  21.838  1.00  0.00     0.048 A 
ATOM      9  N   UNL A   1      31.064  26.218  23.326  1.00  0.00    -0.224 NA
ATOM     10  C   UNL A   1      33.260  26.271  21.691  1.00  0.00     0.027 A 
ATOM     11  C   UNL A   1      32.942  27.409  22.446  1.00  0.00     0.072 A 
ATOM     12  Cl  UNL A   1      34.226  28.546  22.457  1.00  0.00    -0.082 Cl
BRANCH   7  13
ATOM     13  N   UNL A   1      30.864  23.930  23.125  1.00  0.00    -0.370 N 
ATOM     14  H   UNL A   1      29.885  23.881  23.215  1.00  0.00     0.162 HD
BRANCH  13  15
ATOM     15  C   UNL A   1      31.706  22.766  23.408  1.00  0.00     0.119 C 
BRANCH  15  16
ATOM     16  C   UNL A   1      32.301  22.810  24.831  1.00  0.00     0.057 C 
BRANCH  16  17
ATOM     17  C   UNL A   1      33.745  22.349  24.872  1.00  0.00    -0.043 A 
ATOM     18  C   UNL A   1      34.730  24.730  24.742  1.00  0.00     0.045 C 
ATOM     19  C   UNL A   1      34.845  23.230  24.758  1.00  0.00    -0.045 A 
ATOM     20  C   UNL A   1      36.143  22.689  24.708  1.00  0.00     0.043 A 
ATOM     21  C   UNL A   1      36.345  21.316  24.756  1.00  0.00     0.123 A 
ATOM     22  C   UNL A   1      33.985  20.962  24.965  1.00  0.00     0.007 A 
ATOM     23  F   UNL A   1      37.590  20.828  24.680  1.00  0.00    -0.207 F 
ATOM     24  C   UNL A   1      35.276  20.446  24.891  1.00  0.00     0.039 A 
ENDBRANCH  16  17
ENDBRANCH  15  16
ENDBRANCH  13  15
ENDBRANCH   7  13
ENDBRANCH   3   6
ENDBRANCH   1   2
BRANCH   1  25
ATOM     25  C   UNL A   1      33.204  27.598  26.413  1.00  0.00     0.042 C 
BRANCH  25  26
ATOM     26  C   UNL A   1      34.126  28.740  26.007  1.00  0.00     0.118 C 
BRANCH  26  27
ATOM     27  N   UNL A   1      33.873  29.960  26.775  1.00  0.00    -0.352 N 
ATOM     28  C   UNL A   1      34.577  30.548  27.789  1.00  0.00     0.251 C 
ATOM     29  H   UNL A   1      33.054  30.441  26.517  1.00  0.00     0.163 HD
ATOM     30  O   UNL A   1      34.053  31.461  28.431  1.00  0.00    -0.269 OA
BRANCH  28  31
ATOM     31  C   UNL A   1      35.945  30.105  28.112  1.00  0.00     0.039 A 
ATOM     32  C   UNL A   1      36.198  29.542  29.366  1.00  0.00     0.014 A 
ATOM     33  C   UNL A   1      36.987  30.289  27.203  1.00  0.00     0.014 A 
ATOM     34  C   UNL A   1      37.493  29.140  29.688  1.00  0.00     0.010 A 
ATOM     35  C   UNL A   1      38.245  29.775  27.477  1.00  0.00     0.010 A 
ATOM     36  C   UNL A   1      38.522  29.237  28.739  1.00  0.00    -0.014 A 
BRANCH  36  37
ATOM     37  C   UNL A   1      39.917  28.862  29.068  1.00  0.00     0.031 A 
ATOM     38  C   UNL A   1      40.811  29.866  29.750  1.00  0.00     0.074 A 
ATOM     39  C   UNL A   1      40.384  27.651  28.714  1.00  0.00     0.049 A 
ATOM     40  N   UNL A   1      42.072  29.757  30.077  1.00  0.00    -0.248 NA
ATOM     41  C   UNL A   1      40.223  31.180  30.074  1.00  0.00     0.031 C 
ATOM     42  C   UNL A   1      39.622  26.619  28.006  1.00  0.00     0.029 A 
ATOM     43  N   UNL A   1      41.617  27.082  28.902  1.00  0.00    -0.354 N 
ATOM     44  C   UNL A   1      42.429  30.988  30.618  1.00  0.00     0.074 A 
ATOM     45  C   UNL A   1      41.277  31.851  30.513  1.00  0.00     0.031 C 
ATOM     46  C   UNL A   1      40.391  25.529  27.857  1.00  0.00     0.029 A 
ATOM     47  C   UNL A   1      41.711  25.799  28.419  1.00  0.00     0.049 A 
ATOM     48  H   UNL A   1      42.364  27.548  29.342  1.00  0.00     0.167 HD
ATOM     49  C   UNL A   1      43.603  31.358  31.181  1.00  0.00     0.031 A 
ATOM     50  C   UNL A   1      42.747  24.938  28.430  1.00  0.00     0.031 A 
ATOM     51  C   UNL A   1      44.734  30.480  31.309  1.00  0.00     0.049 A 
ATOM     52  C   UNL A   1      44.034  25.366  29.080  1.00  0.00     0.074 A 
ATOM     53  C   UNL A   1      45.952  30.730  31.915  1.00  0.00     0.029 A 
ATOM     54  N   UNL A   1      44.779  29.179  30.833  1.00  0.00    -0.354 N 
ATOM     55  N   UNL A   1      44.335  26.515  29.639  1.00  0.00    -0.248 NA
ATOM     56  C   UNL A   1      45.114  24.373  29.123  1.00  0.00     0.031 C 
ATOM     57  C   UNL A   1      46.754  29.596  31.757  1.00  0.00     0.029 A 
ATOM     58  C   UNL A   1      46.011  28.616  31.117  1.00  0.00     0.049 A 
ATOM     59  H   UNL A   1      44.045  28.724  30.361  1.00  0.00     0.167 HD
ATOM     60  C   UNL A   1      45.625  26.367  30.137  1.00  0.00     0.074 A 
ATOM     61  C   UNL A   1      46.039  25.015  29.823  1.00  0.00     0.031 C 
ATOM     62  C   UNL A   1      46.396  27.264  30.801  1.00  0.00     0.031 A 
BRANCH  49  63
ATOM     63  C   UNL A   1      43.716  32.767  31.703  1.00  0.00    -0.014 A 
ATOM     64  C   UNL A   1      44.173  33.816  30.882  1.00  0.00     0.010 A 
ATOM     65  C   UNL A   1      43.321  33.056  33.022  1.00  0.00     0.010 A 
ATOM     66  C   UNL A   1      44.271  35.116  31.383  1.00  0.00     0.020 A 
ATOM     67  C   UNL A   1      43.387  34.362  33.517  1.00  0.00     0.020 A 
ATOM     68  C   UNL A   1      43.876  35.382  32.697  1.00  0.00     0.054 A 
BRANCH  68  69
ATOM     69  S   UNL A   1      43.977  37.087  33.306  1.00  0.00     0.124 S 
ATOM     70  O   UNL A   1      45.227  37.063  34.062  1.00  0.00    -0.237 OA
ATOM     71  O   UNL A   1      44.006  37.865  32.071  1.00  0.00    -0.237 OA
ATOM     72  O   UNL A   1      42.767  37.242  34.109  1.00  0.00    -0.744 OA
ENDBRANCH  68  69
ENDBRANCH  49  63
BRANCH  50  73
ATOM     73  C   UNL A   1      42.597  23.581  27.837  1.00  0.00    -0.014 A 
ATOM     74  C   UNL A   1      42.908  23.351  26.486  1.00  0.00     0.010 A 
ATOM     75  C   UNL A   1      42.142  22.507  28.624  1.00  0.00     0.010 A 
ATOM     76  C   UNL A   1      42.737  22.083  25.923  1.00  0.00     0.020 A 
ATOM     77  C   UNL A   1      42.001  21.230  28.074  1.00  0.00     0.020 A 
ATOM     78  C   UNL A   1      42.285  21.030  26.723  1.00  0.00     0.054 A 
BRANCH  78  79
ATOM     79  S   UNL A   1      42.100  19.384  25.980  1.00  0.00     0.124 S 
ATOM     80  O   UNL A   1      40.662  19.319  25.740  1.00  0.00    -0.237 OA
ATOM     81  O   UNL A   1      42.937  19.482  24.786  1.00  0.00    -0.237 OA
ATOM     82  O   UNL A   1      42.605  18.484  27.014  1.00  0.00    -0.744 OA
ENDBRANCH  78  79
ENDBRANCH  50  73
BRANCH  62  83
ATOM     83  C   UNL A   1      47.739  26.791  31.291  1.00  0.00    -0.014 A 
ATOM     84  C   UNL A   1      48.895  26.903  30.498  1.00  0.00     0.010 A 
ATOM     85  C   UNL A   1      47.845  26.259  32.588  1.00  0.00     0.010 A 
ATOM     86  C   UNL A   1      50.123  26.441  30.978  1.00  0.00     0.020 A 
ATOM     87  C   UNL A   1      49.077  25.829  33.084  1.00  0.00     0.020 A 
ATOM     88  C   UNL A   1      50.205  25.903  32.266  1.00  0.00     0.054 A 
BRANCH  88  89
ATOM     89  S   UNL A   1      51.813  25.325  32.872  1.00  0.00     0.124 S 
ATOM     90  O   UNL A   1      51.642  25.420  34.319  1.00  0.00    -0.237 OA
ATOM     91  O   UNL A   1      51.888  23.968  32.335  1.00  0.00    -0.237 OA
ATOM     92  O   UNL A   1      52.763  26.271  32.293  1.00  0.00    -0.744 OA
ENDBRANCH  88  89
ENDBRANCH  62  83
ENDBRANCH  36  37
ENDBRANCH  28  31
ENDBRANCH  26  27
ENDBRANCH  25  26
ENDBRANCH   1  25
TORSDOF 17
ENDMDL
MODEL 3
REMARK VINA RESULT:     -10.4      3.445      9.291
REMARK SMILES Cc1cc(F)ccc1CCNc1ccc(Cl)c(C(=O)NCCCNC(=O)c2ccc(-c3c4nc(c(-c5ccc(S(=O)(=O)[O-])cc5)c5ccc([nH]5)c(-c5ccc(S(=O)(=O)[O-])cc5)c5nc(c(-c6ccc(S(=O)(=O)[O-])cc6)c6ccc3[nH]6)C=C5)C=C4)cc2)n1
REMARK SMILES IDX 21 1 20 2 18 3 19 4 17 6 12 7 13 8 87 9 14 10 15 11 16 12
REMARK SMILES IDX 11 13 10 15 9 16 8 17 1 18 2 19 3 20 4 21 7 22 5 23 6 24
REMARK SMILES IDX 22 25 23 26 24 27 25 28 26 30 27 31 28 32 86 33 29 34 85 35
REMARK SMILES IDX 30 36 31 37 32 38 79 39 33 40 84 41 78 42 80 43 34 44 83 45
REMARK SMILES IDX 77 46 76 47 35 49 65 50 46 51 64 52 47 53 50 54 63 55 81 56
REMARK SMILES IDX 48 57 49 58 62 60 82 61 51 62 36 63 37 64 45 65 38 66 44 67
REMARK SMILES IDX 39 68 40 69 41 70 42 71 43 72 66 73 67 74 75 75 68 76 74 77
REMARK SMILES IDX 69 78 70 79 71 80 72 81 73 82 52 83 53 84 61 85 54 86 60 87
REMARK SMILES IDX 55 88 56 89 57 90 58 91 59 92
REMARK H PARENT 20 5 11 14 24 29 80 48 50 59
REMARK Flexibility Score: inf
ROOT
ATOM      1  C   UNL A   1      31.997  28.400  27.276  1.00  0.00     0.118 C 
ENDROOT
BRANCH   1   2
ATOM      2  N   UNL A   1      31.042  27.352  27.039  1.00  0.00    -0.351 N 
ATOM      3  C   UNL A   1      30.753  26.489  26.016  1.00  0.00     0.271 C 
ATOM      4  O   UNL A   1      30.006  25.564  26.374  1.00  0.00    -0.267 OA
ATOM      5  H   UNL A   1      30.443  27.221  27.808  1.00  0.00     0.163 HD
BRANCH   3   6
ATOM      6  C   UNL A   1      31.132  26.566  24.549  1.00  0.00     0.149 A 
ATOM      7  C   UNL A   1      32.897  25.819  23.167  1.00  0.00     0.126 A 
ATOM      8  C   UNL A   1      32.288  26.322  22.041  1.00  0.00     0.048 A 
ATOM      9  N   UNL A   1      32.300  25.860  24.364  1.00  0.00    -0.224 NA
ATOM     10  C   UNL A   1      31.108  27.028  22.194  1.00  0.00     0.027 A 
ATOM     11  C   UNL A   1      30.561  27.235  23.468  1.00  0.00     0.072 A 
ATOM     12  Cl  UNL A   1      29.401  28.500  23.467  1.00  0.00    -0.082 Cl
BRANCH   7  13
ATOM     13  N   UNL A   1      34.183  25.323  23.148  1.00  0.00    -0.370 N 
ATOM     14  H   UNL A   1      34.818  25.585  22.443  1.00  0.00     0.162 HD
BRANCH  13  15
ATOM     15  C   UNL A   1      34.577  24.395  24.210  1.00  0.00     0.119 C 
BRANCH  15  16
ATOM     16  C   UNL A   1      35.187  23.094  23.649  1.00  0.00     0.057 C 
BRANCH  16  17
ATOM     17  C   UNL A   1      34.429  21.858  24.092  1.00  0.00    -0.043 A 
ATOM     18  C   UNL A   1      36.493  20.702  25.122  1.00  0.00     0.045 C 
ATOM     19  C   UNL A   1      35.049  20.741  24.699  1.00  0.00    -0.045 A 
ATOM     20  C   UNL A   1      34.271  19.604  24.982  1.00  0.00     0.043 A 
ATOM     21  C   UNL A   1      32.920  19.569  24.661  1.00  0.00     0.123 A 
ATOM     22  C   UNL A   1      33.045  21.809  23.821  1.00  0.00     0.007 A 
ATOM     23  F   UNL A   1      32.209  18.463  24.918  1.00  0.00    -0.207 F 
ATOM     24  C   UNL A   1      32.298  20.665  24.088  1.00  0.00     0.039 A 
ENDBRANCH  16  17
ENDBRANCH  15  16
ENDBRANCH  13  15
ENDBRANCH   7  13
ENDBRANCH   3   6
ENDBRANCH   1   2
BRANCH   1  25
ATOM     25  C   UNL A   1      33.428  28.039  26.922  1.00  0.00     0.042 C 
BRANCH  25  26
ATOM     26  C   UNL A   1      34.106  29.131  26.105  1.00  0.00     0.118 C 
BRANCH  26  27
ATOM     27  N   UNL A   1      33.829  30.469  26.626  1.00  0.00    -0.352 N 
ATOM     28  C   UNL A   1      34.392  31.169  27.657  1.00  0.00     0.251 C 
ATOM     29  H   UNL A   1      33.113  30.951  26.153  1.00  0.00     0.163 HD
ATOM     30  O   UNL A   1      33.844  32.202  28.050  1.00  0.00    -0.269 OA
BRANCH  28  31
ATOM     31  C   UNL A   1      35.638  30.704  28.291  1.00  0.00     0.039 A 
ATOM     32  C   UNL A   1      35.570  29.726  29.287  1.00  0.00     0.014 A 
ATOM     33  C   UNL A   1      36.868  31.263  27.942  1.00  0.00     0.014 A 
ATOM     34  C   UNL A   1      36.741  29.295  29.908  1.00  0.00     0.010 A 
ATOM     35  C   UNL A   1      38.040  30.745  28.469  1.00  0.00     0.010 A 
ATOM     36  C   UNL A   1      37.986  29.789  29.490  1.00  0.00    -0.014 A 
BRANCH  36  37
ATOM     37  C   UNL A   1      39.243  29.386  30.162  1.00  0.00     0.031 A 
ATOM     38  C   UNL A   1      39.677  30.105  31.414  1.00  0.00     0.074 A 
ATOM     39  C   UNL A   1      40.007  28.417  29.624  1.00  0.00     0.049 A 
ATOM     40  N   UNL A   1      40.763  29.943  32.122  1.00  0.00    -0.248 NA
ATOM     41  C   UNL A   1      38.793  31.175  31.915  1.00  0.00     0.031 C 
ATOM     42  C   UNL A   1      39.709  27.686  28.389  1.00  0.00     0.029 A 
ATOM     43  N   UNL A   1      41.193  27.878  30.050  1.00  0.00    -0.354 N 
ATOM     44  C   UNL A   1      40.702  30.900  33.130  1.00  0.00     0.074 A 
ATOM     45  C   UNL A   1      39.512  31.684  32.903  1.00  0.00     0.031 C 
ATOM     46  C   UNL A   1      40.666  26.768  28.180  1.00  0.00     0.029 A 
ATOM     47  C   UNL A   1      41.664  26.873  29.240  1.00  0.00     0.049 A 
ATOM     48  H   UNL A   1      41.663  28.182  30.859  1.00  0.00     0.167 HD
ATOM     49  C   UNL A   1      41.547  31.090  34.171  1.00  0.00     0.031 A 
ATOM     50  C   UNL A   1      42.775  26.120  29.343  1.00  0.00     0.031 A 
ATOM     51  C   UNL A   1      42.713  30.282  34.405  1.00  0.00     0.049 A 
ATOM     52  C   UNL A   1      43.687  26.337  30.521  1.00  0.00     0.074 A 
ATOM     53  C   UNL A   1      43.606  30.347  35.459  1.00  0.00     0.029 A 
ATOM     54  N   UNL A   1      43.139  29.255  33.577  1.00  0.00    -0.354 N 
ATOM     55  N   UNL A   1      43.584  27.208  31.496  1.00  0.00    -0.248 NA
ATOM     56  C   UNL A   1      44.854  25.451  30.623  1.00  0.00     0.031 C 
ATOM     57  C   UNL A   1      44.604  29.392  35.240  1.00  0.00     0.029 A 
ATOM     58  C   UNL A   1      44.292  28.687  34.088  1.00  0.00     0.049 A 
ATOM     59  H   UNL A   1      42.690  28.973  32.748  1.00  0.00     0.167 HD
ATOM     60  C   UNL A   1      44.648  26.947  32.351  1.00  0.00     0.074 A 
ATOM     61  C   UNL A   1      45.374  25.830  31.783  1.00  0.00     0.031 C 
ATOM     62  C   UNL A   1      44.992  27.569  33.507  1.00  0.00     0.031 A 
BRANCH  49  63
ATOM     63  C   UNL A   1      41.234  32.207  35.131  1.00  0.00    -0.014 A 
ATOM     64  C   UNL A   1      41.759  33.501  34.945  1.00  0.00     0.010 A 
ATOM     65  C   UNL A   1      40.369  31.973  36.217  1.00  0.00     0.010 A 
ATOM     66  C   UNL A   1      41.459  34.525  35.846  1.00  0.00     0.020 A 
ATOM     67  C   UNL A   1      40.039  33.004  37.102  1.00  0.00     0.020 A 
ATOM     68  C   UNL A   1      40.599  34.271  36.918  1.00  0.00     0.054 A 
BRANCH  68  69
ATOM     69  S   UNL A   1      40.195  35.630  38.048  1.00  0.00     0.124 S 
ATOM     70  O   UNL A   1      41.392  35.693  38.884  1.00  0.00    -0.237 OA
ATOM     71  O   UNL A   1      40.006  36.756  37.137  1.00  0.00    -0.237 OA
ATOM     72  O   UNL A   1      38.986  35.171  38.727  1.00  0.00    -0.744 OA
ENDBRANCH  68  69
ENDBRANCH  49  63
BRANCH  50  73
ATOM     73  C   UNL A   1      43.068  25.075  28.324  1.00  0.00    -0.014 A 
ATOM     74  C   UNL A   1      42.621  23.754  28.504  1.00  0.00     0.010 A 
ATOM     75  C   UNL A   1      43.795  25.397  27.163  1.00  0.00     0.010 A 
ATOM     76  C   UNL A   1      42.923  22.768  27.560  1.00  0.00     0.020 A 
ATOM     77  C   UNL A   1      44.070  24.422  26.201  1.00  0.00     0.020 A 
ATOM     78  C   UNL A   1      43.647  23.109  26.414  1.00  0.00     0.054 A 
BRANCH  78  79
ATOM     79  S   UNL A   1      44.001  21.820  25.186  1.00  0.00     0.124 S 
ATOM     80  O   UNL A   1      43.875  22.553  23.931  1.00  0.00    -0.237 OA
ATOM     81  O   UNL A   1      45.356  21.408  25.546  1.00  0.00    -0.237 OA
ATOM     82  O   UNL A   1      42.968  20.818  25.435  1.00  0.00    -0.744 OA
ENDBRANCH  78  79
ENDBRANCH  50  73
BRANCH  62  83
ATOM     83  C   UNL A   1      46.167  27.012  34.267  1.00  0.00    -0.014 A 
ATOM     84  C   UNL A   1      46.009  26.007  35.238  1.00  0.00     0.010 A 
ATOM     85  C   UNL A   1      47.458  27.484  33.970  1.00  0.00     0.010 A 
ATOM     86  C   UNL A   1      47.119  25.524  35.935  1.00  0.00     0.020 A 
ATOM     87  C   UNL A   1      48.573  26.977  34.640  1.00  0.00     0.020 A 
ATOM     88  C   UNL A   1      48.393  26.015  35.634  1.00  0.00     0.054 A 
BRANCH  88  89
ATOM     89  S   UNL A   1      49.819  25.359  36.541  1.00  0.00     0.124 S 
ATOM     90  O   UNL A   1      49.254  25.131  37.868  1.00  0.00    -0.237 OA
ATOM     91  O   UNL A   1      50.153  24.154  35.785  1.00  0.00    -0.237 OA
ATOM     92  O   UNL A   1      50.806  26.432  36.460  1.00  0.00    -0.744 OA
ENDBRANCH  88  89
ENDBRANCH  62  83
ENDBRANCH  36  37
ENDBRANCH  28  31
ENDBRANCH  26  27
ENDBRANCH  25  26
ENDBRANCH   1  25
TORSDOF 17
ENDMDL
