MODEL 1
REMARK VINA RESULT:     -10.5      0.000      0.000
REMARK SMILES CN(C(=O)N[C@@](C)(C(=O)NCCCNC(=O)c1ccc(-c2c3nc(c(-c4ccc(S(=O)(=O)[O-])cc4)c4ccc([nH]4)c(-c4ccc(S(=O)(=O)[O-])cc4)c4nc(c(-c5ccc(S(=O)(=O)[O-])cc5)c5ccc2[nH]5)C=C4)C=C3)cc1)C(F)(F)F)c1ccc(F)cc1
REMARK SMILES IDX 12 1 11 2 10 3 8 4 9 5 6 7 7 8 5 9 3 10 4 11 2 13 1 14 81 15
REMARK SMILES IDX 82 16 87 17 83 18 86 19 84 20 85 21 77 22 78 23 79 24 80 25
REMARK SMILES IDX 13 26 14 27 15 28 16 30 17 31 18 32 76 33 19 34 75 35 20 36
REMARK SMILES IDX 21 37 22 38 69 39 23 40 74 41 68 42 70 43 24 44 73 45 67 46
REMARK SMILES IDX 66 47 25 49 55 50 36 51 54 52 37 53 40 54 53 55 71 56 38 57
REMARK SMILES IDX 39 58 52 60 72 61 41 62 26 63 27 64 35 65 28 66 34 67 29 68
REMARK SMILES IDX 30 69 31 70 32 71 33 72 56 73 57 74 65 75 58 76 64 77 59 78
REMARK SMILES IDX 60 79 61 80 62 81 63 82 42 83 43 84 51 85 44 86 50 87 45 88
REMARK SMILES IDX 46 89 47 90 48 91 49 92
REMARK H PARENT 10 6 5 12 14 29 70 48 40 59
REMARK Flexibility Score: inf
ROOT
ATOM      1  C   UNL A   1      36.373  23.987  24.802  1.00  0.00     0.042 C 
ENDROOT
BRANCH   1   2
ATOM      2  C   UNL A   1      35.175  23.648  23.925  1.00  0.00     0.117 C 
BRANCH   2   3
ATOM      3  N   UNL A   1      34.537  22.413  24.341  1.00  0.00    -0.354 N 
ATOM      4  C   UNL A   1      33.368  22.097  24.953  1.00  0.00     0.255 C 
ATOM      5  O   UNL A   1      33.293  20.910  25.288  1.00  0.00    -0.272 OA
ATOM      6  H   UNL A   1      35.079  21.619  24.130  1.00  0.00     0.163 HD
BRANCH   4   7
ATOM      7  C   UNL A   1      32.253  23.120  25.288  1.00  0.00     0.213 C 
ATOM      8  C   UNL A   1      30.907  22.448  25.625  1.00  0.00     0.056 C 
BRANCH   7   9
ATOM      9  N   UNL A   1      32.062  23.933  24.028  1.00  0.00    -0.316 N 
ATOM     10  C   UNL A   1      31.733  25.126  23.510  1.00  0.00     0.322 C 
ATOM     11  O   UNL A   1      32.095  25.232  22.331  1.00  0.00    -0.248 OA
ATOM     12  H   UNL A   1      32.262  23.338  23.270  1.00  0.00     0.166 HD
BRANCH  10  13
ATOM     13  N   UNL A   1      31.077  26.123  24.171  1.00  0.00    -0.298 N 
ATOM     14  C   UNL A   1      29.743  26.605  23.874  1.00  0.00     0.155 C 
BRANCH  13  15
ATOM     15  C   UNL A   1      31.781  26.995  25.071  1.00  0.00     0.045 A 
ATOM     16  C   UNL A   1      31.300  27.245  26.364  1.00  0.00     0.029 A 
ATOM     17  C   UNL A   1      33.064  27.451  24.720  1.00  0.00     0.029 A 
ATOM     18  C   UNL A   1      32.115  27.883  27.306  1.00  0.00     0.041 A 
ATOM     19  C   UNL A   1      33.865  28.109  25.654  1.00  0.00     0.041 A 
ATOM     20  C   UNL A   1      33.391  28.299  26.945  1.00  0.00     0.123 A 
ATOM     21  F   UNL A   1      34.186  28.870  27.860  1.00  0.00    -0.207 F 
ENDBRANCH  13  15
ENDBRANCH  10  13
ENDBRANCH   7   9
BRANCH   7  22
ATOM     22  C   UNL A   1      32.764  23.717  26.624  1.00  0.00     0.420 C 
ATOM     23  F   UNL A   1      33.576  24.780  26.483  1.00  0.00    -0.168 F 
ATOM     24  F   UNL A   1      31.736  24.095  27.429  1.00  0.00    -0.168 F 
ATOM     25  F   UNL A   1      33.430  22.786  27.360  1.00  0.00    -0.168 F 
ENDBRANCH   7  22
ENDBRANCH   4   7
ENDBRANCH   2   3
ENDBRANCH   1   2
BRANCH   1  26
ATOM     26  C   UNL A   1      36.541  23.102  26.031  1.00  0.00     0.118 C 
BRANCH  26  27
ATOM     27  N   UNL A   1      37.767  22.316  26.011  1.00  0.00    -0.352 N 
ATOM     28  C   UNL A   1      39.056  22.697  26.299  1.00  0.00     0.251 C 
ATOM     29  H   UNL A   1      37.657  21.373  25.753  1.00  0.00     0.163 HD
ATOM     30  O   UNL A   1      39.986  21.929  26.060  1.00  0.00    -0.269 OA
BRANCH  28  31
ATOM     31  C   UNL A   1      39.324  24.039  26.861  1.00  0.00     0.039 A 
ATOM     32  C   UNL A   1      38.926  24.318  28.171  1.00  0.00     0.014 A 
ATOM     33  C   UNL A   1      39.987  25.010  26.108  1.00  0.00     0.014 A 
ATOM     34  C   UNL A   1      39.268  25.542  28.749  1.00  0.00     0.010 A 
ATOM     35  C   UNL A   1      40.410  26.188  26.717  1.00  0.00     0.010 A 
ATOM     36  C   UNL A   1      40.055  26.468  28.044  1.00  0.00    -0.014 A 
BRANCH  36  37
ATOM     37  C   UNL A   1      40.524  27.730  28.676  1.00  0.00     0.031 A 
ATOM     38  C   UNL A   1      41.912  27.818  29.251  1.00  0.00     0.074 A 
ATOM     39  C   UNL A   1      39.676  28.771  28.794  1.00  0.00     0.049 A 
ATOM     40  N   UNL A   1      42.474  28.806  29.898  1.00  0.00    -0.248 NA
ATOM     41  C   UNL A   1      42.772  26.631  29.104  1.00  0.00     0.031 C 
ATOM     42  C   UNL A   1      38.290  28.797  28.317  1.00  0.00     0.029 A 
ATOM     43  N   UNL A   1      39.851  30.009  29.362  1.00  0.00    -0.354 N 
ATOM     44  C   UNL A   1      43.743  28.356  30.249  1.00  0.00     0.074 A 
ATOM     45  C   UNL A   1      43.846  26.987  29.793  1.00  0.00     0.031 C 
ATOM     46  C   UNL A   1      37.755  29.999  28.582  1.00  0.00     0.029 A 
ATOM     47  C   UNL A   1      38.736  30.813  29.292  1.00  0.00     0.049 A 
ATOM     48  H   UNL A   1      40.695  30.295  29.780  1.00  0.00     0.167 HD
ATOM     49  C   UNL A   1      44.738  29.025  30.876  1.00  0.00     0.031 A 
ATOM     50  C   UNL A   1      38.522  32.059  29.755  1.00  0.00     0.031 A 
ATOM     51  C   UNL A   1      44.633  30.389  31.324  1.00  0.00     0.049 A 
ATOM     52  C   UNL A   1      39.637  32.776  30.469  1.00  0.00     0.074 A 
ATOM     53  C   UNL A   1      45.603  31.175  31.920  1.00  0.00     0.029 A 
ATOM     54  N   UNL A   1      43.488  31.167  31.233  1.00  0.00    -0.354 N 
ATOM     55  N   UNL A   1      40.852  32.356  30.729  1.00  0.00    -0.248 NA
ATOM     56  C   UNL A   1      39.352  34.137  30.943  1.00  0.00     0.031 C 
ATOM     57  C   UNL A   1      45.027  32.407  32.245  1.00  0.00     0.029 A 
ATOM     58  C   UNL A   1      43.719  32.415  31.789  1.00  0.00     0.049 A 
ATOM     59  H   UNL A   1      42.638  30.876  30.832  1.00  0.00     0.167 HD
ATOM     60  C   UNL A   1      41.486  33.413  31.374  1.00  0.00     0.074 A 
ATOM     61  C   UNL A   1      40.526  34.495  31.448  1.00  0.00     0.031 C 
ATOM     62  C   UNL A   1      42.750  33.481  31.861  1.00  0.00     0.031 A 
BRANCH  49  63
ATOM     63  C   UNL A   1      46.029  28.286  31.122  1.00  0.00    -0.014 A 
ATOM     64  C   UNL A   1      46.278  27.644  32.350  1.00  0.00     0.010 A 
ATOM     65  C   UNL A   1      46.993  28.202  30.101  1.00  0.00     0.010 A 
ATOM     66  C   UNL A   1      47.485  26.973  32.567  1.00  0.00     0.020 A 
ATOM     67  C   UNL A   1      48.188  27.505  30.303  1.00  0.00     0.020 A 
ATOM     68  C   UNL A   1      48.433  26.910  31.543  1.00  0.00     0.054 A 
BRANCH  68  69
ATOM     69  S   UNL A   1      49.982  26.018  31.849  1.00  0.00     0.124 S 
ATOM     70  O   UNL A   1      49.559  24.996  32.802  1.00  0.00    -0.237 OA
ATOM     71  O   UNL A   1      50.335  25.526  30.518  1.00  0.00    -0.237 OA
ATOM     72  O   UNL A   1      50.873  27.041  32.387  1.00  0.00    -0.744 OA
ENDBRANCH  68  69
ENDBRANCH  49  63
BRANCH  50  73
ATOM     73  C   UNL A   1      37.201  32.714  29.547  1.00  0.00    -0.014 A 
ATOM     74  C   UNL A   1      36.226  32.695  30.561  1.00  0.00     0.010 A 
ATOM     75  C   UNL A   1      36.915  33.376  28.338  1.00  0.00     0.010 A 
ATOM     76  C   UNL A   1      34.986  33.311  30.364  1.00  0.00     0.020 A 
ATOM     77  C   UNL A   1      35.688  34.020  28.150  1.00  0.00     0.020 A 
ATOM     78  C   UNL A   1      34.727  33.974  29.161  1.00  0.00     0.054 A 
BRANCH  78  79
ATOM     79  S   UNL A   1      33.132  34.813  28.952  1.00  0.00     0.124 S 
ATOM     80  O   UNL A   1      32.590  34.779  30.307  1.00  0.00    -0.237 OA
ATOM     81  O   UNL A   1      33.533  36.131  28.464  1.00  0.00    -0.237 OA
ATOM     82  O   UNL A   1      32.434  33.982  27.975  1.00  0.00    -0.744 OA
ENDBRANCH  78  79
ENDBRANCH  50  73
BRANCH  62  83
ATOM     83  C   UNL A   1      43.182  34.779  32.492  1.00  0.00    -0.014 A 
ATOM     84  C   UNL A   1      43.886  35.750  31.760  1.00  0.00     0.010 A 
ATOM     85  C   UNL A   1      42.829  35.050  33.827  1.00  0.00     0.010 A 
ATOM     86  C   UNL A   1      44.258  36.955  32.360  1.00  0.00     0.020 A 
ATOM     87  C   UNL A   1      43.170  36.268  34.421  1.00  0.00     0.020 A 
ATOM     88  C   UNL A   1      43.897  37.207  33.688  1.00  0.00     0.054 A 
BRANCH  88  89
ATOM     89  S   UNL A   1      44.354  38.798  34.429  1.00  0.00     0.124 S 
ATOM     90  O   UNL A   1      44.414  38.466  35.850  1.00  0.00    -0.237 OA
ATOM     91  O   UNL A   1      45.638  39.089  33.796  1.00  0.00    -0.237 OA
ATOM     92  O   UNL A   1      43.260  39.687  34.044  1.00  0.00    -0.744 OA
ENDBRANCH  88  89
ENDBRANCH  62  83
ENDBRANCH  36  37
ENDBRANCH  28  31
ENDBRANCH  26  27
ENDBRANCH   1  26
TORSDOF 17
ENDMDL
MODEL 2
REMARK VINA RESULT:     -10.5      2.581      8.990
REMARK SMILES CN(C(=O)N[C@@](C)(C(=O)NCCCNC(=O)c1ccc(-c2c3nc(c(-c4ccc(S(=O)(=O)[O-])cc4)c4ccc([nH]4)c(-c4ccc(S(=O)(=O)[O-])cc4)c4nc(c(-c5ccc(S(=O)(=O)[O-])cc5)c5ccc2[nH]5)C=C4)C=C3)cc1)C(F)(F)F)c1ccc(F)cc1
REMARK SMILES IDX 12 1 11 2 10 3 8 4 9 5 6 7 7 8 5 9 3 10 4 11 2 13 1 14 81 15
REMARK SMILES IDX 82 16 87 17 83 18 86 19 84 20 85 21 77 22 78 23 79 24 80 25
REMARK SMILES IDX 13 26 14 27 15 28 16 30 17 31 18 32 76 33 19 34 75 35 20 36
REMARK SMILES IDX 21 37 22 38 69 39 23 40 74 41 68 42 70 43 24 44 73 45 67 46
REMARK SMILES IDX 66 47 25 49 55 50 36 51 54 52 37 53 40 54 53 55 71 56 38 57
REMARK SMILES IDX 39 58 52 60 72 61 41 62 26 63 27 64 35 65 28 66 34 67 29 68
REMARK SMILES IDX 30 69 31 70 32 71 33 72 56 73 57 74 65 75 58 76 64 77 59 78
REMARK SMILES IDX 60 79 61 80 62 81 63 82 42 83 43 84 51 85 44 86 50 87 45 88
REMARK SMILES IDX 46 89 47 90 48 91 49 92
REMARK H PARENT 10 6 5 12 14 29 70 48 40 59
REMARK Flexibility Score: inf
ROOT
ATOM      1  C   UNL A   1      33.466  28.063  25.850  1.00  0.00     0.042 C 
ENDROOT
BRANCH   1   2
ATOM      2  C   UNL A   1      34.102  26.713  25.549  1.00  0.00     0.117 C 
BRANCH   2   3
ATOM      3  N   UNL A   1      33.286  25.615  26.033  1.00  0.00    -0.354 N 
ATOM      4  C   UNL A   1      32.120  25.042  25.641  1.00  0.00     0.255 C 
ATOM      5  O   UNL A   1      31.674  24.226  26.456  1.00  0.00    -0.272 OA
ATOM      6  H   UNL A   1      33.667  25.186  26.834  1.00  0.00     0.163 HD
BRANCH   4   7
ATOM      7  C   UNL A   1      31.356  25.414  24.345  1.00  0.00     0.213 C 
ATOM      8  C   UNL A   1      30.473  24.264  23.821  1.00  0.00     0.056 C 
BRANCH   7   9
ATOM      9  N   UNL A   1      32.426  25.684  23.312  1.00  0.00    -0.316 N 
ATOM     10  C   UNL A   1      33.218  25.160  22.364  1.00  0.00     0.322 C 
ATOM     11  O   UNL A   1      33.680  26.032  21.617  1.00  0.00    -0.248 OA
ATOM     12  H   UNL A   1      32.624  26.648  23.350  1.00  0.00     0.166 HD
BRANCH  10  13
ATOM     13  N   UNL A   1      33.504  23.835  22.215  1.00  0.00    -0.298 N 
ATOM     14  C   UNL A   1      32.905  22.940  21.245  1.00  0.00     0.155 C 
BRANCH  13  15
ATOM     15  C   UNL A   1      34.246  23.126  23.222  1.00  0.00     0.045 A 
ATOM     16  C   UNL A   1      33.668  22.068  23.938  1.00  0.00     0.029 A 
ATOM     17  C   UNL A   1      35.625  23.369  23.357  1.00  0.00     0.029 A 
ATOM     18  C   UNL A   1      34.468  21.231  24.723  1.00  0.00     0.041 A 
ATOM     19  C   UNL A   1      36.416  22.548  24.161  1.00  0.00     0.041 A 
ATOM     20  C   UNL A   1      35.834  21.473  24.818  1.00  0.00     0.123 A 
ATOM     21  F   UNL A   1      36.605  20.645  25.535  1.00  0.00    -0.207 F 
ENDBRANCH  13  15
ENDBRANCH  10  13
ENDBRANCH   7   9
BRANCH   7  22
ATOM     22  C   UNL A   1      30.369  26.493  24.859  1.00  0.00     0.420 C 
ATOM     23  F   UNL A   1      30.486  27.688  24.251  1.00  0.00    -0.168 F 
ATOM     24  F   UNL A   1      29.077  26.093  24.726  1.00  0.00    -0.168 F 
ATOM     25  F   UNL A   1      30.513  26.698  26.197  1.00  0.00    -0.168 F 
ENDBRANCH   7  22
ENDBRANCH   4   7
ENDBRANCH   2   3
ENDBRANCH   1   2
BRANCH   1  26
ATOM     26  C   UNL A   1      33.387  28.422  27.329  1.00  0.00     0.118 C 
BRANCH  26  27
ATOM     27  N   UNL A   1      33.379  29.858  27.574  1.00  0.00    -0.352 N 
ATOM     28  C   UNL A   1      34.363  30.663  28.098  1.00  0.00     0.251 C 
ATOM     29  H   UNL A   1      32.546  30.320  27.328  1.00  0.00     0.163 HD
ATOM     30  O   UNL A   1      34.106  31.829  28.386  1.00  0.00    -0.269 OA
BRANCH  28  31
ATOM     31  C   UNL A   1      35.714  30.115  28.346  1.00  0.00     0.039 A 
ATOM     32  C   UNL A   1      36.650  30.121  27.309  1.00  0.00     0.014 A 
ATOM     33  C   UNL A   1      36.065  29.619  29.604  1.00  0.00     0.014 A 
ATOM     34  C   UNL A   1      37.960  29.706  27.560  1.00  0.00     0.010 A 
ATOM     35  C   UNL A   1      37.392  29.299  29.876  1.00  0.00     0.010 A 
ATOM     36  C   UNL A   1      38.355  29.338  28.857  1.00  0.00    -0.014 A 
BRANCH  36  37
ATOM     37  C   UNL A   1      39.767  28.998  29.172  1.00  0.00     0.031 A 
ATOM     38  C   UNL A   1      40.671  30.027  29.795  1.00  0.00     0.074 A 
ATOM     39  C   UNL A   1      40.253  27.787  28.833  1.00  0.00     0.049 A 
ATOM     40  N   UNL A   1      41.946  29.939  30.080  1.00  0.00    -0.248 NA
ATOM     41  C   UNL A   1      40.075  31.335  30.115  1.00  0.00     0.031 C 
ATOM     42  C   UNL A   1      39.490  26.717  28.185  1.00  0.00     0.029 A 
ATOM     43  N   UNL A   1      41.510  27.254  28.978  1.00  0.00    -0.354 N 
ATOM     44  C   UNL A   1      42.305  31.181  30.594  1.00  0.00     0.074 A 
ATOM     45  C   UNL A   1      41.130  32.020  30.530  1.00  0.00     0.031 C 
ATOM     46  C   UNL A   1      40.284  25.648  28.019  1.00  0.00     0.029 A 
ATOM     47  C   UNL A   1      41.624  25.968  28.500  1.00  0.00     0.049 A 
ATOM     48  H   UNL A   1      42.260  27.745  29.386  1.00  0.00     0.167 HD
ATOM     49  C   UNL A   1      43.498  31.580  31.094  1.00  0.00     0.031 A 
ATOM     50  C   UNL A   1      42.688  25.144  28.444  1.00  0.00     0.031 A 
ATOM     51  C   UNL A   1      44.665  30.739  31.160  1.00  0.00     0.049 A 
ATOM     52  C   UNL A   1      44.010  25.617  28.985  1.00  0.00     0.074 A 
ATOM     53  C   UNL A   1      45.905  31.031  31.698  1.00  0.00     0.029 A 
ATOM     54  N   UNL A   1      44.738  29.444  30.667  1.00  0.00    -0.354 N 
ATOM     55  N   UNL A   1      44.310  26.772  29.531  1.00  0.00    -0.248 NA
ATOM     56  C   UNL A   1      45.133  24.674  28.908  1.00  0.00     0.031 C 
ATOM     57  C   UNL A   1      46.747  29.937  31.475  1.00  0.00     0.029 A 
ATOM     58  C   UNL A   1      46.012  28.936  30.861  1.00  0.00     0.049 A 
ATOM     59  H   UNL A   1      43.994  28.959  30.243  1.00  0.00     0.167 HD
ATOM     60  C   UNL A   1      45.651  26.682  29.888  1.00  0.00     0.074 A 
ATOM     61  C   UNL A   1      46.097  25.356  29.512  1.00  0.00     0.031 C 
ATOM     62  C   UNL A   1      46.442  27.614  30.476  1.00  0.00     0.031 A 
BRANCH  49  63
ATOM     63  C   UNL A   1      43.604  32.996  31.601  1.00  0.00    -0.014 A 
ATOM     64  C   UNL A   1      43.327  33.312  32.944  1.00  0.00     0.010 A 
ATOM     65  C   UNL A   1      44.018  34.021  30.730  1.00  0.00     0.010 A 
ATOM     66  C   UNL A   1      43.418  34.631  33.395  1.00  0.00     0.020 A 
ATOM     67  C   UNL A   1      44.140  35.337  31.186  1.00  0.00     0.020 A 
ATOM     68  C   UNL A   1      43.822  35.636  32.513  1.00  0.00     0.054 A 
BRANCH  68  69
ATOM     69  S   UNL A   1      43.947  37.336  33.131  1.00  0.00     0.124 S 
ATOM     70  O   UNL A   1      43.858  38.113  31.897  1.00  0.00    -0.237 OA
ATOM     71  O   UNL A   1      42.791  37.438  34.020  1.00  0.00    -0.237 OA
ATOM     72  O   UNL A   1      45.246  37.370  33.796  1.00  0.00    -0.744 OA
ENDBRANCH  68  69
ENDBRANCH  49  63
BRANCH  50  73
ATOM     73  C   UNL A   1      42.542  23.779  27.865  1.00  0.00    -0.014 A 
ATOM     74  C   UNL A   1      42.386  22.660  28.702  1.00  0.00     0.010 A 
ATOM     75  C   UNL A   1      42.541  23.593  26.470  1.00  0.00     0.010 A 
ATOM     76  C   UNL A   1      42.249  21.380  28.157  1.00  0.00     0.020 A 
ATOM     77  C   UNL A   1      42.373  22.318  25.920  1.00  0.00     0.020 A 
ATOM     78  C   UNL A   1      42.238  21.218  26.769  1.00  0.00     0.054 A 
BRANCH  78  79
ATOM     79  S   UNL A   1      42.001  19.554  26.086  1.00  0.00     0.124 S 
ATOM     80  O   UNL A   1      40.570  19.542  25.800  1.00  0.00    -0.237 OA
ATOM     81  O   UNL A   1      42.880  19.566  24.919  1.00  0.00    -0.237 OA
ATOM     82  O   UNL A   1      42.433  18.674  27.170  1.00  0.00    -0.744 OA
ENDBRANCH  78  79
ENDBRANCH  50  73
BRANCH  62  83
ATOM     83  C   UNL A   1      47.867  27.226  30.777  1.00  0.00    -0.014 A 
ATOM     84  C   UNL A   1      48.192  26.462  31.912  1.00  0.00     0.010 A 
ATOM     85  C   UNL A   1      48.888  27.588  29.879  1.00  0.00     0.010 A 
ATOM     86  C   UNL A   1      49.518  26.096  32.160  1.00  0.00     0.020 A 
ATOM     87  C   UNL A   1      50.209  27.196  30.106  1.00  0.00     0.020 A 
ATOM     88  C   UNL A   1      50.518  26.465  31.254  1.00  0.00     0.054 A 
BRANCH  88  89
ATOM     89  S   UNL A   1      52.223  25.939  31.578  1.00  0.00     0.124 S 
ATOM     90  O   UNL A   1      52.831  26.046  30.255  1.00  0.00    -0.237 OA
ATOM     91  O   UNL A   1      52.679  26.918  32.562  1.00  0.00    -0.237 OA
ATOM     92  O   UNL A   1      52.075  24.576  32.086  1.00  0.00    -0.744 OA
ENDBRANCH  88  89
ENDBRANCH  62  83
ENDBRANCH  36  37
ENDBRANCH  28  31
ENDBRANCH  26  27
ENDBRANCH   1  26
TORSDOF 17
ENDMDL
MODEL 3
REMARK VINA RESULT:     -10.5      1.269      1.904
REMARK SMILES CN(C(=O)N[C@@](C)(C(=O)NCCCNC(=O)c1ccc(-c2c3nc(c(-c4ccc(S(=O)(=O)[O-])cc4)c4ccc([nH]4)c(-c4ccc(S(=O)(=O)[O-])cc4)c4nc(c(-c5ccc(S(=O)(=O)[O-])cc5)c5ccc2[nH]5)C=C4)C=C3)cc1)C(F)(F)F)c1ccc(F)cc1
REMARK SMILES IDX 12 1 11 2 10 3 8 4 9 5 6 7 7 8 5 9 3 10 4 11 2 13 1 14 81 15
REMARK SMILES IDX 82 16 87 17 83 18 86 19 84 20 85 21 77 22 78 23 79 24 80 25
REMARK SMILES IDX 13 26 14 27 15 28 16 30 17 31 18 32 76 33 19 34 75 35 20 36
REMARK SMILES IDX 21 37 22 38 69 39 23 40 74 41 68 42 70 43 24 44 73 45 67 46
REMARK SMILES IDX 66 47 25 49 55 50 36 51 54 52 37 53 40 54 53 55 71 56 38 57
REMARK SMILES IDX 39 58 52 60 72 61 41 62 26 63 27 64 35 65 28 66 34 67 29 68
REMARK SMILES IDX 30 69 31 70 32 71 33 72 56 73 57 74 65 75 58 76 64 77 59 78
REMARK SMILES IDX 60 79 61 80 62 81 63 82 42 83 43 84 51 85 44 86 50 87 45 88
REMARK SMILES IDX 46 89 47 90 48 91 49 92
REMARK H PARENT 10 6 5 12 14 29 70 48 40 59
REMARK Flexibility Score: inf
ROOT
ATOM      1  C   UNL A   1      35.571  22.879  24.818  1.00  0.00     0.042 C 
ENDROOT
BRANCH   1   2
ATOM      2  C   UNL A   1      34.768  24.007  24.183  1.00  0.00     0.117 C 
BRANCH   2   3
ATOM      3  N   UNL A   1      33.808  24.571  25.114  1.00  0.00    -0.354 N 
ATOM      4  C   UNL A   1      32.584  25.145  24.997  1.00  0.00     0.255 C 
ATOM      5  O   UNL A   1      32.179  25.659  26.046  1.00  0.00    -0.272 OA
ATOM      6  H   UNL A   1      34.116  24.525  26.048  1.00  0.00     0.163 HD
BRANCH   4   7
ATOM      7  C   UNL A   1      31.785  25.239  23.673  1.00  0.00     0.213 C 
ATOM      8  C   UNL A   1      32.695  25.293  22.429  1.00  0.00     0.056 C 
BRANCH   7   9
ATOM      9  N   UNL A   1      31.031  26.547  23.751  1.00  0.00    -0.316 N 
ATOM     10  C   UNL A   1      31.109  27.885  23.687  1.00  0.00     0.322 C 
ATOM     11  O   UNL A   1      29.998  28.403  23.514  1.00  0.00    -0.248 OA
ATOM     12  H   UNL A   1      30.087  26.323  23.920  1.00  0.00     0.166 HD
BRANCH  10  13
ATOM     13  N   UNL A   1      32.254  28.617  23.798  1.00  0.00    -0.298 N 
ATOM     14  C   UNL A   1      33.244  28.809  22.758  1.00  0.00     0.155 C 
BRANCH  13  15
ATOM     15  C   UNL A   1      32.729  29.048  25.085  1.00  0.00     0.045 A 
ATOM     16  C   UNL A   1      33.945  28.580  25.603  1.00  0.00     0.029 A 
ATOM     17  C   UNL A   1      32.062  30.094  25.748  1.00  0.00     0.029 A 
ATOM     18  C   UNL A   1      34.513  29.192  26.726  1.00  0.00     0.041 A 
ATOM     19  C   UNL A   1      32.618  30.685  26.882  1.00  0.00     0.041 A 
ATOM     20  C   UNL A   1      33.849  30.244  27.347  1.00  0.00     0.123 A 
ATOM     21  F   UNL A   1      34.415  30.857  28.395  1.00  0.00    -0.207 F 
ENDBRANCH  13  15
ENDBRANCH  10  13
ENDBRANCH   7   9
BRANCH   7  22
ATOM     22  C   UNL A   1      31.094  23.853  23.621  1.00  0.00     0.420 C 
ATOM     23  F   UNL A   1      31.834  22.884  23.052  1.00  0.00    -0.168 F 
ATOM     24  F   UNL A   1      30.743  23.422  24.861  1.00  0.00    -0.168 F 
ATOM     25  F   UNL A   1      29.912  23.914  22.948  1.00  0.00    -0.168 F 
ENDBRANCH   7  22
ENDBRANCH   4   7
ENDBRANCH   2   3
ENDBRANCH   1   2
BRANCH   1  26
ATOM     26  C   UNL A   1      36.541  23.315  25.910  1.00  0.00     0.118 C 
BRANCH  26  27
ATOM     27  N   UNL A   1      37.744  22.498  25.970  1.00  0.00    -0.352 N 
ATOM     28  C   UNL A   1      39.022  22.846  26.341  1.00  0.00     0.251 C 
ATOM     29  H   UNL A   1      37.626  21.557  25.705  1.00  0.00     0.163 HD
ATOM     30  O   UNL A   1      39.944  22.053  26.164  1.00  0.00    -0.269 OA
BRANCH  28  31
ATOM     31  C   UNL A   1      39.288  24.181  26.919  1.00  0.00     0.039 A 
ATOM     32  C   UNL A   1      38.864  24.454  28.221  1.00  0.00     0.014 A 
ATOM     33  C   UNL A   1      39.974  25.153  26.187  1.00  0.00     0.014 A 
ATOM     34  C   UNL A   1      39.202  25.671  28.816  1.00  0.00     0.010 A 
ATOM     35  C   UNL A   1      40.392  26.323  26.813  1.00  0.00     0.010 A 
ATOM     36  C   UNL A   1      40.011  26.596  28.135  1.00  0.00    -0.014 A 
BRANCH  36  37
ATOM     37  C   UNL A   1      40.476  27.850  28.785  1.00  0.00     0.031 A 
ATOM     38  C   UNL A   1      41.856  27.927  29.380  1.00  0.00     0.074 A 
ATOM     39  C   UNL A   1      39.630  28.893  28.902  1.00  0.00     0.049 A 
ATOM     40  N   UNL A   1      42.413  28.906  30.044  1.00  0.00    -0.248 NA
ATOM     41  C   UNL A   1      42.713  26.739  29.233  1.00  0.00     0.031 C 
ATOM     42  C   UNL A   1      38.251  28.929  28.406  1.00  0.00     0.029 A 
ATOM     43  N   UNL A   1      39.801  30.124  29.485  1.00  0.00    -0.354 N 
ATOM     44  C   UNL A   1      43.675  28.448  30.408  1.00  0.00     0.074 A 
ATOM     45  C   UNL A   1      43.779  27.084  29.940  1.00  0.00     0.031 C 
ATOM     46  C   UNL A   1      37.717  30.130  28.676  1.00  0.00     0.029 A 
ATOM     47  C   UNL A   1      38.691  30.933  29.408  1.00  0.00     0.049 A 
ATOM     48  H   UNL A   1      40.641  30.403  29.918  1.00  0.00     0.167 HD
ATOM     49  C   UNL A   1      44.664  29.108  31.055  1.00  0.00     0.031 A 
ATOM     50  C   UNL A   1      38.475  32.176  29.881  1.00  0.00     0.031 A 
ATOM     51  C   UNL A   1      44.558  30.467  31.516  1.00  0.00     0.049 A 
ATOM     52  C   UNL A   1      39.582  32.881  30.616  1.00  0.00     0.074 A 
ATOM     53  C   UNL A   1      45.522  31.244  32.133  1.00  0.00     0.029 A 
ATOM     54  N   UNL A   1      43.417  31.251  31.417  1.00  0.00    -0.354 N 
ATOM     55  N   UNL A   1      40.793  32.454  30.889  1.00  0.00    -0.248 NA
ATOM     56  C   UNL A   1      39.296  34.238  31.101  1.00  0.00     0.031 C 
ATOM     57  C   UNL A   1      44.947  32.475  32.462  1.00  0.00     0.029 A 
ATOM     58  C   UNL A   1      43.644  32.491  31.989  1.00  0.00     0.049 A 
ATOM     59  H   UNL A   1      42.572  30.966  31.001  1.00  0.00     0.167 HD
ATOM     60  C   UNL A   1      41.421  33.502  31.553  1.00  0.00     0.074 A 
ATOM     61  C   UNL A   1      40.464  34.586  31.625  1.00  0.00     0.031 C 
ATOM     62  C   UNL A   1      42.679  33.560  32.057  1.00  0.00     0.031 A 
BRANCH  49  63
ATOM     63  C   UNL A   1      45.949  28.361  31.312  1.00  0.00    -0.014 A 
ATOM     64  C   UNL A   1      46.975  28.324  30.349  1.00  0.00     0.010 A 
ATOM     65  C   UNL A   1      46.147  27.714  32.546  1.00  0.00     0.010 A 
ATOM     66  C   UNL A   1      48.155  27.617  30.598  1.00  0.00     0.020 A 
ATOM     67  C   UNL A   1      47.339  27.032  32.810  1.00  0.00     0.020 A 
ATOM     68  C   UNL A   1      48.328  26.974  31.826  1.00  0.00     0.054 A 
BRANCH  68  69
ATOM     69  S   UNL A   1      49.877  26.079  32.126  1.00  0.00     0.124 S 
ATOM     70  O   UNL A   1      49.409  24.904  32.857  1.00  0.00    -0.237 OA
ATOM     71  O   UNL A   1      50.364  25.823  30.772  1.00  0.00    -0.237 OA
ATOM     72  O   UNL A   1      50.677  27.019  32.906  1.00  0.00    -0.744 OA
ENDBRANCH  68  69
ENDBRANCH  49  63
BRANCH  50  73
ATOM     73  C   UNL A   1      37.159  32.837  29.661  1.00  0.00    -0.014 A 
ATOM     74  C   UNL A   1      36.169  32.810  30.660  1.00  0.00     0.010 A 
ATOM     75  C   UNL A   1      36.893  33.515  28.456  1.00  0.00     0.010 A 
ATOM     76  C   UNL A   1      34.935  33.431  30.452  1.00  0.00     0.020 A 
ATOM     77  C   UNL A   1      35.671  34.165  28.257  1.00  0.00     0.020 A 
ATOM     78  C   UNL A   1      34.695  34.110  29.254  1.00  0.00     0.054 A 
BRANCH  78  79
ATOM     79  S   UNL A   1      33.106  34.957  29.032  1.00  0.00     0.124 S 
ATOM     80  O   UNL A   1      32.426  34.085  28.080  1.00  0.00    -0.237 OA
ATOM     81  O   UNL A   1      32.561  34.962  30.388  1.00  0.00    -0.237 OA
ATOM     82  O   UNL A   1      33.488  36.271  28.519  1.00  0.00    -0.744 OA
ENDBRANCH  78  79
ENDBRANCH  50  73
BRANCH  62  83
ATOM     83  C   UNL A   1      43.107  34.851  32.708  1.00  0.00    -0.014 A 
ATOM     84  C   UNL A   1      43.676  35.894  31.958  1.00  0.00     0.010 A 
ATOM     85  C   UNL A   1      42.884  35.039  34.085  1.00  0.00     0.010 A 
ATOM     86  C   UNL A   1      44.046  37.089  32.579  1.00  0.00     0.020 A 
ATOM     87  C   UNL A   1      43.223  36.245  34.703  1.00  0.00     0.020 A 
ATOM     88  C   UNL A   1      43.816  37.258  33.949  1.00  0.00     0.054 A 
BRANCH  88  89
ATOM     89  S   UNL A   1      44.265  38.836  34.721  1.00  0.00     0.124 S 
ATOM     90  O   UNL A   1      43.327  39.761  34.091  1.00  0.00    -0.237 OA
ATOM     91  O   UNL A   1      44.036  38.575  36.140  1.00  0.00    -0.237 OA
ATOM     92  O   UNL A   1      45.666  39.019  34.346  1.00  0.00    -0.744 OA
ENDBRANCH  88  89
ENDBRANCH  62  83
ENDBRANCH  36  37
ENDBRANCH  28  31
ENDBRANCH  26  27
ENDBRANCH   1  26
TORSDOF 17
ENDMDL
