MODEL 1
REMARK VINA RESULT:     -12.1      0.000      0.000
REMARK SMILES Cc1c(C(=O)NCCCNC(=O)c2ccc(-c3c4nc(c(-c5ccc(S(=O)(=O)[O-])cc5)c5ccc([nH]5)c(-c5ccc(S(=O)(=O)[O-])cc5)c5nc(c(-c6ccc(S(=O)(=O)[O-])cc6)c6ccc3[nH]6)C=C5)C=C4)cc2)sc2ncnc(NCc3cn4c(n3)SCC4)c12
REMARK SMILES IDX 8 1 7 2 6 3 4 4 5 5 3 7 1 8 2 9 89 10 73 11 74 12 78 13
REMARK SMILES IDX 75 14 77 15 76 16 79 17 80 19 81 20 82 21 85 22 83 23 84 24
REMARK SMILES IDX 88 25 86 26 87 27 9 28 10 29 11 30 12 32 13 33 14 34 72 35
REMARK SMILES IDX 15 36 71 37 16 38 17 39 18 40 65 41 19 42 70 43 64 44 66 45
REMARK SMILES IDX 20 46 69 47 63 48 62 49 21 51 51 52 32 53 50 54 33 55 36 56
REMARK SMILES IDX 49 57 67 58 34 59 35 60 48 62 68 63 37 64 22 65 23 66 31 67
REMARK SMILES IDX 24 68 30 69 25 70 26 71 27 72 28 73 29 74 52 75 53 76 61 77
REMARK SMILES IDX 54 78 60 79 55 80 56 81 57 82 58 83 59 84 38 85 39 86 47 87
REMARK SMILES IDX 40 88 46 89 41 90 42 91 43 92 44 93 45 94
REMARK H PARENT 6 6 79 18 10 31 66 50 36 61
REMARK Flexibility Score: inf
ROOT
ATOM      1  C   UNL A   1      33.525  30.211  27.501  1.00  0.00     0.042 C 
ENDROOT
BRANCH   1   2
ATOM      2  C   UNL A   1      34.376  29.161  26.779  1.00  0.00     0.118 C 
BRANCH   2   3
ATOM      3  N   UNL A   1      34.005  29.029  25.384  1.00  0.00    -0.351 N 
ATOM      4  C   UNL A   1      33.279  28.088  24.699  1.00  0.00     0.261 C 
ATOM      5  O   UNL A   1      33.097  28.378  23.511  1.00  0.00    -0.268 OA
ATOM      6  H   UNL A   1      34.340  29.760  24.816  1.00  0.00     0.163 HD
BRANCH   4   7
ATOM      7  C   UNL A   1      32.706  26.882  25.313  1.00  0.00     0.098 A 
ATOM      8  C   UNL A   1      34.743  25.446  25.021  1.00  0.00     0.047 C 
ATOM      9  C   UNL A   1      33.307  25.617  25.387  1.00  0.00    -0.014 A 
ATOM     10  C   UNL A   1      32.360  24.568  25.804  1.00  0.00     0.057 A 
ATOM     11  S   UNL A   1      31.241  26.867  26.166  1.00  0.00    -0.110 S 
ATOM     12  C   UNL A   1      31.199  25.189  26.252  1.00  0.00     0.129 A 
ATOM     13  C   UNL A   1      32.308  23.146  25.870  1.00  0.00     0.138 A 
ATOM     14  N   UNL A   1      30.081  24.628  26.735  1.00  0.00    -0.225 NA
ATOM     15  N   UNL A   1      31.174  22.565  26.346  1.00  0.00    -0.219 NA
ATOM     16  C   UNL A   1      30.145  23.310  26.746  1.00  0.00     0.225 A 
BRANCH  13  17
ATOM     17  N   UNL A   1      33.172  22.174  25.474  1.00  0.00    -0.364 N 
ATOM     18  H   UNL A   1      33.464  22.287  24.539  1.00  0.00     0.162 HD
BRANCH  17  19
ATOM     19  C   UNL A   1      33.755  21.024  26.095  1.00  0.00     0.172 C 
BRANCH  19  20
ATOM     20  C   UNL A   1      33.325  19.688  25.564  1.00  0.00     0.079 A 
ATOM     21  C   UNL A   1      32.613  18.664  26.180  1.00  0.00     0.113 A 
ATOM     22  N   UNL A   1      33.765  19.288  24.304  1.00  0.00    -0.226 NA
ATOM     23  N   UNL A   1      32.728  17.622  25.325  1.00  0.00    -0.325 N 
ATOM     24  C   UNL A   1      33.401  18.040  24.223  1.00  0.00     0.168 A 
ATOM     25  C   UNL A   1      32.643  16.191  25.536  1.00  0.00     0.135 C 
ATOM     26  S   UNL A   1      34.006  16.726  23.287  1.00  0.00    -0.086 SA
ATOM     27  C   UNL A   1      33.818  15.613  24.744  1.00  0.00     0.100 C 
ENDBRANCH  19  20
ENDBRANCH  17  19
ENDBRANCH  13  17
ENDBRANCH   4   7
ENDBRANCH   2   3
ENDBRANCH   1   2
BRANCH   1  28
ATOM     28  C   UNL A   1      34.262  31.531  27.607  1.00  0.00     0.118 C 
BRANCH  28  29
ATOM     29  N   UNL A   1      34.136  32.116  28.943  1.00  0.00    -0.352 N 
ATOM     30  C   UNL A   1      34.952  31.942  30.045  1.00  0.00     0.251 C 
ATOM     31  H   UNL A   1      33.367  32.716  29.073  1.00  0.00     0.163 HD
ATOM     32  O   UNL A   1      34.573  32.254  31.157  1.00  0.00    -0.269 OA
BRANCH  30  33
ATOM     33  C   UNL A   1      36.287  31.360  29.826  1.00  0.00     0.039 A 
ATOM     34  C   UNL A   1      37.402  32.168  29.600  1.00  0.00     0.014 A 
ATOM     35  C   UNL A   1      36.407  29.978  29.922  1.00  0.00     0.014 A 
ATOM     36  C   UNL A   1      38.656  31.566  29.549  1.00  0.00     0.010 A 
ATOM     37  C   UNL A   1      37.645  29.422  30.079  1.00  0.00     0.010 A 
ATOM     38  C   UNL A   1      38.767  30.190  29.812  1.00  0.00    -0.014 A 
BRANCH  38  39
ATOM     39  C   UNL A   1      40.063  29.533  29.879  1.00  0.00     0.031 A 
ATOM     40  C   UNL A   1      40.544  29.238  31.252  1.00  0.00     0.074 A 
ATOM     41  C   UNL A   1      40.686  29.044  28.785  1.00  0.00     0.049 A 
ATOM     42  N   UNL A   1      41.511  29.815  31.882  1.00  0.00    -0.248 NA
ATOM     43  C   UNL A   1      39.773  28.295  32.079  1.00  0.00     0.031 C 
ATOM     44  C   UNL A   1      40.204  28.973  27.397  1.00  0.00     0.029 A 
ATOM     45  N   UNL A   1      41.868  28.387  28.714  1.00  0.00    -0.354 N 
ATOM     46  C   UNL A   1      41.615  29.167  33.107  1.00  0.00     0.074 A 
ATOM     47  C   UNL A   1      40.418  28.375  33.245  1.00  0.00     0.031 C 
ATOM     48  C   UNL A   1      40.963  28.102  26.695  1.00  0.00     0.029 A 
ATOM     49  C   UNL A   1      42.092  27.715  27.518  1.00  0.00     0.049 A 
ATOM     50  H   UNL A   1      42.519  28.385  29.454  1.00  0.00     0.167 HD
ATOM     51  C   UNL A   1      42.783  29.155  33.810  1.00  0.00     0.031 A 
ATOM     52  C   UNL A   1      43.130  26.889  27.240  1.00  0.00     0.031 A 
ATOM     53  C   UNL A   1      43.732  30.101  33.278  1.00  0.00     0.049 A 
ATOM     54  C   UNL A   1      44.210  27.235  28.196  1.00  0.00     0.074 A 
ATOM     55  C   UNL A   1      43.747  31.473  33.122  1.00  0.00     0.029 A 
ATOM     56  N   UNL A   1      44.684  29.610  32.414  1.00  0.00    -0.354 N 
ATOM     57  N   UNL A   1      44.813  28.392  28.203  1.00  0.00    -0.248 NA
ATOM     58  C   UNL A   1      44.289  26.487  29.442  1.00  0.00     0.031 C 
ATOM     59  C   UNL A   1      44.338  31.686  31.840  1.00  0.00     0.029 A 
ATOM     60  C   UNL A   1      44.723  30.446  31.325  1.00  0.00     0.049 A 
ATOM     61  H   UNL A   1      45.236  28.807  32.551  1.00  0.00     0.167 HD
ATOM     62  C   UNL A   1      44.961  28.712  29.546  1.00  0.00     0.074 A 
ATOM     63  C   UNL A   1      44.707  27.459  30.259  1.00  0.00     0.031 C 
ATOM     64  C   UNL A   1      44.999  30.011  29.969  1.00  0.00     0.031 A 
BRANCH  51  65
ATOM     65  C   UNL A   1      43.202  28.034  34.726  1.00  0.00    -0.014 A 
ATOM     66  C   UNL A   1      43.533  28.329  36.063  1.00  0.00     0.010 A 
ATOM     67  C   UNL A   1      43.532  26.747  34.253  1.00  0.00     0.010 A 
ATOM     68  C   UNL A   1      44.210  27.401  36.866  1.00  0.00     0.020 A 
ATOM     69  C   UNL A   1      44.168  25.800  35.057  1.00  0.00     0.020 A 
ATOM     70  C   UNL A   1      44.533  26.145  36.352  1.00  0.00     0.054 A 
BRANCH  70  71
ATOM     71  S   UNL A   1      45.498  24.995  37.360  1.00  0.00     0.124 S 
ATOM     72  O   UNL A   1      44.590  24.731  38.471  1.00  0.00    -0.237 OA
ATOM     73  O   UNL A   1      45.714  23.883  36.438  1.00  0.00    -0.237 OA
ATOM     74  O   UNL A   1      46.697  25.758  37.698  1.00  0.00    -0.744 OA
ENDBRANCH  70  71
ENDBRANCH  51  65
BRANCH  52  75
ATOM     75  C   UNL A   1      43.111  25.623  26.466  1.00  0.00    -0.014 A 
ATOM     76  C   UNL A   1      43.915  25.468  25.322  1.00  0.00     0.010 A 
ATOM     77  C   UNL A   1      42.537  24.463  27.027  1.00  0.00     0.010 A 
ATOM     78  C   UNL A   1      44.201  24.191  24.806  1.00  0.00     0.020 A 
ATOM     79  C   UNL A   1      42.816  23.188  26.516  1.00  0.00     0.020 A 
ATOM     80  C   UNL A   1      43.671  23.056  25.425  1.00  0.00     0.054 A 
BRANCH  80  81
ATOM     81  S   UNL A   1      44.209  21.407  24.876  1.00  0.00     0.124 S 
ATOM     82  O   UNL A   1      43.087  20.563  25.275  1.00  0.00    -0.237 OA
ATOM     83  O   UNL A   1      44.382  21.593  23.438  1.00  0.00    -0.237 OA
ATOM     84  O   UNL A   1      45.448  21.183  25.621  1.00  0.00    -0.744 OA
ENDBRANCH  80  81
ENDBRANCH  52  75
BRANCH  64  85
ATOM     85  C   UNL A   1      45.124  31.102  28.923  1.00  0.00    -0.014 A 
ATOM     86  C   UNL A   1      46.355  31.621  28.468  1.00  0.00     0.010 A 
ATOM     87  C   UNL A   1      43.949  31.513  28.272  1.00  0.00     0.010 A 
ATOM     88  C   UNL A   1      46.400  32.548  27.413  1.00  0.00     0.020 A 
ATOM     89  C   UNL A   1      43.988  32.422  27.210  1.00  0.00     0.020 A 
ATOM     90  C   UNL A   1      45.212  32.944  26.791  1.00  0.00     0.054 A 
BRANCH  90  91
ATOM     91  S   UNL A   1      45.270  34.128  25.415  1.00  0.00     0.124 S 
ATOM     92  O   UNL A   1      44.473  35.242  25.918  1.00  0.00    -0.237 OA
ATOM     93  O   UNL A   1      46.701  34.391  25.273  1.00  0.00    -0.237 OA
ATOM     94  O   UNL A   1      44.672  33.395  24.299  1.00  0.00    -0.744 OA
ENDBRANCH  90  91
ENDBRANCH  64  85
ENDBRANCH  38  39
ENDBRANCH  30  33
ENDBRANCH  28  29
ENDBRANCH   1  28
TORSDOF 16
ENDMDL
MODEL 2
REMARK VINA RESULT:     -12.1      1.697      2.424
REMARK SMILES Cc1c(C(=O)NCCCNC(=O)c2ccc(-c3c4nc(c(-c5ccc(S(=O)(=O)[O-])cc5)c5ccc([nH]5)c(-c5ccc(S(=O)(=O)[O-])cc5)c5nc(c(-c6ccc(S(=O)(=O)[O-])cc6)c6ccc3[nH]6)C=C5)C=C4)cc2)sc2ncnc(NCc3cn4c(n3)SCC4)c12
REMARK SMILES IDX 8 1 7 2 6 3 4 4 5 5 3 7 1 8 2 9 89 10 73 11 74 12 78 13
REMARK SMILES IDX 75 14 77 15 76 16 79 17 80 19 81 20 82 21 85 22 83 23 84 24
REMARK SMILES IDX 88 25 86 26 87 27 9 28 10 29 11 30 12 32 13 33 14 34 72 35
REMARK SMILES IDX 15 36 71 37 16 38 17 39 18 40 65 41 19 42 70 43 64 44 66 45
REMARK SMILES IDX 20 46 69 47 63 48 62 49 21 51 51 52 32 53 50 54 33 55 36 56
REMARK SMILES IDX 49 57 67 58 34 59 35 60 48 62 68 63 37 64 22 65 23 66 31 67
REMARK SMILES IDX 24 68 30 69 25 70 26 71 27 72 28 73 29 74 52 75 53 76 61 77
REMARK SMILES IDX 54 78 60 79 55 80 56 81 57 82 58 83 59 84 38 85 39 86 47 87
REMARK SMILES IDX 40 88 46 89 41 90 42 91 43 92 44 93 45 94
REMARK H PARENT 6 6 79 18 10 31 66 50 36 61
REMARK Flexibility Score: inf
ROOT
ATOM      1  C   UNL A   1      32.836  29.603  27.214  1.00  0.00     0.042 C 
ENDROOT
BRANCH   1   2
ATOM      2  C   UNL A   1      32.834  28.709  25.968  1.00  0.00     0.118 C 
BRANCH   2   3
ATOM      3  N   UNL A   1      31.947  29.215  24.940  1.00  0.00    -0.351 N 
ATOM      4  C   UNL A   1      31.367  28.633  23.842  1.00  0.00     0.261 C 
ATOM      5  O   UNL A   1      30.584  29.381  23.246  1.00  0.00    -0.268 OA
ATOM      6  H   UNL A   1      31.716  30.166  25.051  1.00  0.00     0.163 HD
BRANCH   4   7
ATOM      7  C   UNL A   1      31.587  27.238  23.436  1.00  0.00     0.098 A 
ATOM      8  C   UNL A   1      30.065  26.223  25.153  1.00  0.00     0.047 C 
ATOM      9  C   UNL A   1      31.091  26.094  24.078  1.00  0.00    -0.014 A 
ATOM     10  C   UNL A   1      31.726  24.856  23.593  1.00  0.00     0.057 A 
ATOM     11  S   UNL A   1      32.392  26.787  22.014  1.00  0.00    -0.110 S 
ATOM     12  C   UNL A   1      32.456  25.166  22.450  1.00  0.00     0.129 A 
ATOM     13  C   UNL A   1      31.797  23.482  23.959  1.00  0.00     0.138 A 
ATOM     14  N   UNL A   1      33.182  24.350  21.672  1.00  0.00    -0.225 NA
ATOM     15  N   UNL A   1      32.542  22.646  23.186  1.00  0.00    -0.219 NA
ATOM     16  C   UNL A   1      33.178  23.104  22.109  1.00  0.00     0.225 A 
BRANCH  13  17
ATOM     17  N   UNL A   1      31.309  22.785  25.021  1.00  0.00    -0.364 N 
ATOM     18  H   UNL A   1      30.336  22.641  24.962  1.00  0.00     0.162 HD
BRANCH  17  19
ATOM     19  C   UNL A   1      31.878  22.214  26.203  1.00  0.00     0.172 C 
BRANCH  19  20
ATOM     20  C   UNL A   1      33.375  22.216  26.292  1.00  0.00     0.079 A 
ATOM     21  C   UNL A   1      34.255  23.243  26.618  1.00  0.00     0.113 A 
ATOM     22  N   UNL A   1      34.078  21.081  25.891  1.00  0.00    -0.226 NA
ATOM     23  N   UNL A   1      35.473  22.747  26.303  1.00  0.00    -0.325 N 
ATOM     24  C   UNL A   1      35.323  21.461  25.894  1.00  0.00     0.168 A 
ATOM     25  C   UNL A   1      36.718  23.403  25.957  1.00  0.00     0.135 C 
ATOM     26  S   UNL A   1      36.705  20.880  25.044  1.00  0.00    -0.086 SA
ATOM     27  C   UNL A   1      37.249  22.617  24.757  1.00  0.00     0.100 C 
ENDBRANCH  19  20
ENDBRANCH  17  19
ENDBRANCH  13  17
ENDBRANCH   4   7
ENDBRANCH   2   3
ENDBRANCH   1   2
BRANCH   1  28
ATOM     28  C   UNL A   1      33.960  30.618  27.153  1.00  0.00     0.118 C 
BRANCH  28  29
ATOM     29  N   UNL A   1      33.878  31.583  28.251  1.00  0.00    -0.352 N 
ATOM     30  C   UNL A   1      34.766  31.792  29.289  1.00  0.00     0.251 C 
ATOM     31  H   UNL A   1      33.082  32.162  28.249  1.00  0.00     0.163 HD
ATOM     32  O   UNL A   1      34.436  32.418  30.277  1.00  0.00    -0.269 OA
BRANCH  30  33
ATOM     33  C   UNL A   1      36.119  31.225  29.158  1.00  0.00     0.039 A 
ATOM     34  C   UNL A   1      37.243  32.047  29.050  1.00  0.00     0.014 A 
ATOM     35  C   UNL A   1      36.243  29.842  29.217  1.00  0.00     0.014 A 
ATOM     36  C   UNL A   1      38.502  31.454  29.081  1.00  0.00     0.010 A 
ATOM     37  C   UNL A   1      37.468  29.287  29.455  1.00  0.00     0.010 A 
ATOM     38  C   UNL A   1      38.602  30.071  29.305  1.00  0.00    -0.014 A 
BRANCH  38  39
ATOM     39  C   UNL A   1      39.894  29.419  29.454  1.00  0.00     0.031 A 
ATOM     40  C   UNL A   1      40.318  29.183  30.858  1.00  0.00     0.074 A 
ATOM     41  C   UNL A   1      40.562  28.884  28.409  1.00  0.00     0.049 A 
ATOM     42  N   UNL A   1      41.257  29.789  31.502  1.00  0.00    -0.248 NA
ATOM     43  C   UNL A   1      39.512  28.275  31.691  1.00  0.00     0.031 C 
ATOM     44  C   UNL A   1      40.138  28.753  27.006  1.00  0.00     0.029 A 
ATOM     45  N   UNL A   1      41.746  28.226  28.416  1.00  0.00    -0.354 N 
ATOM     46  C   UNL A   1      41.310  29.194  32.757  1.00  0.00     0.074 A 
ATOM     47  C   UNL A   1      40.108  28.407  32.879  1.00  0.00     0.031 C 
ATOM     48  C   UNL A   1      40.926  27.854  26.375  1.00  0.00     0.029 A 
ATOM     49  C   UNL A   1      42.019  27.504  27.260  1.00  0.00     0.049 A 
ATOM     50  H   UNL A   1      42.365  28.257  29.181  1.00  0.00     0.167 HD
ATOM     51  C   UNL A   1      42.448  29.213  33.507  1.00  0.00     0.031 A 
ATOM     52  C   UNL A   1      43.067  26.668  27.061  1.00  0.00     0.031 A 
ATOM     53  C   UNL A   1      43.418  30.137  32.976  1.00  0.00     0.049 A 
ATOM     54  C   UNL A   1      44.107  27.057  28.046  1.00  0.00     0.074 A 
ATOM     55  C   UNL A   1      43.441  31.501  32.761  1.00  0.00     0.029 A 
ATOM     56  N   UNL A   1      44.405  29.611  32.173  1.00  0.00    -0.354 N 
ATOM     57  N   UNL A   1      44.709  28.214  28.028  1.00  0.00    -0.248 NA
ATOM     58  C   UNL A   1      44.133  26.363  29.324  1.00  0.00     0.031 C 
ATOM     59  C   UNL A   1      44.085  31.660  31.498  1.00  0.00     0.029 A 
ATOM     60  C   UNL A   1      44.490  30.399  31.052  1.00  0.00     0.049 A 
ATOM     61  H   UNL A   1      44.951  28.815  32.368  1.00  0.00     0.167 HD
ATOM     62  C   UNL A   1      44.801  28.591  29.361  1.00  0.00     0.074 A 
ATOM     63  C   UNL A   1      44.518  27.369  30.116  1.00  0.00     0.031 C 
ATOM     64  C   UNL A   1      44.822  29.908  29.729  1.00  0.00     0.031 A 
BRANCH  51  65
ATOM     65  C   UNL A   1      42.828  28.133  34.487  1.00  0.00    -0.014 A 
ATOM     66  C   UNL A   1      43.254  28.500  35.779  1.00  0.00     0.010 A 
ATOM     67  C   UNL A   1      43.029  26.792  34.102  1.00  0.00     0.010 A 
ATOM     68  C   UNL A   1      43.901  27.582  36.619  1.00  0.00     0.020 A 
ATOM     69  C   UNL A   1      43.633  25.859  34.946  1.00  0.00     0.020 A 
ATOM     70  C   UNL A   1      44.095  26.268  36.190  1.00  0.00     0.054 A 
BRANCH  70  71
ATOM     71  S   UNL A   1      45.021  25.121  37.237  1.00  0.00     0.124 S 
ATOM     72  O   UNL A   1      44.690  23.831  36.639  1.00  0.00    -0.237 OA
ATOM     73  O   UNL A   1      46.397  25.574  37.049  1.00  0.00    -0.237 OA
ATOM     74  O   UNL A   1      44.471  25.353  38.570  1.00  0.00    -0.744 OA
ENDBRANCH  70  71
ENDBRANCH  51  65
BRANCH  52  75
ATOM     75  C   UNL A   1      43.080  25.370  26.342  1.00  0.00    -0.014 A 
ATOM     76  C   UNL A   1      43.855  25.200  25.180  1.00  0.00     0.010 A 
ATOM     77  C   UNL A   1      42.575  24.212  26.970  1.00  0.00     0.010 A 
ATOM     78  C   UNL A   1      44.181  23.915  24.709  1.00  0.00     0.020 A 
ATOM     79  C   UNL A   1      42.893  22.929  26.504  1.00  0.00     0.020 A 
ATOM     80  C   UNL A   1      43.720  22.786  25.392  1.00  0.00     0.054 A 
BRANCH  80  81
ATOM     81  S   UNL A   1      44.313  21.140  24.896  1.00  0.00     0.124 S 
ATOM     82  O   UNL A   1      45.557  21.016  25.648  1.00  0.00    -0.237 OA
ATOM     83  O   UNL A   1      43.223  20.268  25.327  1.00  0.00    -0.237 OA
ATOM     84  O   UNL A   1      44.473  21.253  23.447  1.00  0.00    -0.744 OA
ENDBRANCH  80  81
ENDBRANCH  52  75
BRANCH  64  85
ATOM     85  C   UNL A   1      44.992  30.953  28.644  1.00  0.00    -0.014 A 
ATOM     86  C   UNL A   1      43.930  31.465  27.868  1.00  0.00     0.010 A 
ATOM     87  C   UNL A   1      46.259  31.545  28.507  1.00  0.00     0.010 A 
ATOM     88  C   UNL A   1      44.142  32.516  26.961  1.00  0.00     0.020 A 
ATOM     89  C   UNL A   1      46.473  32.603  27.618  1.00  0.00     0.020 A 
ATOM     90  C   UNL A   1      45.417  33.077  26.840  1.00  0.00     0.054 A 
BRANCH  90  91
ATOM     91  S   UNL A   1      45.688  34.450  25.681  1.00  0.00     0.124 S 
ATOM     92  O   UNL A   1      47.121  34.363  25.415  1.00  0.00    -0.237 OA
ATOM     93  O   UNL A   1      44.817  34.104  24.560  1.00  0.00    -0.237 OA
ATOM     94  O   UNL A   1      45.271  35.631  26.436  1.00  0.00    -0.744 OA
ENDBRANCH  90  91
ENDBRANCH  64  85
ENDBRANCH  38  39
ENDBRANCH  30  33
ENDBRANCH  28  29
ENDBRANCH   1  28
TORSDOF 16
ENDMDL
MODEL 3
REMARK VINA RESULT:     -12.0      3.455      7.547
REMARK SMILES Cc1c(C(=O)NCCCNC(=O)c2ccc(-c3c4nc(c(-c5ccc(S(=O)(=O)[O-])cc5)c5ccc([nH]5)c(-c5ccc(S(=O)(=O)[O-])cc5)c5nc(c(-c6ccc(S(=O)(=O)[O-])cc6)c6ccc3[nH]6)C=C5)C=C4)cc2)sc2ncnc(NCc3cn4c(n3)SCC4)c12
REMARK SMILES IDX 8 1 7 2 6 3 4 4 5 5 3 7 1 8 2 9 89 10 73 11 74 12 78 13
REMARK SMILES IDX 75 14 77 15 76 16 79 17 80 19 81 20 82 21 85 22 83 23 84 24
REMARK SMILES IDX 88 25 86 26 87 27 9 28 10 29 11 30 12 32 13 33 14 34 72 35
REMARK SMILES IDX 15 36 71 37 16 38 17 39 18 40 65 41 19 42 70 43 64 44 66 45
REMARK SMILES IDX 20 46 69 47 63 48 62 49 21 51 51 52 32 53 50 54 33 55 36 56
REMARK SMILES IDX 49 57 67 58 34 59 35 60 48 62 68 63 37 64 22 65 23 66 31 67
REMARK SMILES IDX 24 68 30 69 25 70 26 71 27 72 28 73 29 74 52 75 53 76 61 77
REMARK SMILES IDX 54 78 60 79 55 80 56 81 57 82 58 83 59 84 38 85 39 86 47 87
REMARK SMILES IDX 40 88 46 89 41 90 42 91 43 92 44 93 45 94
REMARK H PARENT 6 6 79 18 10 31 66 50 36 61
REMARK Flexibility Score: inf
ROOT
ATOM      1  C   UNL A   1      31.333  32.039  26.993  1.00  0.00     0.042 C 
ENDROOT
BRANCH   1   2
ATOM      2  C   UNL A   1      31.736  30.829  26.143  1.00  0.00     0.118 C 
BRANCH   2   3
ATOM      3  N   UNL A   1      32.975  30.233  26.602  1.00  0.00    -0.351 N 
ATOM      4  C   UNL A   1      33.703  29.152  26.175  1.00  0.00     0.261 C 
ATOM      5  O   UNL A   1      34.775  29.013  26.775  1.00  0.00    -0.268 OA
ATOM      6  H   UNL A   1      33.373  30.697  27.374  1.00  0.00     0.163 HD
BRANCH   4   7
ATOM      7  C   UNL A   1      33.301  28.274  25.067  1.00  0.00     0.098 A 
ATOM      8  C   UNL A   1      31.638  26.935  26.385  1.00  0.00     0.047 C 
ATOM      9  C   UNL A   1      32.434  27.175  25.146  1.00  0.00    -0.014 A 
ATOM     10  C   UNL A   1      32.466  26.344  23.930  1.00  0.00     0.057 A 
ATOM     11  S   UNL A   1      33.735  28.541  23.450  1.00  0.00    -0.110 S 
ATOM     12  C   UNL A   1      33.165  27.042  22.950  1.00  0.00     0.129 A 
ATOM     13  C   UNL A   1      31.997  25.070  23.498  1.00  0.00     0.138 A 
ATOM     14  N   UNL A   1      33.429  26.675  21.687  1.00  0.00    -0.225 NA
ATOM     15  N   UNL A   1      32.271  24.681  22.223  1.00  0.00    -0.219 NA
ATOM     16  C   UNL A   1      32.951  25.478  21.401  1.00  0.00     0.225 A 
BRANCH  13  17
ATOM     17  N   UNL A   1      31.353  24.060  24.141  1.00  0.00    -0.364 N 
ATOM     18  H   UNL A   1      30.458  23.885  23.767  1.00  0.00     0.162 HD
BRANCH  17  19
ATOM     19  C   UNL A   1      31.671  23.191  25.234  1.00  0.00     0.172 C 
BRANCH  19  20
ATOM     20  C   UNL A   1      33.129  22.978  25.514  1.00  0.00     0.079 A 
ATOM     21  C   UNL A   1      33.990  23.664  26.364  1.00  0.00     0.113 A 
ATOM     22  N   UNL A   1      33.831  22.037  24.763  1.00  0.00    -0.226 NA
ATOM     23  N   UNL A   1      35.218  23.202  26.033  1.00  0.00    -0.325 N 
ATOM     24  C   UNL A   1      35.075  22.230  25.096  1.00  0.00     0.168 A 
ATOM     25  C   UNL A   1      36.536  23.788  26.173  1.00  0.00     0.135 C 
ATOM     26  S   UNL A   1      36.551  21.893  24.272  1.00  0.00    -0.086 SA
ATOM     27  C   UNL A   1      37.225  23.514  24.834  1.00  0.00     0.100 C 
ENDBRANCH  19  20
ENDBRANCH  17  19
ENDBRANCH  13  17
ENDBRANCH   4   7
ENDBRANCH   2   3
ENDBRANCH   1   2
BRANCH   1  28
ATOM     28  C   UNL A   1      32.252  33.215  26.735  1.00  0.00     0.118 C 
BRANCH  28  29
ATOM     29  N   UNL A   1      32.171  34.212  27.805  1.00  0.00    -0.352 N 
ATOM     30  C   UNL A   1      32.988  34.367  28.908  1.00  0.00     0.251 C 
ATOM     31  H   UNL A   1      31.434  34.859  27.726  1.00  0.00     0.163 HD
ATOM     32  O   UNL A   1      32.638  35.044  29.854  1.00  0.00    -0.269 OA
BRANCH  30  33
ATOM     33  C   UNL A   1      34.290  33.678  28.900  1.00  0.00     0.039 A 
ATOM     34  C   UNL A   1      35.291  34.029  27.993  1.00  0.00     0.014 A 
ATOM     35  C   UNL A   1      34.510  32.712  29.875  1.00  0.00     0.014 A 
ATOM     36  C   UNL A   1      36.547  33.445  28.134  1.00  0.00     0.010 A 
ATOM     37  C   UNL A   1      35.787  32.302  30.137  1.00  0.00     0.010 A 
ATOM     38  C   UNL A   1      36.789  32.597  29.226  1.00  0.00    -0.014 A 
BRANCH  38  39
ATOM     39  C   UNL A   1      38.111  32.047  29.481  1.00  0.00     0.031 A 
ATOM     40  C   UNL A   1      38.269  30.612  29.133  1.00  0.00     0.074 A 
ATOM     41  C   UNL A   1      39.168  32.821  29.810  1.00  0.00     0.049 A 
ATOM     42  N   UNL A   1      38.392  29.620  29.949  1.00  0.00    -0.248 NA
ATOM     43  C   UNL A   1      38.129  30.211  27.724  1.00  0.00     0.031 C 
ATOM     44  C   UNL A   1      39.255  34.287  29.887  1.00  0.00     0.029 A 
ATOM     45  N   UNL A   1      40.448  32.443  30.039  1.00  0.00    -0.354 N 
ATOM     46  C   UNL A   1      38.560  28.489  29.160  1.00  0.00     0.074 A 
ATOM     47  C   UNL A   1      38.209  28.881  27.816  1.00  0.00     0.031 C 
ATOM     48  C   UNL A   1      40.553  34.666  29.894  1.00  0.00     0.029 A 
ATOM     49  C   UNL A   1      41.374  33.479  30.026  1.00  0.00     0.049 A 
ATOM     50  H   UNL A   1      40.703  31.505  30.201  1.00  0.00     0.167 HD
ATOM     51  C   UNL A   1      39.194  27.378  29.631  1.00  0.00     0.031 A 
ATOM     52  C   UNL A   1      42.722  33.357  30.105  1.00  0.00     0.031 A 
ATOM     53  C   UNL A   1      39.376  27.438  31.059  1.00  0.00     0.049 A 
ATOM     54  C   UNL A   1      42.988  32.031  30.717  1.00  0.00     0.074 A 
ATOM     55  C   UNL A   1      38.522  27.508  32.142  1.00  0.00     0.029 A 
ATOM     56  N   UNL A   1      40.602  27.870  31.514  1.00  0.00    -0.354 N 
ATOM     57  N   UNL A   1      42.642  31.728  31.938  1.00  0.00    -0.248 NA
ATOM     58  C   UNL A   1      43.199  30.897  29.831  1.00  0.00     0.031 C 
ATOM     59  C   UNL A   1      39.143  28.433  33.035  1.00  0.00     0.029 A 
ATOM     60  C   UNL A   1      40.373  28.810  32.488  1.00  0.00     0.049 A 
ATOM     61  H   UNL A   1      41.481  27.562  31.198  1.00  0.00     0.167 HD
ATOM     62  C   UNL A   1      42.169  30.425  31.863  1.00  0.00     0.074 A 
ATOM     63  C   UNL A   1      42.627  29.935  30.561  1.00  0.00     0.031 C 
ATOM     64  C   UNL A   1      41.222  29.960  32.732  1.00  0.00     0.031 A 
BRANCH  51  65
ATOM     65  C   UNL A   1      39.979  26.426  28.765  1.00  0.00    -0.014 A 
ATOM     66  C   UNL A   1      39.307  25.358  28.138  1.00  0.00     0.010 A 
ATOM     67  C   UNL A   1      41.387  26.390  28.756  1.00  0.00     0.010 A 
ATOM     68  C   UNL A   1      40.012  24.282  27.581  1.00  0.00     0.020 A 
ATOM     69  C   UNL A   1      42.101  25.345  28.168  1.00  0.00     0.020 A 
ATOM     70  C   UNL A   1      41.407  24.279  27.610  1.00  0.00     0.054 A 
BRANCH  70  71
ATOM     71  S   UNL A   1      42.304  22.840  26.984  1.00  0.00     0.124 S 
ATOM     72  O   UNL A   1      42.721  22.182  28.218  1.00  0.00    -0.237 OA
ATOM     73  O   UNL A   1      41.277  22.147  26.211  1.00  0.00    -0.237 OA
ATOM     74  O   UNL A   1      43.383  23.425  26.191  1.00  0.00    -0.744 OA
ENDBRANCH  70  71
ENDBRANCH  51  65
BRANCH  52  75
ATOM     75  C   UNL A   1      43.756  34.133  29.377  1.00  0.00    -0.014 A 
ATOM     76  C   UNL A   1      45.102  34.097  29.787  1.00  0.00     0.010 A 
ATOM     77  C   UNL A   1      43.473  34.661  28.100  1.00  0.00     0.010 A 
ATOM     78  C   UNL A   1      46.133  34.499  28.919  1.00  0.00     0.020 A 
ATOM     79  C   UNL A   1      44.496  35.067  27.232  1.00  0.00     0.020 A 
ATOM     80  C   UNL A   1      45.824  34.956  27.635  1.00  0.00     0.054 A 
BRANCH  80  81
ATOM     81  S   UNL A   1      47.170  35.279  26.455  1.00  0.00     0.124 S 
ATOM     82  O   UNL A   1      47.000  34.203  25.484  1.00  0.00    -0.237 OA
ATOM     83  O   UNL A   1      46.853  36.621  25.974  1.00  0.00    -0.237 OA
ATOM     84  O   UNL A   1      48.377  35.189  27.276  1.00  0.00    -0.744 OA
ENDBRANCH  80  81
ENDBRANCH  52  75
BRANCH  64  85
ATOM     85  C   UNL A   1      40.873  30.813  33.936  1.00  0.00    -0.014 A 
ATOM     86  C   UNL A   1      39.859  31.795  33.940  1.00  0.00     0.010 A 
ATOM     87  C   UNL A   1      41.501  30.504  35.153  1.00  0.00     0.010 A 
ATOM     88  C   UNL A   1      39.511  32.466  35.124  1.00  0.00     0.020 A 
ATOM     89  C   UNL A   1      41.149  31.155  36.339  1.00  0.00     0.020 A 
ATOM     90  C   UNL A   1      40.163  32.142  36.318  1.00  0.00     0.054 A 
BRANCH  90  91
ATOM     91  S   UNL A   1      39.701  32.996  37.853  1.00  0.00     0.124 S 
ATOM     92  O   UNL A   1      38.465  32.320  38.235  1.00  0.00    -0.237 OA
ATOM     93  O   UNL A   1      40.849  32.747  38.722  1.00  0.00    -0.237 OA
ATOM     94  O   UNL A   1      39.539  34.391  37.441  1.00  0.00    -0.744 OA
ENDBRANCH  90  91
ENDBRANCH  64  85
ENDBRANCH  38  39
ENDBRANCH  30  33
ENDBRANCH  28  29
ENDBRANCH   1  28
TORSDOF 16
ENDMDL
