MODEL 1
REMARK VINA RESULT:     -11.4      0.000      0.000
REMARK SMILES CC(C)CSc1cc2c(cc1Cl)C=C(C(=O)NCCCNC(=O)c1ccc(-c3c4nc(c(-c5ccc(S(=O)(=O)[O-])cc5)c5ccc([nH]5)c(-c5ccc(S(=O)(=O)[O-])cc5)c5nc(c(-c6ccc(S(=O)(=O)[O-])cc6)c6ccc3[nH]6)C=C5)C=C4)cc1)[C@@H](C(F)(F)F)O2
REMARK SMILES IDX 19 1 18 2 17 3 15 4 16 5 14 7 6 8 7 9 11 10 8 11 10 12 12 13
REMARK SMILES IDX 9 14 89 15 13 16 84 17 5 18 4 19 2 20 1 21 3 22 85 23 86 24
REMARK SMILES IDX 87 25 88 26 20 27 21 28 22 29 23 31 24 32 25 33 83 34 26 35
REMARK SMILES IDX 82 36 27 37 28 38 29 39 76 40 30 41 81 42 75 43 77 44 31 45
REMARK SMILES IDX 80 46 74 47 73 48 32 50 62 51 43 52 61 53 44 54 47 55 60 56
REMARK SMILES IDX 78 57 45 58 46 59 59 61 79 62 48 63 33 64 34 65 42 66 35 67
REMARK SMILES IDX 41 68 36 69 37 70 38 71 39 72 40 73 63 74 64 75 72 76 65 77
REMARK SMILES IDX 71 78 66 79 67 80 68 81 69 82 70 83 49 84 50 85 58 86 51 87
REMARK SMILES IDX 57 88 52 89 53 90 54 91 55 92 56 93
REMARK H PARENT 17 6 21 30 77 49 47 60
REMARK Flexibility Score: inf
ROOT
ATOM      1  C   UNL A   1      34.100  28.080  24.682  1.00  0.00     0.042 C 
ENDROOT
BRANCH   1   2
ATOM      2  C   UNL A   1      32.935  27.231  24.199  1.00  0.00     0.118 C 
BRANCH   2   3
ATOM      3  N   UNL A   1      32.078  26.807  25.297  1.00  0.00    -0.352 N 
ATOM      4  C   UNL A   1      31.774  25.651  25.931  1.00  0.00     0.251 C 
ATOM      5  O   UNL A   1      30.966  25.760  26.860  1.00  0.00    -0.270 OA
ATOM      6  H   UNL A   1      31.585  27.567  25.681  1.00  0.00     0.163 HD
BRANCH   4   7
ATOM      7  C   UNL A   1      32.337  24.311  25.598  1.00  0.00     0.067 C 
ATOM      8  C   UNL A   1      35.402  20.334  25.043  1.00  0.00     0.030 A 
ATOM      9  C   UNL A   1      34.022  20.541  24.934  1.00  0.00     0.063 A 
ATOM     10  C   UNL A   1      36.218  21.436  25.365  1.00  0.00     0.055 A 
ATOM     11  C   UNL A   1      33.468  21.789  25.205  1.00  0.00     0.129 A 
ATOM     12  C   UNL A   1      35.654  22.694  25.626  1.00  0.00     0.033 A 
ATOM     13  Cl  UNL A   1      37.941  21.314  25.491  1.00  0.00    -0.083 Cl
ATOM     14  C   UNL A   1      34.271  22.869  25.559  1.00  0.00     0.019 A 
ATOM     15  O   UNL A   1      32.106  21.868  25.162  1.00  0.00    -0.475 OA
ATOM     16  C   UNL A   1      33.644  24.143  25.880  1.00  0.00     0.025 C 
ATOM     17  C   UNL A   1      31.554  23.197  24.962  1.00  0.00     0.314 C 
BRANCH   8  18
ATOM     18  S   UNL A   1      36.071  18.692  24.782  1.00  0.00    -0.124 SA
BRANCH  18  19
ATOM     19  C   UNL A   1      34.665  17.794  24.012  1.00  0.00     0.078 C 
BRANCH  19  20
ATOM     20  C   UNL A   1      34.322  16.433  24.646  1.00  0.00    -0.007 C 
ATOM     21  C   UNL A   1      35.488  15.792  25.402  1.00  0.00     0.008 C 
ATOM     22  C   UNL A   1      33.152  16.619  25.620  1.00  0.00     0.008 C 
ENDBRANCH  19  20
ENDBRANCH  18  19
ENDBRANCH   8  18
BRANCH  17  23
ATOM     23  C   UNL A   1      31.328  23.415  23.453  1.00  0.00     0.429 C 
ATOM     24  F   UNL A   1      30.061  23.839  23.220  1.00  0.00    -0.167 F 
ATOM     25  F   UNL A   1      32.151  24.353  22.928  1.00  0.00    -0.167 F 
ATOM     26  F   UNL A   1      31.515  22.285  22.732  1.00  0.00    -0.167 F 
ENDBRANCH  17  23
ENDBRANCH   4   7
ENDBRANCH   2   3
ENDBRANCH   1   2
BRANCH   1  27
ATOM     27  C   UNL A   1      34.163  28.171  26.201  1.00  0.00     0.118 C 
BRANCH  27  28
ATOM     28  N   UNL A   1      33.655  29.448  26.700  1.00  0.00    -0.352 N 
ATOM     29  C   UNL A   1      34.187  30.318  27.621  1.00  0.00     0.251 C 
ATOM     30  H   UNL A   1      32.794  29.729  26.315  1.00  0.00     0.163 HD
ATOM     31  O   UNL A   1      33.498  31.237  28.059  1.00  0.00    -0.269 OA
BRANCH  29  32
ATOM     32  C   UNL A   1      35.571  30.132  28.101  1.00  0.00     0.039 A 
ATOM     33  C   UNL A   1      36.648  30.481  27.287  1.00  0.00     0.014 A 
ATOM     34  C   UNL A   1      35.799  29.584  29.367  1.00  0.00     0.014 A 
ATOM     35  C   UNL A   1      37.929  30.087  27.641  1.00  0.00     0.010 A 
ATOM     36  C   UNL A   1      37.105  29.296  29.772  1.00  0.00     0.010 A 
ATOM     37  C   UNL A   1      38.177  29.489  28.888  1.00  0.00    -0.014 A 
BRANCH  37  38
ATOM     38  C   UNL A   1      39.566  29.083  29.225  1.00  0.00     0.031 A 
ATOM     39  C   UNL A   1      40.421  29.928  30.132  1.00  0.00     0.074 A 
ATOM     40  C   UNL A   1      40.024  27.897  28.778  1.00  0.00     0.049 A 
ATOM     41  N   UNL A   1      41.624  29.681  30.586  1.00  0.00    -0.248 NA
ATOM     42  C   UNL A   1      39.865  31.213  30.586  1.00  0.00     0.031 C 
ATOM     43  C   UNL A   1      39.275  26.986  27.908  1.00  0.00     0.029 A 
ATOM     44  N   UNL A   1      41.194  27.227  29.030  1.00  0.00    -0.354 N 
ATOM     45  C   UNL A   1      41.978  30.786  31.351  1.00  0.00     0.074 A 
ATOM     46  C   UNL A   1      40.875  31.718  31.283  1.00  0.00     0.031 C 
ATOM     47  C   UNL A   1      39.962  25.843  27.776  1.00  0.00     0.029 A 
ATOM     48  C   UNL A   1      41.235  25.968  28.478  1.00  0.00     0.049 A 
ATOM     49  H   UNL A   1      41.934  27.611  29.555  1.00  0.00     0.167 HD
ATOM     50  C   UNL A   1      43.116  30.998  32.054  1.00  0.00     0.031 A 
ATOM     51  C   UNL A   1      42.184  25.013  28.525  1.00  0.00     0.031 A 
ATOM     52  C   UNL A   1      44.199  30.054  32.134  1.00  0.00     0.049 A 
ATOM     53  C   UNL A   1      43.443  25.276  29.293  1.00  0.00     0.074 A 
ATOM     54  C   UNL A   1      45.384  30.170  32.841  1.00  0.00     0.029 A 
ATOM     55  N   UNL A   1      44.231  28.821  31.498  1.00  0.00    -0.354 N 
ATOM     56  N   UNL A   1      43.760  26.331  30.007  1.00  0.00    -0.248 NA
ATOM     57  C   UNL A   1      44.477  24.234  29.260  1.00  0.00     0.031 C 
ATOM     58  C   UNL A   1      46.157  29.036  32.582  1.00  0.00     0.029 A 
ATOM     59  C   UNL A   1      45.428  28.180  31.771  1.00  0.00     0.049 A 
ATOM     60  H   UNL A   1      43.511  28.457  30.934  1.00  0.00     0.167 HD
ATOM     61  C   UNL A   1      45.031  26.081  30.507  1.00  0.00     0.074 A 
ATOM     62  C   UNL A   1      45.416  24.766  30.035  1.00  0.00     0.031 C 
ATOM     63  C   UNL A   1      45.808  26.877  31.283  1.00  0.00     0.031 A 
BRANCH  50  64
ATOM     64  C   UNL A   1      43.268  32.309  32.783  1.00  0.00    -0.014 A 
ATOM     65  C   UNL A   1      42.575  32.516  33.990  1.00  0.00     0.010 A 
ATOM     66  C   UNL A   1      44.024  33.364  32.241  1.00  0.00     0.010 A 
ATOM     67  C   UNL A   1      42.621  33.755  34.635  1.00  0.00     0.020 A 
ATOM     68  C   UNL A   1      44.095  34.597  32.897  1.00  0.00     0.020 A 
ATOM     69  C   UNL A   1      43.378  34.790  34.080  1.00  0.00     0.054 A 
BRANCH  69  70
ATOM     70  S   UNL A   1      43.442  36.389  34.936  1.00  0.00     0.124 S 
ATOM     71  O   UNL A   1      42.706  36.111  36.165  1.00  0.00    -0.237 OA
ATOM     72  O   UNL A   1      44.877  36.614  35.095  1.00  0.00    -0.237 OA
ATOM     73  O   UNL A   1      42.781  37.300  34.002  1.00  0.00    -0.744 OA
ENDBRANCH  69  70
ENDBRANCH  50  64
BRANCH  51  74
ATOM     74  C   UNL A   1      41.929  23.722  27.831  1.00  0.00    -0.014 A 
ATOM     75  C   UNL A   1      41.301  22.663  28.514  1.00  0.00     0.010 A 
ATOM     76  C   UNL A   1      42.448  23.494  26.544  1.00  0.00     0.010 A 
ATOM     77  C   UNL A   1      41.274  21.380  27.963  1.00  0.00     0.020 A 
ATOM     78  C   UNL A   1      42.395  22.217  25.976  1.00  0.00     0.020 A 
ATOM     79  C   UNL A   1      41.845  21.161  26.706  1.00  0.00     0.054 A 
BRANCH  79  80
ATOM     80  S   UNL A   1      41.898  19.468  26.058  1.00  0.00     0.124 S 
ATOM     81  O   UNL A   1      40.496  19.235  25.721  1.00  0.00    -0.237 OA
ATOM     82  O   UNL A   1      42.806  19.588  24.920  1.00  0.00    -0.237 OA
ATOM     83  O   UNL A   1      42.410  18.688  27.181  1.00  0.00    -0.744 OA
ENDBRANCH  79  80
ENDBRANCH  51  74
BRANCH  63  84
ATOM     84  C   UNL A   1      47.170  26.371  31.672  1.00  0.00    -0.014 A 
ATOM     85  C   UNL A   1      48.246  26.501  30.774  1.00  0.00     0.010 A 
ATOM     86  C   UNL A   1      47.352  25.648  32.864  1.00  0.00     0.010 A 
ATOM     87  C   UNL A   1      49.469  25.885  31.042  1.00  0.00     0.020 A 
ATOM     88  C   UNL A   1      48.585  25.053  33.147  1.00  0.00     0.020 A 
ATOM     89  C   UNL A   1      49.627  25.153  32.222  1.00  0.00     0.054 A 
BRANCH  89  90
ATOM     90  S   UNL A   1      51.210  24.327  32.535  1.00  0.00     0.124 S 
ATOM     91  O   UNL A   1      52.108  25.028  31.622  1.00  0.00    -0.237 OA
ATOM     92  O   UNL A   1      51.433  24.583  33.957  1.00  0.00    -0.237 OA
ATOM     93  O   UNL A   1      50.940  22.931  32.198  1.00  0.00    -0.744 OA
ENDBRANCH  89  90
ENDBRANCH  63  84
ENDBRANCH  37  38
ENDBRANCH  29  32
ENDBRANCH  27  28
ENDBRANCH   1  27
TORSDOF 17
ENDMDL
MODEL 2
REMARK VINA RESULT:     -11.3      3.941      5.424
REMARK SMILES CC(C)CSc1cc2c(cc1Cl)C=C(C(=O)NCCCNC(=O)c1ccc(-c3c4nc(c(-c5ccc(S(=O)(=O)[O-])cc5)c5ccc([nH]5)c(-c5ccc(S(=O)(=O)[O-])cc5)c5nc(c(-c6ccc(S(=O)(=O)[O-])cc6)c6ccc3[nH]6)C=C5)C=C4)cc1)[C@@H](C(F)(F)F)O2
REMARK SMILES IDX 19 1 18 2 17 3 15 4 16 5 14 7 6 8 7 9 11 10 8 11 10 12 12 13
REMARK SMILES IDX 9 14 89 15 13 16 84 17 5 18 4 19 2 20 1 21 3 22 85 23 86 24
REMARK SMILES IDX 87 25 88 26 20 27 21 28 22 29 23 31 24 32 25 33 83 34 26 35
REMARK SMILES IDX 82 36 27 37 28 38 29 39 76 40 30 41 81 42 75 43 77 44 31 45
REMARK SMILES IDX 80 46 74 47 73 48 32 50 62 51 43 52 61 53 44 54 47 55 60 56
REMARK SMILES IDX 78 57 45 58 46 59 59 61 79 62 48 63 33 64 34 65 42 66 35 67
REMARK SMILES IDX 41 68 36 69 37 70 38 71 39 72 40 73 63 74 64 75 72 76 65 77
REMARK SMILES IDX 71 78 66 79 67 80 68 81 69 82 70 83 49 84 50 85 58 86 51 87
REMARK SMILES IDX 57 88 52 89 53 90 54 91 55 92 56 93
REMARK H PARENT 17 6 21 30 77 49 47 60
REMARK Flexibility Score: inf
ROOT
ATOM      1  C   UNL A   1      31.803  31.295  26.957  1.00  0.00     0.042 C 
ENDROOT
BRANCH   1   2
ATOM      2  C   UNL A   1      32.057  30.339  25.803  1.00  0.00     0.118 C 
BRANCH   2   3
ATOM      3  N   UNL A   1      30.968  30.347  24.837  1.00  0.00    -0.352 N 
ATOM      4  C   UNL A   1      30.445  29.501  23.920  1.00  0.00     0.251 C 
ATOM      5  O   UNL A   1      29.469  29.937  23.300  1.00  0.00    -0.270 OA
ATOM      6  H   UNL A   1      30.479  31.201  24.856  1.00  0.00     0.163 HD
BRANCH   4   7
ATOM      7  C   UNL A   1      30.949  28.128  23.629  1.00  0.00     0.067 C 
ATOM      8  C   UNL A   1      31.780  23.146  23.694  1.00  0.00     0.030 A 
ATOM      9  C   UNL A   1      32.087  24.187  22.810  1.00  0.00     0.063 A 
ATOM     10  C   UNL A   1      31.092  23.460  24.882  1.00  0.00     0.055 A 
ATOM     11  C   UNL A   1      31.660  25.486  23.071  1.00  0.00     0.129 A 
ATOM     12  C   UNL A   1      30.674  24.774  25.142  1.00  0.00     0.033 A 
ATOM     13  Cl  UNL A   1      30.689  22.265  26.069  1.00  0.00    -0.083 Cl
ATOM     14  C   UNL A   1      30.948  25.791  24.227  1.00  0.00     0.019 A 
ATOM     15  O   UNL A   1      31.928  26.414  22.106  1.00  0.00    -0.475 OA
ATOM     16  C   UNL A   1      30.480  27.154  24.433  1.00  0.00     0.025 C 
ATOM     17  C   UNL A   1      31.936  27.800  22.544  1.00  0.00     0.314 C 
BRANCH   8  18
ATOM     18  S   UNL A   1      32.260  21.469  23.281  1.00  0.00    -0.124 SA
BRANCH  18  19
ATOM     19  C   UNL A   1      33.726  21.187  24.350  1.00  0.00     0.078 C 
BRANCH  19  20
ATOM     20  C   UNL A   1      34.535  22.447  24.711  1.00  0.00    -0.007 C 
ATOM     21  C   UNL A   1      34.758  22.630  26.213  1.00  0.00     0.008 C 
ATOM     22  C   UNL A   1      35.902  22.376  24.019  1.00  0.00     0.008 C 
ENDBRANCH  19  20
ENDBRANCH  18  19
ENDBRANCH   8  18
BRANCH  17  23
ATOM     23  C   UNL A   1      33.380  28.190  22.915  1.00  0.00     0.429 C 
ATOM     24  F   UNL A   1      34.253  27.710  21.995  1.00  0.00    -0.167 F 
ATOM     25  F   UNL A   1      33.567  29.530  22.961  1.00  0.00    -0.167 F 
ATOM     26  F   UNL A   1      33.756  27.704  24.121  1.00  0.00    -0.167 F 
ENDBRANCH  17  23
ENDBRANCH   4   7
ENDBRANCH   2   3
ENDBRANCH   1   2
BRANCH   1  27
ATOM     27  C   UNL A   1      33.033  32.123  27.307  1.00  0.00     0.118 C 
BRANCH  27  28
ATOM     28  N   UNL A   1      32.707  33.530  27.532  1.00  0.00    -0.352 N 
ATOM     29  C   UNL A   1      33.171  34.410  28.481  1.00  0.00     0.251 C 
ATOM     30  H   UNL A   1      32.051  33.908  26.903  1.00  0.00     0.163 HD
ATOM     31  O   UNL A   1      32.611  35.495  28.630  1.00  0.00    -0.269 OA
BRANCH  29  32
ATOM     32  C   UNL A   1      34.318  34.041  29.334  1.00  0.00     0.039 A 
ATOM     33  C   UNL A   1      35.608  34.438  28.984  1.00  0.00     0.014 A 
ATOM     34  C   UNL A   1      34.109  33.273  30.483  1.00  0.00     0.014 A 
ATOM     35  C   UNL A   1      36.696  33.894  29.649  1.00  0.00     0.010 A 
ATOM     36  C   UNL A   1      35.206  32.822  31.224  1.00  0.00     0.010 A 
ATOM     37  C   UNL A   1      36.512  33.078  30.778  1.00  0.00    -0.014 A 
BRANCH  37  38
ATOM     38  C   UNL A   1      37.706  32.516  31.460  1.00  0.00     0.031 A 
ATOM     39  C   UNL A   1      38.120  33.004  32.823  1.00  0.00     0.074 A 
ATOM     40  C   UNL A   1      38.367  31.496  30.879  1.00  0.00     0.049 A 
ATOM     41  N   UNL A   1      39.090  32.570  33.588  1.00  0.00    -0.248 NA
ATOM     42  C   UNL A   1      37.360  34.123  33.404  1.00  0.00     0.031 C 
ATOM     43  C   UNL A   1      38.042  30.928  29.567  1.00  0.00     0.029 A 
ATOM     44  N   UNL A   1      39.406  30.720  31.328  1.00  0.00    -0.354 N 
ATOM     45  C   UNL A   1      39.074  33.374  34.721  1.00  0.00     0.074 A 
ATOM     46  C   UNL A   1      38.015  34.341  34.537  1.00  0.00     0.031 C 
ATOM     47  C   UNL A   1      38.799  29.843  29.360  1.00  0.00     0.029 A 
ATOM     48  C   UNL A   1      39.721  29.683  30.480  1.00  0.00     0.049 A 
ATOM     49  H   UNL A   1      39.880  30.889  32.174  1.00  0.00     0.167 HD
ATOM     50  C   UNL A   1      39.864  33.306  35.818  1.00  0.00     0.031 A 
ATOM     51  C   UNL A   1      40.646  28.709  30.582  1.00  0.00     0.031 A 
ATOM     52  C   UNL A   1      40.901  32.324  36.002  1.00  0.00     0.049 A 
ATOM     53  C   UNL A   1      41.523  28.663  31.797  1.00  0.00     0.074 A 
ATOM     54  C   UNL A   1      41.740  32.160  37.091  1.00  0.00     0.029 A 
ATOM     55  N   UNL A   1      41.237  31.338  35.085  1.00  0.00    -0.354 N 
ATOM     56  N   UNL A   1      41.494  29.437  32.856  1.00  0.00    -0.248 NA
ATOM     57  C   UNL A   1      42.561  27.625  31.833  1.00  0.00     0.031 C 
ATOM     58  C   UNL A   1      42.623  31.116  36.806  1.00  0.00     0.029 A 
ATOM     59  C   UNL A   1      42.291  30.582  35.571  1.00  0.00     0.049 A 
ATOM     60  H   UNL A   1      40.794  31.199  34.217  1.00  0.00     0.167 HD
ATOM     61  C   UNL A   1      42.510  28.982  33.685  1.00  0.00     0.074 A 
ATOM     62  C   UNL A   1      43.120  27.850  33.017  1.00  0.00     0.031 C 
ATOM     63  C   UNL A   1      42.902  29.466  34.889  1.00  0.00     0.031 A 
BRANCH  50  64
ATOM     64  C   UNL A   1      39.661  34.328  36.907  1.00  0.00    -0.014 A 
ATOM     65  C   UNL A   1      40.248  35.601  36.782  1.00  0.00     0.010 A 
ATOM     66  C   UNL A   1      38.965  34.010  38.087  1.00  0.00     0.010 A 
ATOM     67  C   UNL A   1      40.158  36.532  37.820  1.00  0.00     0.020 A 
ATOM     68  C   UNL A   1      38.850  34.949  39.117  1.00  0.00     0.020 A 
ATOM     69  C   UNL A   1      39.462  36.198  38.984  1.00  0.00     0.054 A 
BRANCH  69  70
ATOM     70  S   UNL A   1      39.339  37.422  40.319  1.00  0.00     0.124 S 
ATOM     71  O   UNL A   1      38.626  38.516  39.667  1.00  0.00    -0.237 OA
ATOM     72  O   UNL A   1      38.592  36.703  41.349  1.00  0.00    -0.237 OA
ATOM     73  O   UNL A   1      40.735  37.697  40.656  1.00  0.00    -0.744 OA
ENDBRANCH  69  70
ENDBRANCH  50  64
BRANCH  51  74
ATOM     74  C   UNL A   1      40.740  27.701  29.492  1.00  0.00    -0.014 A 
ATOM     75  C   UNL A   1      39.776  26.681  29.387  1.00  0.00     0.010 A 
ATOM     76  C   UNL A   1      41.870  27.663  28.657  1.00  0.00     0.010 A 
ATOM     77  C   UNL A   1      39.980  25.596  28.531  1.00  0.00     0.020 A 
ATOM     78  C   UNL A   1      42.063  26.593  27.776  1.00  0.00     0.020 A 
ATOM     79  C   UNL A   1      41.137  25.548  27.749  1.00  0.00     0.054 A 
BRANCH  79  80
ATOM     80  S   UNL A   1      41.437  24.080  26.728  1.00  0.00     0.124 S 
ATOM     81  O   UNL A   1      40.076  23.614  26.472  1.00  0.00    -0.237 OA
ATOM     82  O   UNL A   1      42.140  24.630  25.572  1.00  0.00    -0.237 OA
ATOM     83  O   UNL A   1      42.240  23.221  27.593  1.00  0.00    -0.744 OA
ENDBRANCH  79  80
ENDBRANCH  51  74
BRANCH  63  84
ATOM     84  C   UNL A   1      44.060  28.796  35.577  1.00  0.00    -0.014 A 
ATOM     85  C   UNL A   1      43.819  27.768  36.508  1.00  0.00     0.010 A 
ATOM     86  C   UNL A   1      45.370  29.274  35.405  1.00  0.00     0.010 A 
ATOM     87  C   UNL A   1      44.861  27.257  37.283  1.00  0.00     0.020 A 
ATOM     88  C   UNL A   1      46.421  28.745  36.160  1.00  0.00     0.020 A 
ATOM     89  C   UNL A   1      46.154  27.758  37.113  1.00  0.00     0.054 A 
BRANCH  89  90
ATOM     90  S   UNL A   1      47.489  27.109  38.155  1.00  0.00     0.124 S 
ATOM     91  O   UNL A   1      47.321  27.880  39.383  1.00  0.00    -0.237 OA
ATOM     92  O   UNL A   1      47.160  25.689  38.254  1.00  0.00    -0.237 OA
ATOM     93  O   UNL A   1      48.696  27.408  37.389  1.00  0.00    -0.744 OA
ENDBRANCH  89  90
ENDBRANCH  63  84
ENDBRANCH  37  38
ENDBRANCH  29  32
ENDBRANCH  27  28
ENDBRANCH   1  27
TORSDOF 17
ENDMDL
MODEL 3
REMARK VINA RESULT:     -11.2      3.712      5.113
REMARK SMILES CC(C)CSc1cc2c(cc1Cl)C=C(C(=O)NCCCNC(=O)c1ccc(-c3c4nc(c(-c5ccc(S(=O)(=O)[O-])cc5)c5ccc([nH]5)c(-c5ccc(S(=O)(=O)[O-])cc5)c5nc(c(-c6ccc(S(=O)(=O)[O-])cc6)c6ccc3[nH]6)C=C5)C=C4)cc1)[C@@H](C(F)(F)F)O2
REMARK SMILES IDX 19 1 18 2 17 3 15 4 16 5 14 7 6 8 7 9 11 10 8 11 10 12 12 13
REMARK SMILES IDX 9 14 89 15 13 16 84 17 5 18 4 19 2 20 1 21 3 22 85 23 86 24
REMARK SMILES IDX 87 25 88 26 20 27 21 28 22 29 23 31 24 32 25 33 83 34 26 35
REMARK SMILES IDX 82 36 27 37 28 38 29 39 76 40 30 41 81 42 75 43 77 44 31 45
REMARK SMILES IDX 80 46 74 47 73 48 32 50 62 51 43 52 61 53 44 54 47 55 60 56
REMARK SMILES IDX 78 57 45 58 46 59 59 61 79 62 48 63 33 64 34 65 42 66 35 67
REMARK SMILES IDX 41 68 36 69 37 70 38 71 39 72 40 73 63 74 64 75 72 76 65 77
REMARK SMILES IDX 71 78 66 79 67 80 68 81 69 82 70 83 49 84 50 85 58 86 51 87
REMARK SMILES IDX 57 88 52 89 53 90 54 91 55 92 56 93
REMARK H PARENT 17 6 21 30 77 49 47 60
REMARK Flexibility Score: inf
ROOT
ATOM      1  C   UNL A   1      31.767  31.903  26.840  1.00  0.00     0.042 C 
ENDROOT
BRANCH   1   2
ATOM      2  C   UNL A   1      32.034  30.423  26.622  1.00  0.00     0.118 C 
BRANCH   2   3
ATOM      3  N   UNL A   1      32.427  30.136  25.250  1.00  0.00    -0.352 N 
ATOM      4  C   UNL A   1      32.693  29.042  24.499  1.00  0.00     0.251 C 
ATOM      5  O   UNL A   1      32.991  29.273  23.323  1.00  0.00    -0.270 OA
ATOM      6  H   UNL A   1      32.526  30.962  24.725  1.00  0.00     0.163 HD
BRANCH   4   7
ATOM      7  C   UNL A   1      32.642  27.632  24.984  1.00  0.00     0.067 C 
ATOM      8  C   UNL A   1      33.800  22.859  26.165  1.00  0.00     0.030 A 
ATOM      9  C   UNL A   1      32.749  23.729  26.481  1.00  0.00     0.063 A 
ATOM     10  C   UNL A   1      34.817  23.326  25.309  1.00  0.00     0.055 A 
ATOM     11  C   UNL A   1      32.750  25.040  26.016  1.00  0.00     0.129 A 
ATOM     12  C   UNL A   1      34.805  24.646  24.836  1.00  0.00     0.033 A 
ATOM     13  Cl  UNL A   1      36.148  22.333  24.816  1.00  0.00    -0.083 Cl
ATOM     14  C   UNL A   1      33.774  25.513  25.201  1.00  0.00     0.019 A 
ATOM     15  O   UNL A   1      31.732  25.837  26.454  1.00  0.00    -0.475 OA
ATOM     16  C   UNL A   1      33.758  26.906  24.778  1.00  0.00     0.025 C 
ATOM     17  C   UNL A   1      31.443  27.004  25.637  1.00  0.00     0.314 C 
BRANCH   8  18
ATOM     18  S   UNL A   1      33.817  21.207  26.860  1.00  0.00    -0.124 SA
BRANCH  18  19
ATOM     19  C   UNL A   1      32.752  20.263  25.699  1.00  0.00     0.078 C 
BRANCH  19  20
ATOM     20  C   UNL A   1      33.429  19.828  24.385  1.00  0.00    -0.007 C 
ATOM     21  C   UNL A   1      34.200  18.512  24.493  1.00  0.00     0.008 C 
ATOM     22  C   UNL A   1      32.356  19.678  23.299  1.00  0.00     0.008 C 
ENDBRANCH  19  20
ENDBRANCH  18  19
ENDBRANCH   8  18
BRANCH  17  23
ATOM     23  C   UNL A   1      30.339  26.637  24.627  1.00  0.00     0.429 C 
ATOM     24  F   UNL A   1      29.755  27.758  24.135  1.00  0.00    -0.167 F 
ATOM     25  F   UNL A   1      30.810  25.949  23.560  1.00  0.00    -0.167 F 
ATOM     26  F   UNL A   1      29.362  25.880  25.178  1.00  0.00    -0.167 F 
ENDBRANCH  17  23
ENDBRANCH   4   7
ENDBRANCH   2   3
ENDBRANCH   1   2
BRANCH   1  27
ATOM     27  C   UNL A   1      32.940  32.614  27.503  1.00  0.00     0.118 C 
BRANCH  27  28
ATOM     28  N   UNL A   1      32.656  34.024  27.767  1.00  0.00    -0.352 N 
ATOM     29  C   UNL A   1      33.176  34.874  28.713  1.00  0.00     0.251 C 
ATOM     30  H   UNL A   1      31.983  34.428  27.172  1.00  0.00     0.163 HD
ATOM     31  O   UNL A   1      32.648  35.967  28.905  1.00  0.00    -0.269 OA
BRANCH  29  32
ATOM     32  C   UNL A   1      34.348  34.463  29.512  1.00  0.00     0.039 A 
ATOM     33  C   UNL A   1      35.635  34.614  28.998  1.00  0.00     0.014 A 
ATOM     34  C   UNL A   1      34.161  33.902  30.779  1.00  0.00     0.014 A 
ATOM     35  C   UNL A   1      36.705  34.014  29.643  1.00  0.00     0.010 A 
ATOM     36  C   UNL A   1      35.260  33.403  31.484  1.00  0.00     0.010 A 
ATOM     37  C   UNL A   1      36.534  33.400  30.896  1.00  0.00    -0.014 A 
BRANCH  37  38
ATOM     38  C   UNL A   1      37.709  32.769  31.552  1.00  0.00     0.031 A 
ATOM     39  C   UNL A   1      38.178  33.230  32.906  1.00  0.00     0.074 A 
ATOM     40  C   UNL A   1      38.298  31.714  30.956  1.00  0.00     0.049 A 
ATOM     41  N   UNL A   1      39.138  32.739  33.650  1.00  0.00    -0.248 NA
ATOM     42  C   UNL A   1      37.495  34.389  33.504  1.00  0.00     0.031 C 
ATOM     43  C   UNL A   1      37.914  31.169  29.651  1.00  0.00     0.029 A 
ATOM     44  N   UNL A   1      39.300  30.879  31.382  1.00  0.00    -0.354 N 
ATOM     45  C   UNL A   1      39.191  33.541  34.784  1.00  0.00     0.074 A 
ATOM     46  C   UNL A   1      38.185  34.566  34.623  1.00  0.00     0.031 C 
ATOM     47  C   UNL A   1      38.604  30.042  29.427  1.00  0.00     0.029 A 
ATOM     48  C   UNL A   1      39.538  29.828  30.527  1.00  0.00     0.049 A 
ATOM     49  H   UNL A   1      39.800  31.019  32.218  1.00  0.00     0.167 HD
ATOM     50  C   UNL A   1      39.999  33.425  35.864  1.00  0.00     0.031 A 
ATOM     51  C   UNL A   1      40.408  28.802  30.609  1.00  0.00     0.031 A 
ATOM     52  C   UNL A   1      40.982  32.385  36.025  1.00  0.00     0.049 A 
ATOM     53  C   UNL A   1      41.306  28.704  31.805  1.00  0.00     0.074 A 
ATOM     54  C   UNL A   1      41.833  32.171  37.096  1.00  0.00     0.029 A 
ATOM     55  N   UNL A   1      41.242  31.384  35.101  1.00  0.00    -0.354 N 
ATOM     56  N   UNL A   1      41.343  29.476  32.865  1.00  0.00    -0.248 NA
ATOM     57  C   UNL A   1      42.283  27.608  31.818  1.00  0.00     0.031 C 
ATOM     58  C   UNL A   1      42.648  31.079  36.792  1.00  0.00     0.029 A 
ATOM     59  C   UNL A   1      42.261  30.568  35.563  1.00  0.00     0.049 A 
ATOM     60  H   UNL A   1      40.773  31.272  34.242  1.00  0.00     0.167 HD
ATOM     61  C   UNL A   1      42.349  28.962  33.672  1.00  0.00     0.074 A 
ATOM     62  C   UNL A   1      42.879  27.798  32.990  1.00  0.00     0.031 C 
ATOM     63  C   UNL A   1      42.793  29.421  34.868  1.00  0.00     0.031 A 
BRANCH  50  64
ATOM     64  C   UNL A   1      39.877  34.454  36.958  1.00  0.00    -0.014 A 
ATOM     65  C   UNL A   1      39.071  34.183  38.080  1.00  0.00     0.010 A 
ATOM     66  C   UNL A   1      40.485  35.717  36.845  1.00  0.00     0.010 A 
ATOM     67  C   UNL A   1      38.863  35.156  39.061  1.00  0.00     0.020 A 
ATOM     68  C   UNL A   1      40.301  36.685  37.837  1.00  0.00     0.020 A 
ATOM     69  C   UNL A   1      39.476  36.405  38.930  1.00  0.00     0.054 A 
BRANCH  69  70
ATOM     70  S   UNL A   1      39.210  37.655  40.218  1.00  0.00     0.124 S 
ATOM     71  O   UNL A   1      40.550  38.207  40.393  1.00  0.00    -0.237 OA
ATOM     72  O   UNL A   1      38.233  38.550  39.602  1.00  0.00    -0.237 OA
ATOM     73  O   UNL A   1      38.700  36.877  41.345  1.00  0.00    -0.744 OA
ENDBRANCH  69  70
ENDBRANCH  50  64
BRANCH  51  74
ATOM     74  C   UNL A   1      40.421  27.793  29.516  1.00  0.00    -0.014 A 
ATOM     75  C   UNL A   1      39.485  26.742  29.512  1.00  0.00     0.010 A 
ATOM     76  C   UNL A   1      41.460  27.788  28.568  1.00  0.00     0.010 A 
ATOM     77  C   UNL A   1      39.634  25.661  28.641  1.00  0.00     0.020 A 
ATOM     78  C   UNL A   1      41.595  26.721  27.673  1.00  0.00     0.020 A 
ATOM     79  C   UNL A   1      40.705  25.646  27.743  1.00  0.00     0.054 A 
BRANCH  79  80
ATOM     80  S   UNL A   1      40.946  24.184  26.699  1.00  0.00     0.124 S 
ATOM     81  O   UNL A   1      41.704  24.740  25.580  1.00  0.00    -0.237 OA
ATOM     82  O   UNL A   1      41.690  23.282  27.574  1.00  0.00    -0.237 OA
ATOM     83  O   UNL A   1      39.585  23.761  26.384  1.00  0.00    -0.744 OA
ENDBRANCH  79  80
ENDBRANCH  51  74
BRANCH  63  84
ATOM     84  C   UNL A   1      43.924  28.683  35.531  1.00  0.00    -0.014 A 
ATOM     85  C   UNL A   1      43.645  27.642  36.435  1.00  0.00     0.010 A 
ATOM     86  C   UNL A   1      45.253  29.112  35.364  1.00  0.00     0.010 A 
ATOM     87  C   UNL A   1      44.668  27.066  37.190  1.00  0.00     0.020 A 
ATOM     88  C   UNL A   1      46.284  28.519  36.099  1.00  0.00     0.020 A 
ATOM     89  C   UNL A   1      45.981  27.518  37.026  1.00  0.00     0.054 A 
BRANCH  89  90
ATOM     90  S   UNL A   1      47.291  26.786  38.043  1.00  0.00     0.124 S 
ATOM     91  O   UNL A   1      47.056  25.356  37.865  1.00  0.00    -0.237 OA
ATOM     92  O   UNL A   1      48.509  27.305  37.423  1.00  0.00    -0.237 OA
ATOM     93  O   UNL A   1      47.015  27.303  39.381  1.00  0.00    -0.744 OA
ENDBRANCH  89  90
ENDBRANCH  63  84
ENDBRANCH  37  38
ENDBRANCH  29  32
ENDBRANCH  27  28
ENDBRANCH   1  27
TORSDOF 17
ENDMDL
