MODEL 1
REMARK VINA RESULT:     -12.6      0.000      0.000
REMARK SMILES Cc1cc2c(=O)c3ccccc3oc2c(C(=O)NCCCNC(=O)c2ccc(-c3c4nc(c(-c5ccc(S(=O)(=O)[O-])cc5)c5ccc([nH]5)c(-c5ccc(S(=O)(=O)[O-])cc5)c5nc(c(-c6ccc(S(=O)(=O)[O-])cc6)c6ccc3[nH]6)C=C5)C=C4)cc2)c1C
REMARK SMILES IDX 22 1 23 2 24 3 21 5 20 6 19 7 18 8 16 9 17 10 15 12 1 13
REMARK SMILES IDX 2 14 3 15 85 16 4 17 86 18 5 19 14 20 6 21 7 22 13 23 8 24
REMARK SMILES IDX 12 25 9 26 11 27 10 28 25 29 26 30 84 31 27 32 83 33 28 34
REMARK SMILES IDX 29 35 30 36 77 37 31 38 82 39 76 40 78 41 32 42 81 43 75 44
REMARK SMILES IDX 74 45 33 47 63 48 44 49 62 50 45 51 48 52 61 53 79 54 46 55
REMARK SMILES IDX 47 56 60 58 80 59 49 60 34 61 35 62 43 63 36 64 42 65 37 66
REMARK SMILES IDX 38 67 39 68 40 69 41 70 64 71 65 72 73 73 66 74 72 75 67 76
REMARK SMILES IDX 68 77 69 78 70 79 71 80 50 81 51 82 59 83 52 84 58 85 53 86
REMARK SMILES IDX 54 87 55 88 56 89 57 90
REMARK H PARENT 22 4 18 11 78 46 48 57
REMARK Flexibility Score: inf
ROOT
ATOM      1  N   UNL A   1      33.294  29.904  27.384  1.00  0.00    -0.352 N 
ATOM      2  C   UNL A   1      34.277  30.725  27.898  1.00  0.00     0.251 C 
ATOM      3  O   UNL A   1      34.015  31.902  28.114  1.00  0.00    -0.269 OA
ATOM      4  H   UNL A   1      32.484  30.369  27.076  1.00  0.00     0.163 HD
ENDROOT
BRANCH   1   5
ATOM      5  C   UNL A   1      33.267  28.459  27.227  1.00  0.00     0.118 C 
BRANCH   5   6
ATOM      6  C   UNL A   1      33.947  27.997  25.946  1.00  0.00     0.042 C 
BRANCH   6   7
ATOM      7  C   UNL A   1      33.914  29.000  24.784  1.00  0.00     0.118 C 
BRANCH   7   8
ATOM      8  N   UNL A   1      33.824  28.291  23.519  1.00  0.00    -0.352 N 
ATOM      9  C   UNL A   1      33.039  27.311  22.970  1.00  0.00     0.255 C 
ATOM     10  O   UNL A   1      33.498  26.856  21.914  1.00  0.00    -0.269 OA
ATOM     11  H   UNL A   1      34.513  28.598  22.886  1.00  0.00     0.163 HD
BRANCH   9  12
ATOM     12  C   UNL A   1      31.713  26.767  23.458  1.00  0.00     0.086 A 
ATOM     13  C   UNL A   1      27.879  27.307  23.678  1.00  0.00     0.044 C 
ATOM     14  C   UNL A   1      29.277  26.780  23.897  1.00  0.00    -0.046 A 
ATOM     15  C   UNL A   1      29.435  25.761  24.834  1.00  0.00     0.019 A 
ATOM     16  C   UNL A   1      30.420  27.336  23.248  1.00  0.00    -0.032 A 
ATOM     17  C   UNL A   1      30.695  25.236  25.087  1.00  0.00     0.066 A 
ATOM     18  C   UNL A   1      30.183  28.560  22.417  1.00  0.00     0.045 C 
ATOM     19  C   UNL A   1      30.842  24.226  26.147  1.00  0.00     0.200 A 
ATOM     20  C   UNL A   1      31.818  25.687  24.389  1.00  0.00     0.151 A 
ATOM     21  O   UNL A   1      29.878  23.797  26.771  1.00  0.00    -0.288 OA
ATOM     22  C   UNL A   1      32.199  23.770  26.443  1.00  0.00     0.065 A 
ATOM     23  O   UNL A   1      33.053  25.092  24.582  1.00  0.00    -0.455 OA
ATOM     24  C   UNL A   1      32.446  22.896  27.506  1.00  0.00     0.016 A 
ATOM     25  C   UNL A   1      33.231  24.231  25.636  1.00  0.00     0.138 A 
ATOM     26  C   UNL A   1      33.750  22.472  27.757  1.00  0.00     0.001 A 
ATOM     27  C   UNL A   1      34.535  23.801  25.889  1.00  0.00     0.048 A 
ATOM     28  C   UNL A   1      34.793  22.922  26.946  1.00  0.00     0.004 A 
ENDBRANCH   9  12
ENDBRANCH   7   8
ENDBRANCH   6   7
ENDBRANCH   5   6
ENDBRANCH   1   5
BRANCH   2  29
ATOM     29  C   UNL A   1      35.629  30.195  28.220  1.00  0.00     0.039 A 
ATOM     30  C   UNL A   1      35.912  29.620  29.457  1.00  0.00     0.014 A 
ATOM     31  C   UNL A   1      36.634  30.256  27.246  1.00  0.00     0.014 A 
ATOM     32  C   UNL A   1      37.223  29.283  29.787  1.00  0.00     0.010 A 
ATOM     33  C   UNL A   1      37.931  29.818  27.543  1.00  0.00     0.010 A 
ATOM     34  C   UNL A   1      38.251  29.370  28.834  1.00  0.00    -0.014 A 
BRANCH  34  35
ATOM     35  C   UNL A   1      39.637  28.972  29.208  1.00  0.00     0.031 A 
ATOM     36  C   UNL A   1      40.481  29.849  30.098  1.00  0.00     0.074 A 
ATOM     37  C   UNL A   1      40.114  27.780  28.794  1.00  0.00     0.049 A 
ATOM     38  N   UNL A   1      41.696  29.641  30.540  1.00  0.00    -0.248 NA
ATOM     39  C   UNL A   1      39.895  31.122  30.551  1.00  0.00     0.031 C 
ATOM     40  C   UNL A   1      39.384  26.829  27.952  1.00  0.00     0.029 A 
ATOM     41  N   UNL A   1      41.303  27.140  29.053  1.00  0.00    -0.354 N 
ATOM     42  C   UNL A   1      42.025  30.758  31.299  1.00  0.00     0.074 A 
ATOM     43  C   UNL A   1      40.894  31.657  31.240  1.00  0.00     0.031 C 
ATOM     44  C   UNL A   1      40.099  25.702  27.834  1.00  0.00     0.029 A 
ATOM     45  C   UNL A   1      41.377  25.875  28.517  1.00  0.00     0.049 A 
ATOM     46  H   UNL A   1      42.032  27.549  29.573  1.00  0.00     0.167 HD
ATOM     47  C   UNL A   1      43.162  31.006  31.991  1.00  0.00     0.031 A 
ATOM     48  C   UNL A   1      42.359  24.952  28.557  1.00  0.00     0.031 A 
ATOM     49  C   UNL A   1      44.273  30.092  32.070  1.00  0.00     0.049 A 
ATOM     50  C   UNL A   1      43.630  25.273  29.291  1.00  0.00     0.074 A 
ATOM     51  C   UNL A   1      45.458  30.247  32.769  1.00  0.00     0.029 A 
ATOM     52  N   UNL A   1      44.338  28.857  31.444  1.00  0.00    -0.354 N 
ATOM     53  N   UNL A   1      43.921  26.339  29.997  1.00  0.00    -0.248 NA
ATOM     54  C   UNL A   1      44.708  24.277  29.228  1.00  0.00     0.031 C 
ATOM     55  C   UNL A   1      46.265  29.137  32.513  1.00  0.00     0.029 A 
ATOM     56  C   UNL A   1      45.555  28.255  31.715  1.00  0.00     0.049 A 
ATOM     57  H   UNL A   1      43.624  28.466  30.889  1.00  0.00     0.167 HD
ATOM     58  C   UNL A   1      45.211  26.139  30.469  1.00  0.00     0.074 A 
ATOM     59  C   UNL A   1      45.639  24.841  29.988  1.00  0.00     0.031 C 
ATOM     60  C   UNL A   1      45.973  26.964  31.228  1.00  0.00     0.031 A 
BRANCH  47  61
ATOM     61  C   UNL A   1      43.293  32.315  32.729  1.00  0.00    -0.014 A 
ATOM     62  C   UNL A   1      42.813  32.420  34.048  1.00  0.00     0.010 A 
ATOM     63  C   UNL A   1      43.752  33.473  32.076  1.00  0.00     0.010 A 
ATOM     64  C   UNL A   1      42.754  33.660  34.689  1.00  0.00     0.020 A 
ATOM     65  C   UNL A   1      43.720  34.713  32.724  1.00  0.00     0.020 A 
ATOM     66  C   UNL A   1      43.197  34.801  34.017  1.00  0.00     0.054 A 
BRANCH  66  67
ATOM     67  S   UNL A   1      43.075  36.410  34.849  1.00  0.00     0.124 S 
ATOM     68  O   UNL A   1      41.687  36.421  35.299  1.00  0.00    -0.237 OA
ATOM     69  O   UNL A   1      44.081  36.302  35.903  1.00  0.00    -0.237 OA
ATOM     70  O   UNL A   1      43.397  37.366  33.791  1.00  0.00    -0.744 OA
ENDBRANCH  66  67
ENDBRANCH  47  61
BRANCH  48  71
ATOM     71  C   UNL A   1      42.153  23.637  27.889  1.00  0.00    -0.014 A 
ATOM     72  C   UNL A   1      41.568  22.564  28.588  1.00  0.00     0.010 A 
ATOM     73  C   UNL A   1      42.620  23.423  26.580  1.00  0.00     0.010 A 
ATOM     74  C   UNL A   1      41.517  21.289  28.019  1.00  0.00     0.020 A 
ATOM     75  C   UNL A   1      42.540  22.155  25.995  1.00  0.00     0.020 A 
ATOM     76  C   UNL A   1      42.017  21.090  26.731  1.00  0.00     0.054 A 
BRANCH  76  77
ATOM     77  S   UNL A   1      41.993  19.414  26.036  1.00  0.00     0.124 S 
ATOM     78  O   UNL A   1      40.577  19.241  25.724  1.00  0.00    -0.237 OA
ATOM     79  O   UNL A   1      42.881  19.532  24.883  1.00  0.00    -0.237 OA
ATOM     80  O   UNL A   1      42.500  18.584  27.126  1.00  0.00    -0.744 OA
ENDBRANCH  76  77
ENDBRANCH  48  71
BRANCH  60  81
ATOM     81  C   UNL A   1      47.359  26.509  31.600  1.00  0.00    -0.014 A 
ATOM     82  C   UNL A   1      48.406  26.627  30.668  1.00  0.00     0.010 A 
ATOM     83  C   UNL A   1      47.593  25.839  32.813  1.00  0.00     0.010 A 
ATOM     84  C   UNL A   1      49.649  26.044  30.920  1.00  0.00     0.020 A 
ATOM     85  C   UNL A   1      48.844  25.279  33.083  1.00  0.00     0.020 A 
ATOM     86  C   UNL A   1      49.856  25.362  32.122  1.00  0.00     0.054 A 
BRANCH  86  87
ATOM     87  S   UNL A   1      51.462  24.571  32.414  1.00  0.00     0.124 S 
ATOM     88  O   UNL A   1      51.633  24.746  33.854  1.00  0.00    -0.237 OA
ATOM     89  O   UNL A   1      51.230  23.199  31.969  1.00  0.00    -0.237 OA
ATOM     90  O   UNL A   1      52.381  25.342  31.578  1.00  0.00    -0.744 OA
ENDBRANCH  86  87
ENDBRANCH  60  81
ENDBRANCH  34  35
ENDBRANCH   2  29
TORSDOF 13
ENDMDL
MODEL 2
REMARK VINA RESULT:     -12.4      2.926      9.329
REMARK SMILES Cc1cc2c(=O)c3ccccc3oc2c(C(=O)NCCCNC(=O)c2ccc(-c3c4nc(c(-c5ccc(S(=O)(=O)[O-])cc5)c5ccc([nH]5)c(-c5ccc(S(=O)(=O)[O-])cc5)c5nc(c(-c6ccc(S(=O)(=O)[O-])cc6)c6ccc3[nH]6)C=C5)C=C4)cc2)c1C
REMARK SMILES IDX 22 1 23 2 24 3 21 5 20 6 19 7 18 8 16 9 17 10 15 12 1 13
REMARK SMILES IDX 2 14 3 15 85 16 4 17 86 18 5 19 14 20 6 21 7 22 13 23 8 24
REMARK SMILES IDX 12 25 9 26 11 27 10 28 25 29 26 30 84 31 27 32 83 33 28 34
REMARK SMILES IDX 29 35 30 36 77 37 31 38 82 39 76 40 78 41 32 42 81 43 75 44
REMARK SMILES IDX 74 45 33 47 63 48 44 49 62 50 45 51 48 52 61 53 79 54 46 55
REMARK SMILES IDX 47 56 60 58 80 59 49 60 34 61 35 62 43 63 36 64 42 65 37 66
REMARK SMILES IDX 38 67 39 68 40 69 41 70 64 71 65 72 73 73 66 74 72 75 67 76
REMARK SMILES IDX 68 77 69 78 70 79 71 80 50 81 51 82 59 83 52 84 58 85 53 86
REMARK SMILES IDX 54 87 55 88 56 89 57 90
REMARK H PARENT 22 4 18 11 78 46 48 57
REMARK Flexibility Score: inf
ROOT
ATOM      1  N   UNL A   1      37.873  22.624  25.420  1.00  0.00    -0.352 N 
ATOM      2  C   UNL A   1      39.042  22.802  26.131  1.00  0.00     0.251 C 
ATOM      3  O   UNL A   1      39.825  21.865  26.232  1.00  0.00    -0.269 OA
ATOM      4  H   UNL A   1      37.676  21.692  25.173  1.00  0.00     0.163 HD
ENDROOT
BRANCH   1   5
ATOM      5  C   UNL A   1      36.886  23.596  24.978  1.00  0.00     0.118 C 
BRANCH   5   6
ATOM      6  C   UNL A   1      35.854  23.910  26.051  1.00  0.00     0.042 C 
BRANCH   6   7
ATOM      7  C   UNL A   1      35.406  22.716  26.905  1.00  0.00     0.118 C 
BRANCH   7   8
ATOM      8  N   UNL A   1      33.994  22.835  27.222  1.00  0.00    -0.352 N 
ATOM      9  C   UNL A   1      32.818  22.985  26.533  1.00  0.00     0.255 C 
ATOM     10  O   UNL A   1      31.861  23.279  27.262  1.00  0.00    -0.269 OA
ATOM     11  H   UNL A   1      33.839  22.796  28.193  1.00  0.00     0.163 HD
BRANCH   9  12
ATOM     12  C   UNL A   1      32.552  22.803  25.053  1.00  0.00     0.086 A 
ATOM     13  C   UNL A   1      32.047  20.292  22.142  1.00  0.00     0.044 C 
ATOM     14  C   UNL A   1      32.278  21.559  22.932  1.00  0.00    -0.046 A 
ATOM     15  C   UNL A   1      32.472  22.734  22.210  1.00  0.00     0.019 A 
ATOM     16  C   UNL A   1      32.379  21.569  24.355  1.00  0.00    -0.032 A 
ATOM     17  C   UNL A   1      32.695  23.932  22.876  1.00  0.00     0.066 A 
ATOM     18  C   UNL A   1      32.363  20.234  25.033  1.00  0.00     0.045 C 
ATOM     19  C   UNL A   1      32.988  25.138  22.085  1.00  0.00     0.200 A 
ATOM     20  C   UNL A   1      32.693  23.992  24.272  1.00  0.00     0.151 A 
ATOM     21  O   UNL A   1      32.985  25.125  20.861  1.00  0.00    -0.288 OA
ATOM     22  C   UNL A   1      33.309  26.354  22.830  1.00  0.00     0.065 A 
ATOM     23  O   UNL A   1      32.823  25.206  24.924  1.00  0.00    -0.455 OA
ATOM     24  C   UNL A   1      33.707  27.518  22.165  1.00  0.00     0.016 A 
ATOM     25  C   UNL A   1      33.204  26.318  24.215  1.00  0.00     0.138 A 
ATOM     26  C   UNL A   1      33.997  28.665  22.902  1.00  0.00     0.001 A 
ATOM     27  C   UNL A   1      33.492  27.469  24.949  1.00  0.00     0.048 A 
ATOM     28  C   UNL A   1      33.886  28.641  24.294  1.00  0.00     0.004 A 
ENDBRANCH   9  12
ENDBRANCH   7   8
ENDBRANCH   6   7
ENDBRANCH   5   6
ENDBRANCH   1   5
BRANCH   2  29
ATOM     29  C   UNL A   1      39.375  24.115  26.744  1.00  0.00     0.039 A 
ATOM     30  C   UNL A   1      40.042  25.107  26.026  1.00  0.00     0.014 A 
ATOM     31  C   UNL A   1      38.989  24.368  28.066  1.00  0.00     0.014 A 
ATOM     32  C   UNL A   1      40.482  26.260  26.674  1.00  0.00     0.010 A 
ATOM     33  C   UNL A   1      39.341  25.574  28.685  1.00  0.00     0.010 A 
ATOM     34  C   UNL A   1      40.134  26.514  28.010  1.00  0.00    -0.014 A 
BRANCH  34  35
ATOM     35  C   UNL A   1      40.594  27.771  28.664  1.00  0.00     0.031 A 
ATOM     36  C   UNL A   1      42.043  27.965  29.036  1.00  0.00     0.074 A 
ATOM     37  C   UNL A   1      39.710  28.771  28.866  1.00  0.00     0.049 A 
ATOM     38  N   UNL A   1      42.615  29.006  29.587  1.00  0.00    -0.248 NA
ATOM     39  C   UNL A   1      42.969  26.855  28.758  1.00  0.00     0.031 C 
ATOM     40  C   UNL A   1      38.287  28.715  28.524  1.00  0.00     0.029 A 
ATOM     41  N   UNL A   1      39.877  30.040  29.366  1.00  0.00    -0.354 N 
ATOM     42  C   UNL A   1      43.956  28.669  29.742  1.00  0.00     0.074 A 
ATOM     43  C   UNL A   1      44.112  27.318  29.250  1.00  0.00     0.031 C 
ATOM     44  C   UNL A   1      37.732  29.915  28.743  1.00  0.00     0.029 A 
ATOM     45  C   UNL A   1      38.733  30.804  29.322  1.00  0.00     0.049 A 
ATOM     46  H   UNL A   1      40.733  30.371  29.720  1.00  0.00     0.167 HD
ATOM     47  C   UNL A   1      44.965  29.422  30.238  1.00  0.00     0.031 A 
ATOM     48  C   UNL A   1      38.502  32.075  29.709  1.00  0.00     0.031 A 
ATOM     49  C   UNL A   1      44.808  30.779  30.698  1.00  0.00     0.049 A 
ATOM     50  C   UNL A   1      39.629  32.872  30.301  1.00  0.00     0.074 A 
ATOM     51  C   UNL A   1      45.781  31.631  31.193  1.00  0.00     0.029 A 
ATOM     52  N   UNL A   1      43.615  31.485  30.712  1.00  0.00    -0.354 N 
ATOM     53  N   UNL A   1      40.887  32.531  30.442  1.00  0.00    -0.248 NA
ATOM     54  C   UNL A   1      39.309  34.218  30.795  1.00  0.00     0.031 C 
ATOM     55  C   UNL A   1      45.166  32.826  31.568  1.00  0.00     0.029 A 
ATOM     56  C   UNL A   1      43.822  32.749  31.238  1.00  0.00     0.049 A 
ATOM     57  H   UNL A   1      42.749  31.139  30.395  1.00  0.00     0.167 HD
ATOM     58  C   UNL A   1      41.510  33.622  31.034  1.00  0.00     0.074 A 
ATOM     59  C   UNL A   1      40.497  34.644  31.205  1.00  0.00     0.031 C 
ATOM     60  C   UNL A   1      42.806  33.758  31.406  1.00  0.00     0.031 A 
BRANCH  47  61
ATOM     61  C   UNL A   1      46.346  28.821  30.323  1.00  0.00    -0.014 A 
ATOM     62  C   UNL A   1      46.761  28.203  31.518  1.00  0.00     0.010 A 
ATOM     63  C   UNL A   1      47.278  28.994  29.285  1.00  0.00     0.010 A 
ATOM     64  C   UNL A   1      48.089  27.801  31.689  1.00  0.00     0.020 A 
ATOM     65  C   UNL A   1      48.602  28.568  29.441  1.00  0.00     0.020 A 
ATOM     66  C   UNL A   1      49.004  27.998  30.653  1.00  0.00     0.054 A 
BRANCH  66  67
ATOM     67  S   UNL A   1      50.733  27.509  30.907  1.00  0.00     0.124 S 
ATOM     68  O   UNL A   1      51.137  28.366  32.016  1.00  0.00    -0.237 OA
ATOM     69  O   UNL A   1      50.620  26.085  31.216  1.00  0.00    -0.237 OA
ATOM     70  O   UNL A   1      51.364  27.808  29.623  1.00  0.00    -0.744 OA
ENDBRANCH  66  67
ENDBRANCH  47  61
BRANCH  48  71
ATOM     71  C   UNL A   1      37.144  32.659  29.525  1.00  0.00    -0.014 A 
ATOM     72  C   UNL A   1      36.759  33.193  28.280  1.00  0.00     0.010 A 
ATOM     73  C   UNL A   1      36.261  32.764  30.614  1.00  0.00     0.010 A 
ATOM     74  C   UNL A   1      35.550  33.881  28.145  1.00  0.00     0.020 A 
ATOM     75  C   UNL A   1      35.035  33.423  30.474  1.00  0.00     0.020 A 
ATOM     76  C   UNL A   1      34.703  34.005  29.248  1.00  0.00     0.054 A 
BRANCH  76  77
ATOM     77  S   UNL A   1      33.166  34.951  29.064  1.00  0.00     0.124 S 
ATOM     78  O   UNL A   1      32.462  34.182  28.042  1.00  0.00    -0.237 OA
ATOM     79  O   UNL A   1      32.590  34.890  30.405  1.00  0.00    -0.237 OA
ATOM     80  O   UNL A   1      33.627  36.274  28.648  1.00  0.00    -0.744 OA
ENDBRANCH  76  77
ENDBRANCH  48  71
BRANCH  60  81
ATOM     81  C   UNL A   1      43.231  35.054  32.043  1.00  0.00    -0.014 A 
ATOM     82  C   UNL A   1      43.018  35.259  33.419  1.00  0.00     0.010 A 
ATOM     83  C   UNL A   1      43.706  36.118  31.257  1.00  0.00     0.010 A 
ATOM     84  C   UNL A   1      43.229  36.515  33.990  1.00  0.00     0.020 A 
ATOM     85  C   UNL A   1      43.947  37.369  31.831  1.00  0.00     0.020 A 
ATOM     86  C   UNL A   1      43.680  37.566  33.188  1.00  0.00     0.054 A 
BRANCH  86  87
ATOM     87  S   UNL A   1      43.905  39.203  33.937  1.00  0.00     0.124 S 
ATOM     88  O   UNL A   1      42.706  39.910  33.494  1.00  0.00    -0.237 OA
ATOM     89  O   UNL A   1      43.965  38.898  35.365  1.00  0.00    -0.237 OA
ATOM     90  O   UNL A   1      45.160  39.677  33.356  1.00  0.00    -0.744 OA
ENDBRANCH  86  87
ENDBRANCH  60  81
ENDBRANCH  34  35
ENDBRANCH   2  29
TORSDOF 13
ENDMDL
MODEL 3
REMARK VINA RESULT:     -12.3      0.918      8.215
REMARK SMILES Cc1cc2c(=O)c3ccccc3oc2c(C(=O)NCCCNC(=O)c2ccc(-c3c4nc(c(-c5ccc(S(=O)(=O)[O-])cc5)c5ccc([nH]5)c(-c5ccc(S(=O)(=O)[O-])cc5)c5nc(c(-c6ccc(S(=O)(=O)[O-])cc6)c6ccc3[nH]6)C=C5)C=C4)cc2)c1C
REMARK SMILES IDX 22 1 23 2 24 3 21 5 20 6 19 7 18 8 16 9 17 10 15 12 1 13
REMARK SMILES IDX 2 14 3 15 85 16 4 17 86 18 5 19 14 20 6 21 7 22 13 23 8 24
REMARK SMILES IDX 12 25 9 26 11 27 10 28 25 29 26 30 84 31 27 32 83 33 28 34
REMARK SMILES IDX 29 35 30 36 77 37 31 38 82 39 76 40 78 41 32 42 81 43 75 44
REMARK SMILES IDX 74 45 33 47 63 48 44 49 62 50 45 51 48 52 61 53 79 54 46 55
REMARK SMILES IDX 47 56 60 58 80 59 49 60 34 61 35 62 43 63 36 64 42 65 37 66
REMARK SMILES IDX 38 67 39 68 40 69 41 70 64 71 65 72 73 73 66 74 72 75 67 76
REMARK SMILES IDX 68 77 69 78 70 79 71 80 50 81 51 82 59 83 52 84 58 85 53 86
REMARK SMILES IDX 54 87 55 88 56 89 57 90
REMARK H PARENT 22 4 18 11 78 46 48 57
REMARK Flexibility Score: inf
ROOT
ATOM      1  N   UNL A   1      33.583  29.891  27.519  1.00  0.00    -0.352 N 
ATOM      2  C   UNL A   1      34.553  30.689  28.090  1.00  0.00     0.251 C 
ATOM      3  O   UNL A   1      34.267  31.838  28.406  1.00  0.00    -0.269 OA
ATOM      4  H   UNL A   1      32.759  30.362  27.259  1.00  0.00     0.163 HD
ENDROOT
BRANCH   1   5
ATOM      5  C   UNL A   1      33.586  28.464  27.241  1.00  0.00     0.118 C 
BRANCH   5   6
ATOM      6  C   UNL A   1      34.159  28.136  25.870  1.00  0.00     0.042 C 
BRANCH   6   7
ATOM      7  C   UNL A   1      33.758  29.097  24.742  1.00  0.00     0.118 C 
BRANCH   7   8
ATOM      8  N   UNL A   1      33.684  28.379  23.481  1.00  0.00    -0.352 N 
ATOM      9  C   UNL A   1      32.935  27.363  22.946  1.00  0.00     0.255 C 
ATOM     10  O   UNL A   1      33.400  26.923  21.886  1.00  0.00    -0.269 OA
ATOM     11  H   UNL A   1      34.351  28.712  22.838  1.00  0.00     0.163 HD
BRANCH   9  12
ATOM     12  C   UNL A   1      31.639  26.766  23.453  1.00  0.00     0.086 A 
ATOM     13  C   UNL A   1      27.792  27.155  23.740  1.00  0.00     0.044 C 
ATOM     14  C   UNL A   1      29.213  26.681  23.933  1.00  0.00    -0.046 A 
ATOM     15  C   UNL A   1      29.426  25.663  24.860  1.00  0.00     0.019 A 
ATOM     16  C   UNL A   1      30.322  27.285  23.269  1.00  0.00    -0.032 A 
ATOM     17  C   UNL A   1      30.709  25.186  25.089  1.00  0.00     0.066 A 
ATOM     18  C   UNL A   1      30.023  28.504  22.450  1.00  0.00     0.045 C 
ATOM     19  C   UNL A   1      30.913  24.176  26.139  1.00  0.00     0.200 A 
ATOM     20  C   UNL A   1      31.802  25.685  24.374  1.00  0.00     0.151 A 
ATOM     21  O   UNL A   1      29.978  23.706  26.775  1.00  0.00    -0.288 OA
ATOM     22  C   UNL A   1      32.291  23.772  26.409  1.00  0.00     0.065 A 
ATOM     23  O   UNL A   1      33.062  25.137  24.543  1.00  0.00    -0.455 OA
ATOM     24  C   UNL A   1      32.591  22.901  27.461  1.00  0.00     0.016 A 
ATOM     25  C   UNL A   1      33.292  24.277  25.588  1.00  0.00     0.138 A 
ATOM     26  C   UNL A   1      33.914  22.526  27.688  1.00  0.00     0.001 A 
ATOM     27  C   UNL A   1      34.615  23.896  25.816  1.00  0.00     0.048 A 
ATOM     28  C   UNL A   1      34.925  23.022  26.863  1.00  0.00     0.004 A 
ENDBRANCH   9  12
ENDBRANCH   7   8
ENDBRANCH   6   7
ENDBRANCH   5   6
ENDBRANCH   1   5
BRANCH   2  29
ATOM     29  C   UNL A   1      35.920  30.166  28.353  1.00  0.00     0.039 A 
ATOM     30  C   UNL A   1      36.285  29.675  29.605  1.00  0.00     0.014 A 
ATOM     31  C   UNL A   1      36.854  30.147  27.310  1.00  0.00     0.014 A 
ATOM     32  C   UNL A   1      37.613  29.345  29.865  1.00  0.00     0.010 A 
ATOM     33  C   UNL A   1      38.165  29.714  27.546  1.00  0.00     0.010 A 
ATOM     34  C   UNL A   1      38.572  29.353  28.840  1.00  0.00    -0.014 A 
BRANCH  34  35
ATOM     35  C   UNL A   1      39.978  28.964  29.143  1.00  0.00     0.031 A 
ATOM     36  C   UNL A   1      40.517  27.620  28.722  1.00  0.00     0.074 A 
ATOM     37  C   UNL A   1      40.793  29.854  29.747  1.00  0.00     0.049 A 
ATOM     38  N   UNL A   1      41.722  27.133  28.884  1.00  0.00    -0.248 NA
ATOM     39  C   UNL A   1      39.594  26.703  28.033  1.00  0.00     0.031 C 
ATOM     40  C   UNL A   1      40.396  31.197  30.179  1.00  0.00     0.029 A 
ATOM     41  N   UNL A   1      42.127  29.789  30.067  1.00  0.00    -0.354 N 
ATOM     42  C   UNL A   1      41.695  25.853  28.342  1.00  0.00     0.074 A 
ATOM     43  C   UNL A   1      40.349  25.625  27.866  1.00  0.00     0.031 C 
ATOM     44  C   UNL A   1      41.474  31.854  30.626  1.00  0.00     0.029 A 
ATOM     45  C   UNL A   1      42.625  30.958  30.597  1.00  0.00     0.049 A 
ATOM     46  H   UNL A   1      42.675  28.983  29.930  1.00  0.00     0.167 HD
ATOM     47  C   UNL A   1      42.703  24.955  28.240  1.00  0.00     0.031 A 
ATOM     48  C   UNL A   1      43.863  31.280  31.023  1.00  0.00     0.031 A 
ATOM     49  C   UNL A   1      44.050  25.202  28.689  1.00  0.00     0.049 A 
ATOM     50  C   UNL A   1      44.952  30.249  30.943  1.00  0.00     0.074 A 
ATOM     51  C   UNL A   1      45.146  24.360  28.603  1.00  0.00     0.029 A 
ATOM     52  N   UNL A   1      44.490  26.369  29.294  1.00  0.00    -0.354 N 
ATOM     53  N   UNL A   1      44.902  29.043  30.430  1.00  0.00    -0.248 NA
ATOM     54  C   UNL A   1      46.260  30.612  31.504  1.00  0.00     0.031 C 
ATOM     55  C   UNL A   1      46.230  24.991  29.215  1.00  0.00     0.029 A 
ATOM     56  C   UNL A   1      45.831  26.256  29.616  1.00  0.00     0.049 A 
ATOM     57  H   UNL A   1      43.930  27.161  29.469  1.00  0.00     0.167 HD
ATOM     58  C   UNL A   1      46.171  28.506  30.600  1.00  0.00     0.074 A 
ATOM     59  C   UNL A   1      46.976  29.525  31.243  1.00  0.00     0.031 C 
ATOM     60  C   UNL A   1      46.623  27.275  30.258  1.00  0.00     0.031 A 
BRANCH  47  61
ATOM     61  C   UNL A   1      42.418  23.609  27.623  1.00  0.00    -0.014 A 
ATOM     62  C   UNL A   1      41.949  22.559  28.434  1.00  0.00     0.010 A 
ATOM     63  C   UNL A   1      42.748  23.341  26.282  1.00  0.00     0.010 A 
ATOM     64  C   UNL A   1      41.850  21.258  27.931  1.00  0.00     0.020 A 
ATOM     65  C   UNL A   1      42.625  22.046  25.766  1.00  0.00     0.020 A 
ATOM     66  C   UNL A   1      42.201  21.008  26.603  1.00  0.00     0.054 A 
BRANCH  66  67
ATOM     67  S   UNL A   1      42.107  19.308  25.977  1.00  0.00     0.124 S 
ATOM     68  O   UNL A   1      40.680  19.156  25.709  1.00  0.00    -0.237 OA
ATOM     69  O   UNL A   1      42.970  19.352  24.799  1.00  0.00    -0.237 OA
ATOM     70  O   UNL A   1      42.624  18.507  27.085  1.00  0.00    -0.744 OA
ENDBRANCH  66  67
ENDBRANCH  47  61
BRANCH  48  71
ATOM     71  C   UNL A   1      44.122  32.652  31.544  1.00  0.00    -0.014 A 
ATOM     72  C   UNL A   1      44.002  32.928  32.919  1.00  0.00     0.010 A 
ATOM     73  C   UNL A   1      44.403  33.707  30.658  1.00  0.00     0.010 A 
ATOM     74  C   UNL A   1      44.089  34.240  33.390  1.00  0.00     0.020 A 
ATOM     75  C   UNL A   1      44.524  35.018  31.131  1.00  0.00     0.020 A 
ATOM     76  C   UNL A   1      44.334  35.279  32.490  1.00  0.00     0.054 A 
BRANCH  76  77
ATOM     77  S   UNL A   1      44.385  36.981  33.117  1.00  0.00     0.124 S 
ATOM     78  O   UNL A   1      44.624  37.743  31.894  1.00  0.00    -0.237 OA
ATOM     79  O   UNL A   1      43.061  37.144  33.710  1.00  0.00    -0.237 OA
ATOM     80  O   UNL A   1      45.492  36.961  34.070  1.00  0.00    -0.744 OA
ENDBRANCH  76  77
ENDBRANCH  48  71
BRANCH  60  81
ATOM     81  C   UNL A   1      48.057  26.934  30.565  1.00  0.00    -0.014 A 
ATOM     82  C   UNL A   1      48.392  26.389  31.818  1.00  0.00     0.010 A 
ATOM     83  C   UNL A   1      49.085  27.284  29.672  1.00  0.00     0.010 A 
ATOM     84  C   UNL A   1      49.730  26.241  32.192  1.00  0.00     0.020 A 
ATOM     85  C   UNL A   1      50.424  27.111  30.031  1.00  0.00     0.020 A 
ATOM     86  C   UNL A   1      50.737  26.616  31.300  1.00  0.00     0.054 A 
BRANCH  86  87
ATOM     87  S   UNL A   1      52.468  26.460  31.820  1.00  0.00     0.124 S 
ATOM     88  O   UNL A   1      52.422  25.290  32.693  1.00  0.00    -0.237 OA
ATOM     89  O   UNL A   1      53.169  26.272  30.552  1.00  0.00    -0.237 OA
ATOM     90  O   UNL A   1      52.740  27.730  32.491  1.00  0.00    -0.744 OA
ENDBRANCH  86  87
ENDBRANCH  60  81
ENDBRANCH  34  35
ENDBRANCH   2  29
TORSDOF 13
ENDMDL
