MODEL 1
REMARK VINA RESULT:     -11.1      0.000      0.000
REMARK SMILES O=C(COc1ccccc1[C@@H]1[NH2+]CCc2cc(O)c(O)cc21)NCCCNC(=O)c1ccc(-c2c3nc(c(-c4ccc(S(=O)(=O)[O-])cc4)c4ccc([nH]4)c(-c4ccc(S(=O)(=O)[O-])cc4)c4nc(c(-c5ccc(S(=O)(=O)[O-])cc5)c5ccc2[nH]5)C=C4)C=C3)cc1
REMARK SMILES IDX 24 1 23 2 1 3 2 4 3 6 4 7 5 8 6 9 10 10 7 11 9 12 8 13 11 14
REMARK SMILES IDX 12 15 22 16 13 17 15 20 21 21 14 22 16 23 19 24 17 25 20 26
REMARK SMILES IDX 18 28 25 30 26 31 27 32 28 33 29 35 30 36 31 37 89 38 32 39
REMARK SMILES IDX 88 40 33 41 34 42 35 43 82 44 36 45 87 46 81 47 83 48 37 49
REMARK SMILES IDX 86 50 80 51 79 52 38 54 68 55 49 56 67 57 50 58 53 59 66 60
REMARK SMILES IDX 84 61 51 62 52 63 65 65 85 66 54 67 39 68 40 69 48 70 41 71
REMARK SMILES IDX 47 72 42 73 43 74 44 75 45 76 46 77 69 78 70 79 78 80 71 81
REMARK SMILES IDX 77 82 72 83 73 84 74 85 75 86 76 87 55 88 56 89 64 90 57 91
REMARK SMILES IDX 63 92 58 93 59 94 60 95 61 96 62 97
REMARK H PARENT 23 5 12 18 12 19 20 27 18 29 27 34 83 53 53 64
REMARK Flexibility Score: inf
ROOT
ATOM      1  C   UNL A   1      32.718  28.930  24.819  1.00  0.00     0.117 C 
ENDROOT
BRANCH   1   2
ATOM      2  N   UNL A   1      32.089  28.374  23.637  1.00  0.00    -0.353 N 
ATOM      3  O   UNL A   1      33.876  27.113  22.940  1.00  0.00    -0.271 OA
ATOM      4  C   UNL A   1      32.676  27.370  22.889  1.00  0.00     0.257 C 
ATOM      5  H   UNL A   1      31.213  28.724  23.356  1.00  0.00     0.163 HD
BRANCH   4   6
ATOM      6  C   UNL A   1      31.687  26.579  22.020  1.00  0.00     0.329 C 
BRANCH   6   7
ATOM      7  O   UNL A   1      31.045  25.465  22.609  1.00  0.00    -0.483 OA
BRANCH   7   8
ATOM      8  C   UNL A   1      31.260  24.965  23.866  1.00  0.00     0.129 A 
ATOM      9  C   UNL A   1      30.231  25.418  24.719  1.00  0.00     0.047 A 
ATOM     10  C   UNL A   1      32.358  24.264  24.424  1.00  0.00     0.056 A 
ATOM     11  C   UNL A   1      30.311  25.298  26.102  1.00  0.00     0.004 A 
ATOM     12  C   UNL A   1      32.451  24.236  25.839  1.00  0.00     0.014 A 
ATOM     13  C   UNL A   1      31.450  24.751  26.665  1.00  0.00     0.001 A 
BRANCH  10  14
ATOM     14  C   UNL A   1      33.465  23.593  23.621  1.00  0.00     0.249 C 
ATOM     15  N   UNL A   1      32.942  22.810  22.493  1.00  0.00    -0.336 N 
ATOM     16  C   UNL A   1      34.537  22.730  24.294  1.00  0.00     0.021 A 
ATOM     17  C   UNL A   1      32.324  21.540  22.892  1.00  0.00     0.266 C 
ATOM     18  H   UNL A   1      33.713  22.607  21.857  1.00  0.00     0.347 HD
ATOM     19  H   UNL A   1      32.212  23.371  22.054  1.00  0.00     0.347 HD
ATOM     20  C   UNL A   1      34.241  21.360  24.486  1.00  0.00    -0.029 A 
ATOM     21  C   UNL A   1      35.849  23.195  24.487  1.00  0.00     0.060 A 
ATOM     22  C   UNL A   1      32.828  20.925  24.208  1.00  0.00     0.097 C 
ATOM     23  C   UNL A   1      35.251  20.459  24.822  1.00  0.00     0.054 A 
ATOM     24  C   UNL A   1      36.852  22.278  24.783  1.00  0.00     0.157 A 
ATOM     25  C   UNL A   1      36.553  20.925  24.934  1.00  0.00     0.157 A 
BRANCH  24  26
ATOM     26  O   UNL A   1      38.166  22.647  24.879  1.00  0.00    -0.504 OA
ATOM     27  H   UNL A   1      38.839  22.065  24.585  1.00  0.00     0.293 HD
ENDBRANCH  24  26
BRANCH  25  28
ATOM     28  O   UNL A   1      37.562  20.026  25.137  1.00  0.00    -0.504 OA
ATOM     29  H   UNL A   1      38.251  20.223  25.742  1.00  0.00     0.293 HD
ENDBRANCH  25  28
ENDBRANCH  10  14
ENDBRANCH   7   8
ENDBRANCH   6   7
ENDBRANCH   4   6
ENDBRANCH   1   2
BRANCH   1  30
ATOM     30  C   UNL A   1      32.765  28.023  26.028  1.00  0.00     0.042 C 
BRANCH  30  31
ATOM     31  C   UNL A   1      33.809  28.429  27.042  1.00  0.00     0.118 C 
BRANCH  31  32
ATOM     32  N   UNL A   1      33.651  29.800  27.509  1.00  0.00    -0.352 N 
ATOM     33  C   UNL A   1      34.552  30.595  28.171  1.00  0.00     0.251 C 
ATOM     34  H   UNL A   1      32.777  30.214  27.323  1.00  0.00     0.163 HD
ATOM     35  O   UNL A   1      34.206  31.693  28.600  1.00  0.00    -0.269 OA
BRANCH  33  36
ATOM     36  C   UNL A   1      35.926  30.098  28.390  1.00  0.00     0.039 A 
ATOM     37  C   UNL A   1      36.854  30.189  27.352  1.00  0.00     0.014 A 
ATOM     38  C   UNL A   1      36.303  29.581  29.633  1.00  0.00     0.014 A 
ATOM     39  C   UNL A   1      38.177  29.812  27.582  1.00  0.00     0.010 A 
ATOM     40  C   UNL A   1      37.640  29.318  29.892  1.00  0.00     0.010 A 
ATOM     41  C   UNL A   1      38.586  29.401  28.863  1.00  0.00    -0.014 A 
BRANCH  41  42
ATOM     42  C   UNL A   1      39.986  28.996  29.136  1.00  0.00     0.031 A 
ATOM     43  C   UNL A   1      40.931  29.981  29.773  1.00  0.00     0.074 A 
ATOM     44  C   UNL A   1      40.418  27.774  28.767  1.00  0.00     0.049 A 
ATOM     45  N   UNL A   1      42.200  29.842  30.054  1.00  0.00    -0.248 NA
ATOM     46  C   UNL A   1      40.388  31.309  30.105  1.00  0.00     0.031 C 
ATOM     47  C   UNL A   1      39.611  26.754  28.092  1.00  0.00     0.029 A 
ATOM     48  N   UNL A   1      41.648  27.184  28.907  1.00  0.00    -0.354 N 
ATOM     49  C   UNL A   1      42.607  31.066  30.572  1.00  0.00     0.074 A 
ATOM     50  C   UNL A   1      41.471  31.956  30.505  1.00  0.00     0.031 C 
ATOM     51  C   UNL A   1      40.356  25.650  27.914  1.00  0.00     0.029 A 
ATOM     52  C   UNL A   1      41.700  25.897  28.425  1.00  0.00     0.049 A 
ATOM     53  H   UNL A   1      42.420  27.638  29.314  1.00  0.00     0.167 HD
ATOM     54  C   UNL A   1      43.810  31.413  31.086  1.00  0.00     0.031 A 
ATOM     55  C   UNL A   1      42.718  25.015  28.403  1.00  0.00     0.031 A 
ATOM     56  C   UNL A   1      44.928  30.514  31.177  1.00  0.00     0.049 A 
ATOM     57  C   UNL A   1      44.041  25.415  28.999  1.00  0.00     0.074 A 
ATOM     58  C   UNL A   1      46.172  30.743  31.735  1.00  0.00     0.029 A 
ATOM     59  N   UNL A   1      44.932  29.211  30.702  1.00  0.00    -0.354 N 
ATOM     60  N   UNL A   1      44.388  26.556  29.546  1.00  0.00    -0.248 NA
ATOM     61  C   UNL A   1      45.105  24.401  28.990  1.00  0.00     0.031 C 
ATOM     62  C   UNL A   1      46.945  29.591  31.557  1.00  0.00     0.029 A 
ATOM     63  C   UNL A   1      46.163  28.628  30.940  1.00  0.00     0.049 A 
ATOM     64  H   UNL A   1      44.171  28.769  30.260  1.00  0.00     0.167 HD
ATOM     65  C   UNL A   1      45.698  26.387  29.976  1.00  0.00     0.074 A 
ATOM     66  C   UNL A   1      46.077  25.030  29.636  1.00  0.00     0.031 C 
ATOM     67  C   UNL A   1      46.515  27.273  30.598  1.00  0.00     0.031 A 
BRANCH  54  68
ATOM     68  C   UNL A   1      43.968  32.822  31.594  1.00  0.00    -0.014 A 
ATOM     69  C   UNL A   1      43.721  33.140  32.943  1.00  0.00     0.010 A 
ATOM     70  C   UNL A   1      44.386  33.839  30.719  1.00  0.00     0.010 A 
ATOM     71  C   UNL A   1      43.842  34.455  33.395  1.00  0.00     0.020 A 
ATOM     72  C   UNL A   1      44.539  35.152  31.174  1.00  0.00     0.020 A 
ATOM     73  C   UNL A   1      44.248  35.454  32.506  1.00  0.00     0.054 A 
BRANCH  73  74
ATOM     74  S   UNL A   1      44.416  37.151  33.123  1.00  0.00     0.124 S 
ATOM     75  O   UNL A   1      44.104  37.937  31.933  1.00  0.00    -0.237 OA
ATOM     76  O   UNL A   1      43.417  37.205  34.189  1.00  0.00    -0.237 OA
ATOM     77  O   UNL A   1      45.804  37.222  33.572  1.00  0.00    -0.744 OA
ENDBRANCH  73  74
ENDBRANCH  54  68
BRANCH  55  78
ATOM     78  C   UNL A   1      42.514  23.657  27.830  1.00  0.00    -0.014 A 
ATOM     79  C   UNL A   1      42.869  23.383  26.496  1.00  0.00     0.010 A 
ATOM     80  C   UNL A   1      41.976  22.624  28.618  1.00  0.00     0.010 A 
ATOM     81  C   UNL A   1      42.668  22.110  25.956  1.00  0.00     0.020 A 
ATOM     82  C   UNL A   1      41.799  21.341  28.089  1.00  0.00     0.020 A 
ATOM     83  C   UNL A   1      42.136  21.096  26.756  1.00  0.00     0.054 A 
BRANCH  83  84
ATOM     84  S   UNL A   1      41.929  19.438  26.046  1.00  0.00     0.124 S 
ATOM     85  O   UNL A   1      42.415  18.584  27.125  1.00  0.00    -0.237 OA
ATOM     86  O   UNL A   1      40.491  19.381  25.792  1.00  0.00    -0.237 OA
ATOM     87  O   UNL A   1      42.764  19.474  24.848  1.00  0.00    -0.744 OA
ENDBRANCH  83  84
ENDBRANCH  55  78
BRANCH  67  88
ATOM     88  C   UNL A   1      47.885  26.790  30.994  1.00  0.00    -0.014 A 
ATOM     89  C   UNL A   1      48.988  26.936  30.137  1.00  0.00     0.010 A 
ATOM     90  C   UNL A   1      48.076  26.233  32.273  1.00  0.00     0.010 A 
ATOM     91  C   UNL A   1      50.254  26.501  30.538  1.00  0.00     0.020 A 
ATOM     92  C   UNL A   1      49.344  25.823  32.688  1.00  0.00     0.020 A 
ATOM     93  C   UNL A   1      50.424  25.946  31.810  1.00  0.00     0.054 A 
BRANCH  93  94
ATOM     94  S   UNL A   1      52.083  25.425  32.323  1.00  0.00     0.124 S 
ATOM     95  O   UNL A   1      52.205  26.051  33.636  1.00  0.00    -0.237 OA
ATOM     96  O   UNL A   1      51.974  23.968  32.328  1.00  0.00    -0.237 OA
ATOM     97  O   UNL A   1      52.954  25.975  31.287  1.00  0.00    -0.744 OA
ENDBRANCH  93  94
ENDBRANCH  67  88
ENDBRANCH  41  42
ENDBRANCH  33  36
ENDBRANCH  31  32
ENDBRANCH  30  31
ENDBRANCH   1  30
TORSDOF 18
ENDMDL
MODEL 2
REMARK VINA RESULT:     -11.1      4.402     10.328
REMARK SMILES O=C(COc1ccccc1[C@@H]1[NH2+]CCc2cc(O)c(O)cc21)NCCCNC(=O)c1ccc(-c2c3nc(c(-c4ccc(S(=O)(=O)[O-])cc4)c4ccc([nH]4)c(-c4ccc(S(=O)(=O)[O-])cc4)c4nc(c(-c5ccc(S(=O)(=O)[O-])cc5)c5ccc2[nH]5)C=C4)C=C3)cc1
REMARK SMILES IDX 24 1 23 2 1 3 2 4 3 6 4 7 5 8 6 9 10 10 7 11 9 12 8 13 11 14
REMARK SMILES IDX 12 15 22 16 13 17 15 20 21 21 14 22 16 23 19 24 17 25 20 26
REMARK SMILES IDX 18 28 25 30 26 31 27 32 28 33 29 35 30 36 31 37 89 38 32 39
REMARK SMILES IDX 88 40 33 41 34 42 35 43 82 44 36 45 87 46 81 47 83 48 37 49
REMARK SMILES IDX 86 50 80 51 79 52 38 54 68 55 49 56 67 57 50 58 53 59 66 60
REMARK SMILES IDX 84 61 51 62 52 63 65 65 85 66 54 67 39 68 40 69 48 70 41 71
REMARK SMILES IDX 47 72 42 73 43 74 44 75 45 76 46 77 69 78 70 79 78 80 71 81
REMARK SMILES IDX 77 82 72 83 73 84 74 85 75 86 76 87 55 88 56 89 64 90 57 91
REMARK SMILES IDX 63 92 58 93 59 94 60 95 61 96 62 97
REMARK H PARENT 23 5 12 18 12 19 20 27 18 29 27 34 83 53 53 64
REMARK Flexibility Score: inf
ROOT
ATOM      1  C   UNL A   1      40.135  21.963  26.214  1.00  0.00     0.117 C 
ENDROOT
BRANCH   1   2
ATOM      2  N   UNL A   1      38.897  21.226  26.060  1.00  0.00    -0.353 N 
ATOM      3  O   UNL A   1      37.564  23.026  25.555  1.00  0.00    -0.271 OA
ATOM      4  C   UNL A   1      37.743  21.811  25.570  1.00  0.00     0.257 C 
ATOM      5  H   UNL A   1      38.875  20.275  26.313  1.00  0.00     0.163 HD
BRANCH   4   6
ATOM      6  C   UNL A   1      36.723  20.808  25.012  1.00  0.00     0.329 C 
BRANCH   6   7
ATOM      7  O   UNL A   1      35.429  20.805  25.584  1.00  0.00    -0.483 OA
BRANCH   7   8
ATOM      8  C   UNL A   1      34.237  20.717  24.915  1.00  0.00     0.129 A 
ATOM      9  C   UNL A   1      33.704  19.424  25.101  1.00  0.00     0.047 A 
ATOM     10  C   UNL A   1      33.602  21.599  24.006  1.00  0.00     0.056 A 
ATOM     11  C   UNL A   1      32.643  18.945  24.341  1.00  0.00     0.004 A 
ATOM     12  C   UNL A   1      32.582  21.052  23.186  1.00  0.00     0.014 A 
ATOM     13  C   UNL A   1      32.115  19.746  23.344  1.00  0.00     0.001 A 
BRANCH  10  14
ATOM     14  C   UNL A   1      33.972  23.063  23.806  1.00  0.00     0.249 C 
ATOM     15  N   UNL A   1      34.322  23.728  25.068  1.00  0.00    -0.336 N 
ATOM     16  C   UNL A   1      33.058  24.027  23.042  1.00  0.00     0.021 A 
ATOM     17  C   UNL A   1      33.165  24.032  25.916  1.00  0.00     0.266 C 
ATOM     18  H   UNL A   1      34.800  24.602  24.849  1.00  0.00     0.347 HD
ATOM     19  H   UNL A   1      34.914  23.082  25.591  1.00  0.00     0.347 HD
ATOM     20  C   UNL A   1      32.045  24.682  23.779  1.00  0.00    -0.029 A 
ATOM     21  C   UNL A   1      33.352  24.447  21.734  1.00  0.00     0.060 A 
ATOM     22  C   UNL A   1      31.822  24.214  25.192  1.00  0.00     0.097 C 
ATOM     23  C   UNL A   1      31.365  25.771  23.234  1.00  0.00     0.054 A 
ATOM     24  C   UNL A   1      32.694  25.558  21.219  1.00  0.00     0.157 A 
ATOM     25  C   UNL A   1      31.723  26.218  21.971  1.00  0.00     0.157 A 
BRANCH  24  26
ATOM     26  O   UNL A   1      33.008  26.085  19.995  1.00  0.00    -0.504 OA
ATOM     27  H   UNL A   1      33.751  26.649  19.904  1.00  0.00     0.293 HD
ENDBRANCH  24  26
BRANCH  25  28
ATOM     28  O   UNL A   1      31.150  27.360  21.486  1.00  0.00    -0.504 OA
ATOM     29  H   UNL A   1      31.680  28.011  21.071  1.00  0.00     0.293 HD
ENDBRANCH  25  28
ENDBRANCH  10  14
ENDBRANCH   7   8
ENDBRANCH   6   7
ENDBRANCH   4   6
ENDBRANCH   1   2
BRANCH   1  30
ATOM     30  C   UNL A   1      40.426  22.480  27.604  1.00  0.00     0.042 C 
BRANCH  30  31
ATOM     31  C   UNL A   1      41.508  23.534  27.639  1.00  0.00     0.118 C 
BRANCH  31  32
ATOM     32  N   UNL A   1      41.676  24.224  26.367  1.00  0.00    -0.352 N 
ATOM     33  C   UNL A   1      41.520  25.557  26.082  1.00  0.00     0.251 C 
ATOM     34  H   UNL A   1      41.939  23.656  25.607  1.00  0.00     0.163 HD
ATOM     35  O   UNL A   1      41.583  25.949  24.920  1.00  0.00    -0.269 OA
BRANCH  33  36
ATOM     36  C   UNL A   1      41.241  26.501  27.183  1.00  0.00     0.039 A 
ATOM     37  C   UNL A   1      40.200  26.222  28.070  1.00  0.00     0.014 A 
ATOM     38  C   UNL A   1      42.034  27.638  27.360  1.00  0.00     0.014 A 
ATOM     39  C   UNL A   1      39.993  27.057  29.167  1.00  0.00     0.010 A 
ATOM     40  C   UNL A   1      41.901  28.399  28.513  1.00  0.00     0.010 A 
ATOM     41  C   UNL A   1      40.860  28.135  29.413  1.00  0.00    -0.014 A 
BRANCH  41  42
ATOM     42  C   UNL A   1      40.664  29.038  30.572  1.00  0.00     0.031 A 
ATOM     43  C   UNL A   1      41.538  28.881  31.789  1.00  0.00     0.074 A 
ATOM     44  C   UNL A   1      39.677  29.955  30.552  1.00  0.00     0.049 A 
ATOM     45  N   UNL A   1      41.501  29.537  32.920  1.00  0.00    -0.248 NA
ATOM     46  C   UNL A   1      42.565  27.826  31.743  1.00  0.00     0.031 C 
ATOM     47  C   UNL A   1      38.731  30.165  29.453  1.00  0.00     0.029 A 
ATOM     48  N   UNL A   1      39.304  30.884  31.490  1.00  0.00    -0.354 N 
ATOM     49  C   UNL A   1      42.479  28.958  33.721  1.00  0.00     0.074 A 
ATOM     50  C   UNL A   1      43.046  27.859  32.976  1.00  0.00     0.031 C 
ATOM     51  C   UNL A   1      37.913  31.184  29.763  1.00  0.00     0.029 A 
ATOM     52  C   UNL A   1      38.251  31.674  31.096  1.00  0.00     0.049 A 
ATOM     53  H   UNL A   1      39.748  30.975  32.364  1.00  0.00     0.167 HD
ATOM     54  C   UNL A   1      42.892  29.326  34.956  1.00  0.00     0.031 A 
ATOM     55  C   UNL A   1      37.630  32.684  31.737  1.00  0.00     0.031 A 
ATOM     56  C   UNL A   1      42.343  30.439  35.682  1.00  0.00     0.049 A 
ATOM     57  C   UNL A   1      38.119  33.090  33.101  1.00  0.00     0.074 A 
ATOM     58  C   UNL A   1      42.728  30.937  36.913  1.00  0.00     0.029 A 
ATOM     59  N   UNL A   1      41.295  31.231  35.236  1.00  0.00    -0.354 N 
ATOM     60  N   UNL A   1      39.091  32.574  33.815  1.00  0.00    -0.248 NA
ATOM     61  C   UNL A   1      37.438  34.226  33.737  1.00  0.00     0.031 C 
ATOM     62  C   UNL A   1      41.883  32.004  37.233  1.00  0.00     0.029 A 
ATOM     63  C   UNL A   1      41.010  32.206  36.175  1.00  0.00     0.049 A 
ATOM     64  H   UNL A   1      40.825  31.116  34.379  1.00  0.00     0.167 HD
ATOM     65  C   UNL A   1      39.159  33.343  34.971  1.00  0.00     0.074 A 
ATOM     66  C   UNL A   1      38.139  34.365  34.854  1.00  0.00     0.031 C 
ATOM     67  C   UNL A   1      39.993  33.217  36.034  1.00  0.00     0.031 A 
BRANCH  54  68
ATOM     68  C   UNL A   1      43.993  28.518  35.590  1.00  0.00    -0.014 A 
ATOM     69  C   UNL A   1      45.346  28.845  35.383  1.00  0.00     0.010 A 
ATOM     70  C   UNL A   1      43.674  27.429  36.419  1.00  0.00     0.010 A 
ATOM     71  C   UNL A   1      46.358  28.070  35.952  1.00  0.00     0.020 A 
ATOM     72  C   UNL A   1      44.683  26.669  37.017  1.00  0.00     0.020 A 
ATOM     73  C   UNL A   1      46.020  26.984  36.764  1.00  0.00     0.054 A 
BRANCH  73  74
ATOM     74  S   UNL A   1      47.354  26.005  37.506  1.00  0.00     0.124 S 
ATOM     75  O   UNL A   1      47.224  24.734  36.800  1.00  0.00    -0.237 OA
ATOM     76  O   UNL A   1      48.545  26.785  37.178  1.00  0.00    -0.237 OA
ATOM     77  O   UNL A   1      47.010  25.969  38.925  1.00  0.00    -0.744 OA
ENDBRANCH  73  74
ENDBRANCH  54  68
BRANCH  55  78
ATOM     78  C   UNL A   1      36.505  33.404  31.079  1.00  0.00    -0.014 A 
ATOM     79  C   UNL A   1      36.634  33.876  29.760  1.00  0.00     0.010 A 
ATOM     80  C   UNL A   1      35.294  33.612  31.762  1.00  0.00     0.010 A 
ATOM     81  C   UNL A   1      35.582  34.560  29.145  1.00  0.00     0.020 A 
ATOM     82  C   UNL A   1      34.229  34.272  31.142  1.00  0.00     0.020 A 
ATOM     83  C   UNL A   1      34.385  34.753  29.840  1.00  0.00     0.054 A 
BRANCH  83  84
ATOM     84  S   UNL A   1      33.015  35.603  29.005  1.00  0.00     0.124 S 
ATOM     85  O   UNL A   1      33.707  36.688  28.316  1.00  0.00    -0.237 OA
ATOM     86  O   UNL A   1      32.470  34.554  28.147  1.00  0.00    -0.237 OA
ATOM     87  O   UNL A   1      32.146  36.011  30.106  1.00  0.00    -0.744 OA
ENDBRANCH  83  84
ENDBRANCH  55  78
BRANCH  67  88
ATOM     88  C   UNL A   1      39.869  34.236  37.134  1.00  0.00    -0.014 A 
ATOM     89  C   UNL A   1      40.396  35.531  36.995  1.00  0.00     0.010 A 
ATOM     90  C   UNL A   1      39.160  33.904  38.304  1.00  0.00     0.010 A 
ATOM     91  C   UNL A   1      40.247  36.466  38.023  1.00  0.00     0.020 A 
ATOM     92  C   UNL A   1      38.984  34.844  39.321  1.00  0.00     0.020 A 
ATOM     93  C   UNL A   1      39.543  36.116  39.180  1.00  0.00     0.054 A 
BRANCH  93  94
ATOM     94  S   UNL A   1      39.329  37.359  40.482  1.00  0.00     0.124 S 
ATOM     95  O   UNL A   1      38.498  38.358  39.815  1.00  0.00    -0.237 OA
ATOM     96  O   UNL A   1      38.670  36.601  41.543  1.00  0.00    -0.237 OA
ATOM     97  O   UNL A   1      40.694  37.785  40.784  1.00  0.00    -0.744 OA
ENDBRANCH  93  94
ENDBRANCH  67  88
ENDBRANCH  41  42
ENDBRANCH  33  36
ENDBRANCH  31  32
ENDBRANCH  30  31
ENDBRANCH   1  30
TORSDOF 18
ENDMDL
MODEL 3
REMARK VINA RESULT:     -11.0      2.550      3.195
REMARK SMILES O=C(COc1ccccc1[C@@H]1[NH2+]CCc2cc(O)c(O)cc21)NCCCNC(=O)c1ccc(-c2c3nc(c(-c4ccc(S(=O)(=O)[O-])cc4)c4ccc([nH]4)c(-c4ccc(S(=O)(=O)[O-])cc4)c4nc(c(-c5ccc(S(=O)(=O)[O-])cc5)c5ccc2[nH]5)C=C4)C=C3)cc1
REMARK SMILES IDX 24 1 23 2 1 3 2 4 3 6 4 7 5 8 6 9 10 10 7 11 9 12 8 13 11 14
REMARK SMILES IDX 12 15 22 16 13 17 15 20 21 21 14 22 16 23 19 24 17 25 20 26
REMARK SMILES IDX 18 28 25 30 26 31 27 32 28 33 29 35 30 36 31 37 89 38 32 39
REMARK SMILES IDX 88 40 33 41 34 42 35 43 82 44 36 45 87 46 81 47 83 48 37 49
REMARK SMILES IDX 86 50 80 51 79 52 38 54 68 55 49 56 67 57 50 58 53 59 66 60
REMARK SMILES IDX 84 61 51 62 52 63 65 65 85 66 54 67 39 68 40 69 48 70 41 71
REMARK SMILES IDX 47 72 42 73 43 74 44 75 45 76 46 77 69 78 70 79 78 80 71 81
REMARK SMILES IDX 77 82 72 83 73 84 74 85 75 86 76 87 55 88 56 89 64 90 57 91
REMARK SMILES IDX 63 92 58 93 59 94 60 95 61 96 62 97
REMARK H PARENT 23 5 12 18 12 19 20 27 18 29 27 34 83 53 53 64
REMARK Flexibility Score: inf
ROOT
ATOM      1  C   UNL A   1      33.501  28.753  23.829  1.00  0.00     0.117 C 
ENDROOT
BRANCH   1   2
ATOM      2  N   UNL A   1      32.584  28.168  22.870  1.00  0.00    -0.353 N 
ATOM      3  O   UNL A   1      34.042  26.624  21.999  1.00  0.00    -0.271 OA
ATOM      4  C   UNL A   1      32.892  27.027  22.152  1.00  0.00     0.257 C 
ATOM      5  H   UNL A   1      31.711  28.598  22.725  1.00  0.00     0.163 HD
BRANCH   4   6
ATOM      6  C   UNL A   1      31.665  26.288  21.597  1.00  0.00     0.329 C 
BRANCH   6   7
ATOM      7  O   UNL A   1      31.117  25.248  22.384  1.00  0.00    -0.483 OA
BRANCH   7   8
ATOM      8  C   UNL A   1      31.425  24.957  23.687  1.00  0.00     0.129 A 
ATOM      9  C   UNL A   1      30.484  25.585  24.529  1.00  0.00     0.047 A 
ATOM     10  C   UNL A   1      32.548  24.316  24.267  1.00  0.00     0.056 A 
ATOM     11  C   UNL A   1      30.678  25.694  25.902  1.00  0.00     0.004 A 
ATOM     12  C   UNL A   1      32.760  24.521  25.654  1.00  0.00     0.014 A 
ATOM     13  C   UNL A   1      31.846  25.205  26.457  1.00  0.00     0.001 A 
BRANCH  10  14
ATOM     14  C   UNL A   1      33.566  23.478  23.504  1.00  0.00     0.249 C 
ATOM     15  N   UNL A   1      32.959  22.737  22.390  1.00  0.00    -0.336 N 
ATOM     16  C   UNL A   1      34.503  22.500  24.221  1.00  0.00     0.021 A 
ATOM     17  C   UNL A   1      32.171  21.575  22.814  1.00  0.00     0.266 C 
ATOM     18  H   UNL A   1      33.704  22.414  21.774  1.00  0.00     0.347 HD
ATOM     19  H   UNL A   1      32.317  23.377  21.921  1.00  0.00     0.347 HD
ATOM     20  C   UNL A   1      34.023  21.189  24.446  1.00  0.00    -0.029 A 
ATOM     21  C   UNL A   1      35.863  22.791  24.424  1.00  0.00     0.060 A 
ATOM     22  C   UNL A   1      32.568  20.939  24.155  1.00  0.00     0.097 C 
ATOM     23  C   UNL A   1      34.897  20.172  24.827  1.00  0.00     0.054 A 
ATOM     24  C   UNL A   1      36.729  21.758  24.765  1.00  0.00     0.157 A 
ATOM     25  C   UNL A   1      36.248  20.462  24.949  1.00  0.00     0.157 A 
BRANCH  24  26
ATOM     26  O   UNL A   1      38.079  21.950  24.874  1.00  0.00    -0.504 OA
ATOM     27  H   UNL A   1      38.617  21.289  25.264  1.00  0.00     0.293 HD
ENDBRANCH  24  26
BRANCH  25  28
ATOM     28  O   UNL A   1      37.124  19.443  25.197  1.00  0.00    -0.504 OA
ATOM     29  H   UNL A   1      37.986  19.631  25.514  1.00  0.00     0.293 HD
ENDBRANCH  25  28
ENDBRANCH  10  14
ENDBRANCH   7   8
ENDBRANCH   6   7
ENDBRANCH   4   6
ENDBRANCH   1   2
BRANCH   1  30
ATOM     30  C   UNL A   1      33.528  28.105  25.194  1.00  0.00     0.042 C 
BRANCH  30  31
ATOM     31  C   UNL A   1      34.412  28.826  26.184  1.00  0.00     0.118 C 
BRANCH  31  32
ATOM     32  N   UNL A   1      33.906  30.143  26.550  1.00  0.00    -0.352 N 
ATOM     33  C   UNL A   1      34.361  31.003  27.517  1.00  0.00     0.251 C 
ATOM     34  H   UNL A   1      33.132  30.459  26.031  1.00  0.00     0.163 HD
ATOM     35  O   UNL A   1      33.734  32.028  27.773  1.00  0.00    -0.269 OA
BRANCH  33  36
ATOM     36  C   UNL A   1      35.589  30.663  28.264  1.00  0.00     0.039 A 
ATOM     37  C   UNL A   1      35.528  29.690  29.262  1.00  0.00     0.014 A 
ATOM     38  C   UNL A   1      36.804  31.277  27.949  1.00  0.00     0.014 A 
ATOM     39  C   UNL A   1      36.701  29.294  29.905  1.00  0.00     0.010 A 
ATOM     40  C   UNL A   1      37.982  30.800  28.505  1.00  0.00     0.010 A 
ATOM     41  C   UNL A   1      37.941  29.826  29.510  1.00  0.00    -0.014 A 
BRANCH  41  42
ATOM     42  C   UNL A   1      39.203  29.422  30.175  1.00  0.00     0.031 A 
ATOM     43  C   UNL A   1      39.641  30.135  31.428  1.00  0.00     0.074 A 
ATOM     44  C   UNL A   1      39.975  28.462  29.630  1.00  0.00     0.049 A 
ATOM     45  N   UNL A   1      40.727  29.967  32.136  1.00  0.00    -0.248 NA
ATOM     46  C   UNL A   1      38.759  31.202  31.932  1.00  0.00     0.031 C 
ATOM     47  C   UNL A   1      39.684  27.737  28.390  1.00  0.00     0.029 A 
ATOM     48  N   UNL A   1      41.166  27.929  30.052  1.00  0.00    -0.354 N 
ATOM     49  C   UNL A   1      40.667  30.918  33.148  1.00  0.00     0.074 A 
ATOM     50  C   UNL A   1      39.476  31.703  32.927  1.00  0.00     0.031 C 
ATOM     51  C   UNL A   1      40.650  26.829  28.174  1.00  0.00     0.029 A 
ATOM     52  C   UNL A   1      41.645  26.931  29.236  1.00  0.00     0.049 A 
ATOM     53  H   UNL A   1      41.635  28.233  30.863  1.00  0.00     0.167 HD
ATOM     54  C   UNL A   1      41.512  31.104  34.189  1.00  0.00     0.031 A 
ATOM     55  C   UNL A   1      42.760  26.182  29.336  1.00  0.00     0.031 A 
ATOM     56  C   UNL A   1      42.682  30.301  34.420  1.00  0.00     0.049 A 
ATOM     57  C   UNL A   1      43.674  26.392  30.513  1.00  0.00     0.074 A 
ATOM     58  C   UNL A   1      43.573  30.364  35.476  1.00  0.00     0.029 A 
ATOM     59  N   UNL A   1      43.117  29.283  33.585  1.00  0.00    -0.354 N 
ATOM     60  N   UNL A   1      43.566  27.252  31.498  1.00  0.00    -0.248 NA
ATOM     61  C   UNL A   1      44.853  25.518  30.600  1.00  0.00     0.031 C 
ATOM     62  C   UNL A   1      44.574  29.412  35.256  1.00  0.00     0.029 A 
ATOM     63  C   UNL A   1      44.273  28.719  34.093  1.00  0.00     0.049 A 
ATOM     64  H   UNL A   1      42.669  29.004  32.754  1.00  0.00     0.167 HD
ATOM     65  C   UNL A   1      44.644  27.000  32.339  1.00  0.00     0.074 A 
ATOM     66  C   UNL A   1      45.384  25.901  31.753  1.00  0.00     0.031 C 
ATOM     67  C   UNL A   1      44.990  27.621  33.495  1.00  0.00     0.031 A 
BRANCH  54  68
ATOM     68  C   UNL A   1      41.192  32.215  35.153  1.00  0.00    -0.014 A 
ATOM     69  C   UNL A   1      40.395  31.984  36.290  1.00  0.00     0.010 A 
ATOM     70  C   UNL A   1      41.708  33.504  34.933  1.00  0.00     0.010 A 
ATOM     71  C   UNL A   1      40.080  33.029  37.160  1.00  0.00     0.020 A 
ATOM     72  C   UNL A   1      41.422  34.547  35.819  1.00  0.00     0.020 A 
ATOM     73  C   UNL A   1      40.594  34.306  36.917  1.00  0.00     0.054 A 
BRANCH  73  74
ATOM     74  S   UNL A   1      40.186  35.641  38.074  1.00  0.00     0.124 S 
ATOM     75  O   UNL A   1      41.384  35.695  38.907  1.00  0.00    -0.237 OA
ATOM     76  O   UNL A   1      39.987  36.786  37.187  1.00  0.00    -0.237 OA
ATOM     77  O   UNL A   1      38.981  35.163  38.746  1.00  0.00    -0.744 OA
ENDBRANCH  73  74
ENDBRANCH  54  68
BRANCH  55  78
ATOM     78  C   UNL A   1      43.051  25.139  28.315  1.00  0.00    -0.014 A 
ATOM     79  C   UNL A   1      43.808  25.452  27.171  1.00  0.00     0.010 A 
ATOM     80  C   UNL A   1      42.584  23.824  28.485  1.00  0.00     0.010 A 
ATOM     81  C   UNL A   1      44.074  24.475  26.207  1.00  0.00     0.020 A 
ATOM     82  C   UNL A   1      42.870  22.837  27.536  1.00  0.00     0.020 A 
ATOM     83  C   UNL A   1      43.604  23.173  26.396  1.00  0.00     0.054 A 
BRANCH  83  84
ATOM     84  S   UNL A   1      44.001  21.910  25.155  1.00  0.00     0.124 S 
ATOM     85  O   UNL A   1      43.831  22.648  23.907  1.00  0.00    -0.237 OA
ATOM     86  O   UNL A   1      45.376  21.553  25.497  1.00  0.00    -0.237 OA
ATOM     87  O   UNL A   1      43.013  20.863  25.405  1.00  0.00    -0.744 OA
ENDBRANCH  83  84
ENDBRANCH  55  78
BRANCH  67  88
ATOM     88  C   UNL A   1      46.196  27.097  34.227  1.00  0.00    -0.014 A 
ATOM     89  C   UNL A   1      46.087  26.060  35.168  1.00  0.00     0.010 A 
ATOM     90  C   UNL A   1      47.467  27.619  33.920  1.00  0.00     0.010 A 
ATOM     91  C   UNL A   1      47.226  25.575  35.816  1.00  0.00     0.020 A 
ATOM     92  C   UNL A   1      48.611  27.118  34.546  1.00  0.00     0.020 A 
ATOM     93  C   UNL A   1      48.480  26.108  35.502  1.00  0.00     0.054 A 
BRANCH  93  94
ATOM     94  S   UNL A   1      49.947  25.436  36.328  1.00  0.00     0.124 S 
ATOM     95  O   UNL A   1      50.007  24.081  35.786  1.00  0.00    -0.237 OA
ATOM     96  O   UNL A   1      51.007  26.338  35.884  1.00  0.00    -0.237 OA
ATOM     97  O   UNL A   1      49.617  25.526  37.749  1.00  0.00    -0.744 OA
ENDBRANCH  93  94
ENDBRANCH  67  88
ENDBRANCH  41  42
ENDBRANCH  33  36
ENDBRANCH  31  32
ENDBRANCH  30  31
ENDBRANCH   1  30
TORSDOF 18
ENDMDL
