MODEL 1
REMARK VINA RESULT:     -13.5      0.000      0.000
REMARK SMILES O=C(NCCCNC(=O)c1cc(N2CCN(c3ccc(F)cc3)CC2)ccc1NC(=O)C1CCCC1)c1ccc(-c2c3nc(c(-c4ccc(S(=O)(=O)[O-])cc4)c4ccc([nH]4)c(-c4ccc(S(=O)(=O)[O-])cc4)c4nc(c(-c5ccc(S(=O)(=O)[O-])cc5)c5ccc2[nH]5)C=C4)C=C3)cc1
REMARK SMILES IDX 4 1 3 2 1 3 2 4 37 6 38 7 96 8 39 9 95 10 40 11 41 12 42 13
REMARK SMILES IDX 89 14 43 15 94 16 88 17 90 18 44 19 93 20 87 21 86 22 45 24
REMARK SMILES IDX 75 25 56 26 74 27 57 28 60 29 73 30 91 31 58 32 59 33 72 35
REMARK SMILES IDX 92 36 61 37 46 38 47 39 55 40 48 41 54 42 49 43 50 44 51 45
REMARK SMILES IDX 52 46 53 47 76 48 77 49 85 50 78 51 84 52 79 53 80 54 81 55
REMARK SMILES IDX 82 56 83 57 62 58 63 59 71 60 64 61 70 62 65 63 66 64 67 65
REMARK SMILES IDX 68 66 69 67 5 68 6 69 7 70 8 71 9 73 10 74 11 75 28 76 12 77
REMARK SMILES IDX 27 78 26 79 29 80 30 81 31 83 32 84 33 85 36 86 34 87 35 88
REMARK SMILES IDX 13 89 14 90 25 91 15 92 24 93 16 94 17 95 18 96 23 97 19 98
REMARK SMILES IDX 22 99 20 100 21 101
REMARK H PARENT 3 5 90 23 60 34 7 72 29 82
REMARK Flexibility Score: inf
ROOT
ATOM      1  C   UNL A   1      35.355  29.482  27.638  1.00  0.00     0.118 C 
ENDROOT
BRANCH   1   2
ATOM      2  N   UNL A   1      35.342  29.811  29.058  1.00  0.00    -0.352 N 
ATOM      3  O   UNL A   1      36.069  29.962  31.179  1.00  0.00    -0.269 OA
ATOM      4  C   UNL A   1      36.347  29.787  29.999  1.00  0.00     0.251 C 
ATOM      5  H   UNL A   1      34.466  30.098  29.402  1.00  0.00     0.163 HD
BRANCH   4   6
ATOM      6  C   UNL A   1      37.749  29.524  29.600  1.00  0.00     0.039 A 
ATOM      7  C   UNL A   1      38.203  29.830  28.320  1.00  0.00     0.014 A 
ATOM      8  C   UNL A   1      38.635  28.983  30.539  1.00  0.00     0.014 A 
ATOM      9  C   UNL A   1      39.468  29.422  27.917  1.00  0.00     0.010 A 
ATOM     10  C   UNL A   1      39.950  28.683  30.166  1.00  0.00     0.010 A 
ATOM     11  C   UNL A   1      40.367  28.865  28.839  1.00  0.00    -0.014 A 
BRANCH  11  12
ATOM     12  C   UNL A   1      41.752  28.555  28.398  1.00  0.00     0.031 A 
ATOM     13  C   UNL A   1      42.834  29.598  28.420  1.00  0.00     0.074 A 
ATOM     14  C   UNL A   1      42.034  27.293  28.015  1.00  0.00     0.049 A 
ATOM     15  N   UNL A   1      44.098  29.474  28.103  1.00  0.00    -0.248 NA
ATOM     16  C   UNL A   1      42.456  30.955  28.844  1.00  0.00     0.031 C 
ATOM     17  C   UNL A   1      41.064  26.195  27.946  1.00  0.00     0.029 A 
ATOM     18  N   UNL A   1      43.217  26.710  27.639  1.00  0.00    -0.354 N 
ATOM     19  C   UNL A   1      44.661  30.735  28.266  1.00  0.00     0.074 A 
ATOM     20  C   UNL A   1      43.595  31.617  28.691  1.00  0.00     0.031 C 
ATOM     21  C   UNL A   1      41.701  25.063  27.617  1.00  0.00     0.029 A 
ATOM     22  C   UNL A   1      43.105  25.365  27.376  1.00  0.00     0.049 A 
ATOM     23  H   UNL A   1      44.064  27.205  27.567  1.00  0.00     0.167 HD
ATOM     24  C   UNL A   1      45.948  31.119  28.082  1.00  0.00     0.031 A 
ATOM     25  C   UNL A   1      44.024  24.471  26.968  1.00  0.00     0.031 A 
ATOM     26  C   UNL A   1      47.003  30.235  27.660  1.00  0.00     0.049 A 
ATOM     27  C   UNL A   1      45.435  24.929  26.748  1.00  0.00     0.074 A 
ATOM     28  C   UNL A   1      48.344  30.524  27.468  1.00  0.00     0.029 A 
ATOM     29  N   UNL A   1      46.841  28.889  27.363  1.00  0.00    -0.354 N 
ATOM     30  N   UNL A   1      45.948  26.122  26.929  1.00  0.00    -0.248 NA
ATOM     31  C   UNL A   1      46.389  23.923  26.264  1.00  0.00     0.031 C 
ATOM     32  C   UNL A   1      48.981  29.366  27.008  1.00  0.00     0.029 A 
ATOM     33  C   UNL A   1      48.049  28.341  26.967  1.00  0.00     0.049 A 
ATOM     34  H   UNL A   1      45.990  28.397  27.424  1.00  0.00     0.167 HD
ATOM     35  C   UNL A   1      47.290  26.008  26.593  1.00  0.00     0.074 A 
ATOM     36  C   UNL A   1      47.513  24.625  26.219  1.00  0.00     0.031 C 
ATOM     37  C   UNL A   1      48.251  26.965  26.589  1.00  0.00     0.031 A 
BRANCH  24  38
ATOM     38  C   UNL A   1      46.284  32.570  28.308  1.00  0.00    -0.014 A 
ATOM     39  C   UNL A   1      46.151  33.519  27.278  1.00  0.00     0.010 A 
ATOM     40  C   UNL A   1      46.692  33.002  29.584  1.00  0.00     0.010 A 
ATOM     41  C   UNL A   1      46.457  34.864  27.510  1.00  0.00     0.020 A 
ATOM     42  C   UNL A   1      46.976  34.349  29.827  1.00  0.00     0.020 A 
ATOM     43  C   UNL A   1      46.872  35.269  28.782  1.00  0.00     0.054 A 
BRANCH  43  44
ATOM     44  S   UNL A   1      47.249  37.023  29.059  1.00  0.00     0.124 S 
ATOM     45  O   UNL A   1      46.732  37.637  27.838  1.00  0.00    -0.237 OA
ATOM     46  O   UNL A   1      46.500  37.325  30.277  1.00  0.00    -0.237 OA
ATOM     47  O   UNL A   1      48.702  37.049  29.201  1.00  0.00    -0.744 OA
ENDBRANCH  43  44
ENDBRANCH  24  38
BRANCH  25  48
ATOM     48  C   UNL A   1      43.620  23.059  26.725  1.00  0.00    -0.014 A 
ATOM     49  C   UNL A   1      43.928  22.424  25.511  1.00  0.00     0.010 A 
ATOM     50  C   UNL A   1      42.957  22.333  27.731  1.00  0.00     0.010 A 
ATOM     51  C   UNL A   1      43.570  21.088  25.303  1.00  0.00     0.020 A 
ATOM     52  C   UNL A   1      42.625  20.990  27.539  1.00  0.00     0.020 A 
ATOM     53  C   UNL A   1      42.924  20.380  26.320  1.00  0.00     0.054 A 
BRANCH  53  54
ATOM     54  S   UNL A   1      42.523  18.630  26.053  1.00  0.00     0.124 S 
ATOM     55  O   UNL A   1      41.105  18.694  25.717  1.00  0.00    -0.237 OA
ATOM     56  O   UNL A   1      43.418  18.263  24.958  1.00  0.00    -0.237 OA
ATOM     57  O   UNL A   1      42.837  18.010  27.338  1.00  0.00    -0.744 OA
ENDBRANCH  53  54
ENDBRANCH  25  48
BRANCH  37  58
ATOM     58  C   UNL A   1      49.637  26.539  26.190  1.00  0.00    -0.014 A 
ATOM     59  C   UNL A   1      50.127  26.785  24.894  1.00  0.00     0.010 A 
ATOM     60  C   UNL A   1      50.471  25.916  27.134  1.00  0.00     0.010 A 
ATOM     61  C   UNL A   1      51.417  26.384  24.542  1.00  0.00     0.020 A 
ATOM     62  C   UNL A   1      51.772  25.538  26.793  1.00  0.00     0.020 A 
ATOM     63  C   UNL A   1      52.231  25.761  25.494  1.00  0.00     0.054 A 
BRANCH  63  64
ATOM     64  S   UNL A   1      53.916  25.283  25.023  1.00  0.00     0.124 S 
ATOM     65  O   UNL A   1      53.807  23.828  24.939  1.00  0.00    -0.237 OA
ATOM     66  O   UNL A   1      54.104  25.974  23.751  1.00  0.00    -0.237 OA
ATOM     67  O   UNL A   1      54.737  25.784  26.124  1.00  0.00    -0.744 OA
ENDBRANCH  63  64
ENDBRANCH  37  58
ENDBRANCH  11  12
ENDBRANCH   4   6
ENDBRANCH   1   2
BRANCH   1  68
ATOM     68  C   UNL A   1      33.989  29.599  26.979  1.00  0.00     0.042 C 
BRANCH  68  69
ATOM     69  C   UNL A   1      33.688  28.504  25.972  1.00  0.00     0.118 C 
BRANCH  69  70
ATOM     70  N   UNL A   1      34.116  28.836  24.615  1.00  0.00    -0.352 N 
ATOM     71  C   UNL A   1      33.866  28.220  23.414  1.00  0.00     0.253 C 
ATOM     72  H   UNL A   1      34.682  29.640  24.551  1.00  0.00     0.163 HD
ATOM     73  O   UNL A   1      34.464  28.600  22.409  1.00  0.00    -0.269 OA
BRANCH  71  74
ATOM     74  C   UNL A   1      32.885  27.114  23.309  1.00  0.00     0.065 A 
ATOM     75  C   UNL A   1      33.332  25.850  23.737  1.00  0.00     0.042 A 
ATOM     76  C   UNL A   1      31.611  27.267  22.723  1.00  0.00     0.054 A 
ATOM     77  C   UNL A   1      32.508  24.731  23.652  1.00  0.00     0.038 A 
ATOM     78  C   UNL A   1      30.740  26.185  22.820  1.00  0.00     0.029 A 
ATOM     79  C   UNL A   1      31.187  24.934  23.268  1.00  0.00     0.028 A 
BRANCH  76  80
ATOM     80  N   UNL A   1      31.318  28.475  22.043  1.00  0.00    -0.325 N 
ATOM     81  C   UNL A   1      30.325  29.406  22.070  1.00  0.00     0.227 C 
ATOM     82  H   UNL A   1      32.011  28.699  21.381  1.00  0.00     0.169 HD
ATOM     83  O   UNL A   1      30.429  30.354  21.286  1.00  0.00    -0.274 OA
BRANCH  81  84
ATOM     84  C   UNL A   1      29.154  29.301  23.012  1.00  0.00     0.079 C 
ATOM     85  C   UNL A   1      28.488  30.656  23.239  1.00  0.00     0.013 C 
ATOM     86  C   UNL A   1      27.985  28.479  22.477  1.00  0.00     0.013 C 
ATOM     87  C   UNL A   1      27.136  30.301  23.851  1.00  0.00     0.001 C 
ATOM     88  C   UNL A   1      26.848  28.860  23.420  1.00  0.00     0.001 C 
ENDBRANCH  81  84
ENDBRANCH  76  80
BRANCH  77  89
ATOM     89  N   UNL A   1      33.025  23.472  23.867  1.00  0.00    -0.368 N 
ATOM     90  C   UNL A   1      32.839  22.801  25.165  1.00  0.00     0.138 C 
ATOM     91  C   UNL A   1      33.235  22.586  22.710  1.00  0.00     0.138 C 
ATOM     92  C   UNL A   1      31.763  21.686  25.081  1.00  0.00     0.138 C 
ATOM     93  C   UNL A   1      32.169  21.475  22.634  1.00  0.00     0.138 C 
ATOM     94  N   UNL A   1      32.009  20.793  23.928  1.00  0.00    -0.368 N 
BRANCH  94  95
ATOM     95  C   UNL A   1      32.480  19.512  24.132  1.00  0.00     0.037 A 
ATOM     96  C   UNL A   1      32.670  19.035  25.440  1.00  0.00     0.029 A 
ATOM     97  C   UNL A   1      32.759  18.635  23.074  1.00  0.00     0.029 A 
ATOM     98  C   UNL A   1      33.102  17.726  25.683  1.00  0.00     0.041 A 
ATOM     99  C   UNL A   1      33.208  17.331  23.308  1.00  0.00     0.041 A 
ATOM    100  C   UNL A   1      33.367  16.888  24.612  1.00  0.00     0.123 A 
ATOM    101  F   UNL A   1      33.780  15.633  24.838  1.00  0.00    -0.207 F 
ENDBRANCH  94  95
ENDBRANCH  77  89
ENDBRANCH  71  74
ENDBRANCH  69  70
ENDBRANCH  68  69
ENDBRANCH   1  68
TORSDOF 17
ENDMDL
MODEL 2
REMARK VINA RESULT:     -12.9      1.091      7.875
REMARK SMILES O=C(NCCCNC(=O)c1cc(N2CCN(c3ccc(F)cc3)CC2)ccc1NC(=O)C1CCCC1)c1ccc(-c2c3nc(c(-c4ccc(S(=O)(=O)[O-])cc4)c4ccc([nH]4)c(-c4ccc(S(=O)(=O)[O-])cc4)c4nc(c(-c5ccc(S(=O)(=O)[O-])cc5)c5ccc2[nH]5)C=C4)C=C3)cc1
REMARK SMILES IDX 4 1 3 2 1 3 2 4 37 6 38 7 96 8 39 9 95 10 40 11 41 12 42 13
REMARK SMILES IDX 89 14 43 15 94 16 88 17 90 18 44 19 93 20 87 21 86 22 45 24
REMARK SMILES IDX 75 25 56 26 74 27 57 28 60 29 73 30 91 31 58 32 59 33 72 35
REMARK SMILES IDX 92 36 61 37 46 38 47 39 55 40 48 41 54 42 49 43 50 44 51 45
REMARK SMILES IDX 52 46 53 47 76 48 77 49 85 50 78 51 84 52 79 53 80 54 81 55
REMARK SMILES IDX 82 56 83 57 62 58 63 59 71 60 64 61 70 62 65 63 66 64 67 65
REMARK SMILES IDX 68 66 69 67 5 68 6 69 7 70 8 71 9 73 10 74 11 75 28 76 12 77
REMARK SMILES IDX 27 78 26 79 29 80 30 81 31 83 32 84 33 85 36 86 34 87 35 88
REMARK SMILES IDX 13 89 14 90 25 91 15 92 24 93 16 94 17 95 18 96 23 97 19 98
REMARK SMILES IDX 22 99 20 100 21 101
REMARK H PARENT 3 5 90 23 60 34 7 72 29 82
REMARK Flexibility Score: inf
ROOT
ATOM      1  C   UNL A   1      35.672  30.802  28.297  1.00  0.00     0.118 C 
ENDROOT
BRANCH   1   2
ATOM      2  N   UNL A   1      35.640  30.612  29.741  1.00  0.00    -0.352 N 
ATOM      3  O   UNL A   1      36.254  29.862  31.770  1.00  0.00    -0.269 OA
ATOM      4  C   UNL A   1      36.562  30.056  30.599  1.00  0.00     0.251 C 
ATOM      5  H   UNL A   1      34.819  30.935  30.177  1.00  0.00     0.163 HD
BRANCH   4   6
ATOM      6  C   UNL A   1      37.905  29.664  30.114  1.00  0.00     0.039 A 
ATOM      7  C   UNL A   1      38.849  29.109  30.975  1.00  0.00     0.014 A 
ATOM      8  C   UNL A   1      38.217  29.831  28.760  1.00  0.00     0.014 A 
ATOM      9  C   UNL A   1      40.151  28.906  30.539  1.00  0.00     0.010 A 
ATOM     10  C   UNL A   1      39.496  29.511  28.293  1.00  0.00     0.010 A 
ATOM     11  C   UNL A   1      40.488  29.081  29.187  1.00  0.00    -0.014 A 
BRANCH  11  12
ATOM     12  C   UNL A   1      41.861  28.737  28.737  1.00  0.00     0.031 A 
ATOM     13  C   UNL A   1      42.203  27.357  28.248  1.00  0.00     0.074 A 
ATOM     14  C   UNL A   1      42.797  29.709  28.732  1.00  0.00     0.049 A 
ATOM     15  N   UNL A   1      43.344  26.910  27.786  1.00  0.00    -0.248 NA
ATOM     16  C   UNL A   1      41.136  26.344  28.284  1.00  0.00     0.031 C 
ATOM     17  C   UNL A   1      42.585  31.086  29.190  1.00  0.00     0.029 A 
ATOM     18  N   UNL A   1      44.099  29.701  28.305  1.00  0.00    -0.354 N 
ATOM     19  C   UNL A   1      43.142  25.564  27.500  1.00  0.00     0.074 A 
ATOM     20  C   UNL A   1      41.773  25.261  27.858  1.00  0.00     0.031 C 
ATOM     21  C   UNL A   1      43.693  31.803  28.959  1.00  0.00     0.029 A 
ATOM     22  C   UNL A   1      44.717  30.925  28.411  1.00  0.00     0.049 A 
ATOM     23  H   UNL A   1      44.549  28.898  27.955  1.00  0.00     0.167 HD
ATOM     24  C   UNL A   1      44.016  24.668  26.981  1.00  0.00     0.031 A 
ATOM     25  C   UNL A   1      45.975  31.301  28.118  1.00  0.00     0.031 A 
ATOM     26  C   UNL A   1      45.377  24.977  26.625  1.00  0.00     0.049 A 
ATOM     27  C   UNL A   1      46.930  30.282  27.570  1.00  0.00     0.074 A 
ATOM     28  C   UNL A   1      46.333  24.144  26.071  1.00  0.00     0.029 A 
ATOM     29  N   UNL A   1      45.977  26.218  26.787  1.00  0.00    -0.354 N 
ATOM     30  N   UNL A   1      46.709  29.021  27.288  1.00  0.00    -0.248 NA
ATOM     31  C   UNL A   1      48.300  30.735  27.306  1.00  0.00     0.031 C 
ATOM     32  C   UNL A   1      47.525  24.866  25.945  1.00  0.00     0.029 A 
ATOM     33  C   UNL A   1      47.296  26.166  26.368  1.00  0.00     0.049 A 
ATOM     34  H   UNL A   1      45.530  27.018  27.149  1.00  0.00     0.167 HD
ATOM     35  C   UNL A   1      47.913  28.530  26.800  1.00  0.00     0.074 A 
ATOM     36  C   UNL A   1      48.850  29.637  26.805  1.00  0.00     0.031 C 
ATOM     37  C   UNL A   1      48.217  27.274  26.389  1.00  0.00     0.031 A 
BRANCH  24  38
ATOM     38  C   UNL A   1      43.537  23.251  26.794  1.00  0.00    -0.014 A 
ATOM     39  C   UNL A   1      43.545  22.640  25.527  1.00  0.00     0.010 A 
ATOM     40  C   UNL A   1      43.117  22.502  27.909  1.00  0.00     0.010 A 
ATOM     41  C   UNL A   1      43.108  21.320  25.374  1.00  0.00     0.020 A 
ATOM     42  C   UNL A   1      42.702  21.176  27.765  1.00  0.00     0.020 A 
ATOM     43  C   UNL A   1      42.684  20.598  26.494  1.00  0.00     0.054 A 
BRANCH  43  44
ATOM     44  S   UNL A   1      42.135  18.883  26.269  1.00  0.00     0.124 S 
ATOM     45  O   UNL A   1      42.278  18.343  27.619  1.00  0.00    -0.237 OA
ATOM     46  O   UNL A   1      40.760  19.045  25.801  1.00  0.00    -0.237 OA
ATOM     47  O   UNL A   1      43.067  18.346  25.281  1.00  0.00    -0.744 OA
ENDBRANCH  43  44
ENDBRANCH  24  38
BRANCH  25  48
ATOM     48  C   UNL A   1      46.399  32.707  28.363  1.00  0.00    -0.014 A 
ATOM     49  C   UNL A   1      46.249  33.685  27.367  1.00  0.00     0.010 A 
ATOM     50  C   UNL A   1      46.920  33.078  29.617  1.00  0.00     0.010 A 
ATOM     51  C   UNL A   1      46.622  35.010  27.616  1.00  0.00     0.020 A 
ATOM     52  C   UNL A   1      47.265  34.405  29.879  1.00  0.00     0.020 A 
ATOM     53  C   UNL A   1      47.125  35.361  28.873  1.00  0.00     0.054 A 
BRANCH  53  54
ATOM     54  S   UNL A   1      47.546  37.096  29.196  1.00  0.00     0.124 S 
ATOM     55  O   UNL A   1      47.912  37.059  30.607  1.00  0.00    -0.237 OA
ATOM     56  O   UNL A   1      48.644  37.336  28.262  1.00  0.00    -0.237 OA
ATOM     57  O   UNL A   1      46.309  37.809  28.885  1.00  0.00    -0.744 OA
ENDBRANCH  53  54
ENDBRANCH  25  48
BRANCH  37  58
ATOM     58  C   UNL A   1      49.615  27.040  25.888  1.00  0.00    -0.014 A 
ATOM     59  C   UNL A   1      50.621  26.556  26.745  1.00  0.00     0.010 A 
ATOM     60  C   UNL A   1      49.917  27.272  24.535  1.00  0.00     0.010 A 
ATOM     61  C   UNL A   1      51.913  26.341  26.262  1.00  0.00     0.020 A 
ATOM     62  C   UNL A   1      51.202  27.033  24.043  1.00  0.00     0.020 A 
ATOM     63  C   UNL A   1      52.196  26.584  24.914  1.00  0.00     0.054 A 
BRANCH  63  64
ATOM     64  S   UNL A   1      53.873  26.262  24.301  1.00  0.00     0.124 S 
ATOM     65  O   UNL A   1      54.648  27.300  24.977  1.00  0.00    -0.237 OA
ATOM     66  O   UNL A   1      54.124  24.896  24.753  1.00  0.00    -0.237 OA
ATOM     67  O   UNL A   1      53.748  26.420  22.854  1.00  0.00    -0.744 OA
ENDBRANCH  63  64
ENDBRANCH  37  58
ENDBRANCH  11  12
ENDBRANCH   4   6
ENDBRANCH   1   2
BRANCH   1  68
ATOM     68  C   UNL A   1      34.433  30.272  27.591  1.00  0.00     0.042 C 
BRANCH  68  69
ATOM     69  C   UNL A   1      34.640  28.947  26.881  1.00  0.00     0.118 C 
BRANCH  69  70
ATOM     70  N   UNL A   1      34.670  29.071  25.425  1.00  0.00    -0.352 N 
ATOM     71  C   UNL A   1      33.978  28.399  24.448  1.00  0.00     0.253 C 
ATOM     72  H   UNL A   1      35.294  29.754  25.087  1.00  0.00     0.163 HD
ATOM     73  O   UNL A   1      34.283  28.573  23.270  1.00  0.00    -0.269 OA
BRANCH  71  74
ATOM     74  C   UNL A   1      32.870  27.476  24.791  1.00  0.00     0.065 A 
ATOM     75  C   UNL A   1      33.057  26.128  24.435  1.00  0.00     0.042 A 
ATOM     76  C   UNL A   1      31.647  27.913  25.343  1.00  0.00     0.054 A 
ATOM     77  C   UNL A   1      32.067  25.178  24.676  1.00  0.00     0.038 A 
ATOM     78  C   UNL A   1      30.751  26.926  25.746  1.00  0.00     0.029 A 
ATOM     79  C   UNL A   1      30.955  25.582  25.408  1.00  0.00     0.028 A 
BRANCH  76  80
ATOM     80  N   UNL A   1      31.391  29.305  25.408  1.00  0.00    -0.325 N 
ATOM     81  C   UNL A   1      30.587  30.191  24.761  1.00  0.00     0.227 C 
ATOM     82  H   UNL A   1      31.937  29.744  26.100  1.00  0.00     0.169 HD
ATOM     83  O   UNL A   1      30.659  31.372  25.115  1.00  0.00    -0.274 OA
BRANCH  81  84
ATOM     84  C   UNL A   1      29.640  29.765  23.669  1.00  0.00     0.079 C 
ATOM     85  C   UNL A   1      28.458  30.722  23.538  1.00  0.00     0.013 C 
ATOM     86  C   UNL A   1      30.230  29.825  22.262  1.00  0.00     0.013 C 
ATOM     87  C   UNL A   1      27.863  30.385  22.175  1.00  0.00     0.001 C 
ATOM     88  C   UNL A   1      28.993  29.731  21.376  1.00  0.00     0.001 C 
ENDBRANCH  81  84
ENDBRANCH  76  80
BRANCH  77  89
ATOM     89  N   UNL A   1      32.171  23.917  24.132  1.00  0.00    -0.368 N 
ATOM     90  C   UNL A   1      33.449  23.451  23.566  1.00  0.00     0.138 C 
ATOM     91  C   UNL A   1      31.257  22.864  24.607  1.00  0.00     0.138 C 
ATOM     92  C   UNL A   1      34.158  22.445  24.512  1.00  0.00     0.138 C 
ATOM     93  C   UNL A   1      31.966  21.862  25.539  1.00  0.00     0.138 C 
ATOM     94  N   UNL A   1      33.228  21.383  24.955  1.00  0.00    -0.368 N 
BRANCH  94  95
ATOM     95  C   UNL A   1      33.353  20.102  24.455  1.00  0.00     0.037 A 
ATOM     96  C   UNL A   1      34.479  19.329  24.779  1.00  0.00     0.029 A 
ATOM     97  C   UNL A   1      32.373  19.513  23.642  1.00  0.00     0.029 A 
ATOM     98  C   UNL A   1      34.614  18.012  24.327  1.00  0.00     0.041 A 
ATOM     99  C   UNL A   1      32.508  18.203  23.173  1.00  0.00     0.041 A 
ATOM    100  C   UNL A   1      33.625  17.462  23.527  1.00  0.00     0.123 A 
ATOM    101  F   UNL A   1      33.747  16.201  23.092  1.00  0.00    -0.207 F 
ENDBRANCH  94  95
ENDBRANCH  77  89
ENDBRANCH  71  74
ENDBRANCH  69  70
ENDBRANCH  68  69
ENDBRANCH   1  68
TORSDOF 17
ENDMDL
MODEL 3
REMARK VINA RESULT:     -12.7      5.385      7.061
REMARK SMILES O=C(NCCCNC(=O)c1cc(N2CCN(c3ccc(F)cc3)CC2)ccc1NC(=O)C1CCCC1)c1ccc(-c2c3nc(c(-c4ccc(S(=O)(=O)[O-])cc4)c4ccc([nH]4)c(-c4ccc(S(=O)(=O)[O-])cc4)c4nc(c(-c5ccc(S(=O)(=O)[O-])cc5)c5ccc2[nH]5)C=C4)C=C3)cc1
REMARK SMILES IDX 4 1 3 2 1 3 2 4 37 6 38 7 96 8 39 9 95 10 40 11 41 12 42 13
REMARK SMILES IDX 89 14 43 15 94 16 88 17 90 18 44 19 93 20 87 21 86 22 45 24
REMARK SMILES IDX 75 25 56 26 74 27 57 28 60 29 73 30 91 31 58 32 59 33 72 35
REMARK SMILES IDX 92 36 61 37 46 38 47 39 55 40 48 41 54 42 49 43 50 44 51 45
REMARK SMILES IDX 52 46 53 47 76 48 77 49 85 50 78 51 84 52 79 53 80 54 81 55
REMARK SMILES IDX 82 56 83 57 62 58 63 59 71 60 64 61 70 62 65 63 66 64 67 65
REMARK SMILES IDX 68 66 69 67 5 68 6 69 7 70 8 71 9 73 10 74 11 75 28 76 12 77
REMARK SMILES IDX 27 78 26 79 29 80 30 81 31 83 32 84 33 85 36 86 34 87 35 88
REMARK SMILES IDX 13 89 14 90 25 91 15 92 24 93 16 94 17 95 18 96 23 97 19 98
REMARK SMILES IDX 22 99 20 100 21 101
REMARK H PARENT 3 5 90 23 60 34 7 72 29 82
REMARK Flexibility Score: inf
ROOT
ATOM      1  C   UNL A   1      33.743  29.180  26.833  1.00  0.00     0.118 C 
ENDROOT
BRANCH   1   2
ATOM      2  N   UNL A   1      33.523  30.607  27.024  1.00  0.00    -0.352 N 
ATOM      3  O   UNL A   1      33.764  32.666  27.894  1.00  0.00    -0.269 OA
ATOM      4  C   UNL A   1      34.225  31.540  27.754  1.00  0.00     0.251 C 
ATOM      5  H   UNL A   1      32.737  30.966  26.552  1.00  0.00     0.163 HD
BRANCH   4   6
ATOM      6  C   UNL A   1      35.512  31.184  28.394  1.00  0.00     0.039 A 
ATOM      7  C   UNL A   1      35.678  29.966  29.050  1.00  0.00     0.014 A 
ATOM      8  C   UNL A   1      36.586  32.077  28.310  1.00  0.00     0.014 A 
ATOM      9  C   UNL A   1      36.833  29.725  29.783  1.00  0.00     0.010 A 
ATOM     10  C   UNL A   1      37.795  31.779  28.948  1.00  0.00     0.010 A 
ATOM     11  C   UNL A   1      37.916  30.615  29.724  1.00  0.00    -0.014 A 
BRANCH  11  12
ATOM     12  C   UNL A   1      39.178  30.262  30.424  1.00  0.00     0.031 A 
ATOM     13  C   UNL A   1      39.542  30.881  31.745  1.00  0.00     0.074 A 
ATOM     14  C   UNL A   1      39.981  29.331  29.867  1.00  0.00     0.049 A 
ATOM     15  N   UNL A   1      40.587  30.650  32.498  1.00  0.00    -0.248 NA
ATOM     16  C   UNL A   1      38.624  31.892  32.292  1.00  0.00     0.031 C 
ATOM     17  C   UNL A   1      39.736  28.664  28.584  1.00  0.00     0.029 A 
ATOM     18  N   UNL A   1      41.144  28.763  30.316  1.00  0.00    -0.354 N 
ATOM     19  C   UNL A   1      40.467  31.499  33.593  1.00  0.00     0.074 A 
ATOM     20  C   UNL A   1      39.257  32.266  33.397  1.00  0.00     0.031 C 
ATOM     21  C   UNL A   1      40.680  27.736  28.382  1.00  0.00     0.029 A 
ATOM     22  C   UNL A   1      41.638  27.791  29.478  1.00  0.00     0.049 A 
ATOM     23  H   UNL A   1      41.583  29.023  31.158  1.00  0.00     0.167 HD
ATOM     24  C   UNL A   1      41.288  31.621  34.664  1.00  0.00     0.031 A 
ATOM     25  C   UNL A   1      42.749  27.038  29.565  1.00  0.00     0.031 A 
ATOM     26  C   UNL A   1      42.492  30.852  34.853  1.00  0.00     0.049 A 
ATOM     27  C   UNL A   1      43.655  27.213  30.749  1.00  0.00     0.074 A 
ATOM     28  C   UNL A   1      43.378  30.887  35.916  1.00  0.00     0.029 A 
ATOM     29  N   UNL A   1      42.980  29.909  33.960  1.00  0.00    -0.354 N 
ATOM     30  N   UNL A   1      43.509  28.006  31.782  1.00  0.00    -0.248 NA
ATOM     31  C   UNL A   1      44.873  26.395  30.775  1.00  0.00     0.031 C 
ATOM     32  C   UNL A   1      44.426  30.002  35.643  1.00  0.00     0.029 A 
ATOM     33  C   UNL A   1      44.165  29.374  34.436  1.00  0.00     0.049 A 
ATOM     34  H   UNL A   1      42.546  29.658  33.112  1.00  0.00     0.167 HD
ATOM     35  C   UNL A   1      44.614  27.776  32.591  1.00  0.00     0.074 A 
ATOM     36  C   UNL A   1      45.405  26.753  31.937  1.00  0.00     0.031 C 
ATOM     37  C   UNL A   1      44.945  28.362  33.767  1.00  0.00     0.031 A 
BRANCH  24  38
ATOM     38  C   UNL A   1      40.931  32.649  35.706  1.00  0.00    -0.014 A 
ATOM     39  C   UNL A   1      40.082  32.333  36.783  1.00  0.00     0.010 A 
ATOM     40  C   UNL A   1      41.490  33.939  35.636  1.00  0.00     0.010 A 
ATOM     41  C   UNL A   1      39.771  33.297  37.746  1.00  0.00     0.020 A 
ATOM     42  C   UNL A   1      41.200  34.899  36.610  1.00  0.00     0.020 A 
ATOM     43  C   UNL A   1      40.328  34.576  37.651  1.00  0.00     0.054 A 
BRANCH  43  44
ATOM     44  S   UNL A   1      39.918  35.803  38.923  1.00  0.00     0.124 S 
ATOM     45  O   UNL A   1      38.871  35.116  39.676  1.00  0.00    -0.237 OA
ATOM     46  O   UNL A   1      41.187  35.973  39.627  1.00  0.00    -0.237 OA
ATOM     47  O   UNL A   1      39.473  36.964  38.157  1.00  0.00    -0.744 OA
ENDBRANCH  43  44
ENDBRANCH  24  38
BRANCH  25  48
ATOM     48  C   UNL A   1      43.068  26.067  28.483  1.00  0.00    -0.014 A 
ATOM     49  C   UNL A   1      43.742  26.481  27.323  1.00  0.00     0.010 A 
ATOM     50  C   UNL A   1      42.728  24.709  28.632  1.00  0.00     0.010 A 
ATOM     51  C   UNL A   1      44.062  25.556  26.325  1.00  0.00     0.020 A 
ATOM     52  C   UNL A   1      43.073  23.777  27.651  1.00  0.00     0.020 A 
ATOM     53  C   UNL A   1      43.728  24.209  26.498  1.00  0.00     0.054 A 
BRANCH  53  54
ATOM     54  S   UNL A   1      44.207  23.015  25.219  1.00  0.00     0.124 S 
ATOM     55  O   UNL A   1      44.939  23.857  24.279  1.00  0.00    -0.237 OA
ATOM     56  O   UNL A   1      45.012  22.053  25.968  1.00  0.00    -0.237 OA
ATOM     57  O   UNL A   1      42.927  22.501  24.736  1.00  0.00    -0.744 OA
ENDBRANCH  53  54
ENDBRANCH  25  48
BRANCH  37  58
ATOM     58  C   UNL A   1      46.208  27.891  34.433  1.00  0.00    -0.014 A 
ATOM     59  C   UNL A   1      46.197  26.804  35.326  1.00  0.00     0.010 A 
ATOM     60  C   UNL A   1      47.428  28.522  34.132  1.00  0.00     0.010 A 
ATOM     61  C   UNL A   1      47.381  26.379  35.932  1.00  0.00     0.020 A 
ATOM     62  C   UNL A   1      48.618  28.082  34.717  1.00  0.00     0.020 A 
ATOM     63  C   UNL A   1      48.584  27.023  35.625  1.00  0.00     0.054 A 
BRANCH  63  64
ATOM     64  S   UNL A   1      50.115  26.429  36.397  1.00  0.00     0.124 S 
ATOM     65  O   UNL A   1      51.083  27.434  35.965  1.00  0.00    -0.237 OA
ATOM     66  O   UNL A   1      49.785  26.445  37.819  1.00  0.00    -0.237 OA
ATOM     67  O   UNL A   1      50.297  25.098  35.821  1.00  0.00    -0.744 OA
ENDBRANCH  63  64
ENDBRANCH  37  58
ENDBRANCH  11  12
ENDBRANCH   4   6
ENDBRANCH   1   2
BRANCH   1  68
ATOM     68  C   UNL A   1      32.479  28.348  26.987  1.00  0.00     0.042 C 
BRANCH  68  69
ATOM     69  C   UNL A   1      32.654  26.881  26.637  1.00  0.00     0.118 C 
BRANCH  69  70
ATOM     70  N   UNL A   1      31.451  26.085  26.874  1.00  0.00    -0.352 N 
ATOM     71  C   UNL A   1      31.016  24.915  26.302  1.00  0.00     0.253 C 
ATOM     72  H   UNL A   1      30.849  26.451  27.562  1.00  0.00     0.163 HD
ATOM     73  O   UNL A   1      29.886  24.507  26.559  1.00  0.00    -0.269 OA
BRANCH  71  74
ATOM     74  C   UNL A   1      31.889  24.138  25.390  1.00  0.00     0.065 A 
ATOM     75  C   UNL A   1      32.907  23.385  26.004  1.00  0.00     0.042 A 
ATOM     76  C   UNL A   1      31.795  24.212  23.984  1.00  0.00     0.054 A 
ATOM     77  C   UNL A   1      33.809  22.644  25.244  1.00  0.00     0.038 A 
ATOM     78  C   UNL A   1      32.579  23.323  23.254  1.00  0.00     0.029 A 
ATOM     79  C   UNL A   1      33.576  22.559  23.875  1.00  0.00     0.028 A 
BRANCH  76  80
ATOM     80  N   UNL A   1      30.957  25.201  23.412  1.00  0.00    -0.325 N 
ATOM     81  C   UNL A   1      31.071  26.516  23.077  1.00  0.00     0.227 C 
ATOM     82  H   UNL A   1      30.063  24.847  23.205  1.00  0.00     0.169 HD
ATOM     83  O   UNL A   1      30.074  27.055  22.587  1.00  0.00    -0.274 OA
BRANCH  81  84
ATOM     84  C   UNL A   1      32.350  27.286  23.279  1.00  0.00     0.079 C 
ATOM     85  C   UNL A   1      33.338  27.052  22.140  1.00  0.00     0.013 C 
ATOM     86  C   UNL A   1      32.188  28.803  23.227  1.00  0.00     0.013 C 
ATOM     87  C   UNL A   1      34.350  28.184  22.293  1.00  0.00     0.001 C 
ATOM     88  C   UNL A   1      33.626  29.288  23.068  1.00  0.00     0.001 C 
ENDBRANCH  81  84
ENDBRANCH  76  80
BRANCH  77  89
ATOM     89  N   UNL A   1      34.923  22.092  25.835  1.00  0.00    -0.368 N 
ATOM     90  C   UNL A   1      35.508  20.847  25.309  1.00  0.00     0.138 C 
ATOM     91  C   UNL A   1      35.845  22.975  26.569  1.00  0.00     0.138 C 
ATOM     92  C   UNL A   1      36.811  21.122  24.512  1.00  0.00     0.138 C 
ATOM     93  C   UNL A   1      37.142  23.240  25.778  1.00  0.00     0.138 C 
ATOM     94  N   UNL A   1      37.733  21.988  25.278  1.00  0.00    -0.368 N 
BRANCH  94  95
ATOM     95  C   UNL A   1      38.879  21.458  25.835  1.00  0.00     0.037 A 
ATOM     96  C   UNL A   1      39.592  22.187  26.801  1.00  0.00     0.029 A 
ATOM     97  C   UNL A   1      39.362  20.186  25.494  1.00  0.00     0.029 A 
ATOM     98  C   UNL A   1      40.732  21.660  27.418  1.00  0.00     0.041 A 
ATOM     99  C   UNL A   1      40.510  19.659  26.094  1.00  0.00     0.041 A 
ATOM    100  C   UNL A   1      41.179  20.399  27.057  1.00  0.00     0.123 A 
ATOM    101  F   UNL A   1      42.268  19.887  27.645  1.00  0.00    -0.207 F 
ENDBRANCH  94  95
ENDBRANCH  77  89
ENDBRANCH  71  74
ENDBRANCH  69  70
ENDBRANCH  68  69
ENDBRANCH   1  68
TORSDOF 17
ENDMDL
