MODEL 1
REMARK VINA RESULT:     -13.1      0.000      0.000
REMARK SMILES O=C(NCCCNC(=O)c1ccc(-c2c3nc(c(-c4ccc(S(=O)(=O)[O-])cc4)c4ccc([nH]4)c(-c4ccc(S(=O)(=O)[O-])cc4)c4nc(c(-c5ccc(S(=O)(=O)[O-])cc5)c5ccc2[nH]5)C=C4)C=C3)cc1)c1ccc(/C=C/c2ccnc(-c3cccc([N+](=O)[O-])c3)[n+]2[O-])cc1
REMARK SMILES IDX 4 1 3 2 1 3 2 4 70 6 71 7 93 8 72 9 92 10 73 11 74 12 75 13
REMARK SMILES IDX 76 14 77 15 90 16 78 17 80 18 91 19 79 20 81 21 82 22 89 23
REMARK SMILES IDX 83 24 85 25 84 26 86 27 87 28 88 29 5 30 6 31 7 32 8 33 9 35
REMARK SMILES IDX 10 36 11 37 69 38 12 39 68 40 13 41 14 42 15 43 62 44 16 45
REMARK SMILES IDX 67 46 61 47 63 48 17 49 66 50 60 51 59 52 18 54 48 55 29 56
REMARK SMILES IDX 47 57 30 58 33 59 46 60 64 61 31 62 32 63 45 65 65 66 34 67
REMARK SMILES IDX 19 68 20 69 28 70 21 71 27 72 22 73 23 74 24 75 25 76 26 77
REMARK SMILES IDX 49 78 50 79 58 80 51 81 57 82 52 83 53 84 54 85 55 86 56 87
REMARK SMILES IDX 35 88 36 89 44 90 37 91 43 92 38 93 39 94 40 95 41 96 42 97
REMARK H PARENT 3 5 7 34 63 53 33 64
REMARK Flexibility Score: inf
ROOT
ATOM      1  C   UNL A   1      33.556  30.772  27.676  1.00  0.00     0.118 C 
ENDROOT
BRANCH   1   2
ATOM      2  N   UNL A   1      32.438  30.997  26.768  1.00  0.00    -0.352 N 
ATOM      3  O   UNL A   1      31.033  30.550  25.054  1.00  0.00    -0.269 OA
ATOM      4  C   UNL A   1      31.885  30.147  25.841  1.00  0.00     0.251 C 
ATOM      5  H   UNL A   1      32.020  31.885  26.827  1.00  0.00     0.163 HD
BRANCH   4   6
ATOM      6  C   UNL A   1      32.331  28.743  25.781  1.00  0.00     0.039 A 
ATOM      7  C   UNL A   1      31.644  27.751  26.483  1.00  0.00     0.014 A 
ATOM      8  C   UNL A   1      33.443  28.414  25.007  1.00  0.00     0.014 A 
ATOM      9  C   UNL A   1      32.137  26.446  26.497  1.00  0.00     0.009 A 
ATOM     10  C   UNL A   1      33.925  27.103  25.015  1.00  0.00     0.009 A 
ATOM     11  C   UNL A   1      33.301  26.112  25.791  1.00  0.00    -0.025 A 
BRANCH  11  12
ATOM     12  C   UNL A   1      33.862  24.752  25.793  1.00  0.00     0.012 C 
ATOM     13  C   UNL A   1      34.558  24.218  24.775  1.00  0.00     0.053 C 
BRANCH  13  14
ATOM     14  C   UNL A   1      35.155  22.877  24.841  1.00  0.00     0.134 A 
ATOM     15  C   UNL A   1      36.528  22.778  25.063  1.00  0.00     0.100 A 
ATOM     16  N   UNL A   1      34.371  21.723  24.673  1.00  0.00    -0.228 N 
ATOM     17  C   UNL A   1      37.079  21.524  25.144  1.00  0.00     0.259 A 
ATOM     18  C   UNL A   1      35.021  20.488  24.741  1.00  0.00     0.333 A 
ATOM     19  O   UNL A   1      33.111  21.806  24.468  1.00  0.00    -0.710 OA
ATOM     20  N   UNL A   1      36.366  20.395  25.000  1.00  0.00    -0.049 NA
BRANCH  18  21
ATOM     21  C   UNL A   1      34.313  19.230  24.494  1.00  0.00     0.076 A 
ATOM     22  C   UNL A   1      33.030  19.234  23.912  1.00  0.00     0.017 A 
ATOM     23  C   UNL A   1      34.856  17.997  24.897  1.00  0.00     0.102 A 
ATOM     24  C   UNL A   1      32.314  18.048  23.722  1.00  0.00     0.008 A 
ATOM     25  C   UNL A   1      34.125  16.812  24.727  1.00  0.00     0.270 A 
ATOM     26  C   UNL A   1      32.857  16.833  24.134  1.00  0.00     0.085 A 
BRANCH  25  27
ATOM     27  N   UNL A   1      34.673  15.543  25.219  1.00  0.00     0.062 N 
ATOM     28  O   UNL A   1      35.897  15.483  25.411  1.00  0.00    -0.258 OA
ATOM     29  O   UNL A   1      33.887  14.598  25.376  1.00  0.00    -0.258 OA
ENDBRANCH  25  27
ENDBRANCH  18  21
ENDBRANCH  13  14
ENDBRANCH  11  12
ENDBRANCH   4   6
ENDBRANCH   1   2
BRANCH   1  30
ATOM     30  C   UNL A   1      34.507  31.959  27.751  1.00  0.00     0.042 C 
BRANCH  30  31
ATOM     31  C   UNL A   1      35.830  31.672  28.448  1.00  0.00     0.118 C 
BRANCH  31  32
ATOM     32  N   UNL A   1      35.662  31.208  29.819  1.00  0.00    -0.352 N 
ATOM     33  C   UNL A   1      36.434  30.376  30.592  1.00  0.00     0.251 C 
ATOM     34  H   UNL A   1      34.856  31.550  30.269  1.00  0.00     0.163 HD
ATOM     35  O   UNL A   1      35.990  29.998  31.674  1.00  0.00    -0.269 OA
BRANCH  33  36
ATOM     36  C   UNL A   1      37.767  29.915  30.140  1.00  0.00     0.039 A 
ATOM     37  C   UNL A   1      38.007  29.814  28.765  1.00  0.00     0.014 A 
ATOM     38  C   UNL A   1      38.765  29.537  31.042  1.00  0.00     0.014 A 
ATOM     39  C   UNL A   1      39.260  29.402  28.301  1.00  0.00     0.010 A 
ATOM     40  C   UNL A   1      40.039  29.207  30.580  1.00  0.00     0.010 A 
ATOM     41  C   UNL A   1      40.300  29.130  29.206  1.00  0.00    -0.014 A 
BRANCH  41  42
ATOM     42  C   UNL A   1      41.660  28.777  28.721  1.00  0.00     0.031 A 
ATOM     43  C   UNL A   1      42.734  29.829  28.615  1.00  0.00     0.074 A 
ATOM     44  C   UNL A   1      41.915  27.514  28.323  1.00  0.00     0.049 A 
ATOM     45  N   UNL A   1      43.969  29.704  28.197  1.00  0.00    -0.248 NA
ATOM     46  C   UNL A   1      42.371  31.201  29.005  1.00  0.00     0.031 C 
ATOM     47  C   UNL A   1      40.944  26.416  28.315  1.00  0.00     0.029 A 
ATOM     48  N   UNL A   1      43.066  26.941  27.845  1.00  0.00    -0.354 N 
ATOM     49  C   UNL A   1      44.520  30.979  28.252  1.00  0.00     0.074 A 
ATOM     50  C   UNL A   1      43.474  31.871  28.703  1.00  0.00     0.031 C 
ATOM     51  C   UNL A   1      41.548  25.298  27.884  1.00  0.00     0.029 A 
ATOM     52  C   UNL A   1      42.937  25.603  27.555  1.00  0.00     0.049 A 
ATOM     53  H   UNL A   1      43.905  27.440  27.720  1.00  0.00     0.167 HD
ATOM     54  C   UNL A   1      45.786  31.371  27.970  1.00  0.00     0.031 A 
ATOM     55  C   UNL A   1      43.833  24.717  27.080  1.00  0.00     0.031 A 
ATOM     56  C   UNL A   1      46.834  30.480  27.546  1.00  0.00     0.049 A 
ATOM     57  C   UNL A   1      45.241  25.170  26.810  1.00  0.00     0.074 A 
ATOM     58  C   UNL A   1      48.166  30.771  27.312  1.00  0.00     0.029 A 
ATOM     59  N   UNL A   1      46.669  29.127  27.295  1.00  0.00    -0.354 N 
ATOM     60  N   UNL A   1      45.761  26.365  26.947  1.00  0.00    -0.248 NA
ATOM     61  C   UNL A   1      46.185  24.149  26.335  1.00  0.00     0.031 C 
ATOM     62  C   UNL A   1      48.799  29.602  26.877  1.00  0.00     0.029 A 
ATOM     63  C   UNL A   1      47.871  28.573  26.888  1.00  0.00     0.049 A 
ATOM     64  H   UNL A   1      45.823  28.634  27.391  1.00  0.00     0.167 HD
ATOM     65  C   UNL A   1      47.100  26.236  26.594  1.00  0.00     0.074 A 
ATOM     66  C   UNL A   1      47.312  24.843  26.258  1.00  0.00     0.031 C 
ATOM     67  C   UNL A   1      48.066  27.187  26.550  1.00  0.00     0.031 A 
BRANCH  54  68
ATOM     68  C   UNL A   1      46.113  32.835  28.116  1.00  0.00    -0.014 A 
ATOM     69  C   UNL A   1      46.602  33.351  29.330  1.00  0.00     0.010 A 
ATOM     70  C   UNL A   1      45.980  33.694  27.011  1.00  0.00     0.010 A 
ATOM     71  C   UNL A   1      46.919  34.706  29.446  1.00  0.00     0.020 A 
ATOM     72  C   UNL A   1      46.319  35.047  27.116  1.00  0.00     0.020 A 
ATOM     73  C   UNL A   1      46.773  35.547  28.339  1.00  0.00     0.054 A 
BRANCH  73  74
ATOM     74  S   UNL A   1      47.223  37.296  28.507  1.00  0.00     0.124 S 
ATOM     75  O   UNL A   1      47.297  37.723  27.112  1.00  0.00    -0.237 OA
ATOM     76  O   UNL A   1      46.105  37.843  29.272  1.00  0.00    -0.237 OA
ATOM     77  O   UNL A   1      48.500  37.259  29.216  1.00  0.00    -0.744 OA
ENDBRANCH  73  74
ENDBRANCH  54  68
BRANCH  55  78
ATOM     78  C   UNL A   1      43.431  23.304  26.850  1.00  0.00    -0.014 A 
ATOM     79  C   UNL A   1      43.465  22.755  25.556  1.00  0.00     0.010 A 
ATOM     80  C   UNL A   1      43.021  22.497  27.927  1.00  0.00     0.010 A 
ATOM     81  C   UNL A   1      43.074  21.430  25.340  1.00  0.00     0.020 A 
ATOM     82  C   UNL A   1      42.654  21.165  27.717  1.00  0.00     0.020 A 
ATOM     83  C   UNL A   1      42.671  20.643  26.422  1.00  0.00     0.054 A 
BRANCH  83  84
ATOM     84  S   UNL A   1      42.211  18.914  26.125  1.00  0.00     0.124 S 
ATOM     85  O   UNL A   1      43.125  18.537  25.052  1.00  0.00    -0.237 OA
ATOM     86  O   UNL A   1      42.466  18.291  27.422  1.00  0.00    -0.237 OA
ATOM     87  O   UNL A   1      40.801  18.996  25.751  1.00  0.00    -0.744 OA
ENDBRANCH  83  84
ENDBRANCH  55  78
BRANCH  67  88
ATOM     88  C   UNL A   1      49.445  26.745  26.144  1.00  0.00    -0.014 A 
ATOM     89  C   UNL A   1      49.916  26.947  24.833  1.00  0.00     0.010 A 
ATOM     90  C   UNL A   1      50.293  26.146  27.094  1.00  0.00     0.010 A 
ATOM     91  C   UNL A   1      51.197  26.521  24.471  1.00  0.00     0.020 A 
ATOM     92  C   UNL A   1      51.582  25.743  26.741  1.00  0.00     0.020 A 
ATOM     93  C   UNL A   1      52.019  25.916  25.426  1.00  0.00     0.054 A 
BRANCH  93  94
ATOM     94  S   UNL A   1      53.687  25.392  24.940  1.00  0.00     0.124 S 
ATOM     95  O   UNL A   1      54.516  26.053  25.943  1.00  0.00    -0.237 OA
ATOM     96  O   UNL A   1      53.612  23.937  25.045  1.00  0.00    -0.237 OA
ATOM     97  O   UNL A   1      53.826  25.904  23.578  1.00  0.00    -0.744 OA
ENDBRANCH  93  94
ENDBRANCH  67  88
ENDBRANCH  41  42
ENDBRANCH  33  36
ENDBRANCH  31  32
ENDBRANCH  30  31
ENDBRANCH   1  30
TORSDOF 17
ENDMDL
MODEL 2
REMARK VINA RESULT:     -12.6      4.546     13.002
REMARK SMILES O=C(NCCCNC(=O)c1ccc(-c2c3nc(c(-c4ccc(S(=O)(=O)[O-])cc4)c4ccc([nH]4)c(-c4ccc(S(=O)(=O)[O-])cc4)c4nc(c(-c5ccc(S(=O)(=O)[O-])cc5)c5ccc2[nH]5)C=C4)C=C3)cc1)c1ccc(/C=C/c2ccnc(-c3cccc([N+](=O)[O-])c3)[n+]2[O-])cc1
REMARK SMILES IDX 4 1 3 2 1 3 2 4 70 6 71 7 93 8 72 9 92 10 73 11 74 12 75 13
REMARK SMILES IDX 76 14 77 15 90 16 78 17 80 18 91 19 79 20 81 21 82 22 89 23
REMARK SMILES IDX 83 24 85 25 84 26 86 27 87 28 88 29 5 30 6 31 7 32 8 33 9 35
REMARK SMILES IDX 10 36 11 37 69 38 12 39 68 40 13 41 14 42 15 43 62 44 16 45
REMARK SMILES IDX 67 46 61 47 63 48 17 49 66 50 60 51 59 52 18 54 48 55 29 56
REMARK SMILES IDX 47 57 30 58 33 59 46 60 64 61 31 62 32 63 45 65 65 66 34 67
REMARK SMILES IDX 19 68 20 69 28 70 21 71 27 72 22 73 23 74 24 75 25 76 26 77
REMARK SMILES IDX 49 78 50 79 58 80 51 81 57 82 52 83 53 84 54 85 55 86 56 87
REMARK SMILES IDX 35 88 36 89 44 90 37 91 43 92 38 93 39 94 40 95 41 96 42 97
REMARK H PARENT 3 5 7 34 63 53 33 64
REMARK Flexibility Score: inf
ROOT
ATOM      1  C   UNL A   1      42.353  22.153  25.529  1.00  0.00     0.118 C 
ENDROOT
BRANCH   1   2
ATOM      2  N   UNL A   1      43.401  21.167  25.301  1.00  0.00    -0.352 N 
ATOM      3  O   UNL A   1      45.506  20.414  24.963  1.00  0.00    -0.269 OA
ATOM      4  C   UNL A   1      44.765  21.326  25.319  1.00  0.00     0.251 C 
ATOM      5  H   UNL A   1      43.086  20.255  25.107  1.00  0.00     0.163 HD
BRANCH   4   6
ATOM      6  C   UNL A   1      45.344  22.610  25.755  1.00  0.00     0.039 A 
ATOM      7  C   UNL A   1      45.548  22.873  27.110  1.00  0.00     0.014 A 
ATOM      8  C   UNL A   1      45.694  23.559  24.795  1.00  0.00     0.014 A 
ATOM      9  C   UNL A   1      46.002  24.129  27.512  1.00  0.00     0.009 A 
ATOM     10  C   UNL A   1      46.160  24.812  25.202  1.00  0.00     0.009 A 
ATOM     11  C   UNL A   1      46.282  25.125  26.565  1.00  0.00    -0.025 A 
BRANCH  11  12
ATOM     12  C   UNL A   1      46.747  26.468  26.948  1.00  0.00     0.012 C 
ATOM     13  C   UNL A   1      47.108  27.422  26.074  1.00  0.00     0.053 C 
BRANCH  13  14
ATOM     14  C   UNL A   1      47.509  28.771  26.495  1.00  0.00     0.134 A 
ATOM     15  C   UNL A   1      48.851  28.994  26.801  1.00  0.00     0.100 A 
ATOM     16  N   UNL A   1      46.569  29.810  26.599  1.00  0.00    -0.228 N 
ATOM     17  C   UNL A   1      49.225  30.260  27.174  1.00  0.00     0.259 A 
ATOM     18  C   UNL A   1      47.033  31.060  27.015  1.00  0.00     0.333 A 
ATOM     19  O   UNL A   1      45.335  29.613  26.320  1.00  0.00    -0.710 OA
ATOM     20  N   UNL A   1      48.362  31.284  27.276  1.00  0.00    -0.049 NA
BRANCH  18  21
ATOM     21  C   UNL A   1      46.123  32.186  27.238  1.00  0.00     0.076 A 
ATOM     22  C   UNL A   1      45.951  32.720  28.530  1.00  0.00     0.017 A 
ATOM     23  C   UNL A   1      45.346  32.713  26.193  1.00  0.00     0.102 A 
ATOM     24  C   UNL A   1      45.044  33.756  28.774  1.00  0.00     0.008 A 
ATOM     25  C   UNL A   1      44.419  33.736  26.445  1.00  0.00     0.270 A 
ATOM     26  C   UNL A   1      44.270  34.264  27.732  1.00  0.00     0.085 A 
BRANCH  25  27
ATOM     27  N   UNL A   1      43.563  34.226  25.358  1.00  0.00     0.062 N 
ATOM     28  O   UNL A   1      42.701  35.070  25.642  1.00  0.00    -0.258 OA
ATOM     29  O   UNL A   1      43.729  33.739  24.230  1.00  0.00    -0.258 OA
ENDBRANCH  25  27
ENDBRANCH  18  21
ENDBRANCH  13  14
ENDBRANCH  11  12
ENDBRANCH   4   6
ENDBRANCH   1   2
BRANCH   1  30
ATOM     30  C   UNL A   1      41.919  22.232  26.986  1.00  0.00     0.042 C 
BRANCH  30  31
ATOM     31  C   UNL A   1      40.640  21.471  27.312  1.00  0.00     0.118 C 
BRANCH  31  32
ATOM     32  N   UNL A   1      39.546  21.780  26.403  1.00  0.00    -0.352 N 
ATOM     33  C   UNL A   1      38.849  22.945  26.189  1.00  0.00     0.251 C 
ATOM     34  H   UNL A   1      39.255  21.024  25.843  1.00  0.00     0.163 HD
ATOM     35  O   UNL A   1      37.847  22.910  25.478  1.00  0.00    -0.269 OA
BRANCH  33  36
ATOM     36  C   UNL A   1      39.268  24.222  26.811  1.00  0.00     0.039 A 
ATOM     37  C   UNL A   1      38.906  24.467  28.141  1.00  0.00     0.014 A 
ATOM     38  C   UNL A   1      39.966  25.199  26.098  1.00  0.00     0.014 A 
ATOM     39  C   UNL A   1      39.300  25.652  28.767  1.00  0.00     0.010 A 
ATOM     40  C   UNL A   1      40.431  26.343  26.747  1.00  0.00     0.010 A 
ATOM     41  C   UNL A   1      40.098  26.586  28.086  1.00  0.00    -0.014 A 
BRANCH  41  42
ATOM     42  C   UNL A   1      40.597  27.807  28.771  1.00  0.00     0.031 A 
ATOM     43  C   UNL A   1      41.999  27.861  29.322  1.00  0.00     0.074 A 
ATOM     44  C   UNL A   1      39.766  28.855  28.946  1.00  0.00     0.049 A 
ATOM     45  N   UNL A   1      42.594  28.835  29.963  1.00  0.00    -0.248 NA
ATOM     46  C   UNL A   1      42.832  26.660  29.154  1.00  0.00     0.031 C 
ATOM     47  C   UNL A   1      38.366  28.906  28.516  1.00  0.00     0.029 A 
ATOM     48  N   UNL A   1      39.976  30.076  29.533  1.00  0.00    -0.354 N 
ATOM     49  C   UNL A   1      43.857  28.359  30.293  1.00  0.00     0.074 A 
ATOM     50  C   UNL A   1      43.929  26.994  29.819  1.00  0.00     0.031 C 
ATOM     51  C   UNL A   1      37.854  30.107  28.828  1.00  0.00     0.029 A 
ATOM     52  C   UNL A   1      38.875  30.899  29.506  1.00  0.00     0.049 A 
ATOM     53  H   UNL A   1      40.835  30.339  29.937  1.00  0.00     0.167 HD
ATOM     54  C   UNL A   1      44.873  29.003  30.917  1.00  0.00     0.031 A 
ATOM     55  C   UNL A   1      38.702  32.151  29.972  1.00  0.00     0.031 A 
ATOM     56  C   UNL A   1      44.811  30.369  31.365  1.00  0.00     0.049 A 
ATOM     57  C   UNL A   1      39.856  32.856  30.628  1.00  0.00     0.074 A 
ATOM     58  C   UNL A   1      45.814  31.131  31.938  1.00  0.00     0.029 A 
ATOM     59  N   UNL A   1      43.688  31.176  31.290  1.00  0.00    -0.354 N 
ATOM     60  N   UNL A   1      41.069  32.413  30.856  1.00  0.00    -0.248 NA
ATOM     61  C   UNL A   1      39.622  34.236  31.075  1.00  0.00     0.031 C 
ATOM     62  C   UNL A   1      45.284  32.388  32.249  1.00  0.00     0.029 A 
ATOM     63  C   UNL A   1      43.966  32.423  31.825  1.00  0.00     0.049 A 
ATOM     64  H   UNL A   1      42.820  30.904  30.913  1.00  0.00     0.167 HD
ATOM     65  C   UNL A   1      41.749  33.468  31.457  1.00  0.00     0.074 A 
ATOM     66  C   UNL A   1      40.818  34.574  31.536  1.00  0.00     0.031 C 
ATOM     67  C   UNL A   1      43.028  33.513  31.904  1.00  0.00     0.031 A 
BRANCH  54  68
ATOM     68  C   UNL A   1      46.148  28.235  31.150  1.00  0.00    -0.014 A 
ATOM     69  C   UNL A   1      46.325  27.458  32.309  1.00  0.00     0.010 A 
ATOM     70  C   UNL A   1      47.161  28.248  30.173  1.00  0.00     0.010 A 
ATOM     71  C   UNL A   1      47.506  26.736  32.504  1.00  0.00     0.020 A 
ATOM     72  C   UNL A   1      48.333  27.507  30.353  1.00  0.00     0.020 A 
ATOM     73  C   UNL A   1      48.504  26.767  31.525  1.00  0.00     0.054 A 
BRANCH  73  74
ATOM     74  S   UNL A   1      50.012  25.794  31.788  1.00  0.00     0.124 S 
ATOM     75  O   UNL A   1      50.954  26.816  32.239  1.00  0.00    -0.237 OA
ATOM     76  O   UNL A   1      49.599  24.830  32.805  1.00  0.00    -0.237 OA
ATOM     77  O   UNL A   1      50.292  25.225  30.472  1.00  0.00    -0.744 OA
ENDBRANCH  73  74
ENDBRANCH  54  68
BRANCH  55  78
ATOM     78  C   UNL A   1      37.388  32.828  29.812  1.00  0.00    -0.014 A 
ATOM     79  C   UNL A   1      37.056  33.462  28.602  1.00  0.00     0.010 A 
ATOM     80  C   UNL A   1      36.457  32.833  30.866  1.00  0.00     0.010 A 
ATOM     81  C   UNL A   1      35.826  34.110  28.456  1.00  0.00     0.020 A 
ATOM     82  C   UNL A   1      35.216  33.458  30.715  1.00  0.00     0.020 A 
ATOM     83  C   UNL A   1      34.913  34.104  29.515  1.00  0.00     0.054 A 
BRANCH  83  84
ATOM     84  S   UNL A   1      33.304  34.910  29.289  1.00  0.00     0.124 S 
ATOM     85  O   UNL A   1      33.689  36.210  28.750  1.00  0.00    -0.237 OA
ATOM     86  O   UNL A   1      32.628  34.012  28.355  1.00  0.00    -0.237 OA
ATOM     87  O   UNL A   1      32.742  34.930  30.638  1.00  0.00    -0.744 OA
ENDBRANCH  83  84
ENDBRANCH  55  78
BRANCH  67  88
ATOM     88  C   UNL A   1      43.500  34.811  32.500  1.00  0.00    -0.014 A 
ATOM     89  C   UNL A   1      44.251  35.727  31.741  1.00  0.00     0.010 A 
ATOM     90  C   UNL A   1      43.160  35.133  33.827  1.00  0.00     0.010 A 
ATOM     91  C   UNL A   1      44.690  36.924  32.313  1.00  0.00     0.020 A 
ATOM     92  C   UNL A   1      43.576  36.340  34.393  1.00  0.00     0.020 A 
ATOM     93  C   UNL A   1      44.354  37.220  33.638  1.00  0.00     0.054 A 
BRANCH  93  94
ATOM     94  S   UNL A   1      44.914  38.791  34.353  1.00  0.00     0.124 S 
ATOM     95  O   UNL A   1      44.419  39.760  33.380  1.00  0.00    -0.237 OA
ATOM     96  O   UNL A   1      44.248  38.809  35.653  1.00  0.00    -0.237 OA
ATOM     97  O   UNL A   1      46.367  38.646  34.408  1.00  0.00    -0.744 OA
ENDBRANCH  93  94
ENDBRANCH  67  88
ENDBRANCH  41  42
ENDBRANCH  33  36
ENDBRANCH  31  32
ENDBRANCH  30  31
ENDBRANCH   1  30
TORSDOF 17
ENDMDL
MODEL 3
REMARK VINA RESULT:     -12.3      5.481     11.814
REMARK SMILES O=C(NCCCNC(=O)c1ccc(-c2c3nc(c(-c4ccc(S(=O)(=O)[O-])cc4)c4ccc([nH]4)c(-c4ccc(S(=O)(=O)[O-])cc4)c4nc(c(-c5ccc(S(=O)(=O)[O-])cc5)c5ccc2[nH]5)C=C4)C=C3)cc1)c1ccc(/C=C/c2ccnc(-c3cccc([N+](=O)[O-])c3)[n+]2[O-])cc1
REMARK SMILES IDX 4 1 3 2 1 3 2 4 70 6 71 7 93 8 72 9 92 10 73 11 74 12 75 13
REMARK SMILES IDX 76 14 77 15 90 16 78 17 80 18 91 19 79 20 81 21 82 22 89 23
REMARK SMILES IDX 83 24 85 25 84 26 86 27 87 28 88 29 5 30 6 31 7 32 8 33 9 35
REMARK SMILES IDX 10 36 11 37 69 38 12 39 68 40 13 41 14 42 15 43 62 44 16 45
REMARK SMILES IDX 67 46 61 47 63 48 17 49 66 50 60 51 59 52 18 54 48 55 29 56
REMARK SMILES IDX 47 57 30 58 33 59 46 60 64 61 31 62 32 63 45 65 65 66 34 67
REMARK SMILES IDX 19 68 20 69 28 70 21 71 27 72 22 73 23 74 24 75 25 76 26 77
REMARK SMILES IDX 49 78 50 79 58 80 51 81 57 82 52 83 53 84 54 85 55 86 56 87
REMARK SMILES IDX 35 88 36 89 44 90 37 91 43 92 38 93 39 94 40 95 41 96 42 97
REMARK H PARENT 3 5 7 34 63 53 33 64
REMARK Flexibility Score: inf
ROOT
ATOM      1  C   UNL A   1      44.005  35.166  37.945  1.00  0.00     0.118 C 
ENDROOT
BRANCH   1   2
ATOM      2  N   UNL A   1      43.384  35.886  39.050  1.00  0.00    -0.352 N 
ATOM      3  O   UNL A   1      41.720  36.908  40.188  1.00  0.00    -0.269 OA
ATOM      4  C   UNL A   1      42.058  36.162  39.274  1.00  0.00     0.251 C 
ATOM      5  H   UNL A   1      44.006  36.224  39.733  1.00  0.00     0.163 HD
BRANCH   4   6
ATOM      6  C   UNL A   1      41.032  35.568  38.398  1.00  0.00     0.039 A 
ATOM      7  C   UNL A   1      40.532  34.290  38.656  1.00  0.00     0.014 A 
ATOM      8  C   UNL A   1      40.557  36.301  37.311  1.00  0.00     0.014 A 
ATOM      9  C   UNL A   1      39.637  33.703  37.762  1.00  0.00     0.009 A 
ATOM     10  C   UNL A   1      39.651  35.713  36.425  1.00  0.00     0.009 A 
ATOM     11  C   UNL A   1      39.210  34.393  36.619  1.00  0.00    -0.025 A 
BRANCH  11  12
ATOM     12  C   UNL A   1      38.279  33.804  35.643  1.00  0.00     0.012 C 
ATOM     13  C   UNL A   1      38.626  33.416  34.405  1.00  0.00     0.053 C 
BRANCH  13  14
ATOM     14  C   UNL A   1      37.680  32.775  33.481  1.00  0.00     0.134 A 
ATOM     15  C   UNL A   1      37.403  31.419  33.659  1.00  0.00     0.100 A 
ATOM     16  N   UNL A   1      37.077  33.498  32.439  1.00  0.00    -0.228 N 
ATOM     17  C   UNL A   1      36.504  30.828  32.808  1.00  0.00     0.259 A 
ATOM     18  C   UNL A   1      36.197  32.808  31.601  1.00  0.00     0.333 A 
ATOM     19  O   UNL A   1      37.327  34.741  32.269  1.00  0.00    -0.710 OA
ATOM     20  N   UNL A   1      35.896  31.484  31.806  1.00  0.00    -0.049 NA
BRANCH  18  21
ATOM     21  C   UNL A   1      35.583  33.447  30.434  1.00  0.00     0.076 A 
ATOM     22  C   UNL A   1      36.061  33.176  29.138  1.00  0.00     0.017 A 
ATOM     23  C   UNL A   1      34.556  34.396  30.580  1.00  0.00     0.102 A 
ATOM     24  C   UNL A   1      35.526  33.818  28.017  1.00  0.00     0.008 A 
ATOM     25  C   UNL A   1      34.039  35.057  29.456  1.00  0.00     0.270 A 
ATOM     26  C   UNL A   1      34.517  34.766  28.173  1.00  0.00     0.085 A 
BRANCH  25  27
ATOM     27  N   UNL A   1      33.020  36.099  29.630  1.00  0.00     0.062 N 
ATOM     28  O   UNL A   1      32.152  36.205  28.751  1.00  0.00    -0.258 OA
ATOM     29  O   UNL A   1      33.110  36.832  30.625  1.00  0.00    -0.258 OA
ENDBRANCH  25  27
ENDBRANCH  18  21
ENDBRANCH  13  14
ENDBRANCH  11  12
ENDBRANCH   4   6
ENDBRANCH   1   2
BRANCH   1  30
ATOM     30  C   UNL A   1      45.185  35.914  37.338  1.00  0.00     0.042 C 
BRANCH  30  31
ATOM     31  C   UNL A   1      45.073  36.175  35.841  1.00  0.00     0.118 C 
BRANCH  31  32
ATOM     32  N   UNL A   1      43.900  36.963  35.487  1.00  0.00    -0.352 N 
ATOM     33  C   UNL A   1      42.890  36.726  34.588  1.00  0.00     0.251 C 
ATOM     34  H   UNL A   1      43.817  37.812  35.978  1.00  0.00     0.163 HD
ATOM     35  O   UNL A   1      42.093  37.630  34.346  1.00  0.00    -0.269 OA
BRANCH  33  36
ATOM     36  C   UNL A   1      42.759  35.424  33.895  1.00  0.00     0.039 A 
ATOM     37  C   UNL A   1      43.088  35.355  32.537  1.00  0.00     0.014 A 
ATOM     38  C   UNL A   1      42.277  34.285  34.544  1.00  0.00     0.014 A 
ATOM     39  C   UNL A   1      42.996  34.139  31.854  1.00  0.00     0.010 A 
ATOM     40  C   UNL A   1      42.265  33.055  33.886  1.00  0.00     0.010 A 
ATOM     41  C   UNL A   1      42.619  32.968  32.534  1.00  0.00    -0.014 A 
BRANCH  41  42
ATOM     42  C   UNL A   1      42.604  31.654  31.840  1.00  0.00     0.031 A 
ATOM     43  C   UNL A   1      43.826  30.772  31.838  1.00  0.00     0.074 A 
ATOM     44  C   UNL A   1      41.502  31.276  31.161  1.00  0.00     0.049 A 
ATOM     45  N   UNL A   1      43.997  29.605  31.270  1.00  0.00    -0.248 NA
ATOM     46  C   UNL A   1      45.016  31.274  32.543  1.00  0.00     0.031 C 
ATOM     47  C   UNL A   1      40.274  32.066  31.031  1.00  0.00     0.029 A 
ATOM     48  N   UNL A   1      41.235  30.133  30.450  1.00  0.00    -0.354 N 
ATOM     49  C   UNL A   1      45.314  29.244  31.529  1.00  0.00     0.074 A 
ATOM     50  C   UNL A   1      45.911  30.335  32.269  1.00  0.00     0.031 C 
ATOM     51  C   UNL A   1      39.378  31.372  30.311  1.00  0.00     0.029 A 
ATOM     52  C   UNL A   1      39.974  30.104  29.903  1.00  0.00     0.049 A 
ATOM     53  H   UNL A   1      41.887  29.403  30.341  1.00  0.00     0.167 HD
ATOM     54  C   UNL A   1      45.964  28.103  31.198  1.00  0.00     0.031 A 
ATOM     55  C   UNL A   1      39.362  29.164  29.157  1.00  0.00     0.031 A 
ATOM     56  C   UNL A   1      45.364  27.007  30.485  1.00  0.00     0.049 A 
ATOM     57  C   UNL A   1      40.093  27.891  28.834  1.00  0.00     0.074 A 
ATOM     58  C   UNL A   1      45.919  25.779  30.171  1.00  0.00     0.029 A 
ATOM     59  N   UNL A   1      44.075  27.005  29.976  1.00  0.00    -0.354 N 
ATOM     60  N   UNL A   1      41.313  27.538  29.160  1.00  0.00    -0.248 NA
ATOM     61  C   UNL A   1      39.359  26.884  28.056  1.00  0.00     0.031 C 
ATOM     62  C   UNL A   1      44.979  25.049  29.435  1.00  0.00     0.029 A 
ATOM     63  C   UNL A   1      43.823  25.805  29.332  1.00  0.00     0.049 A 
ATOM     64  H   UNL A   1      43.433  27.747  30.059  1.00  0.00     0.167 HD
ATOM     65  C   UNL A   1      41.486  26.258  28.643  1.00  0.00     0.074 A 
ATOM     66  C   UNL A   1      40.239  25.894  28.002  1.00  0.00     0.031 C 
ATOM     67  C   UNL A   1      42.580  25.459  28.693  1.00  0.00     0.031 A 
BRANCH  54  68
ATOM     68  C   UNL A   1      47.408  27.977  31.610  1.00  0.00    -0.014 A 
ATOM     69  C   UNL A   1      48.445  28.396  30.757  1.00  0.00     0.010 A 
ATOM     70  C   UNL A   1      47.731  27.483  32.887  1.00  0.00     0.010 A 
ATOM     71  C   UNL A   1      49.779  28.291  31.158  1.00  0.00     0.020 A 
ATOM     72  C   UNL A   1      49.063  27.399  33.302  1.00  0.00     0.020 A 
ATOM     73  C   UNL A   1      50.080  27.790  32.428  1.00  0.00     0.054 A 
BRANCH  73  74
ATOM     74  S   UNL A   1      51.819  27.696  32.938  1.00  0.00     0.124 S 
ATOM     75  O   UNL A   1      52.027  29.010  33.540  1.00  0.00    -0.237 OA
ATOM     76  O   UNL A   1      51.819  26.572  33.871  1.00  0.00    -0.237 OA
ATOM     77  O   UNL A   1      52.535  27.462  31.687  1.00  0.00    -0.744 OA
ENDBRANCH  73  74
ENDBRANCH  54  68
BRANCH  55  78
ATOM     78  C   UNL A   1      37.969  29.383  28.683  1.00  0.00    -0.014 A 
ATOM     79  C   UNL A   1      37.726  29.833  27.373  1.00  0.00     0.010 A 
ATOM     80  C   UNL A   1      36.880  29.133  29.536  1.00  0.00     0.010 A 
ATOM     81  C   UNL A   1      36.417  30.051  26.933  1.00  0.00     0.020 A 
ATOM     82  C   UNL A   1      35.569  29.326  29.090  1.00  0.00     0.020 A 
ATOM     83  C   UNL A   1      35.347  29.796  27.795  1.00  0.00     0.054 A 
BRANCH  83  84
ATOM     84  S   UNL A   1      33.655  30.043  27.188  1.00  0.00     0.124 S 
ATOM     85  O   UNL A   1      33.369  31.403  27.630  1.00  0.00    -0.237 OA
ATOM     86  O   UNL A   1      33.807  29.864  25.745  1.00  0.00    -0.237 OA
ATOM     87  O   UNL A   1      32.897  28.990  27.860  1.00  0.00    -0.744 OA
ENDBRANCH  83  84
ENDBRANCH  55  78
BRANCH  67  88
ATOM     88  C   UNL A   1      42.467  24.102  28.054  1.00  0.00    -0.014 A 
ATOM     89  C   UNL A   1      42.962  23.866  26.759  1.00  0.00     0.010 A 
ATOM     90  C   UNL A   1      41.884  23.041  28.771  1.00  0.00     0.010 A 
ATOM     91  C   UNL A   1      42.840  22.601  26.177  1.00  0.00     0.020 A 
ATOM     92  C   UNL A   1      41.784  21.770  28.202  1.00  0.00     0.020 A 
ATOM     93  C   UNL A   1      42.246  21.562  26.901  1.00  0.00     0.054 A 
BRANCH  93  94
ATOM     94  S   UNL A   1      42.118  19.922  26.135  1.00  0.00     0.124 S 
ATOM     95  O   UNL A   1      43.032  20.045  25.003  1.00  0.00    -0.237 OA
ATOM     96  O   UNL A   1      42.559  19.031  27.206  1.00  0.00    -0.237 OA
ATOM     97  O   UNL A   1      40.703  19.813  25.787  1.00  0.00    -0.744 OA
ENDBRANCH  93  94
ENDBRANCH  67  88
ENDBRANCH  41  42
ENDBRANCH  33  36
ENDBRANCH  31  32
ENDBRANCH  30  31
ENDBRANCH   1  30
TORSDOF 17
ENDMDL
