MODEL 1
REMARK VINA RESULT:     -11.2      0.000      0.000
REMARK SMILES O=C(C[C@@H]1COCCN1C(=O)c1csc(Cc2ccccc2)n1)NCCCNC(=O)c1ccc(-c2c3nc(c(-c4ccc(S(=O)(=O)[O-])cc4)c4ccc([nH]4)c(-c4ccc(S(=O)(=O)[O-])cc4)c4nc(c(-c5ccc(S(=O)(=O)[O-])cc5)c5ccc2[nH]5)C=C4)C=C3)cc1
REMARK SMILES IDX 25 1 24 2 1 3 2 4 3 6 4 7 5 8 9 9 6 10 8 11 7 12 10 13 11 14
REMARK SMILES IDX 12 15 13 16 23 17 14 18 15 19 16 20 17 21 18 22 22 23 19 24
REMARK SMILES IDX 21 25 20 26 26 27 27 28 28 29 29 30 30 32 31 33 32 34 90 35
REMARK SMILES IDX 33 36 89 37 34 38 35 39 36 40 83 41 37 42 88 43 82 44 84 45
REMARK SMILES IDX 38 46 87 47 81 48 80 49 39 51 69 52 50 53 68 54 51 55 54 56
REMARK SMILES IDX 67 57 85 58 52 59 53 60 66 62 86 63 55 64 40 65 41 66 49 67
REMARK SMILES IDX 42 68 48 69 43 70 44 71 45 72 46 73 47 74 70 75 71 76 79 77
REMARK SMILES IDX 72 78 78 79 73 80 74 81 75 82 76 83 77 84 56 85 57 86 65 87
REMARK SMILES IDX 58 88 64 89 59 90 60 91 61 92 62 93 63 94
REMARK H PARENT 24 5 28 31 84 50 54 61
REMARK Flexibility Score: inf
ROOT
ATOM      1  C   UNL A   1      39.028  22.064  25.864  1.00  0.00     0.117 C 
ENDROOT
BRANCH   1   2
ATOM      2  N   UNL A   1      40.162  21.465  26.531  1.00  0.00    -0.356 N 
ATOM      3  O   UNL A   1      39.746  19.417  25.632  1.00  0.00    -0.275 OA
ATOM      4  C   UNL A   1      40.448  20.135  26.333  1.00  0.00     0.222 C 
ATOM      5  H   UNL A   1      40.729  22.009  27.127  1.00  0.00     0.163 HD
BRANCH   4   6
ATOM      6  C   UNL A   1      41.762  19.705  26.957  1.00  0.00     0.127 C 
BRANCH   6   7
ATOM      7  C   UNL A   1      42.867  19.585  25.906  1.00  0.00     0.120 C 
ATOM      8  C   UNL A   1      43.614  18.242  26.195  1.00  0.00     0.185 C 
ATOM      9  N   UNL A   1      43.827  20.705  25.651  1.00  0.00    -0.329 N 
ATOM     10  O   UNL A   1      44.612  17.950  25.218  1.00  0.00    -0.377 OA
ATOM     11  C   UNL A   1      44.982  20.303  24.831  1.00  0.00     0.148 C 
ATOM     12  C   UNL A   1      45.604  18.978  25.255  1.00  0.00     0.181 C 
BRANCH   9  13
ATOM     13  C   UNL A   1      43.575  22.098  25.628  1.00  0.00     0.273 C 
ATOM     14  O   UNL A   1      42.682  22.559  24.911  1.00  0.00    -0.267 OA
BRANCH  13  15
ATOM     15  C   UNL A   1      44.310  23.021  26.497  1.00  0.00     0.139 A 
ATOM     16  C   UNL A   1      45.642  23.339  26.298  1.00  0.00     0.101 A 
ATOM     17  N   UNL A   1      43.775  23.583  27.650  1.00  0.00    -0.236 NA
ATOM     18  S   UNL A   1      46.169  24.478  27.464  1.00  0.00    -0.126 S 
ATOM     19  C   UNL A   1      44.622  24.418  28.218  1.00  0.00     0.098 A 
BRANCH  19  20
ATOM     20  C   UNL A   1      44.227  25.398  29.292  1.00  0.00     0.103 C 
BRANCH  20  21
ATOM     21  C   UNL A   1      44.773  25.147  30.678  1.00  0.00    -0.041 A 
ATOM     22  C   UNL A   1      44.209  24.148  31.487  1.00  0.00     0.004 A 
ATOM     23  C   UNL A   1      45.780  25.959  31.220  1.00  0.00     0.004 A 
ATOM     24  C   UNL A   1      44.642  23.967  32.803  1.00  0.00     0.000 A 
ATOM     25  C   UNL A   1      46.222  25.768  32.531  1.00  0.00     0.000 A 
ATOM     26  C   UNL A   1      45.651  24.774  33.324  1.00  0.00     0.000 A 
ENDBRANCH  20  21
ENDBRANCH  19  20
ENDBRANCH  13  15
ENDBRANCH   9  13
ENDBRANCH   6   7
ENDBRANCH   4   6
ENDBRANCH   1   2
BRANCH   1  27
ATOM     27  C   UNL A   1      38.269  23.022  26.759  1.00  0.00     0.042 C 
BRANCH  27  28
ATOM     28  C   UNL A   1      38.707  24.473  26.624  1.00  0.00     0.118 C 
BRANCH  28  29
ATOM     29  N   UNL A   1      39.893  24.651  25.800  1.00  0.00    -0.352 N 
ATOM     30  C   UNL A   1      40.946  25.515  25.992  1.00  0.00     0.251 C 
ATOM     31  H   UNL A   1      39.948  24.080  25.000  1.00  0.00     0.163 HD
ATOM     32  O   UNL A   1      41.813  25.643  25.134  1.00  0.00    -0.269 OA
BRANCH  30  33
ATOM     33  C   UNL A   1      40.994  26.313  27.233  1.00  0.00     0.039 A 
ATOM     34  C   UNL A   1      41.782  27.464  27.269  1.00  0.00     0.014 A 
ATOM     35  C   UNL A   1      40.200  25.960  28.328  1.00  0.00     0.014 A 
ATOM     36  C   UNL A   1      41.713  28.305  28.380  1.00  0.00     0.010 A 
ATOM     37  C   UNL A   1      40.065  26.844  29.391  1.00  0.00     0.010 A 
ATOM     38  C   UNL A   1      40.822  28.025  29.431  1.00  0.00    -0.014 A 
BRANCH  38  39
ATOM     39  C   UNL A   1      40.670  28.953  30.579  1.00  0.00     0.031 A 
ATOM     40  C   UNL A   1      41.545  28.795  31.793  1.00  0.00     0.074 A 
ATOM     41  C   UNL A   1      39.706  29.895  30.557  1.00  0.00     0.049 A 
ATOM     42  N   UNL A   1      41.531  29.470  32.913  1.00  0.00    -0.248 NA
ATOM     43  C   UNL A   1      42.547  27.716  31.757  1.00  0.00     0.031 C 
ATOM     44  C   UNL A   1      38.762  30.119  29.458  1.00  0.00     0.029 A 
ATOM     45  N   UNL A   1      39.357  30.842  31.488  1.00  0.00    -0.354 N 
ATOM     46  C   UNL A   1      42.507  28.891  33.716  1.00  0.00     0.074 A 
ATOM     47  C   UNL A   1      43.052  27.773  32.980  1.00  0.00     0.031 C 
ATOM     48  C   UNL A   1      37.967  31.157  29.765  1.00  0.00     0.029 A 
ATOM     49  C   UNL A   1      38.313  31.646  31.095  1.00  0.00     0.049 A 
ATOM     50  H   UNL A   1      39.813  30.937  32.355  1.00  0.00     0.167 HD
ATOM     51  C   UNL A   1      42.931  29.272  34.944  1.00  0.00     0.031 A 
ATOM     52  C   UNL A   1      37.700  32.661  31.735  1.00  0.00     0.031 A 
ATOM     53  C   UNL A   1      42.396  30.394  35.666  1.00  0.00     0.049 A 
ATOM     54  C   UNL A   1      38.180  33.058  33.104  1.00  0.00     0.074 A 
ATOM     55  C   UNL A   1      42.797  30.899  36.890  1.00  0.00     0.029 A 
ATOM     56  N   UNL A   1      41.343  31.185  35.232  1.00  0.00    -0.354 N 
ATOM     57  N   UNL A   1      39.156  32.544  33.816  1.00  0.00    -0.248 NA
ATOM     58  C   UNL A   1      37.484  34.178  33.753  1.00  0.00     0.031 C 
ATOM     59  C   UNL A   1      41.949  31.960  37.222  1.00  0.00     0.029 A 
ATOM     60  C   UNL A   1      41.061  32.157  36.177  1.00  0.00     0.049 A 
ATOM     61  H   UNL A   1      40.867  31.073  34.377  1.00  0.00     0.167 HD
ATOM     62  C   UNL A   1      39.205  33.293  34.987  1.00  0.00     0.074 A 
ATOM     63  C   UNL A   1      38.176  34.307  34.877  1.00  0.00     0.031 C 
ATOM     64  C   UNL A   1      40.029  33.155  36.055  1.00  0.00     0.031 A 
BRANCH  51  65
ATOM     65  C   UNL A   1      44.026  28.460  35.585  1.00  0.00    -0.014 A 
ATOM     66  C   UNL A   1      45.376  28.663  35.245  1.00  0.00     0.010 A 
ATOM     67  C   UNL A   1      43.705  27.502  36.564  1.00  0.00     0.010 A 
ATOM     68  C   UNL A   1      46.380  27.894  35.840  1.00  0.00     0.020 A 
ATOM     69  C   UNL A   1      44.709  26.753  37.184  1.00  0.00     0.020 A 
ATOM     70  C   UNL A   1      46.038  26.942  36.804  1.00  0.00     0.054 A 
BRANCH  70  71
ATOM     71  S   UNL A   1      47.365  25.974  37.574  1.00  0.00     0.124 S 
ATOM     72  O   UNL A   1      47.475  24.838  36.662  1.00  0.00    -0.237 OA
ATOM     73  O   UNL A   1      48.491  26.903  37.556  1.00  0.00    -0.237 OA
ATOM     74  O   UNL A   1      46.840  25.658  38.900  1.00  0.00    -0.744 OA
ENDBRANCH  70  71
ENDBRANCH  51  65
BRANCH  52  75
ATOM     75  C   UNL A   1      36.572  33.381  31.082  1.00  0.00    -0.014 A 
ATOM     76  C   UNL A   1      35.313  33.451  31.704  1.00  0.00     0.010 A 
ATOM     77  C   UNL A   1      36.752  34.010  29.836  1.00  0.00     0.010 A 
ATOM     78  C   UNL A   1      34.252  34.119  31.085  1.00  0.00     0.020 A 
ATOM     79  C   UNL A   1      35.702  34.704  29.229  1.00  0.00     0.020 A 
ATOM     80  C   UNL A   1      34.454  34.744  29.852  1.00  0.00     0.054 A 
BRANCH  80  81
ATOM     81  S   UNL A   1      33.077  35.648  29.092  1.00  0.00     0.124 S 
ATOM     82  O   UNL A   1      33.775  36.679  28.331  1.00  0.00    -0.237 OA
ATOM     83  O   UNL A   1      32.419  34.612  28.299  1.00  0.00    -0.237 OA
ATOM     84  O   UNL A   1      32.308  36.126  30.239  1.00  0.00    -0.744 OA
ENDBRANCH  80  81
ENDBRANCH  52  75
BRANCH  64  85
ATOM     85  C   UNL A   1      39.867  34.135  37.186  1.00  0.00    -0.014 A 
ATOM     86  C   UNL A   1      40.543  35.368  37.184  1.00  0.00     0.010 A 
ATOM     87  C   UNL A   1      38.978  33.841  38.238  1.00  0.00     0.010 A 
ATOM     88  C   UNL A   1      40.356  36.276  38.229  1.00  0.00     0.020 A 
ATOM     89  C   UNL A   1      38.766  34.760  39.268  1.00  0.00     0.020 A 
ATOM     90  C   UNL A   1      39.468  35.968  39.264  1.00  0.00     0.054 A 
BRANCH  90  91
ATOM     91  S   UNL A   1      39.208  37.185  40.583  1.00  0.00     0.124 S 
ATOM     92  O   UNL A   1      38.734  36.346  41.680  1.00  0.00    -0.237 OA
ATOM     93  O   UNL A   1      40.541  37.755  40.758  1.00  0.00    -0.237 OA
ATOM     94  O   UNL A   1      38.214  38.097  40.021  1.00  0.00    -0.744 OA
ENDBRANCH  90  91
ENDBRANCH  64  85
ENDBRANCH  38  39
ENDBRANCH  30  33
ENDBRANCH  28  29
ENDBRANCH  27  28
ENDBRANCH   1  27
TORSDOF 18
ENDMDL
MODEL 2
REMARK VINA RESULT:     -10.7      3.169      5.956
REMARK SMILES O=C(C[C@@H]1COCCN1C(=O)c1csc(Cc2ccccc2)n1)NCCCNC(=O)c1ccc(-c2c3nc(c(-c4ccc(S(=O)(=O)[O-])cc4)c4ccc([nH]4)c(-c4ccc(S(=O)(=O)[O-])cc4)c4nc(c(-c5ccc(S(=O)(=O)[O-])cc5)c5ccc2[nH]5)C=C4)C=C3)cc1
REMARK SMILES IDX 25 1 24 2 1 3 2 4 3 6 4 7 5 8 9 9 6 10 8 11 7 12 10 13 11 14
REMARK SMILES IDX 12 15 13 16 23 17 14 18 15 19 16 20 17 21 18 22 22 23 19 24
REMARK SMILES IDX 21 25 20 26 26 27 27 28 28 29 29 30 30 32 31 33 32 34 90 35
REMARK SMILES IDX 33 36 89 37 34 38 35 39 36 40 83 41 37 42 88 43 82 44 84 45
REMARK SMILES IDX 38 46 87 47 81 48 80 49 39 51 69 52 50 53 68 54 51 55 54 56
REMARK SMILES IDX 67 57 85 58 52 59 53 60 66 62 86 63 55 64 40 65 41 66 49 67
REMARK SMILES IDX 42 68 48 69 43 70 44 71 45 72 46 73 47 74 70 75 71 76 79 77
REMARK SMILES IDX 72 78 78 79 73 80 74 81 75 82 76 83 77 84 56 85 57 86 65 87
REMARK SMILES IDX 58 88 64 89 59 90 60 91 61 92 62 93 63 94
REMARK H PARENT 24 5 28 31 84 50 54 61
REMARK Flexibility Score: inf
ROOT
ATOM      1  C   UNL A   1      38.984  23.176  26.533  1.00  0.00     0.117 C 
ENDROOT
BRANCH   1   2
ATOM      2  N   UNL A   1      38.204  22.472  25.541  1.00  0.00    -0.356 N 
ATOM      3  O   UNL A   1      36.283  23.530  26.144  1.00  0.00    -0.275 OA
ATOM      4  C   UNL A   1      36.860  22.736  25.412  1.00  0.00     0.222 C 
ATOM      5  H   UNL A   1      38.633  21.804  24.957  1.00  0.00     0.163 HD
BRANCH   4   6
ATOM      6  C   UNL A   1      36.226  22.052  24.217  1.00  0.00     0.127 C 
BRANCH   6   7
ATOM      7  C   UNL A   1      34.731  21.814  24.436  1.00  0.00     0.120 C 
ATOM      8  C   UNL A   1      34.567  20.301  24.796  1.00  0.00     0.185 C 
ATOM      9  N   UNL A   1      33.714  22.255  23.430  1.00  0.00    -0.329 N 
ATOM     10  O   UNL A   1      33.223  19.961  25.131  1.00  0.00    -0.377 OA
ATOM     11  C   UNL A   1      32.377  21.686  23.670  1.00  0.00     0.148 C 
ATOM     12  C   UNL A   1      32.393  20.197  23.992  1.00  0.00     0.181 C 
BRANCH   9  13
ATOM     13  C   UNL A   1      33.694  23.437  22.653  1.00  0.00     0.273 C 
ATOM     14  O   UNL A   1      33.648  23.375  21.420  1.00  0.00    -0.267 OA
BRANCH  13  15
ATOM     15  C   UNL A   1      33.657  24.761  23.280  1.00  0.00     0.139 A 
ATOM     16  C   UNL A   1      33.508  25.931  22.556  1.00  0.00     0.101 A 
ATOM     17  N   UNL A   1      33.865  24.975  24.637  1.00  0.00    -0.236 NA
ATOM     18  S   UNL A   1      33.459  27.285  23.605  1.00  0.00    -0.126 S 
ATOM     19  C   UNL A   1      33.725  26.247  24.953  1.00  0.00     0.098 A 
BRANCH  19  20
ATOM     20  C   UNL A   1      33.588  26.741  26.370  1.00  0.00     0.103 C 
BRANCH  20  21
ATOM     21  C   UNL A   1      33.321  28.217  26.554  1.00  0.00    -0.041 A 
ATOM     22  C   UNL A   1      34.361  29.078  26.940  1.00  0.00     0.004 A 
ATOM     23  C   UNL A   1      32.025  28.741  26.440  1.00  0.00     0.004 A 
ATOM     24  C   UNL A   1      34.108  30.427  27.204  1.00  0.00     0.000 A 
ATOM     25  C   UNL A   1      31.776  30.092  26.690  1.00  0.00     0.000 A 
ATOM     26  C   UNL A   1      32.818  30.934  27.076  1.00  0.00     0.000 A 
ENDBRANCH  20  21
ENDBRANCH  19  20
ENDBRANCH  13  15
ENDBRANCH   9  13
ENDBRANCH   6   7
ENDBRANCH   4   6
ENDBRANCH   1   2
BRANCH   1  27
ATOM     27  C   UNL A   1      40.230  22.415  26.937  1.00  0.00     0.042 C 
BRANCH  27  28
ATOM     28  C   UNL A   1      41.469  23.286  27.076  1.00  0.00     0.118 C 
BRANCH  28  29
ATOM     29  N   UNL A   1      41.691  24.171  25.942  1.00  0.00    -0.352 N 
ATOM     30  C   UNL A   1      41.713  25.546  25.922  1.00  0.00     0.251 C 
ATOM     31  H   UNL A   1      41.846  23.728  25.077  1.00  0.00     0.163 HD
ATOM     32  O   UNL A   1      41.781  26.154  24.859  1.00  0.00    -0.269 OA
BRANCH  30  33
ATOM     33  C   UNL A   1      41.614  26.278  27.201  1.00  0.00     0.039 A 
ATOM     34  C   UNL A   1      42.602  27.207  27.528  1.00  0.00     0.014 A 
ATOM     35  C   UNL A   1      40.504  26.097  28.031  1.00  0.00     0.014 A 
ATOM     36  C   UNL A   1      42.437  28.012  28.656  1.00  0.00     0.010 A 
ATOM     37  C   UNL A   1      40.299  26.961  29.100  1.00  0.00     0.010 A 
ATOM     38  C   UNL A   1      41.264  27.926  29.426  1.00  0.00    -0.014 A 
BRANCH  38  39
ATOM     39  C   UNL A   1      41.030  28.834  30.577  1.00  0.00     0.031 A 
ATOM     40  C   UNL A   1      41.862  28.696  31.823  1.00  0.00     0.074 A 
ATOM     41  C   UNL A   1      40.031  29.738  30.525  1.00  0.00     0.049 A 
ATOM     42  N   UNL A   1      41.777  29.358  32.948  1.00  0.00    -0.248 NA
ATOM     43  C   UNL A   1      42.907  27.658  31.816  1.00  0.00     0.031 C 
ATOM     44  C   UNL A   1      39.123  29.937  29.392  1.00  0.00     0.029 A 
ATOM     45  N   UNL A   1      39.609  30.660  31.450  1.00  0.00    -0.354 N 
ATOM     46  C   UNL A   1      42.743  28.809  33.783  1.00  0.00     0.074 A 
ATOM     47  C   UNL A   1      43.360  27.721  33.059  1.00  0.00     0.031 C 
ATOM     48  C   UNL A   1      38.277  30.939  29.676  1.00  0.00     0.029 A 
ATOM     49  C   UNL A   1      38.550  31.427  31.024  1.00  0.00     0.049 A 
ATOM     50  H   UNL A   1      40.026  30.763  32.336  1.00  0.00     0.167 HD
ATOM     51  C   UNL A   1      43.103  29.192  35.031  1.00  0.00     0.031 A 
ATOM     52  C   UNL A   1      37.872  32.410  31.649  1.00  0.00     0.031 A 
ATOM     53  C   UNL A   1      42.495  30.284  35.742  1.00  0.00     0.049 A 
ATOM     54  C   UNL A   1      38.282  32.810  33.040  1.00  0.00     0.074 A 
ATOM     55  C   UNL A   1      42.828  30.791  36.986  1.00  0.00     0.029 A 
ATOM     56  N   UNL A   1      41.431  31.038  35.274  1.00  0.00    -0.354 N 
ATOM     57  N   UNL A   1      39.249  32.326  33.785  1.00  0.00    -0.248 NA
ATOM     58  C   UNL A   1      37.517  33.894  33.672  1.00  0.00     0.031 C 
ATOM     59  C   UNL A   1      41.926  31.814  37.294  1.00  0.00     0.029 A 
ATOM     60  C   UNL A   1      41.073  31.988  36.216  1.00  0.00     0.049 A 
ATOM     61  H   UNL A   1      40.993  30.917  34.400  1.00  0.00     0.167 HD
ATOM     62  C   UNL A   1      39.222  33.064  34.964  1.00  0.00     0.074 A 
ATOM     63  C   UNL A   1      38.158  34.038  34.823  1.00  0.00     0.031 C 
ATOM     64  C   UNL A   1      40.007  32.946  36.063  1.00  0.00     0.031 A 
BRANCH  51  65
ATOM     65  C   UNL A   1      44.203  28.416  35.707  1.00  0.00    -0.014 A 
ATOM     66  C   UNL A   1      45.553  28.774  35.540  1.00  0.00     0.010 A 
ATOM     67  C   UNL A   1      43.881  27.334  36.547  1.00  0.00     0.010 A 
ATOM     68  C   UNL A   1      46.564  28.038  36.165  1.00  0.00     0.020 A 
ATOM     69  C   UNL A   1      44.887  26.614  37.198  1.00  0.00     0.020 A 
ATOM     70  C   UNL A   1      46.223  26.961  36.988  1.00  0.00     0.054 A 
BRANCH  70  71
ATOM     71  S   UNL A   1      47.555  26.037  37.802  1.00  0.00     0.124 S 
ATOM     72  O   UNL A   1      48.475  25.796  36.693  1.00  0.00    -0.237 OA
ATOM     73  O   UNL A   1      48.025  26.979  38.814  1.00  0.00    -0.237 OA
ATOM     74  O   UNL A   1      46.885  24.848  38.323  1.00  0.00    -0.744 OA
ENDBRANCH  70  71
ENDBRANCH  51  65
BRANCH  52  75
ATOM     75  C   UNL A   1      36.743  33.092  30.958  1.00  0.00    -0.014 A 
ATOM     76  C   UNL A   1      35.425  32.941  31.424  1.00  0.00     0.010 A 
ATOM     77  C   UNL A   1      36.981  33.906  29.835  1.00  0.00     0.010 A 
ATOM     78  C   UNL A   1      34.365  33.575  30.769  1.00  0.00     0.020 A 
ATOM     79  C   UNL A   1      35.927  34.565  29.196  1.00  0.00     0.020 A 
ATOM     80  C   UNL A   1      34.623  34.385  29.660  1.00  0.00     0.054 A 
BRANCH  80  81
ATOM     81  S   UNL A   1      33.237  35.238  28.856  1.00  0.00     0.124 S 
ATOM     82  O   UNL A   1      32.424  35.639  30.000  1.00  0.00    -0.237 OA
ATOM     83  O   UNL A   1      33.907  36.324  28.144  1.00  0.00    -0.237 OA
ATOM     84  O   UNL A   1      32.653  34.208  28.001  1.00  0.00    -0.744 OA
ENDBRANCH  80  81
ENDBRANCH  52  75
BRANCH  64  85
ATOM     85  C   UNL A   1      39.762  33.906  37.196  1.00  0.00    -0.014 A 
ATOM     86  C   UNL A   1      38.906  33.574  38.261  1.00  0.00     0.010 A 
ATOM     87  C   UNL A   1      40.445  35.137  37.223  1.00  0.00     0.010 A 
ATOM     88  C   UNL A   1      38.715  34.467  39.317  1.00  0.00     0.020 A 
ATOM     89  C   UNL A   1      40.280  36.019  38.293  1.00  0.00     0.020 A 
ATOM     90  C   UNL A   1      39.404  35.684  39.328  1.00  0.00     0.054 A 
BRANCH  90  91
ATOM     91  S   UNL A   1      39.174  36.805  40.735  1.00  0.00     0.124 S 
ATOM     92  O   UNL A   1      38.303  37.830  40.167  1.00  0.00    -0.237 OA
ATOM     93  O   UNL A   1      38.556  35.938  41.735  1.00  0.00    -0.237 OA
ATOM     94  O   UNL A   1      40.531  37.246  41.052  1.00  0.00    -0.744 OA
ENDBRANCH  90  91
ENDBRANCH  64  85
ENDBRANCH  38  39
ENDBRANCH  30  33
ENDBRANCH  28  29
ENDBRANCH  27  28
ENDBRANCH   1  27
TORSDOF 18
ENDMDL
MODEL 3
REMARK VINA RESULT:     -10.7      5.224      8.386
REMARK SMILES O=C(C[C@@H]1COCCN1C(=O)c1csc(Cc2ccccc2)n1)NCCCNC(=O)c1ccc(-c2c3nc(c(-c4ccc(S(=O)(=O)[O-])cc4)c4ccc([nH]4)c(-c4ccc(S(=O)(=O)[O-])cc4)c4nc(c(-c5ccc(S(=O)(=O)[O-])cc5)c5ccc2[nH]5)C=C4)C=C3)cc1
REMARK SMILES IDX 25 1 24 2 1 3 2 4 3 6 4 7 5 8 9 9 6 10 8 11 7 12 10 13 11 14
REMARK SMILES IDX 12 15 13 16 23 17 14 18 15 19 16 20 17 21 18 22 22 23 19 24
REMARK SMILES IDX 21 25 20 26 26 27 27 28 28 29 29 30 30 32 31 33 32 34 90 35
REMARK SMILES IDX 33 36 89 37 34 38 35 39 36 40 83 41 37 42 88 43 82 44 84 45
REMARK SMILES IDX 38 46 87 47 81 48 80 49 39 51 69 52 50 53 68 54 51 55 54 56
REMARK SMILES IDX 67 57 85 58 52 59 53 60 66 62 86 63 55 64 40 65 41 66 49 67
REMARK SMILES IDX 42 68 48 69 43 70 44 71 45 72 46 73 47 74 70 75 71 76 79 77
REMARK SMILES IDX 72 78 78 79 73 80 74 81 75 82 76 83 77 84 56 85 57 86 65 87
REMARK SMILES IDX 58 88 64 89 59 90 60 91 61 92 62 93 63 94
REMARK H PARENT 24 5 28 31 84 50 54 61
REMARK Flexibility Score: inf
ROOT
ATOM      1  C   UNL A   1      35.059  23.768  23.486  1.00  0.00     0.117 C 
ENDROOT
BRANCH   1   2
ATOM      2  N   UNL A   1      34.422  24.979  23.950  1.00  0.00    -0.356 N 
ATOM      3  O   UNL A   1      33.954  25.670  21.833  1.00  0.00    -0.275 OA
ATOM      4  C   UNL A   1      33.881  25.859  23.041  1.00  0.00     0.222 C 
ATOM      5  H   UNL A   1      34.375  25.175  24.914  1.00  0.00     0.163 HD
BRANCH   4   6
ATOM      6  C   UNL A   1      33.098  26.984  23.689  1.00  0.00     0.127 C 
BRANCH   6   7
ATOM      7  C   UNL A   1      31.608  26.896  23.350  1.00  0.00     0.120 C 
ATOM      8  C   UNL A   1      31.265  28.173  22.516  1.00  0.00     0.185 C 
ATOM      9  N   UNL A   1      30.581  26.636  24.408  1.00  0.00    -0.329 N 
ATOM     10  O   UNL A   1      29.919  28.169  22.040  1.00  0.00    -0.377 OA
ATOM     11  C   UNL A   1      29.202  26.877  23.948  1.00  0.00     0.148 C 
ATOM     12  C   UNL A   1      29.036  28.172  23.164  1.00  0.00     0.181 C 
BRANCH   9  13
ATOM     13  C   UNL A   1      30.661  25.769  25.524  1.00  0.00     0.273 C 
ATOM     14  O   UNL A   1      30.389  26.180  26.656  1.00  0.00    -0.267 OA
BRANCH  13  15
ATOM     15  C   UNL A   1      30.999  24.352  25.366  1.00  0.00     0.139 A 
ATOM     16  C   UNL A   1      30.901  23.437  26.400  1.00  0.00     0.101 A 
ATOM     17  N   UNL A   1      31.538  23.814  24.203  1.00  0.00    -0.236 NA
ATOM     18  S   UNL A   1      31.327  21.869  25.858  1.00  0.00    -0.126 S 
ATOM     19  C   UNL A   1      31.698  22.510  24.303  1.00  0.00     0.098 A 
BRANCH  19  20
ATOM     20  C   UNL A   1      31.969  21.614  23.122  1.00  0.00     0.103 C 
BRANCH  20  21
ATOM     21  C   UNL A   1      32.637  20.289  23.411  1.00  0.00    -0.041 A 
ATOM     22  C   UNL A   1      32.205  19.125  22.757  1.00  0.00     0.004 A 
ATOM     23  C   UNL A   1      33.628  20.175  24.397  1.00  0.00     0.004 A 
ATOM     24  C   UNL A   1      32.750  17.881  23.082  1.00  0.00     0.000 A 
ATOM     25  C   UNL A   1      34.182  18.933  24.711  1.00  0.00     0.000 A 
ATOM     26  C   UNL A   1      33.741  17.785  24.056  1.00  0.00     0.000 A 
ENDBRANCH  20  21
ENDBRANCH  19  20
ENDBRANCH  13  15
ENDBRANCH   9  13
ENDBRANCH   6   7
ENDBRANCH   4   6
ENDBRANCH   1   2
BRANCH   1  27
ATOM     27  C   UNL A   1      35.675  22.969  24.616  1.00  0.00     0.042 C 
BRANCH  27  28
ATOM     28  C   UNL A   1      36.899  23.622  25.241  1.00  0.00     0.118 C 
BRANCH  28  29
ATOM     29  N   UNL A   1      37.977  22.688  25.529  1.00  0.00    -0.352 N 
ATOM     30  C   UNL A   1      39.162  22.927  26.184  1.00  0.00     0.251 C 
ATOM     31  H   UNL A   1      37.841  21.766  25.212  1.00  0.00     0.163 HD
ATOM     32  O   UNL A   1      40.034  22.064  26.232  1.00  0.00    -0.269 OA
BRANCH  30  33
ATOM     33  C   UNL A   1      39.384  24.252  26.795  1.00  0.00     0.039 A 
ATOM     34  C   UNL A   1      38.964  24.472  28.107  1.00  0.00     0.014 A 
ATOM     35  C   UNL A   1      40.074  25.244  26.093  1.00  0.00     0.014 A 
ATOM     36  C   UNL A   1      39.306  25.666  28.744  1.00  0.00     0.010 A 
ATOM     37  C   UNL A   1      40.490  26.391  26.758  1.00  0.00     0.010 A 
ATOM     38  C   UNL A   1      40.108  26.617  28.090  1.00  0.00    -0.014 A 
BRANCH  38  39
ATOM     39  C   UNL A   1      40.556  27.852  28.780  1.00  0.00     0.031 A 
ATOM     40  C   UNL A   1      41.934  27.919  29.380  1.00  0.00     0.074 A 
ATOM     41  C   UNL A   1      39.704  28.888  28.921  1.00  0.00     0.049 A 
ATOM     42  N   UNL A   1      42.490  28.886  30.063  1.00  0.00    -0.248 NA
ATOM     43  C   UNL A   1      42.791  26.731  29.217  1.00  0.00     0.031 C 
ATOM     44  C   UNL A   1      38.325  28.927  28.426  1.00  0.00     0.029 A 
ATOM     45  N   UNL A   1      39.872  30.109  29.526  1.00  0.00    -0.354 N 
ATOM     46  C   UNL A   1      43.749  28.420  30.422  1.00  0.00     0.074 A 
ATOM     47  C   UNL A   1      43.853  27.063  29.935  1.00  0.00     0.031 C 
ATOM     48  C   UNL A   1      37.787  30.122  28.717  1.00  0.00     0.029 A 
ATOM     49  C   UNL A   1      38.762  30.919  29.456  1.00  0.00     0.049 A 
ATOM     50  H   UNL A   1      40.708  30.380  29.969  1.00  0.00     0.167 HD
ATOM     51  C   UNL A   1      44.740  29.071  31.076  1.00  0.00     0.031 A 
ATOM     52  C   UNL A   1      38.551  32.160  29.933  1.00  0.00     0.031 A 
ATOM     53  C   UNL A   1      44.637  30.426  31.546  1.00  0.00     0.049 A 
ATOM     54  C   UNL A   1      39.664  32.859  30.668  1.00  0.00     0.074 A 
ATOM     55  C   UNL A   1      45.605  31.196  32.165  1.00  0.00     0.029 A 
ATOM     56  N   UNL A   1      43.500  31.212  31.450  1.00  0.00    -0.354 N 
ATOM     57  N   UNL A   1      40.874  32.427  30.932  1.00  0.00    -0.248 NA
ATOM     58  C   UNL A   1      39.385  34.215  31.159  1.00  0.00     0.031 C 
ATOM     59  C   UNL A   1      45.034  32.429  32.496  1.00  0.00     0.029 A 
ATOM     60  C   UNL A   1      43.731  32.450  32.026  1.00  0.00     0.049 A 
ATOM     61  H   UNL A   1      42.652  30.932  31.033  1.00  0.00     0.167 HD
ATOM     62  C   UNL A   1      41.509  33.469  31.601  1.00  0.00     0.074 A 
ATOM     63  C   UNL A   1      40.556  34.556  31.681  1.00  0.00     0.031 C 
ATOM     64  C   UNL A   1      42.768  33.520  32.102  1.00  0.00     0.031 A 
BRANCH  51  65
ATOM     65  C   UNL A   1      46.021  28.318  31.324  1.00  0.00    -0.014 A 
ATOM     66  C   UNL A   1      47.082  28.365  30.402  1.00  0.00     0.010 A 
ATOM     67  C   UNL A   1      46.180  27.579  32.511  1.00  0.00     0.010 A 
ATOM     68  C   UNL A   1      48.261  27.652  30.640  1.00  0.00     0.020 A 
ATOM     69  C   UNL A   1      47.368  26.891  32.768  1.00  0.00     0.020 A 
ATOM     70  C   UNL A   1      48.394  26.918  31.822  1.00  0.00     0.054 A 
BRANCH  70  71
ATOM     71  S   UNL A   1      49.943  26.020  32.114  1.00  0.00     0.124 S 
ATOM     72  O   UNL A   1      50.935  27.087  32.001  1.00  0.00    -0.237 OA
ATOM     73  O   UNL A   1      49.752  25.481  33.457  1.00  0.00    -0.237 OA
ATOM     74  O   UNL A   1      49.975  25.026  31.043  1.00  0.00    -0.744 OA
ENDBRANCH  70  71
ENDBRANCH  51  65
BRANCH  52  75
ATOM     75  C   UNL A   1      37.237  32.827  29.723  1.00  0.00    -0.014 A 
ATOM     76  C   UNL A   1      36.290  32.884  30.760  1.00  0.00     0.010 A 
ATOM     77  C   UNL A   1      36.928  33.419  28.484  1.00  0.00     0.010 A 
ATOM     78  C   UNL A   1      35.052  33.503  30.557  1.00  0.00     0.020 A 
ATOM     79  C   UNL A   1      35.704  34.065  28.287  1.00  0.00     0.020 A 
ATOM     80  C   UNL A   1      34.768  34.092  29.322  1.00  0.00     0.054 A 
BRANCH  80  81
ATOM     81  S   UNL A   1      33.176  34.933  29.098  1.00  0.00     0.124 S 
ATOM     82  O   UNL A   1      33.593  36.256  28.647  1.00  0.00    -0.237 OA
ATOM     83  O   UNL A   1      32.518  34.099  28.095  1.00  0.00    -0.237 OA
ATOM     84  O   UNL A   1      32.575  34.885  30.429  1.00  0.00    -0.744 OA
ENDBRANCH  80  81
ENDBRANCH  52  75
BRANCH  64  85
ATOM     85  C   UNL A   1      43.198  34.801  32.766  1.00  0.00    -0.014 A 
ATOM     86  C   UNL A   1      43.815  35.830  32.032  1.00  0.00     0.010 A 
ATOM     87  C   UNL A   1      42.927  35.000  34.132  1.00  0.00     0.010 A 
ATOM     88  C   UNL A   1      44.179  37.023  32.660  1.00  0.00     0.020 A 
ATOM     89  C   UNL A   1      43.262  36.203  34.756  1.00  0.00     0.020 A 
ATOM     90  C   UNL A   1      43.900  37.203  34.019  1.00  0.00     0.054 A 
BRANCH  90  91
ATOM     91  S   UNL A   1      44.341  38.780  34.798  1.00  0.00     0.124 S 
ATOM     92  O   UNL A   1      45.728  38.950  34.376  1.00  0.00    -0.237 OA
ATOM     93  O   UNL A   1      43.384  39.709  34.202  1.00  0.00    -0.237 OA
ATOM     94  O   UNL A   1      44.150  38.527  36.225  1.00  0.00    -0.744 OA
ENDBRANCH  90  91
ENDBRANCH  64  85
ENDBRANCH  38  39
ENDBRANCH  30  33
ENDBRANCH  28  29
ENDBRANCH  27  28
ENDBRANCH   1  27
TORSDOF 18
ENDMDL
