MODEL 1
REMARK VINA RESULT:     -11.6      0.000      0.000
REMARK SMILES COc1ccc([C@@H]2CC[NH2+][C@H]2C(=O)NCCCNC(=O)c2ccc(-c3c4nc(c(-c5ccc(S(=O)(=O)[O-])cc5)c5ccc([nH]5)c(-c5ccc(S(=O)(=O)[O-])cc5)c5nc(c(-c6ccc(S(=O)(=O)[O-])cc6)c6ccc3[nH]6)C=C5)C=C4)cc2)c2ccccc12
REMARK SMILES IDX 16 1 15 2 14 3 12 4 13 5 11 7 7 8 8 9 9 10 10 11 6 14 3 15
REMARK SMILES IDX 4 16 86 17 5 18 81 19 85 20 82 21 84 22 83 23 2 24 1 25
REMARK SMILES IDX 17 26 18 27 19 28 20 30 21 31 22 32 80 33 23 34 79 35 24 36
REMARK SMILES IDX 25 37 26 38 73 39 27 40 78 41 72 42 74 43 28 44 77 45 71 46
REMARK SMILES IDX 70 47 29 49 59 50 40 51 58 52 41 53 44 54 57 55 75 56 42 57
REMARK SMILES IDX 43 58 56 60 76 61 45 62 30 63 31 64 39 65 32 66 38 67 33 68
REMARK SMILES IDX 34 69 35 70 36 71 37 72 60 73 61 74 69 75 62 76 68 77 63 78
REMARK SMILES IDX 64 79 65 80 66 81 67 82 46 83 47 84 55 85 48 86 54 87 49 88
REMARK SMILES IDX 50 89 51 90 52 91 53 92
REMARK H PARENT 14 6 10 12 10 13 18 29 74 48 44 59
REMARK Flexibility Score: inf
ROOT
ATOM      1  C   UNL A   1      32.103  27.984  27.576  1.00  0.00     0.042 C 
ENDROOT
BRANCH   1   2
ATOM      2  C   UNL A   1      31.769  26.687  26.852  1.00  0.00     0.118 C 
BRANCH   2   3
ATOM      3  N   UNL A   1      30.910  26.897  25.702  1.00  0.00    -0.351 N 
ATOM      4  C   UNL A   1      31.109  26.740  24.363  1.00  0.00     0.278 C 
ATOM      5  O   UNL A   1      30.161  27.040  23.630  1.00  0.00    -0.268 OA
ATOM      6  H   UNL A   1      30.008  27.215  25.934  1.00  0.00     0.163 HD
BRANCH   4   7
ATOM      7  C   UNL A   1      32.435  26.230  23.758  1.00  0.00     0.280 C 
ATOM      8  C   UNL A   1      32.404  24.737  23.392  1.00  0.00     0.094 C 
ATOM      9  C   UNL A   1      32.595  24.709  21.873  1.00  0.00     0.076 C 
ATOM     10  C   UNL A   1      33.185  26.061  21.504  1.00  0.00     0.262 C 
ATOM     11  N   UNL A   1      32.836  27.011  22.559  1.00  0.00    -0.335 N 
ATOM     12  H   UNL A   1      32.060  27.599  22.253  1.00  0.00     0.346 HD
ATOM     13  H   UNL A   1      33.630  27.612  22.775  1.00  0.00     0.346 HD
BRANCH   8  14
ATOM     14  C   UNL A   1      33.481  23.908  24.105  1.00  0.00    -0.030 A 
ATOM     15  C   UNL A   1      35.595  22.540  25.384  1.00  0.00     0.126 A 
ATOM     16  C   UNL A   1      35.623  23.927  25.280  1.00  0.00     0.047 A 
ATOM     17  C   UNL A   1      34.521  21.802  24.835  1.00  0.00     0.024 A 
ATOM     18  C   UNL A   1      34.579  24.597  24.661  1.00  0.00     0.009 A 
ATOM     19  C   UNL A   1      33.442  22.481  24.194  1.00  0.00    -0.011 A 
ATOM     20  C   UNL A   1      34.500  20.392  24.920  1.00  0.00     0.012 A 
ATOM     21  C   UNL A   1      32.391  21.677  23.681  1.00  0.00     0.009 A 
ATOM     22  C   UNL A   1      33.451  19.639  24.403  1.00  0.00     0.001 A 
ATOM     23  C   UNL A   1      32.393  20.283  23.784  1.00  0.00     0.001 A 
BRANCH  15  24
ATOM     24  O   UNL A   1      36.627  21.839  25.964  1.00  0.00    -0.496 OA
ATOM     25  C   UNL A   1      37.883  21.973  25.306  1.00  0.00     0.278 C 
ENDBRANCH  15  24
ENDBRANCH   8  14
ENDBRANCH   4   7
ENDBRANCH   2   3
ENDBRANCH   1   2
BRANCH   1  26
ATOM     26  C   UNL A   1      33.451  28.575  27.177  1.00  0.00     0.118 C 
BRANCH  26  27
ATOM     27  N   UNL A   1      33.486  30.023  27.344  1.00  0.00    -0.352 N 
ATOM     28  C   UNL A   1      34.427  30.823  27.940  1.00  0.00     0.251 C 
ATOM     29  H   UNL A   1      32.712  30.502  26.971  1.00  0.00     0.163 HD
ATOM     30  O   UNL A   1      34.145  31.997  28.185  1.00  0.00    -0.269 OA
BRANCH  28  31
ATOM     31  C   UNL A   1      35.761  30.293  28.293  1.00  0.00     0.039 A 
ATOM     32  C   UNL A   1      36.779  30.325  27.336  1.00  0.00     0.014 A 
ATOM     33  C   UNL A   1      36.001  29.724  29.547  1.00  0.00     0.014 A 
ATOM     34  C   UNL A   1      38.050  29.843  27.657  1.00  0.00     0.010 A 
ATOM     35  C   UNL A   1      37.286  29.316  29.891  1.00  0.00     0.010 A 
ATOM     36  C   UNL A   1      38.323  29.364  28.948  1.00  0.00    -0.014 A 
BRANCH  36  37
ATOM     37  C   UNL A   1      39.680  28.897  29.331  1.00  0.00     0.031 A 
ATOM     38  C   UNL A   1      40.612  29.818  30.073  1.00  0.00     0.074 A 
ATOM     39  C   UNL A   1      40.091  27.668  28.961  1.00  0.00     0.049 A 
ATOM     40  N   UNL A   1      41.861  29.625  30.414  1.00  0.00    -0.248 NA
ATOM     41  C   UNL A   1      40.082  31.135  30.464  1.00  0.00     0.031 C 
ATOM     42  C   UNL A   1      39.291  26.692  28.214  1.00  0.00     0.029 A 
ATOM     43  N   UNL A   1      41.290  27.029  29.158  1.00  0.00    -0.354 N 
ATOM     44  C   UNL A   1      42.265  30.793  31.051  1.00  0.00     0.074 A 
ATOM     45  C   UNL A   1      41.148  31.711  31.000  1.00  0.00     0.031 C 
ATOM     46  C   UNL A   1      40.013  25.573  28.037  1.00  0.00     0.029 A 
ATOM     47  C   UNL A   1      41.338  25.764  28.618  1.00  0.00     0.049 A 
ATOM     48  H   UNL A   1      42.045  27.436  29.640  1.00  0.00     0.167 HD
ATOM     49  C   UNL A   1      43.449  31.070  31.646  1.00  0.00     0.031 A 
ATOM     50  C   UNL A   1      42.339  24.864  28.584  1.00  0.00     0.031 A 
ATOM     51  C   UNL A   1      44.555  30.150  31.707  1.00  0.00     0.049 A 
ATOM     52  C   UNL A   1      43.655  25.210  29.228  1.00  0.00     0.074 A 
ATOM     53  C   UNL A   1      45.788  30.328  32.311  1.00  0.00     0.029 A 
ATOM     54  N   UNL A   1      44.558  28.878  31.157  1.00  0.00    -0.354 N 
ATOM     55  N   UNL A   1      44.002  26.308  29.858  1.00  0.00    -0.248 NA
ATOM     56  C   UNL A   1      44.713  24.191  29.165  1.00  0.00     0.031 C 
ATOM     57  C   UNL A   1      46.551  29.177  32.092  1.00  0.00     0.029 A 
ATOM     58  C   UNL A   1      45.774  28.264  31.398  1.00  0.00     0.049 A 
ATOM     59  H   UNL A   1      43.807  28.474  30.667  1.00  0.00     0.167 HD
ATOM     60  C   UNL A   1      45.304  26.095  30.295  1.00  0.00     0.074 A 
ATOM     61  C   UNL A   1      45.677  24.761  29.874  1.00  0.00     0.031 C 
ATOM     62  C   UNL A   1      46.121  26.928  30.985  1.00  0.00     0.031 A 
BRANCH  49  63
ATOM     63  C   UNL A   1      43.609  32.417  32.299  1.00  0.00    -0.014 A 
ATOM     64  C   UNL A   1      44.058  33.525  31.557  1.00  0.00     0.010 A 
ATOM     65  C   UNL A   1      43.239  32.598  33.644  1.00  0.00     0.010 A 
ATOM     66  C   UNL A   1      44.158  34.784  32.154  1.00  0.00     0.020 A 
ATOM     67  C   UNL A   1      43.312  33.862  34.237  1.00  0.00     0.020 A 
ATOM     68  C   UNL A   1      43.781  34.944  33.491  1.00  0.00     0.054 A 
BRANCH  68  69
ATOM     69  S   UNL A   1      43.871  36.602  34.222  1.00  0.00     0.124 S 
ATOM     70  O   UNL A   1      45.313  36.797  34.350  1.00  0.00    -0.237 OA
ATOM     71  O   UNL A   1      43.213  37.431  33.216  1.00  0.00    -0.237 OA
ATOM     72  O   UNL A   1      43.148  36.465  35.484  1.00  0.00    -0.744 OA
ENDBRANCH  68  69
ENDBRANCH  49  63
BRANCH  50  73
ATOM     73  C   UNL A   1      42.150  23.546  27.918  1.00  0.00    -0.014 A 
ATOM     74  C   UNL A   1      41.481  22.501  28.580  1.00  0.00     0.010 A 
ATOM     75  C   UNL A   1      42.670  23.316  26.631  1.00  0.00     0.010 A 
ATOM     76  C   UNL A   1      41.377  21.238  27.988  1.00  0.00     0.020 A 
ATOM     77  C   UNL A   1      42.541  22.064  26.023  1.00  0.00     0.020 A 
ATOM     78  C   UNL A   1      41.914  21.026  26.716  1.00  0.00     0.054 A 
BRANCH  78  79
ATOM     79  S   UNL A   1      41.770  19.381  25.965  1.00  0.00     0.124 S 
ATOM     80  O   UNL A   1      42.668  19.493  24.820  1.00  0.00    -0.237 OA
ATOM     81  O   UNL A   1      42.221  18.502  27.041  1.00  0.00    -0.237 OA
ATOM     82  O   UNL A   1      40.349  19.278  25.643  1.00  0.00    -0.744 OA
ENDBRANCH  78  79
ENDBRANCH  50  73
BRANCH  62  83
ATOM     83  C   UNL A   1      47.478  26.406  31.372  1.00  0.00    -0.014 A 
ATOM     84  C   UNL A   1      47.716  25.868  32.649  1.00  0.00     0.010 A 
ATOM     85  C   UNL A   1      48.516  26.409  30.422  1.00  0.00     0.010 A 
ATOM     86  C   UNL A   1      48.979  25.372  32.980  1.00  0.00     0.020 A 
ATOM     87  C   UNL A   1      49.772  25.888  30.741  1.00  0.00     0.020 A 
ATOM     88  C   UNL A   1      49.999  25.385  32.023  1.00  0.00     0.054 A 
BRANCH  88  89
ATOM     89  S   UNL A   1      51.618  24.695  32.463  1.00  0.00     0.124 S 
ATOM     90  O   UNL A   1      51.743  25.085  33.866  1.00  0.00    -0.237 OA
ATOM     91  O   UNL A   1      51.433  23.266  32.222  1.00  0.00    -0.237 OA
ATOM     92  O   UNL A   1      52.540  25.361  31.546  1.00  0.00    -0.744 OA
ENDBRANCH  88  89
ENDBRANCH  62  83
ENDBRANCH  36  37
ENDBRANCH  28  31
ENDBRANCH  26  27
ENDBRANCH   1  26
TORSDOF 15
ENDMDL
MODEL 2
REMARK VINA RESULT:     -11.4      2.766      9.540
REMARK SMILES COc1ccc([C@@H]2CC[NH2+][C@H]2C(=O)NCCCNC(=O)c2ccc(-c3c4nc(c(-c5ccc(S(=O)(=O)[O-])cc5)c5ccc([nH]5)c(-c5ccc(S(=O)(=O)[O-])cc5)c5nc(c(-c6ccc(S(=O)(=O)[O-])cc6)c6ccc3[nH]6)C=C5)C=C4)cc2)c2ccccc12
REMARK SMILES IDX 16 1 15 2 14 3 12 4 13 5 11 7 7 8 8 9 9 10 10 11 6 14 3 15
REMARK SMILES IDX 4 16 86 17 5 18 81 19 85 20 82 21 84 22 83 23 2 24 1 25
REMARK SMILES IDX 17 26 18 27 19 28 20 30 21 31 22 32 80 33 23 34 79 35 24 36
REMARK SMILES IDX 25 37 26 38 73 39 27 40 78 41 72 42 74 43 28 44 77 45 71 46
REMARK SMILES IDX 70 47 29 49 59 50 40 51 58 52 41 53 44 54 57 55 75 56 42 57
REMARK SMILES IDX 43 58 56 60 76 61 45 62 30 63 31 64 39 65 32 66 38 67 33 68
REMARK SMILES IDX 34 69 35 70 36 71 37 72 60 73 61 74 69 75 62 76 68 77 63 78
REMARK SMILES IDX 64 79 65 80 66 81 67 82 46 83 47 84 55 85 48 86 54 87 49 88
REMARK SMILES IDX 50 89 51 90 52 91 53 92
REMARK H PARENT 14 6 10 12 10 13 18 29 74 48 44 59
REMARK Flexibility Score: inf
ROOT
ATOM      1  C   UNL A   1      35.068  23.338  26.356  1.00  0.00     0.042 C 
ENDROOT
BRANCH   1   2
ATOM      2  C   UNL A   1      33.878  24.191  25.934  1.00  0.00     0.118 C 
BRANCH   2   3
ATOM      3  N   UNL A   1      32.682  23.894  26.698  1.00  0.00    -0.351 N 
ATOM      4  C   UNL A   1      31.358  24.105  26.454  1.00  0.00     0.278 C 
ATOM      5  O   UNL A   1      30.574  23.753  27.342  1.00  0.00    -0.268 OA
ATOM      6  H   UNL A   1      32.861  23.456  27.560  1.00  0.00     0.163 HD
BRANCH   4   7
ATOM      7  C   UNL A   1      30.829  24.755  25.157  1.00  0.00     0.280 C 
ATOM      8  C   UNL A   1      31.813  25.756  24.530  1.00  0.00     0.094 C 
ATOM      9  C   UNL A   1      32.164  25.150  23.169  1.00  0.00     0.076 C 
ATOM     10  C   UNL A   1      31.067  24.141  22.868  1.00  0.00     0.262 C 
ATOM     11  N   UNL A   1      30.461  23.739  24.136  1.00  0.00    -0.335 N 
ATOM     12  H   UNL A   1      30.815  22.824  24.415  1.00  0.00     0.346 HD
ATOM     13  H   UNL A   1      29.448  23.677  24.044  1.00  0.00     0.346 HD
BRANCH   8  14
ATOM     14  C   UNL A   1      31.236  27.170  24.379  1.00  0.00    -0.030 A 
ATOM     15  C   UNL A   1      30.128  29.724  23.905  1.00  0.00     0.126 A 
ATOM     16  C   UNL A   1      29.754  28.644  23.113  1.00  0.00     0.047 A 
ATOM     17  C   UNL A   1      31.078  29.560  24.939  1.00  0.00     0.024 A 
ATOM     18  C   UNL A   1      30.292  27.388  23.354  1.00  0.00     0.009 A 
ATOM     19  C   UNL A   1      31.638  28.273  25.196  1.00  0.00    -0.011 A 
ATOM     20  C   UNL A   1      31.474  30.660  25.732  1.00  0.00     0.012 A 
ATOM     21  C   UNL A   1      32.573  28.180  26.260  1.00  0.00     0.009 A 
ATOM     22  C   UNL A   1      32.395  30.527  26.767  1.00  0.00     0.001 A 
ATOM     23  C   UNL A   1      32.944  29.284  27.032  1.00  0.00     0.001 A 
BRANCH  15  24
ATOM     24  O   UNL A   1      29.639  30.990  23.675  1.00  0.00    -0.496 OA
ATOM     25  C   UNL A   1      28.225  31.065  23.528  1.00  0.00     0.278 C 
ENDBRANCH  15  24
ENDBRANCH   8  14
ENDBRANCH   4   7
ENDBRANCH   2   3
ENDBRANCH   1   2
BRANCH   1  26
ATOM     26  C   UNL A   1      36.396  23.818  25.781  1.00  0.00     0.118 C 
BRANCH  26  27
ATOM     27  N   UNL A   1      37.444  22.813  25.908  1.00  0.00    -0.352 N 
ATOM     28  C   UNL A   1      38.755  22.942  26.289  1.00  0.00     0.251 C 
ATOM     29  H   UNL A   1      37.167  21.896  25.684  1.00  0.00     0.163 HD
ATOM     30  O   UNL A   1      39.529  22.004  26.096  1.00  0.00    -0.269 OA
BRANCH  28  31
ATOM     31  C   UNL A   1      39.243  24.187  26.918  1.00  0.00     0.039 A 
ATOM     32  C   UNL A   1      39.997  25.082  26.154  1.00  0.00     0.014 A 
ATOM     33  C   UNL A   1      39.002  24.456  28.268  1.00  0.00     0.014 A 
ATOM     34  C   UNL A   1      40.455  26.271  26.727  1.00  0.00     0.010 A 
ATOM     35  C   UNL A   1      39.391  25.675  28.816  1.00  0.00     0.010 A 
ATOM     36  C   UNL A   1      40.127  26.593  28.053  1.00  0.00    -0.014 A 
BRANCH  36  37
ATOM     37  C   UNL A   1      40.555  27.876  28.668  1.00  0.00     0.031 A 
ATOM     38  C   UNL A   1      41.948  28.017  29.224  1.00  0.00     0.074 A 
ATOM     39  C   UNL A   1      39.674  28.890  28.777  1.00  0.00     0.049 A 
ATOM     40  N   UNL A   1      42.476  29.022  29.875  1.00  0.00    -0.248 NA
ATOM     41  C   UNL A   1      42.859  26.874  29.045  1.00  0.00     0.031 C 
ATOM     42  C   UNL A   1      38.287  28.866  28.302  1.00  0.00     0.029 A 
ATOM     43  N   UNL A   1      39.813  30.140  29.327  1.00  0.00    -0.354 N 
ATOM     44  C   UNL A   1      43.773  28.631  30.188  1.00  0.00     0.074 A 
ATOM     45  C   UNL A   1      43.935  27.277  29.705  1.00  0.00     0.031 C 
ATOM     46  C   UNL A   1      37.712  30.053  28.562  1.00  0.00     0.029 A 
ATOM     47  C   UNL A   1      38.671  30.905  29.256  1.00  0.00     0.049 A 
ATOM     48  H   UNL A   1      40.650  30.460  29.733  1.00  0.00     0.167 HD
ATOM     49  C   UNL A   1      44.750  29.342  30.800  1.00  0.00     0.031 A 
ATOM     50  C   UNL A   1      38.421  32.148  29.710  1.00  0.00     0.031 A 
ATOM     51  C   UNL A   1      44.591  30.693  31.268  1.00  0.00     0.049 A 
ATOM     52  C   UNL A   1      39.517  32.904  30.414  1.00  0.00     0.074 A 
ATOM     53  C   UNL A   1      45.530  31.508  31.876  1.00  0.00     0.029 A 
ATOM     54  N   UNL A   1      43.423  31.433  31.168  1.00  0.00    -0.354 N 
ATOM     55  N   UNL A   1      40.748  32.527  30.664  1.00  0.00    -0.248 NA
ATOM     56  C   UNL A   1      39.192  34.257  30.885  1.00  0.00     0.031 C 
ATOM     57  C   UNL A   1      44.918  32.727  32.181  1.00  0.00     0.029 A 
ATOM     58  C   UNL A   1      43.615  32.690  31.713  1.00  0.00     0.049 A 
ATOM     59  H   UNL A   1      42.583  31.111  30.770  1.00  0.00     0.167 HD
ATOM     60  C   UNL A   1      41.353  33.611  31.292  1.00  0.00     0.074 A 
ATOM     61  C   UNL A   1      40.358  34.661  31.367  1.00  0.00     0.031 C 
ATOM     62  C   UNL A   1      42.617  33.728  31.764  1.00  0.00     0.031 A 
BRANCH  49  63
ATOM     63  C   UNL A   1      46.090  28.679  30.983  1.00  0.00    -0.014 A 
ATOM     64  C   UNL A   1      46.362  27.919  32.136  1.00  0.00     0.010 A 
ATOM     65  C   UNL A   1      47.059  28.754  29.967  1.00  0.00     0.010 A 
ATOM     66  C   UNL A   1      47.589  27.266  32.279  1.00  0.00     0.020 A 
ATOM     67  C   UNL A   1      48.278  28.080  30.096  1.00  0.00     0.020 A 
ATOM     68  C   UNL A   1      48.537  27.348  31.256  1.00  0.00     0.054 A 
BRANCH  68  69
ATOM     69  S   UNL A   1      50.099  26.445  31.449  1.00  0.00     0.124 S 
ATOM     70  O   UNL A   1      51.056  27.364  30.839  1.00  0.00    -0.237 OA
ATOM     71  O   UNL A   1      50.206  26.299  32.899  1.00  0.00    -0.237 OA
ATOM     72  O   UNL A   1      49.875  25.202  30.715  1.00  0.00    -0.744 OA
ENDBRANCH  68  69
ENDBRANCH  49  63
BRANCH  50  73
ATOM     73  C   UNL A   1      37.079  32.766  29.522  1.00  0.00    -0.014 A 
ATOM     74  C   UNL A   1      36.684  33.243  28.260  1.00  0.00     0.010 A 
ATOM     75  C   UNL A   1      36.204  32.916  30.614  1.00  0.00     0.010 A 
ATOM     76  C   UNL A   1      35.459  33.900  28.102  1.00  0.00     0.020 A 
ATOM     77  C   UNL A   1      34.966  33.544  30.453  1.00  0.00     0.020 A 
ATOM     78  C   UNL A   1      34.612  34.052  29.201  1.00  0.00     0.054 A 
BRANCH  78  79
ATOM     79  S   UNL A   1      33.027  34.907  28.976  1.00  0.00     0.124 S 
ATOM     80  O   UNL A   1      32.366  34.062  27.987  1.00  0.00    -0.237 OA
ATOM     81  O   UNL A   1      32.457  34.875  30.321  1.00  0.00    -0.237 OA
ATOM     82  O   UNL A   1      33.421  36.233  28.508  1.00  0.00    -0.744 OA
ENDBRANCH  78  79
ENDBRANCH  50  73
BRANCH  62  83
ATOM     83  C   UNL A   1      43.016  35.052  32.358  1.00  0.00    -0.014 A 
ATOM     84  C   UNL A   1      43.667  36.032  31.587  1.00  0.00     0.010 A 
ATOM     85  C   UNL A   1      42.685  35.337  33.695  1.00  0.00     0.010 A 
ATOM     86  C   UNL A   1      44.011  37.261  32.155  1.00  0.00     0.020 A 
ATOM     87  C   UNL A   1      43.002  36.577  34.257  1.00  0.00     0.020 A 
ATOM     88  C   UNL A   1      43.676  37.525  33.487  1.00  0.00     0.054 A 
BRANCH  88  89
ATOM     89  S   UNL A   1      44.093  39.146  34.187  1.00  0.00     0.124 S 
ATOM     90  O   UNL A   1      45.358  39.448  33.520  1.00  0.00    -0.237 OA
ATOM     91  O   UNL A   1      42.958  39.971  33.784  1.00  0.00    -0.237 OA
ATOM     92  O   UNL A   1      44.191  38.888  35.621  1.00  0.00    -0.744 OA
ENDBRANCH  88  89
ENDBRANCH  62  83
ENDBRANCH  36  37
ENDBRANCH  28  31
ENDBRANCH  26  27
ENDBRANCH   1  26
TORSDOF 15
ENDMDL
MODEL 3
REMARK VINA RESULT:     -11.2      2.700      9.345
REMARK SMILES COc1ccc([C@@H]2CC[NH2+][C@H]2C(=O)NCCCNC(=O)c2ccc(-c3c4nc(c(-c5ccc(S(=O)(=O)[O-])cc5)c5ccc([nH]5)c(-c5ccc(S(=O)(=O)[O-])cc5)c5nc(c(-c6ccc(S(=O)(=O)[O-])cc6)c6ccc3[nH]6)C=C5)C=C4)cc2)c2ccccc12
REMARK SMILES IDX 16 1 15 2 14 3 12 4 13 5 11 7 7 8 8 9 9 10 10 11 6 14 3 15
REMARK SMILES IDX 4 16 86 17 5 18 81 19 85 20 82 21 84 22 83 23 2 24 1 25
REMARK SMILES IDX 17 26 18 27 19 28 20 30 21 31 22 32 80 33 23 34 79 35 24 36
REMARK SMILES IDX 25 37 26 38 73 39 27 40 78 41 72 42 74 43 28 44 77 45 71 46
REMARK SMILES IDX 70 47 29 49 59 50 40 51 58 52 41 53 44 54 57 55 75 56 42 57
REMARK SMILES IDX 43 58 56 60 76 61 45 62 30 63 31 64 39 65 32 66 38 67 33 68
REMARK SMILES IDX 34 69 35 70 36 71 37 72 60 73 61 74 69 75 62 76 68 77 63 78
REMARK SMILES IDX 64 79 65 80 66 81 67 82 46 83 47 84 55 85 48 86 54 87 49 88
REMARK SMILES IDX 50 89 51 90 52 91 53 92
REMARK H PARENT 14 6 10 12 10 13 18 29 74 48 44 59
REMARK Flexibility Score: inf
ROOT
ATOM      1  C   UNL A   1      35.701  23.454  25.062  1.00  0.00     0.042 C 
ENDROOT
BRANCH   1   2
ATOM      2  C   UNL A   1      34.891  23.345  23.777  1.00  0.00     0.118 C 
BRANCH   2   3
ATOM      3  N   UNL A   1      33.886  22.300  23.838  1.00  0.00    -0.351 N 
ATOM      4  C   UNL A   1      32.761  22.148  24.592  1.00  0.00     0.278 C 
ATOM      5  O   UNL A   1      32.123  21.105  24.418  1.00  0.00    -0.268 OA
ATOM      6  H   UNL A   1      34.049  21.557  23.215  1.00  0.00     0.163 HD
BRANCH   4   7
ATOM      7  C   UNL A   1      32.284  23.195  25.622  1.00  0.00     0.280 C 
ATOM      8  C   UNL A   1      31.328  24.243  25.030  1.00  0.00     0.094 C 
ATOM      9  C   UNL A   1      30.013  24.034  25.784  1.00  0.00     0.076 C 
ATOM     10  C   UNL A   1      30.373  23.261  27.043  1.00  0.00     0.262 C 
ATOM     11  N   UNL A   1      31.633  22.560  26.798  1.00  0.00    -0.335 N 
ATOM     12  H   UNL A   1      31.450  21.576  26.604  1.00  0.00     0.346 HD
ATOM     13  H   UNL A   1      32.239  22.619  27.616  1.00  0.00     0.346 HD
BRANCH   8  14
ATOM     14  C   UNL A   1      31.832  25.685  25.177  1.00  0.00    -0.030 A 
ATOM     15  C   UNL A   1      32.854  28.280  25.621  1.00  0.00     0.126 A 
ATOM     16  C   UNL A   1      33.474  27.178  26.199  1.00  0.00     0.047 A 
ATOM     17  C   UNL A   1      31.698  28.116  24.824  1.00  0.00     0.024 A 
ATOM     18  C   UNL A   1      32.976  25.903  25.971  1.00  0.00     0.009 A 
ATOM     19  C   UNL A   1      31.177  26.810  24.584  1.00  0.00    -0.011 A 
ATOM     20  C   UNL A   1      31.053  29.236  24.253  1.00  0.00     0.012 A 
ATOM     21  C   UNL A   1      30.023  26.720  23.761  1.00  0.00     0.009 A 
ATOM     22  C   UNL A   1      29.924  29.106  23.452  1.00  0.00     0.001 A 
ATOM     23  C   UNL A   1      29.409  27.845  23.204  1.00  0.00     0.001 A 
BRANCH  15  24
ATOM     24  O   UNL A   1      33.301  29.562  25.851  1.00  0.00    -0.496 OA
ATOM     25  C   UNL A   1      33.123  30.025  27.185  1.00  0.00     0.278 C 
ENDBRANCH  15  24
ENDBRANCH   8  14
ENDBRANCH   4   7
ENDBRANCH   2   3
ENDBRANCH   1   2
BRANCH   1  26
ATOM     26  C   UNL A   1      37.177  23.757  24.828  1.00  0.00     0.118 C 
BRANCH  26  27
ATOM     27  N   UNL A   1      38.044  22.730  25.394  1.00  0.00    -0.352 N 
ATOM     28  C   UNL A   1      39.162  22.848  26.178  1.00  0.00     0.251 C 
ATOM     29  H   UNL A   1      37.785  21.805  25.178  1.00  0.00     0.163 HD
ATOM     30  O   UNL A   1      39.882  21.862  26.345  1.00  0.00    -0.269 OA
BRANCH  28  31
ATOM     31  C   UNL A   1      39.512  24.136  26.812  1.00  0.00     0.039 A 
ATOM     32  C   UNL A   1      39.029  24.414  28.094  1.00  0.00     0.014 A 
ATOM     33  C   UNL A   1      40.275  25.090  26.133  1.00  0.00     0.014 A 
ATOM     34  C   UNL A   1      39.362  25.620  28.716  1.00  0.00     0.010 A 
ATOM     35  C   UNL A   1      40.670  26.256  26.782  1.00  0.00     0.010 A 
ATOM     36  C   UNL A   1      40.212  26.537  28.078  1.00  0.00    -0.014 A 
BRANCH  36  37
ATOM     37  C   UNL A   1      40.625  27.801  28.740  1.00  0.00     0.031 A 
ATOM     38  C   UNL A   1      41.998  27.919  29.349  1.00  0.00     0.074 A 
ATOM     39  C   UNL A   1      39.747  28.819  28.842  1.00  0.00     0.049 A 
ATOM     40  N   UNL A   1      42.508  28.904  30.044  1.00  0.00    -0.248 NA
ATOM     41  C   UNL A   1      42.908  26.775  29.175  1.00  0.00     0.031 C 
ATOM     42  C   UNL A   1      38.378  28.816  28.317  1.00  0.00     0.029 A 
ATOM     43  N   UNL A   1      39.873  30.054  29.428  1.00  0.00    -0.354 N 
ATOM     44  C   UNL A   1      43.790  28.496  30.394  1.00  0.00     0.074 A 
ATOM     45  C   UNL A   1      43.962  27.154  29.883  1.00  0.00     0.031 C 
ATOM     46  C   UNL A   1      37.801  30.000  28.586  1.00  0.00     0.029 A 
ATOM     47  C   UNL A   1      38.739  30.827  29.336  1.00  0.00     0.049 A 
ATOM     48  H   UNL A   1      40.697  30.357  29.873  1.00  0.00     0.167 HD
ATOM     49  C   UNL A   1      44.749  29.185  31.058  1.00  0.00     0.031 A 
ATOM     50  C   UNL A   1      38.480  32.061  29.812  1.00  0.00     0.031 A 
ATOM     51  C   UNL A   1      44.581  30.525  31.554  1.00  0.00     0.049 A 
ATOM     52  C   UNL A   1      39.554  32.791  30.573  1.00  0.00     0.074 A 
ATOM     53  C   UNL A   1      45.502  31.318  32.216  1.00  0.00     0.029 A 
ATOM     54  N   UNL A   1      43.422  31.275  31.430  1.00  0.00    -0.354 N 
ATOM     55  N   UNL A   1      40.774  32.400  30.858  1.00  0.00    -0.248 NA
ATOM     56  C   UNL A   1      39.220  34.135  31.067  1.00  0.00     0.031 C 
ATOM     57  C   UNL A   1      44.887  32.534  32.529  1.00  0.00     0.029 A 
ATOM     58  C   UNL A   1      43.601  32.517  32.014  1.00  0.00     0.049 A 
ATOM     59  H   UNL A   1      42.595  30.969  30.994  1.00  0.00     0.167 HD
ATOM     60  C   UNL A   1      41.361  33.464  31.535  1.00  0.00     0.074 A 
ATOM     61  C   UNL A   1      40.371  34.519  31.600  1.00  0.00     0.031 C 
ATOM     62  C   UNL A   1      42.609  33.561  32.055  1.00  0.00     0.031 A 
BRANCH  49  63
ATOM     63  C   UNL A   1      46.077  28.509  31.273  1.00  0.00    -0.014 A 
ATOM     64  C   UNL A   1      46.297  27.703  32.406  1.00  0.00     0.010 A 
ATOM     65  C   UNL A   1      47.089  28.618  30.303  1.00  0.00     0.010 A 
ATOM     66  C   UNL A   1      47.514  27.039  32.577  1.00  0.00     0.020 A 
ATOM     67  C   UNL A   1      48.299  27.933  30.458  1.00  0.00     0.020 A 
ATOM     68  C   UNL A   1      48.506  27.156  31.599  1.00  0.00     0.054 A 
BRANCH  68  69
ATOM     69  S   UNL A   1      50.055  26.238  31.824  1.00  0.00     0.124 S 
ATOM     70  O   UNL A   1      50.329  25.774  30.467  1.00  0.00    -0.237 OA
ATOM     71  O   UNL A   1      50.962  27.263  32.333  1.00  0.00    -0.237 OA
ATOM     72  O   UNL A   1      49.702  25.190  32.780  1.00  0.00    -0.744 OA
ENDBRANCH  68  69
ENDBRANCH  49  63
BRANCH  50  73
ATOM     73  C   UNL A   1      37.150  32.693  29.591  1.00  0.00    -0.014 A 
ATOM     74  C   UNL A   1      36.885  33.403  28.406  1.00  0.00     0.010 A 
ATOM     75  C   UNL A   1      36.154  32.621  30.581  1.00  0.00     0.010 A 
ATOM     76  C   UNL A   1      35.666  34.067  28.236  1.00  0.00     0.020 A 
ATOM     77  C   UNL A   1      34.923  33.257  30.401  1.00  0.00     0.020 A 
ATOM     78  C   UNL A   1      34.696  33.996  29.238  1.00  0.00     0.054 A 
BRANCH  78  79
ATOM     79  S   UNL A   1      33.121  34.865  28.998  1.00  0.00     0.124 S 
ATOM     80  O   UNL A   1      32.460  34.024  28.006  1.00  0.00    -0.237 OA
ATOM     81  O   UNL A   1      32.540  34.842  30.338  1.00  0.00    -0.237 OA
ATOM     82  O   UNL A   1      33.531  36.186  28.529  1.00  0.00    -0.744 OA
ENDBRANCH  78  79
ENDBRANCH  50  73
BRANCH  62  83
ATOM     83  C   UNL A   1      42.993  34.867  32.696  1.00  0.00    -0.014 A 
ATOM     84  C   UNL A   1      42.770  35.102  34.065  1.00  0.00     0.010 A 
ATOM     85  C   UNL A   1      43.635  35.852  31.925  1.00  0.00     0.010 A 
ATOM     86  C   UNL A   1      43.152  36.315  34.642  1.00  0.00     0.020 A 
ATOM     87  C   UNL A   1      44.044  37.055  32.506  1.00  0.00     0.020 A 
ATOM     88  C   UNL A   1      43.787  37.284  33.858  1.00  0.00     0.054 A 
BRANCH  88  89
ATOM     89  S   UNL A   1      44.314  38.832  34.642  1.00  0.00     0.124 S 
ATOM     90  O   UNL A   1      43.343  39.787  34.111  1.00  0.00    -0.237 OA
ATOM     91  O   UNL A   1      44.186  38.531  36.065  1.00  0.00    -0.237 OA
ATOM     92  O   UNL A   1      45.685  39.011  34.170  1.00  0.00    -0.744 OA
ENDBRANCH  88  89
ENDBRANCH  62  83
ENDBRANCH  36  37
ENDBRANCH  28  31
ENDBRANCH  26  27
ENDBRANCH   1  26
TORSDOF 15
ENDMDL
