MODEL 1
REMARK VINA RESULT:     -12.3      0.000      0.000
REMARK SMILES Cc1cccc([C@H]([NH3+])[C@H](O)C(=O)NCCCNC(=O)c2ccc(-c3c4nc(c(-c5ccc(S(=O)(=O)[O-])cc5)c5ccc([nH]5)c(-c5ccc(S(=O)(=O)[O-])cc5)c5nc(c(-c6ccc(S(=O)(=O)[O-])cc6)c6ccc3[nH]6)C=C5)C=C4)cc2)c1
REMARK SMILES IDX 15 1 14 2 13 3 11 4 12 5 9 7 7 8 6 9 1 10 2 11 3 12 80 13
REMARK SMILES IDX 4 14 5 15 8 16 10 20 16 22 17 23 18 24 19 26 20 27 21 28
REMARK SMILES IDX 79 29 22 30 78 31 23 32 24 33 25 34 72 35 26 36 77 37 71 38
REMARK SMILES IDX 73 39 27 40 76 41 70 42 69 43 28 45 58 46 39 47 57 48 40 49
REMARK SMILES IDX 43 50 56 51 74 52 41 53 42 54 55 56 75 57 44 58 29 59 30 60
REMARK SMILES IDX 38 61 31 62 37 63 32 64 33 65 34 66 35 67 36 68 59 69 60 70
REMARK SMILES IDX 68 71 61 72 67 73 62 74 63 75 64 76 65 77 66 78 45 79 46 80
REMARK SMILES IDX 54 81 47 82 53 83 48 84 49 85 50 86 51 87 52 88
REMARK H PARENT 13 6 8 17 8 18 8 19 10 21 17 25 73 44 43 55
REMARK Flexibility Score: inf
ROOT
ATOM      1  C   UNL A   1      33.074  29.953  26.834  1.00  0.00     0.042 C 
ENDROOT
BRANCH   1   2
ATOM      2  C   UNL A   1      32.494  29.038  25.773  1.00  0.00     0.117 C 
BRANCH   2   3
ATOM      3  N   UNL A   1      33.378  28.786  24.652  1.00  0.00    -0.354 N 
ATOM      4  C   UNL A   1      33.075  28.745  23.320  1.00  0.00     0.255 C 
ATOM      5  O   UNL A   1      34.003  28.630  22.514  1.00  0.00    -0.272 OA
ATOM      6  H   UNL A   1      34.322  28.623  24.881  1.00  0.00     0.163 HD
BRANCH   4   7
ATOM      7  C   UNL A   1      31.604  28.749  22.824  1.00  0.00     0.266 C 
BRANCH   7   8
ATOM      8  C   UNL A   1      31.110  27.336  22.331  1.00  0.00     0.250 C 
BRANCH   8   9
ATOM      9  C   UNL A   1      30.811  26.319  23.436  1.00  0.00     0.013 A 
ATOM     10  C   UNL A   1      31.702  22.731  24.413  1.00  0.00     0.044 C 
ATOM     11  C   UNL A   1      31.155  24.126  24.470  1.00  0.00    -0.051 A 
ATOM     12  C   UNL A   1      30.543  24.588  25.639  1.00  0.00     0.003 A 
ATOM     13  C   UNL A   1      31.308  25.004  23.385  1.00  0.00     0.013 A 
ATOM     14  C   UNL A   1      30.007  25.872  25.691  1.00  0.00     0.001 A 
ATOM     15  C   UNL A   1      30.095  26.712  24.580  1.00  0.00     0.010 A 
ENDBRANCH   8   9
BRANCH   8  16
ATOM     16  N   UNL A   1      32.045  26.727  21.351  1.00  0.00    -0.349 N 
ATOM     17  H   UNL A   1      32.543  27.465  20.853  1.00  0.00     0.345 HD
ATOM     18  H   UNL A   1      31.520  26.161  20.684  1.00  0.00     0.345 HD
ATOM     19  H   UNL A   1      32.716  26.137  21.843  1.00  0.00     0.345 HD
ENDBRANCH   8  16
ENDBRANCH   7   8
BRANCH   7  20
ATOM     20  O   UNL A   1      31.397  29.814  21.889  1.00  0.00    -0.378 OA
ATOM     21  H   UNL A   1      30.760  29.532  21.214  1.00  0.00     0.211 HD
ENDBRANCH   7  20
ENDBRANCH   4   7
ENDBRANCH   2   3
ENDBRANCH   1   2
BRANCH   1  22
ATOM     22  C   UNL A   1      34.563  29.716  27.015  1.00  0.00     0.118 C 
BRANCH  22  23
ATOM     23  N   UNL A   1      35.311  30.908  27.410  1.00  0.00    -0.352 N 
ATOM     24  C   UNL A   1      36.535  30.962  28.066  1.00  0.00     0.251 C 
ATOM     25  H   UNL A   1      34.899  31.774  27.183  1.00  0.00     0.163 HD
ATOM     26  O   UNL A   1      36.996  31.989  28.516  1.00  0.00    -0.269 OA
BRANCH  24  27
ATOM     27  C   UNL A   1      37.306  29.700  28.098  1.00  0.00     0.039 A 
ATOM     28  C   UNL A   1      37.336  29.011  29.314  1.00  0.00     0.014 A 
ATOM     29  C   UNL A   1      38.258  29.475  27.111  1.00  0.00     0.014 A 
ATOM     30  C   UNL A   1      38.458  28.255  29.636  1.00  0.00     0.010 A 
ATOM     31  C   UNL A   1      39.423  28.837  27.484  1.00  0.00     0.010 A 
ATOM     32  C   UNL A   1      39.543  28.272  28.764  1.00  0.00    -0.014 A 
BRANCH  32  33
ATOM     33  C   UNL A   1      40.859  27.736  29.086  1.00  0.00     0.031 A 
ATOM     34  C   UNL A   1      41.150  26.329  28.713  1.00  0.00     0.074 A 
ATOM     35  C   UNL A   1      41.827  28.531  29.598  1.00  0.00     0.049 A 
ATOM     36  N   UNL A   1      42.153  25.638  29.135  1.00  0.00    -0.248 NA
ATOM     37  C   UNL A   1      40.257  25.558  27.848  1.00  0.00     0.031 C 
ATOM     38  C   UNL A   1      43.259  28.234  29.648  1.00  0.00     0.029 A 
ATOM     39  N   UNL A   1      41.708  29.688  30.376  1.00  0.00    -0.354 N 
ATOM     40  C   UNL A   1      42.214  24.488  28.379  1.00  0.00     0.074 A 
ATOM     41  C   UNL A   1      40.965  24.443  27.660  1.00  0.00     0.031 C 
ATOM     42  C   UNL A   1      43.815  28.958  30.632  1.00  0.00     0.029 A 
ATOM     43  C   UNL A   1      42.724  29.598  31.346  1.00  0.00     0.049 A 
ATOM     44  H   UNL A   1      41.051  30.413  30.269  1.00  0.00     0.167 HD
ATOM     45  C   UNL A   1      43.377  23.778  28.335  1.00  0.00     0.031 A 
ATOM     46  C   UNL A   1      42.497  29.461  32.688  1.00  0.00     0.031 A 
ATOM     47  C   UNL A   1      44.325  24.263  29.338  1.00  0.00     0.049 A 
ATOM     48  C   UNL A   1      43.130  28.212  33.276  1.00  0.00     0.074 A 
ATOM     49  C   UNL A   1      45.433  25.091  29.281  1.00  0.00     0.029 A 
ATOM     50  N   UNL A   1      43.988  24.147  30.682  1.00  0.00    -0.354 N 
ATOM     51  N   UNL A   1      43.530  27.193  32.563  1.00  0.00    -0.248 NA
ATOM     52  C   UNL A   1      43.341  27.997  34.706  1.00  0.00     0.031 C 
ATOM     53  C   UNL A   1      45.689  25.565  30.596  1.00  0.00     0.029 A 
ATOM     54  C   UNL A   1      44.766  24.990  31.453  1.00  0.00     0.049 A 
ATOM     55  H   UNL A   1      43.293  23.548  31.036  1.00  0.00     0.167 HD
ATOM     56  C   UNL A   1      44.056  26.227  33.381  1.00  0.00     0.074 A 
ATOM     57  C   UNL A   1      43.917  26.781  34.717  1.00  0.00     0.031 C 
ATOM     58  C   UNL A   1      44.560  25.055  32.895  1.00  0.00     0.031 A 
BRANCH  45  59
ATOM     59  C   UNL A   1      43.744  22.841  27.200  1.00  0.00    -0.014 A 
ATOM     60  C   UNL A   1      42.879  21.778  26.866  1.00  0.00     0.010 A 
ATOM     61  C   UNL A   1      44.956  22.888  26.485  1.00  0.00     0.010 A 
ATOM     62  C   UNL A   1      43.243  20.778  25.947  1.00  0.00     0.020 A 
ATOM     63  C   UNL A   1      45.349  21.884  25.588  1.00  0.00     0.020 A 
ATOM     64  C   UNL A   1      44.492  20.823  25.333  1.00  0.00     0.054 A 
BRANCH  64  65
ATOM     65  S   UNL A   1      44.990  19.491  24.210  1.00  0.00     0.124 S 
ATOM     66  O   UNL A   1      44.288  18.335  24.761  1.00  0.00    -0.237 OA
ATOM     67  O   UNL A   1      44.503  19.969  22.920  1.00  0.00    -0.237 OA
ATOM     68  O   UNL A   1      46.446  19.448  24.346  1.00  0.00    -0.744 OA
ENDBRANCH  64  65
ENDBRANCH  45  59
BRANCH  46  69
ATOM     69  C   UNL A   1      41.238  30.098  33.168  1.00  0.00    -0.014 A 
ATOM     70  C   UNL A   1      41.254  31.498  33.340  1.00  0.00     0.010 A 
ATOM     71  C   UNL A   1      40.002  29.445  33.014  1.00  0.00     0.010 A 
ATOM     72  C   UNL A   1      40.091  32.249  33.154  1.00  0.00     0.020 A 
ATOM     73  C   UNL A   1      38.830  30.199  32.842  1.00  0.00     0.020 A 
ATOM     74  C   UNL A   1      38.903  31.595  32.832  1.00  0.00     0.054 A 
BRANCH  74  75
ATOM     75  S   UNL A   1      37.539  32.601  32.169  1.00  0.00     0.124 S 
ATOM     76  O   UNL A   1      36.598  31.587  31.704  1.00  0.00    -0.237 OA
ATOM     77  O   UNL A   1      37.123  33.352  33.353  1.00  0.00    -0.237 OA
ATOM     78  O   UNL A   1      38.182  33.390  31.124  1.00  0.00    -0.744 OA
ENDBRANCH  74  75
ENDBRANCH  46  69
BRANCH  58  79
ATOM     79  C   UNL A   1      44.973  23.855  33.718  1.00  0.00    -0.014 A 
ATOM     80  C   UNL A   1      44.134  22.769  34.007  1.00  0.00     0.010 A 
ATOM     81  C   UNL A   1      46.331  23.736  34.109  1.00  0.00     0.010 A 
ATOM     82  C   UNL A   1      44.610  21.645  34.699  1.00  0.00     0.020 A 
ATOM     83  C   UNL A   1      46.826  22.601  34.756  1.00  0.00     0.020 A 
ATOM     84  C   UNL A   1      45.952  21.568  35.069  1.00  0.00     0.054 A 
BRANCH  84  85
ATOM     85  S   UNL A   1      46.578  20.078  35.888  1.00  0.00     0.124 S 
ATOM     86  O   UNL A   1      46.189  20.314  37.278  1.00  0.00    -0.237 OA
ATOM     87  O   UNL A   1      45.856  19.003  35.211  1.00  0.00    -0.237 OA
ATOM     88  O   UNL A   1      48.013  20.119  35.622  1.00  0.00    -0.744 OA
ENDBRANCH  84  85
ENDBRANCH  58  79
ENDBRANCH  32  33
ENDBRANCH  24  27
ENDBRANCH  22  23
ENDBRANCH   1  22
TORSDOF 17
ENDMDL
MODEL 2
REMARK VINA RESULT:     -12.3      5.664     12.735
REMARK SMILES Cc1cccc([C@H]([NH3+])[C@H](O)C(=O)NCCCNC(=O)c2ccc(-c3c4nc(c(-c5ccc(S(=O)(=O)[O-])cc5)c5ccc([nH]5)c(-c5ccc(S(=O)(=O)[O-])cc5)c5nc(c(-c6ccc(S(=O)(=O)[O-])cc6)c6ccc3[nH]6)C=C5)C=C4)cc2)c1
REMARK SMILES IDX 15 1 14 2 13 3 11 4 12 5 9 7 7 8 6 9 1 10 2 11 3 12 80 13
REMARK SMILES IDX 4 14 5 15 8 16 10 20 16 22 17 23 18 24 19 26 20 27 21 28
REMARK SMILES IDX 79 29 22 30 78 31 23 32 24 33 25 34 72 35 26 36 77 37 71 38
REMARK SMILES IDX 73 39 27 40 76 41 70 42 69 43 28 45 58 46 39 47 57 48 40 49
REMARK SMILES IDX 43 50 56 51 74 52 41 53 42 54 55 56 75 57 44 58 29 59 30 60
REMARK SMILES IDX 38 61 31 62 37 63 32 64 33 65 34 66 35 67 36 68 59 69 60 70
REMARK SMILES IDX 68 71 61 72 67 73 62 74 63 75 64 76 65 77 66 78 45 79 46 80
REMARK SMILES IDX 54 81 47 82 53 83 48 84 49 85 50 86 51 87 52 88
REMARK H PARENT 13 6 8 17 8 18 8 19 10 21 17 25 73 44 43 55
REMARK Flexibility Score: inf
ROOT
ATOM      1  C   UNL A   1      41.105  20.325  26.312  1.00  0.00     0.042 C 
ENDROOT
BRANCH   1   2
ATOM      2  C   UNL A   1      42.499  19.760  26.506  1.00  0.00     0.117 C 
BRANCH   2   3
ATOM      3  N   UNL A   1      43.041  19.094  25.337  1.00  0.00    -0.354 N 
ATOM      4  C   UNL A   1      44.322  19.117  24.861  1.00  0.00     0.255 C 
ATOM      5  O   UNL A   1      44.603  18.380  23.911  1.00  0.00    -0.272 OA
ATOM      6  H   UNL A   1      42.401  18.553  24.819  1.00  0.00     0.163 HD
BRANCH   4   7
ATOM      7  C   UNL A   1      45.379  20.101  25.429  1.00  0.00     0.266 C 
BRANCH   7   8
ATOM      8  C   UNL A   1      45.504  21.430  24.590  1.00  0.00     0.250 C 
BRANCH   8   9
ATOM      9  C   UNL A   1      45.097  22.712  25.322  1.00  0.00     0.013 A 
ATOM     10  C   UNL A   1      45.516  24.371  28.742  1.00  0.00     0.044 C 
ATOM     11  C   UNL A   1      45.166  24.154  27.300  1.00  0.00    -0.051 A 
ATOM     12  C   UNL A   1      44.653  25.209  26.541  1.00  0.00     0.003 A 
ATOM     13  C   UNL A   1      45.409  22.919  26.679  1.00  0.00     0.013 A 
ATOM     14  C   UNL A   1      44.298  25.010  25.209  1.00  0.00     0.001 A 
ATOM     15  C   UNL A   1      44.471  23.757  24.621  1.00  0.00     0.010 A 
ENDBRANCH   8   9
BRANCH   8  16
ATOM     16  N   UNL A   1      44.769  21.351  23.303  1.00  0.00    -0.349 N 
ATOM     17  H   UNL A   1      43.846  20.947  23.463  1.00  0.00     0.345 HD
ATOM     18  H   UNL A   1      45.287  20.765  22.649  1.00  0.00     0.345 HD
ATOM     19  H   UNL A   1      44.666  22.288  22.912  1.00  0.00     0.345 HD
ENDBRANCH   8  16
ENDBRANCH   7   8
BRANCH   7  20
ATOM     20  O   UNL A   1      46.618  19.422  25.660  1.00  0.00    -0.378 OA
ATOM     21  H   UNL A   1      46.674  19.161  26.593  1.00  0.00     0.211 HD
ENDBRANCH   7  20
ENDBRANCH   4   7
ENDBRANCH   2   3
ENDBRANCH   1   2
BRANCH   1  22
ATOM     22  C   UNL A   1      41.147  21.812  26.007  1.00  0.00     0.118 C 
BRANCH  22  23
ATOM     23  N   UNL A   1      39.845  22.471  26.081  1.00  0.00    -0.352 N 
ATOM     24  C   UNL A   1      39.540  23.681  26.694  1.00  0.00     0.251 C 
ATOM     25  H   UNL A   1      39.096  22.002  25.645  1.00  0.00     0.163 HD
ATOM     26  O   UNL A   1      38.404  24.065  26.865  1.00  0.00    -0.269 OA
BRANCH  24  27
ATOM     27  C   UNL A   1      40.696  24.537  27.040  1.00  0.00     0.039 A 
ATOM     28  C   UNL A   1      41.247  24.367  28.313  1.00  0.00     0.014 A 
ATOM     29  C   UNL A   1      40.913  25.695  26.303  1.00  0.00     0.014 A 
ATOM     30  C   UNL A   1      41.831  25.458  28.948  1.00  0.00     0.010 A 
ATOM     31  C   UNL A   1      41.371  26.805  26.981  1.00  0.00     0.010 A 
ATOM     32  C   UNL A   1      41.782  26.698  28.320  1.00  0.00    -0.014 A 
BRANCH  32  33
ATOM     33  C   UNL A   1      42.128  27.957  28.966  1.00  0.00     0.031 A 
ATOM     34  C   UNL A   1      41.047  28.952  29.180  1.00  0.00     0.074 A 
ATOM     35  C   UNL A   1      43.368  28.164  29.467  1.00  0.00     0.049 A 
ATOM     36  N   UNL A   1      41.224  30.186  29.506  1.00  0.00    -0.248 NA
ATOM     37  C   UNL A   1      39.637  28.619  28.973  1.00  0.00     0.031 C 
ATOM     38  C   UNL A   1      43.758  29.202  30.421  1.00  0.00     0.029 A 
ATOM     39  N   UNL A   1      44.592  27.617  29.065  1.00  0.00    -0.354 N 
ATOM     40  C   UNL A   1      39.996  30.705  29.853  1.00  0.00     0.074 A 
ATOM     41  C   UNL A   1      39.035  29.723  29.417  1.00  0.00     0.031 C 
ATOM     42  C   UNL A   1      45.075  29.430  30.296  1.00  0.00     0.029 A 
ATOM     43  C   UNL A   1      45.521  28.670  29.141  1.00  0.00     0.049 A 
ATOM     44  H   UNL A   1      44.766  26.688  28.786  1.00  0.00     0.167 HD
ATOM     45  C   UNL A   1      39.939  31.843  30.601  1.00  0.00     0.031 A 
ATOM     46  C   UNL A   1      46.155  29.216  28.058  1.00  0.00     0.031 A 
ATOM     47  C   UNL A   1      41.256  32.468  30.707  1.00  0.00     0.049 A 
ATOM     48  C   UNL A   1      45.904  30.706  27.908  1.00  0.00     0.074 A 
ATOM     49  C   UNL A   1      42.228  32.486  31.693  1.00  0.00     0.029 A 
ATOM     50  N   UNL A   1      41.864  32.938  29.547  1.00  0.00    -0.354 N 
ATOM     51  N   UNL A   1      44.926  31.343  28.495  1.00  0.00    -0.248 NA
ATOM     52  C   UNL A   1      46.711  31.592  27.071  1.00  0.00     0.031 C 
ATOM     53  C   UNL A   1      43.457  32.863  31.086  1.00  0.00     0.029 A 
ATOM     54  C   UNL A   1      43.220  33.115  29.746  1.00  0.00     0.049 A 
ATOM     55  H   UNL A   1      41.394  33.120  28.702  1.00  0.00     0.167 HD
ATOM     56  C   UNL A   1      44.967  32.672  28.163  1.00  0.00     0.074 A 
ATOM     57  C   UNL A   1      46.108  32.778  27.270  1.00  0.00     0.031 C 
ATOM     58  C   UNL A   1      44.063  33.574  28.647  1.00  0.00     0.031 A 
BRANCH  45  59
ATOM     59  C   UNL A   1      38.747  32.222  31.460  1.00  0.00    -0.014 A 
ATOM     60  C   UNL A   1      37.576  32.717  30.848  1.00  0.00     0.010 A 
ATOM     61  C   UNL A   1      38.738  32.205  32.868  1.00  0.00     0.010 A 
ATOM     62  C   UNL A   1      36.509  33.248  31.594  1.00  0.00     0.020 A 
ATOM     63  C   UNL A   1      37.696  32.757  33.627  1.00  0.00     0.020 A 
ATOM     64  C   UNL A   1      36.588  33.289  32.984  1.00  0.00     0.054 A 
BRANCH  64  65
ATOM     65  S   UNL A   1      35.246  34.044  33.939  1.00  0.00     0.124 S 
ATOM     66  O   UNL A   1      35.378  35.460  33.602  1.00  0.00    -0.237 OA
ATOM     67  O   UNL A   1      34.065  33.375  33.403  1.00  0.00    -0.237 OA
ATOM     68  O   UNL A   1      35.574  33.709  35.324  1.00  0.00    -0.744 OA
ENDBRANCH  64  65
ENDBRANCH  45  59
BRANCH  46  69
ATOM     69  C   UNL A   1      46.390  28.263  26.937  1.00  0.00    -0.014 A 
ATOM     70  C   UNL A   1      45.691  28.504  25.735  1.00  0.00     0.010 A 
ATOM     71  C   UNL A   1      47.553  27.473  26.901  1.00  0.00     0.010 A 
ATOM     72  C   UNL A   1      46.247  28.143  24.506  1.00  0.00     0.020 A 
ATOM     73  C   UNL A   1      48.105  27.097  25.667  1.00  0.00     0.020 A 
ATOM     74  C   UNL A   1      47.488  27.508  24.481  1.00  0.00     0.054 A 
BRANCH  74  75
ATOM     75  S   UNL A   1      48.377  27.455  22.894  1.00  0.00     0.124 S 
ATOM     76  O   UNL A   1      47.533  28.278  22.034  1.00  0.00    -0.237 OA
ATOM     77  O   UNL A   1      49.667  28.042  23.259  1.00  0.00    -0.237 OA
ATOM     78  O   UNL A   1      48.407  26.032  22.573  1.00  0.00    -0.744 OA
ENDBRANCH  74  75
ENDBRANCH  46  69
BRANCH  58  79
ATOM     79  C   UNL A   1      43.902  35.006  28.190  1.00  0.00    -0.014 A 
ATOM     80  C   UNL A   1      43.186  35.394  27.048  1.00  0.00     0.010 A 
ATOM     81  C   UNL A   1      44.375  36.044  29.031  1.00  0.00     0.010 A 
ATOM     82  C   UNL A   1      42.998  36.748  26.731  1.00  0.00     0.020 A 
ATOM     83  C   UNL A   1      44.153  37.395  28.750  1.00  0.00     0.020 A 
ATOM     84  C   UNL A   1      43.483  37.740  27.584  1.00  0.00     0.054 A 
BRANCH  84  85
ATOM     85  S   UNL A   1      43.165  39.484  27.212  1.00  0.00     0.124 S 
ATOM     86  O   UNL A   1      43.302  40.102  28.529  1.00  0.00    -0.237 OA
ATOM     87  O   UNL A   1      44.218  39.813  26.254  1.00  0.00    -0.237 OA
ATOM     88  O   UNL A   1      41.813  39.474  26.660  1.00  0.00    -0.744 OA
ENDBRANCH  84  85
ENDBRANCH  58  79
ENDBRANCH  32  33
ENDBRANCH  24  27
ENDBRANCH  22  23
ENDBRANCH   1  22
TORSDOF 17
ENDMDL
MODEL 3
REMARK VINA RESULT:     -12.3      1.695      2.580
REMARK SMILES Cc1cccc([C@H]([NH3+])[C@H](O)C(=O)NCCCNC(=O)c2ccc(-c3c4nc(c(-c5ccc(S(=O)(=O)[O-])cc5)c5ccc([nH]5)c(-c5ccc(S(=O)(=O)[O-])cc5)c5nc(c(-c6ccc(S(=O)(=O)[O-])cc6)c6ccc3[nH]6)C=C5)C=C4)cc2)c1
REMARK SMILES IDX 15 1 14 2 13 3 11 4 12 5 9 7 7 8 6 9 1 10 2 11 3 12 80 13
REMARK SMILES IDX 4 14 5 15 8 16 10 20 16 22 17 23 18 24 19 26 20 27 21 28
REMARK SMILES IDX 79 29 22 30 78 31 23 32 24 33 25 34 72 35 26 36 77 37 71 38
REMARK SMILES IDX 73 39 27 40 76 41 70 42 69 43 28 45 58 46 39 47 57 48 40 49
REMARK SMILES IDX 43 50 56 51 74 52 41 53 42 54 55 56 75 57 44 58 29 59 30 60
REMARK SMILES IDX 38 61 31 62 37 63 32 64 33 65 34 66 35 67 36 68 59 69 60 70
REMARK SMILES IDX 68 71 61 72 67 73 62 74 63 75 64 76 65 77 66 78 45 79 46 80
REMARK SMILES IDX 54 81 47 82 53 83 48 84 49 85 50 86 51 87 52 88
REMARK H PARENT 13 6 8 17 8 18 8 19 10 21 17 25 73 44 43 55
REMARK Flexibility Score: inf
ROOT
ATOM      1  C   UNL A   1      33.057  29.831  27.269  1.00  0.00     0.042 C 
ENDROOT
BRANCH   1   2
ATOM      2  C   UNL A   1      32.128  29.481  26.122  1.00  0.00     0.117 C 
BRANCH   2   3
ATOM      3  N   UNL A   1      32.329  28.154  25.574  1.00  0.00    -0.354 N 
ATOM      4  C   UNL A   1      32.424  27.779  24.263  1.00  0.00     0.255 C 
ATOM      5  O   UNL A   1      32.715  26.606  24.012  1.00  0.00    -0.272 OA
ATOM      6  H   UNL A   1      32.408  27.427  26.233  1.00  0.00     0.163 HD
BRANCH   4   7
ATOM      7  C   UNL A   1      32.089  28.767  23.113  1.00  0.00     0.266 C 
BRANCH   7   8
ATOM      8  C   UNL A   1      30.608  28.630  22.588  1.00  0.00     0.250 C 
BRANCH   8   9
ATOM      9  C   UNL A   1      29.786  29.923  22.591  1.00  0.00     0.013 A 
ATOM     10  C   UNL A   1      27.850  32.148  20.158  1.00  0.00     0.044 C 
ATOM     11  C   UNL A   1      28.402  31.574  21.428  1.00  0.00    -0.051 A 
ATOM     12  C   UNL A   1      27.993  32.090  22.662  1.00  0.00     0.003 A 
ATOM     13  C   UNL A   1      29.276  30.477  21.402  1.00  0.00     0.013 A 
ATOM     14  C   UNL A   1      28.522  31.583  23.846  1.00  0.00     0.001 A 
ATOM     15  C   UNL A   1      29.451  30.542  23.806  1.00  0.00     0.010 A 
ENDBRANCH   8   9
BRANCH   8  16
ATOM     16  N   UNL A   1      29.854  27.573  23.309  1.00  0.00    -0.349 N 
ATOM     17  H   UNL A   1      29.373  26.979  22.633  1.00  0.00     0.345 HD
ATOM     18  H   UNL A   1      29.170  28.005  23.930  1.00  0.00     0.345 HD
ATOM     19  H   UNL A   1      30.502  27.008  23.858  1.00  0.00     0.345 HD
ENDBRANCH   8  16
ENDBRANCH   7   8
BRANCH   7  20
ATOM     20  O   UNL A   1      33.092  28.701  22.093  1.00  0.00    -0.378 OA
ATOM     21  H   UNL A   1      32.961  29.428  21.464  1.00  0.00     0.211 HD
ENDBRANCH   7  20
ENDBRANCH   4   7
ENDBRANCH   2   3
ENDBRANCH   1   2
BRANCH   1  22
ATOM     22  C   UNL A   1      34.503  29.903  26.808  1.00  0.00     0.118 C 
BRANCH  22  23
ATOM     23  N   UNL A   1      35.230  31.065  27.315  1.00  0.00    -0.352 N 
ATOM     24  C   UNL A   1      36.449  31.076  27.984  1.00  0.00     0.251 C 
ATOM     25  H   UNL A   1      34.807  31.942  27.165  1.00  0.00     0.163 HD
ATOM     26  O   UNL A   1      36.892  32.063  28.529  1.00  0.00    -0.269 OA
BRANCH  24  27
ATOM     27  C   UNL A   1      37.238  29.827  27.907  1.00  0.00     0.039 A 
ATOM     28  C   UNL A   1      37.220  29.000  29.034  1.00  0.00     0.014 A 
ATOM     29  C   UNL A   1      38.240  29.729  26.949  1.00  0.00     0.014 A 
ATOM     30  C   UNL A   1      38.338  28.224  29.321  1.00  0.00     0.010 A 
ATOM     31  C   UNL A   1      39.396  29.064  27.302  1.00  0.00     0.010 A 
ATOM     32  C   UNL A   1      39.463  28.354  28.512  1.00  0.00    -0.014 A 
BRANCH  32  33
ATOM     33  C   UNL A   1      40.770  27.798  28.835  1.00  0.00     0.031 A 
ATOM     34  C   UNL A   1      41.012  26.364  28.537  1.00  0.00     0.074 A 
ATOM     35  C   UNL A   1      41.773  28.591  29.278  1.00  0.00     0.049 A 
ATOM     36  N   UNL A   1      42.004  25.668  28.975  1.00  0.00    -0.248 NA
ATOM     37  C   UNL A   1      40.076  25.572  27.738  1.00  0.00     0.031 C 
ATOM     38  C   UNL A   1      43.197  28.255  29.312  1.00  0.00     0.029 A 
ATOM     39  N   UNL A   1      41.707  29.793  29.991  1.00  0.00    -0.354 N 
ATOM     40  C   UNL A   1      42.014  24.475  28.285  1.00  0.00     0.074 A 
ATOM     41  C   UNL A   1      40.747  24.427  27.599  1.00  0.00     0.031 C 
ATOM     42  C   UNL A   1      43.798  29.017  30.240  1.00  0.00     0.029 A 
ATOM     43  C   UNL A   1      42.743  29.728  30.940  1.00  0.00     0.049 A 
ATOM     44  H   UNL A   1      41.068  30.531  29.857  1.00  0.00     0.167 HD
ATOM     45  C   UNL A   1      43.154  23.730  28.256  1.00  0.00     0.031 A 
ATOM     46  C   UNL A   1      42.544  29.675  32.294  1.00  0.00     0.031 A 
ATOM     47  C   UNL A   1      44.140  24.242  29.207  1.00  0.00     0.049 A 
ATOM     48  C   UNL A   1      43.155  28.443  32.937  1.00  0.00     0.074 A 
ATOM     49  C   UNL A   1      45.270  25.032  29.078  1.00  0.00     0.029 A 
ATOM     50  N   UNL A   1      43.833  24.213  30.564  1.00  0.00    -0.354 N 
ATOM     51  N   UNL A   1      43.509  27.374  32.276  1.00  0.00    -0.248 NA
ATOM     52  C   UNL A   1      43.395  28.304  34.373  1.00  0.00     0.031 C 
ATOM     53  C   UNL A   1      45.572  25.572  30.358  1.00  0.00     0.029 A 
ATOM     54  C   UNL A   1      44.653  25.074  31.266  1.00  0.00     0.049 A 
ATOM     55  H   UNL A   1      43.129  23.656  30.967  1.00  0.00     0.167 HD
ATOM     56  C   UNL A   1      44.026  26.440  33.136  1.00  0.00     0.074 A 
ATOM     57  C   UNL A   1      43.935  27.073  34.441  1.00  0.00     0.031 C 
ATOM     58  C   UNL A   1      44.484  25.227  32.707  1.00  0.00     0.031 A 
BRANCH  45  59
ATOM     59  C   UNL A   1      43.467  22.719  27.169  1.00  0.00    -0.014 A 
ATOM     60  C   UNL A   1      42.624  21.601  26.993  1.00  0.00     0.010 A 
ATOM     61  C   UNL A   1      44.613  22.754  26.351  1.00  0.00     0.010 A 
ATOM     62  C   UNL A   1      42.955  20.545  26.126  1.00  0.00     0.020 A 
ATOM     63  C   UNL A   1      44.973  21.695  25.503  1.00  0.00     0.020 A 
ATOM     64  C   UNL A   1      44.145  20.586  25.405  1.00  0.00     0.054 A 
BRANCH  64  65
ATOM     65  S   UNL A   1      44.606  19.188  24.349  1.00  0.00     0.124 S 
ATOM     66  O   UNL A   1      43.666  18.152  24.769  1.00  0.00    -0.237 OA
ATOM     67  O   UNL A   1      44.396  19.725  23.008  1.00  0.00    -0.237 OA
ATOM     68  O   UNL A   1      46.002  18.931  24.702  1.00  0.00    -0.744 OA
ENDBRANCH  64  65
ENDBRANCH  45  59
BRANCH  46  69
ATOM     69  C   UNL A   1      41.316  30.376  32.764  1.00  0.00    -0.014 A 
ATOM     70  C   UNL A   1      40.182  29.576  33.023  1.00  0.00     0.010 A 
ATOM     71  C   UNL A   1      41.401  31.648  33.355  1.00  0.00     0.010 A 
ATOM     72  C   UNL A   1      39.263  29.948  34.006  1.00  0.00     0.020 A 
ATOM     73  C   UNL A   1      40.468  32.030  34.333  1.00  0.00     0.020 A 
ATOM     74  C   UNL A   1      39.456  31.139  34.705  1.00  0.00     0.054 A 
BRANCH  74  75
ATOM     75  S   UNL A   1      38.522  31.373  36.249  1.00  0.00     0.124 S 
ATOM     76  O   UNL A   1      38.153  30.006  36.603  1.00  0.00    -0.237 OA
ATOM     77  O   UNL A   1      39.526  31.998  37.110  1.00  0.00    -0.237 OA
ATOM     78  O   UNL A   1      37.419  32.239  35.845  1.00  0.00    -0.744 OA
ENDBRANCH  74  75
ENDBRANCH  46  69
BRANCH  58  79
ATOM     79  C   UNL A   1      44.883  24.065  33.588  1.00  0.00    -0.014 A 
ATOM     80  C   UNL A   1      44.043  22.986  33.899  1.00  0.00     0.010 A 
ATOM     81  C   UNL A   1      46.230  23.970  34.019  1.00  0.00     0.010 A 
ATOM     82  C   UNL A   1      44.506  21.893  34.648  1.00  0.00     0.020 A 
ATOM     83  C   UNL A   1      46.715  22.866  34.724  1.00  0.00     0.020 A 
ATOM     84  C   UNL A   1      45.839  21.840  35.056  1.00  0.00     0.054 A 
BRANCH  84  85
ATOM     85  S   UNL A   1      46.451  20.389  35.950  1.00  0.00     0.124 S 
ATOM     86  O   UNL A   1      46.089  20.711  37.329  1.00  0.00    -0.237 OA
ATOM     87  O   UNL A   1      45.701  19.290  35.347  1.00  0.00    -0.237 OA
ATOM     88  O   UNL A   1      47.883  20.388  35.661  1.00  0.00    -0.744 OA
ENDBRANCH  84  85
ENDBRANCH  58  79
ENDBRANCH  32  33
ENDBRANCH  24  27
ENDBRANCH  22  23
ENDBRANCH   1  22
TORSDOF 17
ENDMDL
