MODEL 1
REMARK VINA RESULT:     -10.9      0.000      0.000
REMARK SMILES CC(C)COc1cccc(N2C[C@@H](C(=O)NCCCNC(=O)c3ccc(-c4c5nc(c(-c6ccc(S(=O)(=O)[O-])cc6)c6ccc([nH]6)c(-c6ccc(S(=O)(=O)[O-])cc6)c6nc(c(-c7ccc(S(=O)(=O)[O-])cc7)c7ccc4[nH]7)C=C6)C=C5)cc3)CC2=O)c1
REMARK SMILES IDX 17 1 16 2 14 3 15 4 13 6 11 7 12 8 84 9 83 10 85 11 10 12
REMARK SMILES IDX 6 13 7 14 86 15 8 16 9 17 5 18 4 19 2 20 1 21 3 22 18 23
REMARK SMILES IDX 19 24 20 25 21 26 22 28 23 29 24 30 82 31 25 32 81 33 26 34
REMARK SMILES IDX 27 35 28 36 75 37 29 38 80 39 74 40 76 41 30 42 79 43 73 44
REMARK SMILES IDX 72 45 31 47 61 48 42 49 60 50 43 51 46 52 59 53 77 54 44 55
REMARK SMILES IDX 45 56 58 58 78 59 47 60 32 61 33 62 41 63 34 64 40 65 35 66
REMARK SMILES IDX 36 67 37 68 38 69 39 70 62 71 63 72 71 73 64 74 70 75 65 76
REMARK SMILES IDX 66 77 67 78 68 79 69 80 48 81 49 82 57 83 50 84 56 85 51 86
REMARK SMILES IDX 52 87 53 88 54 89 55 90
REMARK H PARENT 16 5 20 27 76 46 46 57
REMARK Flexibility Score: inf
ROOT
ATOM      1  C   UNL A   1      39.843  21.436  25.705  1.00  0.00     0.117 C 
ENDROOT
BRANCH   1   2
ATOM      2  N   UNL A   1      38.590  20.710  25.563  1.00  0.00    -0.356 N 
ATOM      3  C   UNL A   1      37.349  21.095  25.173  1.00  0.00     0.225 C 
ATOM      4  O   UNL A   1      36.493  20.210  25.085  1.00  0.00    -0.275 OA
ATOM      5  H   UNL A   1      38.656  19.755  25.794  1.00  0.00     0.163 HD
BRANCH   3   6
ATOM      6  C   UNL A   1      36.979  22.521  24.821  1.00  0.00     0.107 C 
ATOM      7  N   UNL A   1      35.145  23.985  25.016  1.00  0.00    -0.311 N 
ATOM      8  C   UNL A   1      36.023  23.157  25.811  1.00  0.00     0.139 C 
ATOM      9  C   UNL A   1      35.285  23.739  23.649  1.00  0.00     0.227 C 
ATOM     10  C   UNL A   1      36.364  22.710  23.447  1.00  0.00     0.116 C 
ATOM     11  O   UNL A   1      34.669  24.238  22.721  1.00  0.00    -0.274 OA
BRANCH   7  12
ATOM     12  C   UNL A   1      34.098  24.733  25.609  1.00  0.00     0.047 A 
ATOM     13  C   UNL A   1      32.958  26.854  25.820  1.00  0.00     0.121 A 
ATOM     14  C   UNL A   1      31.850  26.240  26.390  1.00  0.00     0.046 A 
ATOM     15  C   UNL A   1      34.115  26.127  25.549  1.00  0.00     0.072 A 
ATOM     16  C   UNL A   1      31.864  24.859  26.575  1.00  0.00     0.006 A 
ATOM     17  C   UNL A   1      32.961  24.105  26.139  1.00  0.00     0.026 A 
BRANCH  13  18
ATOM     18  O   UNL A   1      32.918  28.178  25.484  1.00  0.00    -0.493 OA
BRANCH  18  19
ATOM     19  C   UNL A   1      34.069  28.896  25.992  1.00  0.00     0.232 C 
BRANCH  19  20
ATOM     20  C   UNL A   1      33.766  29.685  27.288  1.00  0.00     0.020 C 
ATOM     21  C   UNL A   1      34.985  30.465  27.802  1.00  0.00     0.011 C 
ATOM     22  C   UNL A   1      32.629  30.687  27.078  1.00  0.00     0.011 C 
ENDBRANCH  19  20
ENDBRANCH  18  19
ENDBRANCH  13  18
ENDBRANCH   7  12
ENDBRANCH   3   6
ENDBRANCH   1   2
BRANCH   1  23
ATOM     23  C   UNL A   1      39.902  22.277  26.979  1.00  0.00     0.042 C 
BRANCH  23  24
ATOM     24  C   UNL A   1      41.187  23.079  27.167  1.00  0.00     0.118 C 
BRANCH  24  25
ATOM     25  N   UNL A   1      41.428  24.031  26.093  1.00  0.00    -0.352 N 
ATOM     26  C   UNL A   1      41.393  25.406  26.096  1.00  0.00     0.251 C 
ATOM     27  H   UNL A   1      41.653  23.626  25.225  1.00  0.00     0.163 HD
ATOM     28  O   UNL A   1      41.459  26.005  25.026  1.00  0.00    -0.269 OA
BRANCH  26  29
ATOM     29  C   UNL A   1      41.256  26.166  27.360  1.00  0.00     0.039 A 
ATOM     30  C   UNL A   1      42.224  27.125  27.678  1.00  0.00     0.014 A 
ATOM     31  C   UNL A   1      40.205  25.926  28.248  1.00  0.00     0.014 A 
ATOM     32  C   UNL A   1      42.097  27.887  28.843  1.00  0.00     0.010 A 
ATOM     33  C   UNL A   1      40.034  26.742  29.366  1.00  0.00     0.010 A 
ATOM     34  C   UNL A   1      40.978  27.733  29.678  1.00  0.00    -0.014 A 
BRANCH  34  35
ATOM     35  C   UNL A   1      40.774  28.604  30.868  1.00  0.00     0.031 A 
ATOM     36  C   UNL A   1      39.691  29.652  30.872  1.00  0.00     0.074 A 
ATOM     37  C   UNL A   1      41.610  28.496  31.923  1.00  0.00     0.049 A 
ATOM     38  N   UNL A   1      39.408  30.538  31.792  1.00  0.00    -0.248 NA
ATOM     39  C   UNL A   1      38.828  29.730  29.682  1.00  0.00     0.031 C 
ATOM     40  C   UNL A   1      42.728  27.555  32.025  1.00  0.00     0.029 A 
ATOM     41  N   UNL A   1      41.658  29.192  33.105  1.00  0.00    -0.354 N 
ATOM     42  C   UNL A   1      38.356  31.293  31.283  1.00  0.00     0.074 A 
ATOM     43  C   UNL A   1      38.075  30.785  29.958  1.00  0.00     0.031 C 
ATOM     44  C   UNL A   1      43.336  27.718  33.211  1.00  0.00     0.029 A 
ATOM     45  C   UNL A   1      42.686  28.805  33.935  1.00  0.00     0.049 A 
ATOM     46  H   UNL A   1      41.017  29.902  33.339  1.00  0.00     0.167 HD
ATOM     47  C   UNL A   1      37.677  32.306  31.871  1.00  0.00     0.031 A 
ATOM     48  C   UNL A   1      43.076  29.280  35.135  1.00  0.00     0.031 A 
ATOM     49  C   UNL A   1      37.944  32.795  33.198  1.00  0.00     0.049 A 
ATOM     50  C   UNL A   1      42.302  30.409  35.764  1.00  0.00     0.074 A 
ATOM     51  C   UNL A   1      37.258  33.766  33.908  1.00  0.00     0.029 A 
ATOM     52  N   UNL A   1      38.978  32.361  34.013  1.00  0.00    -0.354 N 
ATOM     53  N   UNL A   1      41.254  31.047  35.300  1.00  0.00    -0.248 NA
ATOM     54  C   UNL A   1      42.754  30.871  37.083  1.00  0.00     0.031 C 
ATOM     55  C   UNL A   1      37.918  33.966  35.123  1.00  0.00     0.029 A 
ATOM     56  C   UNL A   1      38.969  33.068  35.202  1.00  0.00     0.049 A 
ATOM     57  H   UNL A   1      39.623  31.654  33.779  1.00  0.00     0.167 HD
ATOM     58  C   UNL A   1      40.906  31.965  36.285  1.00  0.00     0.074 A 
ATOM     59  C   UNL A   1      41.840  31.786  37.377  1.00  0.00     0.031 C 
ATOM     60  C   UNL A   1      39.901  32.877  36.285  1.00  0.00     0.031 A 
BRANCH  47  61
ATOM     61  C   UNL A   1      36.574  32.970  31.088  1.00  0.00    -0.014 A 
ATOM     62  C   UNL A   1      35.222  32.804  31.441  1.00  0.00     0.010 A 
ATOM     63  C   UNL A   1      36.901  33.847  30.036  1.00  0.00     0.010 A 
ATOM     64  C   UNL A   1      34.220  33.485  30.745  1.00  0.00     0.020 A 
ATOM     65  C   UNL A   1      35.904  34.553  29.357  1.00  0.00     0.020 A 
ATOM     66  C   UNL A   1      34.568  34.359  29.711  1.00  0.00     0.054 A 
BRANCH  66  67
ATOM     67  S   UNL A   1      33.248  35.276  28.868  1.00  0.00     0.124 S 
ATOM     68  O   UNL A   1      32.646  34.238  28.034  1.00  0.00    -0.237 OA
ATOM     69  O   UNL A   1      32.425  35.744  29.979  1.00  0.00    -0.237 OA
ATOM     70  O   UNL A   1      33.961  36.322  28.139  1.00  0.00    -0.744 OA
ENDBRANCH  66  67
ENDBRANCH  47  61
BRANCH  48  71
ATOM     71  C   UNL A   1      44.268  28.703  35.820  1.00  0.00    -0.014 A 
ATOM     72  C   UNL A   1      45.556  29.219  35.585  1.00  0.00     0.010 A 
ATOM     73  C   UNL A   1      44.121  27.617  36.702  1.00  0.00     0.010 A 
ATOM     74  C   UNL A   1      46.674  28.636  36.189  1.00  0.00     0.020 A 
ATOM     75  C   UNL A   1      45.232  27.054  37.335  1.00  0.00     0.020 A 
ATOM     76  C   UNL A   1      46.504  27.555  37.059  1.00  0.00     0.054 A 
BRANCH  76  77
ATOM     77  S   UNL A   1      47.968  26.827  37.846  1.00  0.00     0.124 S 
ATOM     78  O   UNL A   1      49.020  27.154  36.889  1.00  0.00    -0.237 OA
ATOM     79  O   UNL A   1      48.027  27.539  39.121  1.00  0.00    -0.237 OA
ATOM     80  O   UNL A   1      47.631  25.408  37.948  1.00  0.00    -0.744 OA
ENDBRANCH  76  77
ENDBRANCH  48  71
BRANCH  60  81
ATOM     81  C   UNL A   1      39.726  33.723  37.519  1.00  0.00    -0.014 A 
ATOM     82  C   UNL A   1      40.190  35.049  37.574  1.00  0.00     0.010 A 
ATOM     83  C   UNL A   1      39.032  33.196  38.625  1.00  0.00     0.010 A 
ATOM     84  C   UNL A   1      39.993  35.819  38.722  1.00  0.00     0.020 A 
ATOM     85  C   UNL A   1      38.803  33.974  39.761  1.00  0.00     0.020 A 
ATOM     86  C   UNL A   1      39.299  35.278  39.808  1.00  0.00     0.054 A 
BRANCH  86  87
ATOM     87  S   UNL A   1      39.018  36.315  41.269  1.00  0.00     0.124 S 
ATOM     88  O   UNL A   1      40.283  36.179  41.986  1.00  0.00    -0.237 OA
ATOM     89  O   UNL A   1      38.766  37.629  40.685  1.00  0.00    -0.237 OA
ATOM     90  O   UNL A   1      37.865  35.696  41.919  1.00  0.00    -0.744 OA
ENDBRANCH  86  87
ENDBRANCH  60  81
ENDBRANCH  34  35
ENDBRANCH  26  29
ENDBRANCH  24  25
ENDBRANCH  23  24
ENDBRANCH   1  23
TORSDOF 17
ENDMDL
MODEL 2
REMARK VINA RESULT:     -10.6      3.243      9.285
REMARK SMILES CC(C)COc1cccc(N2C[C@@H](C(=O)NCCCNC(=O)c3ccc(-c4c5nc(c(-c6ccc(S(=O)(=O)[O-])cc6)c6ccc([nH]6)c(-c6ccc(S(=O)(=O)[O-])cc6)c6nc(c(-c7ccc(S(=O)(=O)[O-])cc7)c7ccc4[nH]7)C=C6)C=C5)cc3)CC2=O)c1
REMARK SMILES IDX 17 1 16 2 14 3 15 4 13 6 11 7 12 8 84 9 83 10 85 11 10 12
REMARK SMILES IDX 6 13 7 14 86 15 8 16 9 17 5 18 4 19 2 20 1 21 3 22 18 23
REMARK SMILES IDX 19 24 20 25 21 26 22 28 23 29 24 30 82 31 25 32 81 33 26 34
REMARK SMILES IDX 27 35 28 36 75 37 29 38 80 39 74 40 76 41 30 42 79 43 73 44
REMARK SMILES IDX 72 45 31 47 61 48 42 49 60 50 43 51 46 52 59 53 77 54 44 55
REMARK SMILES IDX 45 56 58 58 78 59 47 60 32 61 33 62 41 63 34 64 40 65 35 66
REMARK SMILES IDX 36 67 37 68 38 69 39 70 62 71 63 72 71 73 64 74 70 75 65 76
REMARK SMILES IDX 66 77 67 78 68 79 69 80 48 81 49 82 57 83 50 84 56 85 51 86
REMARK SMILES IDX 52 87 53 88 54 89 55 90
REMARK H PARENT 16 5 20 27 76 46 46 57
REMARK Flexibility Score: inf
ROOT
ATOM      1  C   UNL A   1      31.981  29.360  25.025  1.00  0.00     0.117 C 
ENDROOT
BRANCH   1   2
ATOM      2  N   UNL A   1      33.066  29.336  24.057  1.00  0.00    -0.356 N 
ATOM      3  C   UNL A   1      33.551  28.359  23.250  1.00  0.00     0.225 C 
ATOM      4  O   UNL A   1      34.455  28.677  22.471  1.00  0.00    -0.275 OA
ATOM      5  H   UNL A   1      33.539  30.195  23.969  1.00  0.00     0.163 HD
BRANCH   3   6
ATOM      6  C   UNL A   1      33.031  26.936  23.240  1.00  0.00     0.107 C 
ATOM      7  N   UNL A   1      33.849  24.739  23.457  1.00  0.00    -0.311 N 
ATOM      8  C   UNL A   1      33.806  26.005  24.152  1.00  0.00     0.139 C 
ATOM      9  C   UNL A   1      33.420  24.851  22.133  1.00  0.00     0.227 C 
ATOM     10  C   UNL A   1      32.994  26.271  21.877  1.00  0.00     0.116 C 
ATOM     11  O   UNL A   1      33.373  23.985  21.275  1.00  0.00    -0.274 OA
BRANCH   7  12
ATOM     12  C   UNL A   1      34.514  23.616  24.009  1.00  0.00     0.047 A 
ATOM     13  C   UNL A   1      34.347  21.471  25.109  1.00  0.00     0.121 A 
ATOM     14  C   UNL A   1      35.661  21.162  24.781  1.00  0.00     0.046 A 
ATOM     15  C   UNL A   1      33.820  22.731  24.836  1.00  0.00     0.072 A 
ATOM     16  C   UNL A   1      36.412  22.089  24.062  1.00  0.00     0.006 A 
ATOM     17  C   UNL A   1      35.825  23.287  23.635  1.00  0.00     0.026 A 
BRANCH  13  18
ATOM     18  O   UNL A   1      33.536  20.527  25.676  1.00  0.00    -0.493 OA
BRANCH  18  19
ATOM     19  C   UNL A   1      32.908  19.689  24.675  1.00  0.00     0.232 C 
BRANCH  19  20
ATOM     20  C   UNL A   1      33.456  18.242  24.669  1.00  0.00     0.020 C 
ATOM     21  C   UNL A   1      32.687  17.316  25.624  1.00  0.00     0.011 C 
ATOM     22  C   UNL A   1      33.387  17.625  23.270  1.00  0.00     0.011 C 
ENDBRANCH  19  20
ENDBRANCH  18  19
ENDBRANCH  13  18
ENDBRANCH   7  12
ENDBRANCH   3   6
ENDBRANCH   1   2
BRANCH   1  23
ATOM     23  C   UNL A   1      32.373  28.760  26.373  1.00  0.00     0.042 C 
BRANCH  23  24
ATOM     24  C   UNL A   1      33.672  29.297  26.968  1.00  0.00     0.118 C 
BRANCH  24  25
ATOM     25  N   UNL A   1      33.599  30.707  27.321  1.00  0.00    -0.352 N 
ATOM     26  C   UNL A   1      34.407  31.466  28.134  1.00  0.00     0.251 C 
ATOM     27  H   UNL A   1      32.849  31.197  26.912  1.00  0.00     0.163 HD
ATOM     28  O   UNL A   1      34.053  32.604  28.430  1.00  0.00    -0.269 OA
BRANCH  26  29
ATOM     29  C   UNL A   1      35.678  30.926  28.672  1.00  0.00     0.039 A 
ATOM     30  C   UNL A   1      36.885  31.476  28.228  1.00  0.00     0.014 A 
ATOM     31  C   UNL A   1      35.694  29.866  29.581  1.00  0.00     0.014 A 
ATOM     32  C   UNL A   1      38.097  31.014  28.751  1.00  0.00     0.010 A 
ATOM     33  C   UNL A   1      36.897  29.463  30.162  1.00  0.00     0.010 A 
ATOM     34  C   UNL A   1      38.113  30.032  29.754  1.00  0.00    -0.014 A 
BRANCH  34  35
ATOM     35  C   UNL A   1      39.386  29.600  30.393  1.00  0.00     0.031 A 
ATOM     36  C   UNL A   1      39.939  30.348  31.579  1.00  0.00     0.074 A 
ATOM     37  C   UNL A   1      40.082  28.571  29.864  1.00  0.00     0.049 A 
ATOM     38  N   UNL A   1      41.061  30.154  32.223  1.00  0.00    -0.248 NA
ATOM     39  C   UNL A   1      39.142  31.474  32.093  1.00  0.00     0.031 C 
ATOM     40  C   UNL A   1      39.680  27.792  28.689  1.00  0.00     0.029 A 
ATOM     41  N   UNL A   1      41.278  28.009  30.236  1.00  0.00    -0.354 N 
ATOM     42  C   UNL A   1      41.116  31.144  33.199  1.00  0.00     0.074 A 
ATOM     43  C   UNL A   1      39.934  31.961  33.038  1.00  0.00     0.031 C 
ATOM     44  C   UNL A   1      40.601  26.845  28.451  1.00  0.00     0.029 A 
ATOM     45  C   UNL A   1      41.682  26.974  29.422  1.00  0.00     0.049 A 
ATOM     46  H   UNL A   1      41.800  28.317  31.012  1.00  0.00     0.167 HD
ATOM     47  C   UNL A   1      42.058  31.345  34.151  1.00  0.00     0.031 A 
ATOM     48  C   UNL A   1      42.802  26.225  29.441  1.00  0.00     0.031 A 
ATOM     49  C   UNL A   1      43.223  30.518  34.323  1.00  0.00     0.049 A 
ATOM     50  C   UNL A   1      43.832  26.472  30.511  1.00  0.00     0.074 A 
ATOM     51  C   UNL A   1      44.194  30.598  35.307  1.00  0.00     0.029 A 
ATOM     52  N   UNL A   1      43.583  29.468  33.493  1.00  0.00    -0.354 N 
ATOM     53  N   UNL A   1      43.819  27.359  31.477  1.00  0.00    -0.248 NA
ATOM     54  C   UNL A   1      45.022  25.610  30.500  1.00  0.00     0.031 C 
ATOM     55  C   UNL A   1      45.174  29.640  35.033  1.00  0.00     0.029 A 
ATOM     56  C   UNL A   1      44.777  28.915  33.922  1.00  0.00     0.049 A 
ATOM     57  H   UNL A   1      43.065  29.161  32.713  1.00  0.00     0.167 HD
ATOM     58  C   UNL A   1      44.983  27.139  32.206  1.00  0.00     0.074 A 
ATOM     59  C   UNL A   1      45.666  26.025  31.583  1.00  0.00     0.031 C 
ATOM     60  C   UNL A   1      45.445  27.802  33.296  1.00  0.00     0.031 A 
BRANCH  47  61
ATOM     61  C   UNL A   1      41.882  32.512  35.089  1.00  0.00    -0.014 A 
ATOM     62  C   UNL A   1      42.410  33.781  34.786  1.00  0.00     0.010 A 
ATOM     63  C   UNL A   1      41.099  32.358  36.249  1.00  0.00     0.010 A 
ATOM     64  C   UNL A   1      42.176  34.866  35.635  1.00  0.00     0.020 A 
ATOM     65  C   UNL A   1      40.838  33.447  37.084  1.00  0.00     0.020 A 
ATOM     66  C   UNL A   1      41.387  34.693  36.776  1.00  0.00     0.054 A 
BRANCH  66  67
ATOM     67  S   UNL A   1      41.050  36.135  37.824  1.00  0.00     0.124 S 
ATOM     68  O   UNL A   1      42.292  36.894  37.701  1.00  0.00    -0.237 OA
ATOM     69  O   UNL A   1      39.883  36.732  37.180  1.00  0.00    -0.237 OA
ATOM     70  O   UNL A   1      40.805  35.557  39.143  1.00  0.00    -0.744 OA
ENDBRANCH  66  67
ENDBRANCH  47  61
BRANCH  48  71
ATOM     71  C   UNL A   1      43.021  25.175  28.405  1.00  0.00    -0.014 A 
ATOM     72  C   UNL A   1      42.722  23.827  28.669  1.00  0.00     0.010 A 
ATOM     73  C   UNL A   1      43.549  25.521  27.147  1.00  0.00     0.010 A 
ATOM     74  C   UNL A   1      42.983  22.842  27.711  1.00  0.00     0.020 A 
ATOM     75  C   UNL A   1      43.778  24.544  26.174  1.00  0.00     0.020 A 
ATOM     76  C   UNL A   1      43.511  23.208  26.470  1.00  0.00     0.054 A 
BRANCH  76  77
ATOM     77  S   UNL A   1      43.823  21.915  25.236  1.00  0.00     0.124 S 
ATOM     78  O   UNL A   1      43.738  22.662  23.986  1.00  0.00    -0.237 OA
ATOM     79  O   UNL A   1      45.156  21.443  25.604  1.00  0.00    -0.237 OA
ATOM     80  O   UNL A   1      42.745  20.955  25.468  1.00  0.00    -0.744 OA
ENDBRANCH  76  77
ENDBRANCH  48  71
BRANCH  60  81
ATOM     81  C   UNL A   1      46.729  27.316  33.917  1.00  0.00    -0.014 A 
ATOM     82  C   UNL A   1      46.737  26.304  34.893  1.00  0.00     0.010 A 
ATOM     83  C   UNL A   1      47.955  27.845  33.471  1.00  0.00     0.010 A 
ATOM     84  C   UNL A   1      47.943  25.855  35.435  1.00  0.00     0.020 A 
ATOM     85  C   UNL A   1      49.165  27.374  33.985  1.00  0.00     0.020 A 
ATOM     86  C   UNL A   1      49.150  26.392  34.976  1.00  0.00     0.054 A 
BRANCH  86  87
ATOM     87  S   UNL A   1      50.705  25.758  35.664  1.00  0.00     0.124 S 
ATOM     88  O   UNL A   1      50.469  24.317  35.671  1.00  0.00    -0.237 OA
ATOM     89  O   UNL A   1      51.696  26.228  34.699  1.00  0.00    -0.237 OA
ATOM     90  O   UNL A   1      50.782  26.383  36.983  1.00  0.00    -0.744 OA
ENDBRANCH  86  87
ENDBRANCH  60  81
ENDBRANCH  34  35
ENDBRANCH  26  29
ENDBRANCH  24  25
ENDBRANCH  23  24
ENDBRANCH   1  23
TORSDOF 17
ENDMDL
MODEL 3
REMARK VINA RESULT:     -10.5      3.015      9.380
REMARK SMILES CC(C)COc1cccc(N2C[C@@H](C(=O)NCCCNC(=O)c3ccc(-c4c5nc(c(-c6ccc(S(=O)(=O)[O-])cc6)c6ccc([nH]6)c(-c6ccc(S(=O)(=O)[O-])cc6)c6nc(c(-c7ccc(S(=O)(=O)[O-])cc7)c7ccc4[nH]7)C=C6)C=C5)cc3)CC2=O)c1
REMARK SMILES IDX 17 1 16 2 14 3 15 4 13 6 11 7 12 8 84 9 83 10 85 11 10 12
REMARK SMILES IDX 6 13 7 14 86 15 8 16 9 17 5 18 4 19 2 20 1 21 3 22 18 23
REMARK SMILES IDX 19 24 20 25 21 26 22 28 23 29 24 30 82 31 25 32 81 33 26 34
REMARK SMILES IDX 27 35 28 36 75 37 29 38 80 39 74 40 76 41 30 42 79 43 73 44
REMARK SMILES IDX 72 45 31 47 61 48 42 49 60 50 43 51 46 52 59 53 77 54 44 55
REMARK SMILES IDX 45 56 58 58 78 59 47 60 32 61 33 62 41 63 34 64 40 65 35 66
REMARK SMILES IDX 36 67 37 68 38 69 39 70 62 71 63 72 71 73 64 74 70 75 65 76
REMARK SMILES IDX 66 77 67 78 68 79 69 80 48 81 49 82 57 83 50 84 56 85 51 86
REMARK SMILES IDX 52 87 53 88 54 89 55 90
REMARK H PARENT 16 5 20 27 76 46 46 57
REMARK Flexibility Score: inf
ROOT
ATOM      1  C   UNL A   1      32.857  29.103  24.815  1.00  0.00     0.117 C 
ENDROOT
BRANCH   1   2
ATOM      2  N   UNL A   1      33.571  29.014  23.551  1.00  0.00    -0.356 N 
ATOM      3  C   UNL A   1      33.739  28.001  22.664  1.00  0.00     0.225 C 
ATOM      4  O   UNL A   1      34.353  28.266  21.626  1.00  0.00    -0.275 OA
ATOM      5  H   UNL A   1      34.017  29.852  23.288  1.00  0.00     0.163 HD
BRANCH   3   6
ATOM      6  C   UNL A   1      33.199  26.601  22.869  1.00  0.00     0.107 C 
ATOM      7  N   UNL A   1      34.000  24.424  23.266  1.00  0.00    -0.311 N 
ATOM      8  C   UNL A   1      34.041  25.762  23.809  1.00  0.00     0.139 C 
ATOM      9  C   UNL A   1      33.451  24.392  21.983  1.00  0.00     0.227 C 
ATOM     10  C   UNL A   1      33.024  25.784  21.602  1.00  0.00     0.116 C 
ATOM     11  O   UNL A   1      33.310  23.434  21.241  1.00  0.00    -0.274 OA
BRANCH   7  12
ATOM     12  C   UNL A   1      34.697  23.355  23.884  1.00  0.00     0.047 A 
ATOM     13  C   UNL A   1      34.606  21.164  24.901  1.00  0.00     0.121 A 
ATOM     14  C   UNL A   1      35.979  21.005  24.758  1.00  0.00     0.046 A 
ATOM     15  C   UNL A   1      33.992  22.373  24.582  1.00  0.00     0.072 A 
ATOM     16  C   UNL A   1      36.721  22.030  24.176  1.00  0.00     0.006 A 
ATOM     17  C   UNL A   1      36.075  23.176  23.695  1.00  0.00     0.026 A 
BRANCH  13  18
ATOM     18  O   UNL A   1      33.829  20.122  25.324  1.00  0.00    -0.493 OA
BRANCH  18  19
ATOM     19  C   UNL A   1      32.755  19.842  24.394  1.00  0.00     0.232 C 
BRANCH  19  20
ATOM     20  C   UNL A   1      32.745  18.374  23.905  1.00  0.00     0.020 C 
ATOM     21  C   UNL A   1      32.377  18.250  22.419  1.00  0.00     0.011 C 
ATOM     22  C   UNL A   1      34.111  17.712  24.101  1.00  0.00     0.011 C 
ENDBRANCH  19  20
ENDBRANCH  18  19
ENDBRANCH  13  18
ENDBRANCH   7  12
ENDBRANCH   3   6
ENDBRANCH   1   2
BRANCH   1  23
ATOM     23  C   UNL A   1      33.472  28.231  25.908  1.00  0.00     0.042 C 
BRANCH  23  24
ATOM     24  C   UNL A   1      33.481  28.852  27.303  1.00  0.00     0.118 C 
BRANCH  24  25
ATOM     25  N   UNL A   1      33.419  30.305  27.282  1.00  0.00    -0.352 N 
ATOM     26  C   UNL A   1      34.267  31.242  27.824  1.00  0.00     0.251 C 
ATOM     27  H   UNL A   1      32.645  30.679  26.802  1.00  0.00     0.163 HD
ATOM     28  O   UNL A   1      33.922  32.422  27.834  1.00  0.00    -0.269 OA
BRANCH  26  29
ATOM     29  C   UNL A   1      35.568  30.849  28.412  1.00  0.00     0.039 A 
ATOM     30  C   UNL A   1      36.687  31.653  28.171  1.00  0.00     0.014 A 
ATOM     31  C   UNL A   1      35.705  29.684  29.171  1.00  0.00     0.014 A 
ATOM     32  C   UNL A   1      37.918  31.329  28.749  1.00  0.00     0.010 A 
ATOM     33  C   UNL A   1      36.912  29.407  29.813  1.00  0.00     0.010 A 
ATOM     34  C   UNL A   1      38.034  30.225  29.610  1.00  0.00    -0.014 A 
BRANCH  34  35
ATOM     35  C   UNL A   1      39.311  29.923  30.313  1.00  0.00     0.031 A 
ATOM     36  C   UNL A   1      40.208  28.815  29.825  1.00  0.00     0.074 A 
ATOM     37  C   UNL A   1      39.631  30.604  31.434  1.00  0.00     0.049 A 
ATOM     38  N   UNL A   1      41.323  28.371  30.345  1.00  0.00    -0.248 NA
ATOM     39  C   UNL A   1      39.789  28.098  28.609  1.00  0.00     0.031 C 
ATOM     40  C   UNL A   1      38.825  31.668  32.039  1.00  0.00     0.029 A 
ATOM     41  N   UNL A   1      40.713  30.495  32.273  1.00  0.00    -0.354 N 
ATOM     42  C   UNL A   1      41.725  27.311  29.539  1.00  0.00     0.074 A 
ATOM     43  C   UNL A   1      40.715  27.153  28.516  1.00  0.00     0.031 C 
ATOM     44  C   UNL A   1      39.450  32.126  33.135  1.00  0.00     0.029 A 
ATOM     45  C   UNL A   1      40.674  31.361  33.343  1.00  0.00     0.049 A 
ATOM     46  H   UNL A   1      41.449  29.858  32.124  1.00  0.00     0.167 HD
ATOM     47  C   UNL A   1      42.840  26.548  29.633  1.00  0.00     0.031 A 
ATOM     48  C   UNL A   1      41.516  31.512  34.385  1.00  0.00     0.031 A 
ATOM     49  C   UNL A   1      43.855  26.721  30.639  1.00  0.00     0.049 A 
ATOM     50  C   UNL A   1      42.748  30.648  34.463  1.00  0.00     0.074 A 
ATOM     51  C   UNL A   1      45.056  26.047  30.769  1.00  0.00     0.029 A 
ATOM     52  N   UNL A   1      43.788  27.623  31.690  1.00  0.00    -0.354 N 
ATOM     53  N   UNL A   1      43.150  29.711  33.638  1.00  0.00    -0.248 NA
ATOM     54  C   UNL A   1      43.645  30.872  35.605  1.00  0.00     0.031 C 
ATOM     55  C   UNL A   1      45.685  26.493  31.935  1.00  0.00     0.029 A 
ATOM     56  C   UNL A   1      44.910  27.498  32.490  1.00  0.00     0.049 A 
ATOM     57  H   UNL A   1      43.051  28.257  31.843  1.00  0.00     0.167 HD
ATOM     58  C   UNL A   1      44.362  29.257  34.147  1.00  0.00     0.074 A 
ATOM     59  C   UNL A   1      44.637  30.033  35.338  1.00  0.00     0.031 C 
ATOM     60  C   UNL A   1      45.176  28.281  33.670  1.00  0.00     0.031 A 
BRANCH  47  61
ATOM     61  C   UNL A   1      43.032  25.443  28.626  1.00  0.00    -0.014 A 
ATOM     62  C   UNL A   1      42.595  24.131  28.887  1.00  0.00     0.010 A 
ATOM     63  C   UNL A   1      43.577  25.743  27.363  1.00  0.00     0.010 A 
ATOM     64  C   UNL A   1      42.719  23.138  27.912  1.00  0.00     0.020 A 
ATOM     65  C   UNL A   1      43.675  24.759  26.376  1.00  0.00     0.020 A 
ATOM     66  C   UNL A   1      43.254  23.459  26.661  1.00  0.00     0.054 A 
BRANCH  66  67
ATOM     67  S   UNL A   1      43.344  22.161  25.396  1.00  0.00     0.124 S 
ATOM     68  O   UNL A   1      43.295  22.941  24.162  1.00  0.00    -0.237 OA
ATOM     69  O   UNL A   1      44.625  21.523  25.685  1.00  0.00    -0.237 OA
ATOM     70  O   UNL A   1      42.166  21.338  25.658  1.00  0.00    -0.744 OA
ENDBRANCH  66  67
ENDBRANCH  47  61
BRANCH  48  71
ATOM     71  C   UNL A   1      41.221  32.511  35.450  1.00  0.00    -0.014 A 
ATOM     72  C   UNL A   1      40.367  32.193  36.522  1.00  0.00     0.010 A 
ATOM     73  C   UNL A   1      41.783  33.800  35.388  1.00  0.00     0.010 A 
ATOM     74  C   UNL A   1      40.051  33.155  37.487  1.00  0.00     0.020 A 
ATOM     75  C   UNL A   1      41.498  34.753  36.370  1.00  0.00     0.020 A 
ATOM     76  C   UNL A   1      40.619  34.430  37.403  1.00  0.00     0.054 A 
BRANCH  76  77
ATOM     77  S   UNL A   1      40.210  35.654  38.677  1.00  0.00     0.124 S 
ATOM     78  O   UNL A   1      41.496  35.842  39.340  1.00  0.00    -0.237 OA
ATOM     79  O   UNL A   1      39.733  36.786  37.885  1.00  0.00    -0.237 OA
ATOM     80  O   UNL A   1      39.184  34.987  39.476  1.00  0.00    -0.744 OA
ENDBRANCH  76  77
ENDBRANCH  48  71
BRANCH  60  81
ATOM     81  C   UNL A   1      46.465  28.024  34.407  1.00  0.00    -0.014 A 
ATOM     82  C   UNL A   1      46.541  27.080  35.446  1.00  0.00     0.010 A 
ATOM     83  C   UNL A   1      47.633  28.703  34.013  1.00  0.00     0.010 A 
ATOM     84  C   UNL A   1      47.755  26.843  36.097  1.00  0.00     0.020 A 
ATOM     85  C   UNL A   1      48.854  28.445  34.638  1.00  0.00     0.020 A 
ATOM     86  C   UNL A   1      48.904  27.526  35.687  1.00  0.00     0.054 A 
BRANCH  86  87
ATOM     87  S   UNL A   1      50.475  27.168  36.520  1.00  0.00     0.124 S 
ATOM     88  O   UNL A   1      50.831  25.870  35.951  1.00  0.00    -0.237 OA
ATOM     89  O   UNL A   1      51.318  28.286  36.107  1.00  0.00    -0.237 OA
ATOM     90  O   UNL A   1      50.122  27.150  37.938  1.00  0.00    -0.744 OA
ENDBRANCH  86  87
ENDBRANCH  60  81
ENDBRANCH  34  35
ENDBRANCH  26  29
ENDBRANCH  24  25
ENDBRANCH  23  24
ENDBRANCH   1  23
TORSDOF 17
ENDMDL
