MODEL 1
REMARK VINA RESULT:     -11.4      0.000      0.000
REMARK SMILES Cc1ccsc1CNC(=O)N[C@@H]1CCCC[C@H]1C(=O)NCCCNC(=O)c1ccc(-c2c3nc(c(-c4ccc(S(=O)(=O)[O-])cc4)c4ccc([nH]4)c(-c4ccc(S(=O)(=O)[O-])cc4)c4nc(c(-c5ccc(S(=O)(=O)[O-])cc5)c5ccc2[nH]5)C=C4)C=C3)cc1
REMARK SMILES IDX 22 1 21 2 20 3 18 4 19 5 17 7 12 8 13 9 14 10 16 11 15 12
REMARK SMILES IDX 11 13 8 14 9 15 10 17 7 19 6 20 1 21 2 22 3 23 4 24 5 25
REMARK SMILES IDX 23 26 24 27 25 28 26 30 27 31 28 32 86 33 29 34 85 35 30 36
REMARK SMILES IDX 31 37 32 38 79 39 33 40 84 41 78 42 80 43 34 44 83 45 77 46
REMARK SMILES IDX 76 47 35 49 65 50 46 51 64 52 47 53 50 54 63 55 81 56 48 57
REMARK SMILES IDX 49 58 62 60 82 61 51 62 36 63 37 64 45 65 38 66 44 67 39 68
REMARK SMILES IDX 40 69 41 70 42 71 43 72 66 73 67 74 75 75 68 76 74 77 69 78
REMARK SMILES IDX 70 79 71 80 72 81 73 82 52 83 53 84 61 85 54 86 60 87 55 88
REMARK SMILES IDX 56 89 57 90 58 91 59 92
REMARK H PARENT 20 6 8 16 11 18 24 29 80 48 50 59
REMARK Flexibility Score: inf
ROOT
ATOM      1  C   UNL A   1      33.741  27.986  25.840  1.00  0.00     0.042 C 
ENDROOT
BRANCH   1   2
ATOM      2  C   UNL A   1      33.005  26.716  25.447  1.00  0.00     0.117 C 
BRANCH   2   3
ATOM      3  N   UNL A   1      33.604  26.104  24.278  1.00  0.00    -0.356 N 
ATOM      4  C   UNL A   1      33.761  24.803  23.934  1.00  0.00     0.225 C 
ATOM      5  O   UNL A   1      34.444  24.569  22.934  1.00  0.00    -0.275 OA
ATOM      6  H   UNL A   1      33.958  26.744  23.618  1.00  0.00     0.163 HD
BRANCH   4   7
ATOM      7  C   UNL A   1      33.087  23.683  24.716  1.00  0.00     0.101 C 
ATOM      8  C   UNL A   1      33.648  23.519  26.140  1.00  0.00     0.096 C 
ATOM      9  C   UNL A   1      32.719  22.900  27.192  1.00  0.00     0.026 C 
ATOM     10  C   UNL A   1      31.257  23.277  27.002  1.00  0.00     0.002 C 
ATOM     11  C   UNL A   1      31.561  23.751  24.554  1.00  0.00     0.015 C 
ATOM     12  C   UNL A   1      30.788  22.957  25.594  1.00  0.00     0.001 C 
BRANCH   8  13
ATOM     13  N   UNL A   1      34.979  22.888  26.192  1.00  0.00    -0.335 N 
ATOM     14  N   UNL A   1      34.901  20.607  25.517  1.00  0.00    -0.333 N 
ATOM     15  C   UNL A   1      35.540  21.717  25.880  1.00  0.00     0.315 C 
ATOM     16  H   UNL A   1      35.499  19.963  25.071  1.00  0.00     0.165 HD
ATOM     17  O   UNL A   1      36.773  21.662  25.927  1.00  0.00    -0.249 OA
ATOM     18  H   UNL A   1      35.646  23.508  26.563  1.00  0.00     0.165 HD
BRANCH  14  19
ATOM     19  C   UNL A   1      33.549  20.114  25.616  1.00  0.00     0.164 C 
BRANCH  19  20
ATOM     20  C   UNL A   1      33.218  19.002  24.646  1.00  0.00     0.027 A 
ATOM     21  C   UNL A   1      32.102  20.411  22.810  1.00  0.00     0.045 C 
ATOM     22  C   UNL A   1      32.653  19.144  23.381  1.00  0.00    -0.035 A 
ATOM     23  C   UNL A   1      32.700  17.913  22.648  1.00  0.00     0.015 A 
ATOM     24  C   UNL A   1      33.226  16.878  23.383  1.00  0.00     0.065 A 
ATOM     25  S   UNL A   1      33.559  17.351  24.985  1.00  0.00    -0.147 S 
ENDBRANCH  19  20
ENDBRANCH  14  19
ENDBRANCH   8  13
ENDBRANCH   4   7
ENDBRANCH   2   3
ENDBRANCH   1   2
BRANCH   1  26
ATOM     26  C   UNL A   1      33.551  28.360  27.301  1.00  0.00     0.118 C 
BRANCH  26  27
ATOM     27  N   UNL A   1      33.516  29.803  27.501  1.00  0.00    -0.352 N 
ATOM     28  C   UNL A   1      34.450  30.624  28.084  1.00  0.00     0.251 C 
ATOM     29  H   UNL A   1      32.706  30.254  27.171  1.00  0.00     0.163 HD
ATOM     30  O   UNL A   1      34.150  31.768  28.403  1.00  0.00    -0.269 OA
BRANCH  28  31
ATOM     31  C   UNL A   1      35.808  30.101  28.335  1.00  0.00     0.039 A 
ATOM     32  C   UNL A   1      36.750  30.121  27.307  1.00  0.00     0.014 A 
ATOM     33  C   UNL A   1      36.149  29.615  29.600  1.00  0.00     0.014 A 
ATOM     34  C   UNL A   1      38.058  29.712  27.570  1.00  0.00     0.010 A 
ATOM     35  C   UNL A   1      37.472  29.316  29.887  1.00  0.00     0.010 A 
ATOM     36  C   UNL A   1      38.438  29.344  28.872  1.00  0.00    -0.014 A 
BRANCH  36  37
ATOM     37  C   UNL A   1      39.835  28.965  29.193  1.00  0.00     0.031 A 
ATOM     38  C   UNL A   1      40.749  29.965  29.849  1.00  0.00     0.074 A 
ATOM     39  C   UNL A   1      40.296  27.750  28.837  1.00  0.00     0.049 A 
ATOM     40  N   UNL A   1      42.014  29.844  30.160  1.00  0.00    -0.248 NA
ATOM     41  C   UNL A   1      40.177  31.283  30.172  1.00  0.00     0.031 C 
ATOM     42  C   UNL A   1      39.517  26.713  28.153  1.00  0.00     0.029 A 
ATOM     43  N   UNL A   1      41.533  27.180  28.998  1.00  0.00    -0.354 N 
ATOM     44  C   UNL A   1      42.389  31.070  30.696  1.00  0.00     0.074 A 
ATOM     45  C   UNL A   1      41.239  31.942  30.610  1.00  0.00     0.031 C 
ATOM     46  C   UNL A   1      40.283  25.623  27.989  1.00  0.00     0.029 A 
ATOM     47  C   UNL A   1      41.618  25.897  28.510  1.00  0.00     0.049 A 
ATOM     48  H   UNL A   1      42.289  27.645  29.425  1.00  0.00     0.167 HD
ATOM     49  C   UNL A   1      43.576  31.433  31.236  1.00  0.00     0.031 A 
ATOM     50  C   UNL A   1      42.657  25.040  28.480  1.00  0.00     0.031 A 
ATOM     51  C   UNL A   1      44.714  30.557  31.327  1.00  0.00     0.049 A 
ATOM     52  C   UNL A   1      43.972  25.471  29.069  1.00  0.00     0.074 A 
ATOM     53  C   UNL A   1      45.945  30.804  31.904  1.00  0.00     0.029 A 
ATOM     54  N   UNL A   1      44.759  29.265  30.822  1.00  0.00    -0.354 N 
ATOM     55  N   UNL A   1      44.286  26.611  29.638  1.00  0.00    -0.248 NA
ATOM     56  C   UNL A   1      45.070  24.496  29.023  1.00  0.00     0.031 C 
ATOM     57  C   UNL A   1      46.757  29.685  31.695  1.00  0.00     0.029 A 
ATOM     58  C   UNL A   1      46.007  28.713  31.050  1.00  0.00     0.049 A 
ATOM     59  H   UNL A   1      44.013  28.808  30.370  1.00  0.00     0.167 HD
ATOM     60  C   UNL A   1      45.610  26.479  30.043  1.00  0.00     0.074 A 
ATOM     61  C   UNL A   1      46.029  25.143  29.670  1.00  0.00     0.031 C 
ATOM     62  C   UNL A   1      46.408  27.382  30.668  1.00  0.00     0.031 A 
BRANCH  49  63
ATOM     63  C   UNL A   1      43.703  32.838  31.765  1.00  0.00    -0.014 A 
ATOM     64  C   UNL A   1      43.522  33.120  33.132  1.00  0.00     0.010 A 
ATOM     65  C   UNL A   1      44.041  33.887  30.891  1.00  0.00     0.010 A 
ATOM     66  C   UNL A   1      43.633  34.431  33.606  1.00  0.00     0.020 A 
ATOM     67  C   UNL A   1      44.186  35.194  31.367  1.00  0.00     0.020 A 
ATOM     68  C   UNL A   1      43.964  35.459  32.719  1.00  0.00     0.054 A 
BRANCH  68  69
ATOM     69  S   UNL A   1      44.128  37.144  33.369  1.00  0.00     0.124 S 
ATOM     70  O   UNL A   1      44.438  37.904  32.160  1.00  0.00    -0.237 OA
ATOM     71  O   UNL A   1      42.808  37.393  33.945  1.00  0.00    -0.237 OA
ATOM     72  O   UNL A   1      45.217  37.040  34.336  1.00  0.00    -0.744 OA
ENDBRANCH  68  69
ENDBRANCH  49  63
BRANCH  50  73
ATOM     73  C   UNL A   1      42.488  23.686  27.884  1.00  0.00    -0.014 A 
ATOM     74  C   UNL A   1      42.753  23.467  26.520  1.00  0.00     0.010 A 
ATOM     75  C   UNL A   1      42.074  22.603  28.681  1.00  0.00     0.010 A 
ATOM     76  C   UNL A   1      42.589  22.196  25.961  1.00  0.00     0.020 A 
ATOM     77  C   UNL A   1      41.938  21.324  28.132  1.00  0.00     0.020 A 
ATOM     78  C   UNL A   1      42.185  21.132  26.772  1.00  0.00     0.054 A 
BRANCH  78  79
ATOM     79  S   UNL A   1      42.029  19.480  26.034  1.00  0.00     0.124 S 
ATOM     80  O   UNL A   1      42.871  19.597  24.848  1.00  0.00    -0.237 OA
ATOM     81  O   UNL A   1      42.541  18.614  27.093  1.00  0.00    -0.237 OA
ATOM     82  O   UNL A   1      40.596  19.356  25.777  1.00  0.00    -0.744 OA
ENDBRANCH  78  79
ENDBRANCH  50  73
BRANCH  62  83
ATOM     83  C   UNL A   1      47.805  26.945  31.021  1.00  0.00    -0.014 A 
ATOM     84  C   UNL A   1      48.078  26.271  32.225  1.00  0.00     0.010 A 
ATOM     85  C   UNL A   1      48.850  27.164  30.105  1.00  0.00     0.010 A 
ATOM     86  C   UNL A   1      49.379  25.853  32.519  1.00  0.00     0.020 A 
ATOM     87  C   UNL A   1      50.144  26.718  30.382  1.00  0.00     0.020 A 
ATOM     88  C   UNL A   1      50.403  26.079  31.594  1.00  0.00     0.054 A 
BRANCH  88  89
ATOM     89  S   UNL A   1      52.072  25.486  31.982  1.00  0.00     0.124 S 
ATOM     90  O   UNL A   1      52.808  25.836  30.770  1.00  0.00    -0.237 OA
ATOM     91  O   UNL A   1      52.418  26.260  33.171  1.00  0.00    -0.237 OA
ATOM     92  O   UNL A   1      51.889  24.054  32.208  1.00  0.00    -0.744 OA
ENDBRANCH  88  89
ENDBRANCH  62  83
ENDBRANCH  36  37
ENDBRANCH  28  31
ENDBRANCH  26  27
ENDBRANCH   1  26
TORSDOF 16
ENDMDL
MODEL 2
REMARK VINA RESULT:     -11.2      1.664      3.091
REMARK SMILES Cc1ccsc1CNC(=O)N[C@@H]1CCCC[C@H]1C(=O)NCCCNC(=O)c1ccc(-c2c3nc(c(-c4ccc(S(=O)(=O)[O-])cc4)c4ccc([nH]4)c(-c4ccc(S(=O)(=O)[O-])cc4)c4nc(c(-c5ccc(S(=O)(=O)[O-])cc5)c5ccc2[nH]5)C=C4)C=C3)cc1
REMARK SMILES IDX 22 1 21 2 20 3 18 4 19 5 17 7 12 8 13 9 14 10 16 11 15 12
REMARK SMILES IDX 11 13 8 14 9 15 10 17 7 19 6 20 1 21 2 22 3 23 4 24 5 25
REMARK SMILES IDX 23 26 24 27 25 28 26 30 27 31 28 32 86 33 29 34 85 35 30 36
REMARK SMILES IDX 31 37 32 38 79 39 33 40 84 41 78 42 80 43 34 44 83 45 77 46
REMARK SMILES IDX 76 47 35 49 65 50 46 51 64 52 47 53 50 54 63 55 81 56 48 57
REMARK SMILES IDX 49 58 62 60 82 61 51 62 36 63 37 64 45 65 38 66 44 67 39 68
REMARK SMILES IDX 40 69 41 70 42 71 43 72 66 73 67 74 75 75 68 76 74 77 69 78
REMARK SMILES IDX 70 79 71 80 72 81 73 82 52 83 53 84 61 85 54 86 60 87 55 88
REMARK SMILES IDX 56 89 57 90 58 91 59 92
REMARK H PARENT 20 6 8 16 11 18 24 29 80 48 50 59
REMARK Flexibility Score: inf
ROOT
ATOM      1  C   UNL A   1      33.608  27.795  26.068  1.00  0.00     0.042 C 
ENDROOT
BRANCH   1   2
ATOM      2  C   UNL A   1      33.998  26.330  25.983  1.00  0.00     0.117 C 
BRANCH   2   3
ATOM      3  N   UNL A   1      33.987  25.863  24.611  1.00  0.00    -0.356 N 
ATOM      4  C   UNL A   1      34.372  24.684  24.066  1.00  0.00     0.225 C 
ATOM      5  O   UNL A   1      34.383  24.615  22.835  1.00  0.00    -0.275 OA
ATOM      6  H   UNL A   1      33.640  26.517  23.961  1.00  0.00     0.163 HD
BRANCH   4   7
ATOM      7  C   UNL A   1      34.726  23.482  24.932  1.00  0.00     0.101 C 
ATOM      8  C   UNL A   1      33.529  22.549  25.189  1.00  0.00     0.096 C 
ATOM      9  C   UNL A   1      33.839  21.079  25.495  1.00  0.00     0.026 C 
ATOM     10  C   UNL A   1      35.052  20.550  24.743  1.00  0.00     0.002 C 
ATOM     11  C   UNL A   1      36.040  22.842  24.460  1.00  0.00     0.015 C 
ATOM     12  C   UNL A   1      36.267  21.431  24.976  1.00  0.00     0.001 C 
BRANCH   8  13
ATOM     13  N   UNL A   1      32.551  23.082  26.155  1.00  0.00    -0.335 N 
ATOM     14  N   UNL A   1      30.634  23.981  25.067  1.00  0.00    -0.333 N 
ATOM     15  C   UNL A   1      31.326  23.614  26.144  1.00  0.00     0.315 C 
ATOM     16  H   UNL A   1      29.674  24.082  25.259  1.00  0.00     0.165 HD
ATOM     17  O   UNL A   1      30.781  23.776  27.240  1.00  0.00    -0.249 OA
ATOM     18  H   UNL A   1      32.902  23.030  27.073  1.00  0.00     0.165 HD
BRANCH  14  19
ATOM     19  C   UNL A   1      30.946  24.268  23.688  1.00  0.00     0.164 C 
BRANCH  19  20
ATOM     20  C   UNL A   1      30.882  25.735  23.327  1.00  0.00     0.027 A 
ATOM     21  C   UNL A   1      32.062  25.623  21.047  1.00  0.00     0.045 C 
ATOM     22  C   UNL A   1      31.303  26.316  22.133  1.00  0.00    -0.035 A 
ATOM     23  C   UNL A   1      30.877  27.682  22.039  1.00  0.00     0.015 A 
ATOM     24  C   UNL A   1      30.218  28.110  23.166  1.00  0.00     0.065 A 
ATOM     25  S   UNL A   1      30.207  26.915  24.380  1.00  0.00    -0.147 S 
ENDBRANCH  19  20
ENDBRANCH  14  19
ENDBRANCH   8  13
ENDBRANCH   4   7
ENDBRANCH   2   3
ENDBRANCH   1   2
BRANCH   1  26
ATOM     26  C   UNL A   1      33.423  28.284  27.496  1.00  0.00     0.118 C 
BRANCH  26  27
ATOM     27  N   UNL A   1      33.398  29.738  27.582  1.00  0.00    -0.352 N 
ATOM     28  C   UNL A   1      34.354  30.599  28.063  1.00  0.00     0.251 C 
ATOM     29  H   UNL A   1      32.576  30.165  27.249  1.00  0.00     0.163 HD
ATOM     30  O   UNL A   1      34.069  31.765  28.302  1.00  0.00    -0.269 OA
BRANCH  28  31
ATOM     31  C   UNL A   1      35.720  30.091  28.304  1.00  0.00     0.039 A 
ATOM     32  C   UNL A   1      36.641  30.080  27.256  1.00  0.00     0.014 A 
ATOM     33  C   UNL A   1      36.089  29.650  29.577  1.00  0.00     0.014 A 
ATOM     34  C   UNL A   1      37.956  29.686  27.505  1.00  0.00     0.010 A 
ATOM     35  C   UNL A   1      37.420  29.367  29.847  1.00  0.00     0.010 A 
ATOM     36  C   UNL A   1      38.365  29.365  28.811  1.00  0.00    -0.014 A 
BRANCH  36  37
ATOM     37  C   UNL A   1      39.770  29.004  29.116  1.00  0.00     0.031 A 
ATOM     38  C   UNL A   1      40.685  30.022  29.742  1.00  0.00     0.074 A 
ATOM     39  C   UNL A   1      40.237  27.788  28.771  1.00  0.00     0.049 A 
ATOM     40  N   UNL A   1      41.955  29.918  30.035  1.00  0.00    -0.248 NA
ATOM     41  C   UNL A   1      40.105  31.340  30.055  1.00  0.00     0.031 C 
ATOM     42  C   UNL A   1      39.458  26.734  28.114  1.00  0.00     0.029 A 
ATOM     43  N   UNL A   1      41.481  27.232  28.920  1.00  0.00    -0.354 N 
ATOM     44  C   UNL A   1      42.327  31.155  30.547  1.00  0.00     0.074 A 
ATOM     45  C   UNL A   1      41.167  32.014  30.467  1.00  0.00     0.031 C 
ATOM     46  C   UNL A   1      40.231  25.649  27.955  1.00  0.00     0.029 A 
ATOM     47  C   UNL A   1      41.571  25.943  28.451  1.00  0.00     0.049 A 
ATOM     48  H   UNL A   1      42.239  27.710  29.328  1.00  0.00     0.167 HD
ATOM     49  C   UNL A   1      43.519  31.537  31.062  1.00  0.00     0.031 A 
ATOM     50  C   UNL A   1      42.618  25.096  28.416  1.00  0.00     0.031 A 
ATOM     51  C   UNL A   1      44.666  30.673  31.148  1.00  0.00     0.049 A 
ATOM     52  C   UNL A   1      43.938  25.547  28.978  1.00  0.00     0.074 A 
ATOM     53  C   UNL A   1      45.904  30.940  31.703  1.00  0.00     0.029 A 
ATOM     54  N   UNL A   1      44.716  29.374  30.663  1.00  0.00    -0.354 N 
ATOM     55  N   UNL A   1      44.250  26.698  29.525  1.00  0.00    -0.248 NA
ATOM     56  C   UNL A   1      45.044  24.582  28.929  1.00  0.00     0.031 C 
ATOM     57  C   UNL A   1      46.723  29.826  31.497  1.00  0.00     0.029 A 
ATOM     58  C   UNL A   1      45.973  28.838  30.879  1.00  0.00     0.049 A 
ATOM     59  H   UNL A   1      43.967  28.904  30.229  1.00  0.00     0.167 HD
ATOM     60  C   UNL A   1      45.581  26.585  29.911  1.00  0.00     0.074 A 
ATOM     61  C   UNL A   1      46.007  25.247  29.551  1.00  0.00     0.031 C 
ATOM     62  C   UNL A   1      46.379  27.504  30.510  1.00  0.00     0.031 A 
BRANCH  49  63
ATOM     63  C   UNL A   1      43.641  32.951  31.568  1.00  0.00    -0.014 A 
ATOM     64  C   UNL A   1      43.981  34.007  30.702  1.00  0.00     0.010 A 
ATOM     65  C   UNL A   1      43.378  33.236  32.920  1.00  0.00     0.010 A 
ATOM     66  C   UNL A   1      44.099  35.312  31.188  1.00  0.00     0.020 A 
ATOM     67  C   UNL A   1      43.463  34.545  33.403  1.00  0.00     0.020 A 
ATOM     68  C   UNL A   1      43.840  35.572  32.537  1.00  0.00     0.054 A 
BRANCH  68  69
ATOM     69  S   UNL A   1      43.976  37.280  33.132  1.00  0.00     0.124 S 
ATOM     70  O   UNL A   1      45.239  37.244  33.864  1.00  0.00    -0.237 OA
ATOM     71  O   UNL A   1      43.991  38.050  31.890  1.00  0.00    -0.237 OA
ATOM     72  O   UNL A   1      42.783  37.457  33.957  1.00  0.00    -0.744 OA
ENDBRANCH  68  69
ENDBRANCH  49  63
BRANCH  50  73
ATOM     73  C   UNL A   1      42.453  23.731  27.843  1.00  0.00    -0.014 A 
ATOM     74  C   UNL A   1      41.962  22.677  28.635  1.00  0.00     0.010 A 
ATOM     75  C   UNL A   1      42.773  23.480  26.496  1.00  0.00     0.010 A 
ATOM     76  C   UNL A   1      41.814  21.395  28.097  1.00  0.00     0.020 A 
ATOM     77  C   UNL A   1      42.596  22.207  25.946  1.00  0.00     0.020 A 
ATOM     78  C   UNL A   1      42.129  21.169  26.754  1.00  0.00     0.054 A 
BRANCH  78  79
ATOM     79  S   UNL A   1      41.879  19.509  26.065  1.00  0.00     0.124 S 
ATOM     80  O   UNL A   1      40.441  19.497  25.815  1.00  0.00    -0.237 OA
ATOM     81  O   UNL A   1      42.728  19.531  24.877  1.00  0.00    -0.237 OA
ATOM     82  O   UNL A   1      42.337  18.623  27.132  1.00  0.00    -0.744 OA
ENDBRANCH  78  79
ENDBRANCH  50  73
BRANCH  62  83
ATOM     83  C   UNL A   1      47.786  27.086  30.848  1.00  0.00    -0.014 A 
ATOM     84  C   UNL A   1      48.856  27.343  29.971  1.00  0.00     0.010 A 
ATOM     85  C   UNL A   1      48.047  26.476  32.088  1.00  0.00     0.010 A 
ATOM     86  C   UNL A   1      50.156  26.968  30.318  1.00  0.00     0.020 A 
ATOM     87  C   UNL A   1      49.351  26.130  32.452  1.00  0.00     0.020 A 
ATOM     88  C   UNL A   1      50.395  26.365  31.557  1.00  0.00     0.054 A 
BRANCH  88  89
ATOM     89  S   UNL A   1      52.099  25.929  31.999  1.00  0.00     0.124 S 
ATOM     90  O   UNL A   1      52.373  26.852  33.097  1.00  0.00    -0.237 OA
ATOM     91  O   UNL A   1      51.981  24.523  32.376  1.00  0.00    -0.237 OA
ATOM     92  O   UNL A   1      52.851  26.179  30.772  1.00  0.00    -0.744 OA
ENDBRANCH  88  89
ENDBRANCH  62  83
ENDBRANCH  36  37
ENDBRANCH  28  31
ENDBRANCH  26  27
ENDBRANCH   1  26
TORSDOF 16
ENDMDL
MODEL 3
REMARK VINA RESULT:     -11.2      1.544      2.490
REMARK SMILES Cc1ccsc1CNC(=O)N[C@@H]1CCCC[C@H]1C(=O)NCCCNC(=O)c1ccc(-c2c3nc(c(-c4ccc(S(=O)(=O)[O-])cc4)c4ccc([nH]4)c(-c4ccc(S(=O)(=O)[O-])cc4)c4nc(c(-c5ccc(S(=O)(=O)[O-])cc5)c5ccc2[nH]5)C=C4)C=C3)cc1
REMARK SMILES IDX 22 1 21 2 20 3 18 4 19 5 17 7 12 8 13 9 14 10 16 11 15 12
REMARK SMILES IDX 11 13 8 14 9 15 10 17 7 19 6 20 1 21 2 22 3 23 4 24 5 25
REMARK SMILES IDX 23 26 24 27 25 28 26 30 27 31 28 32 86 33 29 34 85 35 30 36
REMARK SMILES IDX 31 37 32 38 79 39 33 40 84 41 78 42 80 43 34 44 83 45 77 46
REMARK SMILES IDX 76 47 35 49 65 50 46 51 64 52 47 53 50 54 63 55 81 56 48 57
REMARK SMILES IDX 49 58 62 60 82 61 51 62 36 63 37 64 45 65 38 66 44 67 39 68
REMARK SMILES IDX 40 69 41 70 42 71 43 72 66 73 67 74 75 75 68 76 74 77 69 78
REMARK SMILES IDX 70 79 71 80 72 81 73 82 52 83 53 84 61 85 54 86 60 87 55 88
REMARK SMILES IDX 56 89 57 90 58 91 59 92
REMARK H PARENT 20 6 8 16 11 18 24 29 80 48 50 59
REMARK Flexibility Score: inf
ROOT
ATOM      1  C   UNL A   1      33.153  28.015  25.819  1.00  0.00     0.042 C 
ENDROOT
BRANCH   1   2
ATOM      2  C   UNL A   1      31.912  27.139  25.796  1.00  0.00     0.117 C 
BRANCH   2   3
ATOM      3  N   UNL A   1      31.294  27.139  24.485  1.00  0.00    -0.356 N 
ATOM      4  C   UNL A   1      31.388  26.265  23.454  1.00  0.00     0.225 C 
ATOM      5  O   UNL A   1      30.856  26.596  22.392  1.00  0.00    -0.275 OA
ATOM      6  H   UNL A   1      30.702  27.908  24.313  1.00  0.00     0.163 HD
BRANCH   4   7
ATOM      7  C   UNL A   1      32.076  24.915  23.613  1.00  0.00     0.101 C 
ATOM      8  C   UNL A   1      31.085  23.750  23.788  1.00  0.00     0.096 C 
ATOM      9  C   UNL A   1      31.561  22.356  23.361  1.00  0.00     0.026 C 
ATOM     10  C   UNL A   1      32.484  22.378  22.152  1.00  0.00     0.002 C 
ATOM     11  C   UNL A   1      33.193  24.751  22.571  1.00  0.00     0.015 C 
ATOM     12  C   UNL A   1      33.656  23.317  22.376  1.00  0.00     0.001 C 
BRANCH   8  13
ATOM     13  N   UNL A   1      30.454  23.696  25.118  1.00  0.00    -0.335 N 
ATOM     14  N   UNL A   1      31.827  22.569  26.702  1.00  0.00    -0.333 N 
ATOM     15  C   UNL A   1      30.757  23.279  26.350  1.00  0.00     0.315 C 
ATOM     16  H   UNL A   1      31.998  22.611  27.671  1.00  0.00     0.165 HD
ATOM     17  O   UNL A   1      29.971  23.589  27.251  1.00  0.00    -0.249 OA
ATOM     18  H   UNL A   1      29.546  24.077  25.091  1.00  0.00     0.165 HD
BRANCH  14  19
ATOM     19  C   UNL A   1      32.796  21.752  26.014  1.00  0.00     0.164 C 
BRANCH  19  20
ATOM     20  C   UNL A   1      34.137  22.420  25.805  1.00  0.00     0.027 A 
ATOM     21  C   UNL A   1      35.466  20.372  25.001  1.00  0.00     0.045 C 
ATOM     22  C   UNL A   1      35.287  21.829  25.286  1.00  0.00    -0.035 A 
ATOM     23  C   UNL A   1      36.296  22.809  25.008  1.00  0.00     0.015 A 
ATOM     24  C   UNL A   1      35.918  24.078  25.376  1.00  0.00     0.065 A 
ATOM     25  S   UNL A   1      34.404  24.082  26.157  1.00  0.00    -0.147 S 
ENDBRANCH  19  20
ENDBRANCH  14  19
ENDBRANCH   8  13
ENDBRANCH   4   7
ENDBRANCH   2   3
ENDBRANCH   1   2
BRANCH   1  26
ATOM     26  C   UNL A   1      33.620  28.355  27.225  1.00  0.00     0.118 C 
BRANCH  26  27
ATOM     27  N   UNL A   1      33.555  29.786  27.496  1.00  0.00    -0.352 N 
ATOM     28  C   UNL A   1      34.478  30.599  28.109  1.00  0.00     0.251 C 
ATOM     29  H   UNL A   1      32.732  30.234  27.199  1.00  0.00     0.163 HD
ATOM     30  O   UNL A   1      34.157  31.718  28.488  1.00  0.00    -0.269 OA
BRANCH  28  31
ATOM     31  C   UNL A   1      35.850  30.095  28.319  1.00  0.00     0.039 A 
ATOM     32  C   UNL A   1      36.750  30.094  27.253  1.00  0.00     0.014 A 
ATOM     33  C   UNL A   1      36.246  29.647  29.582  1.00  0.00     0.014 A 
ATOM     34  C   UNL A   1      38.071  29.704  27.474  1.00  0.00     0.010 A 
ATOM     35  C   UNL A   1      37.584  29.368  29.823  1.00  0.00     0.010 A 
ATOM     36  C   UNL A   1      38.507  29.376  28.769  1.00  0.00    -0.014 A 
BRANCH  36  37
ATOM     37  C   UNL A   1      39.920  29.018  29.043  1.00  0.00     0.031 A 
ATOM     38  C   UNL A   1      40.852  30.046  29.627  1.00  0.00     0.074 A 
ATOM     39  C   UNL A   1      40.376  27.796  28.708  1.00  0.00     0.049 A 
ATOM     40  N   UNL A   1      42.129  29.946  29.888  1.00  0.00    -0.248 NA
ATOM     41  C   UNL A   1      40.281  31.371  29.930  1.00  0.00     0.031 C 
ATOM     42  C   UNL A   1      39.579  26.731  28.092  1.00  0.00     0.029 A 
ATOM     43  N   UNL A   1      41.624  27.241  28.835  1.00  0.00    -0.354 N 
ATOM     44  C   UNL A   1      42.515  31.192  30.368  1.00  0.00     0.074 A 
ATOM     45  C   UNL A   1      41.355  32.051  30.302  1.00  0.00     0.031 C 
ATOM     46  C   UNL A   1      40.347  25.642  27.932  1.00  0.00     0.029 A 
ATOM     47  C   UNL A   1      41.700  25.944  28.387  1.00  0.00     0.049 A 
ATOM     48  H   UNL A   1      42.393  27.725  29.214  1.00  0.00     0.167 HD
ATOM     49  C   UNL A   1      43.721  31.581  30.845  1.00  0.00     0.031 A 
ATOM     50  C   UNL A   1      42.744  25.094  28.341  1.00  0.00     0.031 A 
ATOM     51  C   UNL A   1      44.869  30.717  30.916  1.00  0.00     0.049 A 
ATOM     52  C   UNL A   1      44.079  25.554  28.859  1.00  0.00     0.074 A 
ATOM     53  C   UNL A   1      46.121  30.993  31.433  1.00  0.00     0.029 A 
ATOM     54  N   UNL A   1      44.904  29.409  30.453  1.00  0.00    -0.354 N 
ATOM     55  N   UNL A   1      44.407  26.714  29.377  1.00  0.00    -0.248 NA
ATOM     56  C   UNL A   1      45.183  24.587  28.799  1.00  0.00     0.031 C 
ATOM     57  C   UNL A   1      46.933  29.874  31.227  1.00  0.00     0.029 A 
ATOM     58  C   UNL A   1      46.166  28.875  30.646  1.00  0.00     0.049 A 
ATOM     59  H   UNL A   1      44.144  28.932  30.047  1.00  0.00     0.167 HD
ATOM     60  C   UNL A   1      45.747  26.606  29.730  1.00  0.00     0.074 A 
ATOM     61  C   UNL A   1      46.162  25.262  29.384  1.00  0.00     0.031 C 
ATOM     62  C   UNL A   1      46.562  27.535  30.291  1.00  0.00     0.031 A 
BRANCH  49  63
ATOM     63  C   UNL A   1      43.857  33.004  31.322  1.00  0.00    -0.014 A 
ATOM     64  C   UNL A   1      44.215  34.038  30.435  1.00  0.00     0.010 A 
ATOM     65  C   UNL A   1      43.590  33.320  32.665  1.00  0.00     0.010 A 
ATOM     66  C   UNL A   1      44.346  35.351  30.895  1.00  0.00     0.020 A 
ATOM     67  C   UNL A   1      43.689  34.638  33.122  1.00  0.00     0.020 A 
ATOM     68  C   UNL A   1      44.083  35.643  32.236  1.00  0.00     0.054 A 
BRANCH  68  69
ATOM     69  S   UNL A   1      44.236  37.360  32.796  1.00  0.00     0.124 S 
ATOM     70  O   UNL A   1      44.250  38.089  31.530  1.00  0.00    -0.237 OA
ATOM     71  O   UNL A   1      43.036  37.539  33.610  1.00  0.00    -0.237 OA
ATOM     72  O   UNL A   1      45.495  37.374  33.536  1.00  0.00    -0.744 OA
ENDBRANCH  68  69
ENDBRANCH  49  63
BRANCH  50  73
ATOM     73  C   UNL A   1      42.563  23.719  27.797  1.00  0.00    -0.014 A 
ATOM     74  C   UNL A   1      42.226  22.652  28.648  1.00  0.00     0.010 A 
ATOM     75  C   UNL A   1      42.715  23.471  26.420  1.00  0.00     0.010 A 
ATOM     76  C   UNL A   1      42.062  21.361  28.137  1.00  0.00     0.020 A 
ATOM     77  C   UNL A   1      42.521  22.188  25.900  1.00  0.00     0.020 A 
ATOM     78  C   UNL A   1      42.207  21.138  26.765  1.00  0.00     0.054 A 
BRANCH  78  79
ATOM     79  S   UNL A   1      41.939  19.464  26.118  1.00  0.00     0.124 S 
ATOM     80  O   UNL A   1      42.877  19.416  25.001  1.00  0.00    -0.237 OA
ATOM     81  O   UNL A   1      42.278  18.626  27.266  1.00  0.00    -0.237 OA
ATOM     82  O   UNL A   1      40.525  19.461  25.751  1.00  0.00    -0.744 OA
ENDBRANCH  78  79
ENDBRANCH  50  73
BRANCH  62  83
ATOM     83  C   UNL A   1      47.976  27.121  30.599  1.00  0.00    -0.014 A 
ATOM     84  C   UNL A   1      49.024  27.367  29.694  1.00  0.00     0.010 A 
ATOM     85  C   UNL A   1      48.268  26.527  31.841  1.00  0.00     0.010 A 
ATOM     86  C   UNL A   1      50.333  26.996  30.013  1.00  0.00     0.020 A 
ATOM     87  C   UNL A   1      49.581  26.185  32.176  1.00  0.00     0.020 A 
ATOM     88  C   UNL A   1      50.602  26.409  31.253  1.00  0.00     0.054 A 
BRANCH  88  89
ATOM     89  S   UNL A   1      52.316  25.978  31.659  1.00  0.00     0.124 S 
ATOM     90  O   UNL A   1      52.646  26.972  32.677  1.00  0.00    -0.237 OA
ATOM     91  O   UNL A   1      52.196  24.604  32.139  1.00  0.00    -0.237 OA
ATOM     92  O   UNL A   1      53.023  26.130  30.389  1.00  0.00    -0.744 OA
ENDBRANCH  88  89
ENDBRANCH  62  83
ENDBRANCH  36  37
ENDBRANCH  28  31
ENDBRANCH  26  27
ENDBRANCH   1  26
TORSDOF 16
ENDMDL
