MODEL 1
REMARK VINA RESULT:      -9.8      0.000      0.000
REMARK SMILES COc1ccc(-c2nc(NCC(=O)NCCCNC(=O)c3ccc(-c4c5nc(c(-c6ccc(S(=O)(=O)[O-])cc6)c6ccc([nH]6)c(-c6ccc(S(=O)(=O)[O-])cc6)c6nc(c(-c7ccc(S(=O)(=O)[O-])cc7)c7ccc4[nH]7)C=C6)C=C5)cc3)sc2-c2ccc(OC)cc2)cc1
REMARK SMILES IDX 15 1 14 2 12 3 13 4 11 6 10 7 9 9 7 10 8 11 82 12 81 13 6 14
REMARK SMILES IDX 3 15 4 16 92 17 5 18 91 19 2 20 1 21 83 22 84 23 90 24 85 25
REMARK SMILES IDX 89 26 86 27 87 28 88 29 16 30 17 31 18 32 19 33 20 35 21 36
REMARK SMILES IDX 22 37 80 38 23 39 79 40 24 41 25 42 26 43 73 44 27 45 78 46
REMARK SMILES IDX 72 47 74 48 28 49 77 50 71 51 70 52 29 54 59 55 40 56 58 57
REMARK SMILES IDX 41 58 44 59 57 60 75 61 42 62 43 63 56 65 76 66 45 67 30 68
REMARK SMILES IDX 31 69 39 70 32 71 38 72 33 73 34 74 35 75 36 76 37 77 60 78
REMARK SMILES IDX 61 79 69 80 62 81 68 82 63 83 64 84 65 85 66 86 67 87 46 88
REMARK SMILES IDX 47 89 55 90 48 91 54 92 49 93 50 94 51 95 52 96 53 97
REMARK H PARENT 14 5 10 8 18 34 74 53 44 64
REMARK Flexibility Score: inf
ROOT
ATOM      1  C   UNL A   1      36.008  33.692  30.013  1.00  0.00     0.117 C 
ENDROOT
BRANCH   1   2
ATOM      2  N   UNL A   1      35.048  34.526  30.712  1.00  0.00    -0.355 N 
ATOM      3  C   UNL A   1      34.587  34.405  31.993  1.00  0.00     0.239 C 
ATOM      4  O   UNL A   1      33.740  35.209  32.389  1.00  0.00    -0.273 OA
ATOM      5  H   UNL A   1      34.680  35.279  30.194  1.00  0.00     0.163 HD
BRANCH   3   6
ATOM      6  C   UNL A   1      35.161  33.325  32.919  1.00  0.00     0.215 C 
BRANCH   6   7
ATOM      7  N   UNL A   1      36.328  33.800  33.641  1.00  0.00    -0.352 N 
ATOM      8  H   UNL A   1      36.170  34.415  34.393  1.00  0.00     0.163 HD
BRANCH   7   9
ATOM      9  C   UNL A   1      37.610  33.472  33.374  1.00  0.00     0.184 A 
ATOM     10  C   UNL A   1      39.634  33.708  32.496  1.00  0.00     0.091 A 
ATOM     11  N   UNL A   1      38.327  34.170  32.525  1.00  0.00    -0.220 NA
ATOM     12  C   UNL A   1      39.923  32.694  33.398  1.00  0.00     0.064 A 
ATOM     13  S   UNL A   1      38.462  32.167  34.115  1.00  0.00    -0.096 S 
BRANCH  10  14
ATOM     14  C   UNL A   1      40.631  34.277  31.600  1.00  0.00     0.002 A 
ATOM     15  C   UNL A   1      42.618  35.163  29.823  1.00  0.00     0.118 A 
ATOM     16  C   UNL A   1      41.380  34.740  29.341  1.00  0.00     0.047 A 
ATOM     17  C   UNL A   1      42.846  35.191  31.200  1.00  0.00     0.047 A 
ATOM     18  C   UNL A   1      40.393  34.295  30.220  1.00  0.00     0.014 A 
ATOM     19  C   UNL A   1      41.851  34.756  32.089  1.00  0.00     0.014 A 
BRANCH  15  20
ATOM     20  O   UNL A   1      43.497  35.561  28.857  1.00  0.00    -0.497 OA
ATOM     21  C   UNL A   1      42.974  36.398  27.826  1.00  0.00     0.278 C 
ENDBRANCH  15  20
ENDBRANCH  10  14
BRANCH  12  22
ATOM     22  C   UNL A   1      41.203  32.101  33.798  1.00  0.00    -0.006 A 
ATOM     23  C   UNL A   1      41.835  32.443  34.998  1.00  0.00     0.013 A 
ATOM     24  C   UNL A   1      41.812  31.149  32.967  1.00  0.00     0.013 A 
ATOM     25  C   UNL A   1      43.040  31.831  35.359  1.00  0.00     0.047 A 
ATOM     26  C   UNL A   1      43.011  30.532  33.333  1.00  0.00     0.047 A 
ATOM     27  C   UNL A   1      43.626  30.864  34.537  1.00  0.00     0.118 A 
BRANCH  27  28
ATOM     28  O   UNL A   1      44.791  30.329  35.015  1.00  0.00    -0.497 OA
ATOM     29  C   UNL A   1      45.697  31.237  35.629  1.00  0.00     0.278 C 
ENDBRANCH  27  28
ENDBRANCH  12  22
ENDBRANCH   7   9
ENDBRANCH   6   7
ENDBRANCH   3   6
ENDBRANCH   1   2
BRANCH   1  30
ATOM     30  C   UNL A   1      35.330  32.637  29.146  1.00  0.00     0.042 C 
BRANCH  30  31
ATOM     31  C   UNL A   1      35.925  31.241  29.312  1.00  0.00     0.118 C 
BRANCH  31  32
ATOM     32  N   UNL A   1      35.925  30.800  30.703  1.00  0.00    -0.352 N 
ATOM     33  C   UNL A   1      36.878  30.123  31.417  1.00  0.00     0.251 C 
ATOM     34  H   UNL A   1      35.111  31.025  31.209  1.00  0.00     0.163 HD
ATOM     35  O   UNL A   1      36.590  29.674  32.529  1.00  0.00    -0.269 OA
BRANCH  33  36
ATOM     36  C   UNL A   1      38.233  29.912  30.867  1.00  0.00     0.039 A 
ATOM     37  C   UNL A   1      39.067  28.967  31.472  1.00  0.00     0.014 A 
ATOM     38  C   UNL A   1      38.697  30.660  29.781  1.00  0.00     0.014 A 
ATOM     39  C   UNL A   1      40.340  28.728  30.948  1.00  0.00     0.010 A 
ATOM     40  C   UNL A   1      39.936  30.368  29.216  1.00  0.00     0.010 A 
ATOM     41  C   UNL A   1      40.771  29.399  29.792  1.00  0.00    -0.014 A 
BRANCH  41  42
ATOM     42  C   UNL A   1      42.079  29.085  29.162  1.00  0.00     0.031 A 
ATOM     43  C   UNL A   1      42.354  27.711  28.615  1.00  0.00     0.074 A 
ATOM     44  C   UNL A   1      43.045  30.026  29.142  1.00  0.00     0.049 A 
ATOM     45  N   UNL A   1      43.453  27.242  28.082  1.00  0.00    -0.248 NA
ATOM     46  C   UNL A   1      41.261  26.729  28.698  1.00  0.00     0.031 C 
ATOM     47  C   UNL A   1      42.916  31.384  29.676  1.00  0.00     0.029 A 
ATOM     48  N   UNL A   1      44.329  29.981  28.660  1.00  0.00    -0.354 N 
ATOM     49  C   UNL A   1      43.191  25.910  27.781  1.00  0.00     0.074 A 
ATOM     50  C   UNL A   1      41.846  25.634  28.234  1.00  0.00     0.031 C 
ATOM     51  C   UNL A   1      44.064  32.049  29.469  1.00  0.00     0.029 A 
ATOM     52  C   UNL A   1      45.024  31.155  28.831  1.00  0.00     0.049 A 
ATOM     53  H   UNL A   1      44.716  29.183  28.231  1.00  0.00     0.167 HD
ATOM     54  C   UNL A   1      43.991  25.005  27.169  1.00  0.00     0.031 A 
ATOM     55  C   UNL A   1      46.296  31.475  28.523  1.00  0.00     0.031 A 
ATOM     56  C   UNL A   1      45.330  25.286  26.717  1.00  0.00     0.049 A 
ATOM     57  C   UNL A   1      47.170  30.448  27.858  1.00  0.00     0.074 A 
ATOM     58  C   UNL A   1      46.199  24.452  26.036  1.00  0.00     0.029 A 
ATOM     59  N   UNL A   1      45.994  26.489  26.904  1.00  0.00    -0.354 N 
ATOM     60  N   UNL A   1      46.880  29.216  27.519  1.00  0.00    -0.248 NA
ATOM     61  C   UNL A   1      48.541  30.862  27.522  1.00  0.00     0.031 C 
ATOM     62  C   UNL A   1      47.410  25.131  25.863  1.00  0.00     0.029 A 
ATOM     63  C   UNL A   1      47.273  26.410  26.377  1.00  0.00     0.049 A 
ATOM     64  H   UNL A   1      45.613  27.281  27.346  1.00  0.00     0.167 HD
ATOM     65  C   UNL A   1      48.023  28.713  26.906  1.00  0.00     0.074 A 
ATOM     66  C   UNL A   1      49.001  29.782  26.907  1.00  0.00     0.031 C 
ATOM     67  C   UNL A   1      48.239  27.479  26.388  1.00  0.00     0.031 A 
BRANCH  54  68
ATOM     68  C   UNL A   1      43.443  23.616  26.961  1.00  0.00    -0.014 A 
ATOM     69  C   UNL A   1      43.308  22.719  28.036  1.00  0.00     0.010 A 
ATOM     70  C   UNL A   1      43.016  23.217  25.681  1.00  0.00     0.010 A 
ATOM     71  C   UNL A   1      42.795  21.436  27.827  1.00  0.00     0.020 A 
ATOM     72  C   UNL A   1      42.474  21.945  25.474  1.00  0.00     0.020 A 
ATOM     73  C   UNL A   1      42.384  21.056  26.547  1.00  0.00     0.054 A 
BRANCH  73  74
ATOM     74  S   UNL A   1      41.703  19.391  26.311  1.00  0.00     0.124 S 
ATOM     75  O   UNL A   1      40.278  19.671  26.149  1.00  0.00    -0.237 OA
ATOM     76  O   UNL A   1      42.392  18.931  25.109  1.00  0.00    -0.237 OA
ATOM     77  O   UNL A   1      42.064  18.691  27.541  1.00  0.00    -0.744 OA
ENDBRANCH  73  74
ENDBRANCH  54  68
BRANCH  55  78
ATOM     78  C   UNL A   1      46.811  32.838  28.830  1.00  0.00    -0.014 A 
ATOM     79  C   UNL A   1      47.500  33.089  30.028  1.00  0.00     0.010 A 
ATOM     80  C   UNL A   1      46.634  33.887  27.909  1.00  0.00     0.010 A 
ATOM     81  C   UNL A   1      47.995  34.366  30.306  1.00  0.00     0.020 A 
ATOM     82  C   UNL A   1      47.154  35.158  28.170  1.00  0.00     0.020 A 
ATOM     83  C   UNL A   1      47.825  35.391  29.371  1.00  0.00     0.054 A 
BRANCH  83  84
ATOM     84  S   UNL A   1      48.552  37.016  29.712  1.00  0.00     0.124 S 
ATOM     85  O   UNL A   1      49.200  36.797  31.001  1.00  0.00    -0.237 OA
ATOM     86  O   UNL A   1      49.446  37.205  28.573  1.00  0.00    -0.237 OA
ATOM     87  O   UNL A   1      47.393  37.906  29.730  1.00  0.00    -0.744 OA
ENDBRANCH  83  84
ENDBRANCH  55  78
BRANCH  67  88
ATOM     88  C   UNL A   1      49.578  27.222  25.746  1.00  0.00    -0.014 A 
ATOM     89  C   UNL A   1      49.828  27.572  24.408  1.00  0.00     0.010 A 
ATOM     90  C   UNL A   1      50.619  26.670  26.515  1.00  0.00     0.010 A 
ATOM     91  C   UNL A   1      51.085  27.344  23.840  1.00  0.00     0.020 A 
ATOM     92  C   UNL A   1      51.885  26.468  25.961  1.00  0.00     0.020 A 
ATOM     93  C   UNL A   1      52.106  26.793  24.621  1.00  0.00     0.054 A 
BRANCH  93  94
ATOM     94  S   UNL A   1      53.739  26.546  23.873  1.00  0.00     0.124 S 
ATOM     95  O   UNL A   1      54.345  27.866  24.024  1.00  0.00    -0.237 OA
ATOM     96  O   UNL A   1      54.316  25.491  24.703  1.00  0.00    -0.237 OA
ATOM     97  O   UNL A   1      53.435  26.153  22.499  1.00  0.00    -0.744 OA
ENDBRANCH  93  94
ENDBRANCH  67  88
ENDBRANCH  41  42
ENDBRANCH  33  36
ENDBRANCH  31  32
ENDBRANCH  30  31
ENDBRANCH   1  30
TORSDOF 19
ENDMDL
MODEL 2
REMARK VINA RESULT:      -9.8      5.778     11.868
REMARK SMILES COc1ccc(-c2nc(NCC(=O)NCCCNC(=O)c3ccc(-c4c5nc(c(-c6ccc(S(=O)(=O)[O-])cc6)c6ccc([nH]6)c(-c6ccc(S(=O)(=O)[O-])cc6)c6nc(c(-c7ccc(S(=O)(=O)[O-])cc7)c7ccc4[nH]7)C=C6)C=C5)cc3)sc2-c2ccc(OC)cc2)cc1
REMARK SMILES IDX 15 1 14 2 12 3 13 4 11 6 10 7 9 9 7 10 8 11 82 12 81 13 6 14
REMARK SMILES IDX 3 15 4 16 92 17 5 18 91 19 2 20 1 21 83 22 84 23 90 24 85 25
REMARK SMILES IDX 89 26 86 27 87 28 88 29 16 30 17 31 18 32 19 33 20 35 21 36
REMARK SMILES IDX 22 37 80 38 23 39 79 40 24 41 25 42 26 43 73 44 27 45 78 46
REMARK SMILES IDX 72 47 74 48 28 49 77 50 71 51 70 52 29 54 59 55 40 56 58 57
REMARK SMILES IDX 41 58 44 59 57 60 75 61 42 62 43 63 56 65 76 66 45 67 30 68
REMARK SMILES IDX 31 69 39 70 32 71 38 72 33 73 34 74 35 75 36 76 37 77 60 78
REMARK SMILES IDX 61 79 69 80 62 81 68 82 63 83 64 84 65 85 66 86 67 87 46 88
REMARK SMILES IDX 47 89 55 90 48 91 54 92 49 93 50 94 51 95 52 96 53 97
REMARK H PARENT 14 5 10 8 18 34 74 53 44 64
REMARK Flexibility Score: inf
ROOT
ATOM      1  C   UNL A   1      45.204  40.263  28.952  1.00  0.00     0.117 C 
ENDROOT
BRANCH   1   2
ATOM      2  N   UNL A   1      43.775  40.169  28.717  1.00  0.00    -0.355 N 
ATOM      3  C   UNL A   1      43.022  40.811  27.774  1.00  0.00     0.239 C 
ATOM      4  O   UNL A   1      41.805  40.613  27.763  1.00  0.00    -0.273 OA
ATOM      5  H   UNL A   1      43.284  39.563  29.318  1.00  0.00     0.163 HD
BRANCH   3   6
ATOM      6  C   UNL A   1      43.698  41.706  26.728  1.00  0.00     0.215 C 
BRANCH   6   7
ATOM      7  N   UNL A   1      43.185  41.456  25.393  1.00  0.00    -0.352 N 
ATOM      8  H   UNL A   1      42.495  40.760  25.301  1.00  0.00     0.163 HD
BRANCH   7   9
ATOM      9  C   UNL A   1      43.571  42.092  24.267  1.00  0.00     0.184 A 
ATOM     10  C   UNL A   1      44.976  42.782  22.694  1.00  0.00     0.091 A 
ATOM     11  N   UNL A   1      44.838  42.180  23.935  1.00  0.00    -0.220 NA
ATOM     12  C   UNL A   1      43.786  43.082  22.046  1.00  0.00     0.064 A 
ATOM     13  S   UNL A   1      42.490  42.812  23.130  1.00  0.00    -0.096 S 
BRANCH  10  14
ATOM     14  C   UNL A   1      46.284  43.047  22.110  1.00  0.00     0.002 A 
ATOM     15  C   UNL A   1      48.891  43.415  21.134  1.00  0.00     0.118 A 
ATOM     16  C   UNL A   1      48.141  42.307  20.739  1.00  0.00     0.047 A 
ATOM     17  C   UNL A   1      48.319  44.368  21.979  1.00  0.00     0.047 A 
ATOM     18  C   UNL A   1      46.848  42.119  21.226  1.00  0.00     0.014 A 
ATOM     19  C   UNL A   1      47.013  44.189  22.460  1.00  0.00     0.014 A 
BRANCH  15  20
ATOM     20  O   UNL A   1      50.145  43.472  20.594  1.00  0.00    -0.497 OA
ATOM     21  C   UNL A   1      50.919  44.631  20.903  1.00  0.00     0.278 C 
ENDBRANCH  15  20
ENDBRANCH  10  14
BRANCH  12  22
ATOM     22  C   UNL A   1      43.526  43.525  20.673  1.00  0.00    -0.006 A 
ATOM     23  C   UNL A   1      44.252  44.562  20.079  1.00  0.00     0.013 A 
ATOM     24  C   UNL A   1      42.532  42.885  19.918  1.00  0.00     0.013 A 
ATOM     25  C   UNL A   1      43.995  44.935  18.755  1.00  0.00     0.047 A 
ATOM     26  C   UNL A   1      42.282  43.252  18.593  1.00  0.00     0.047 A 
ATOM     27  C   UNL A   1      43.021  44.274  18.002  1.00  0.00     0.118 A 
BRANCH  27  28
ATOM     28  O   UNL A   1      42.884  44.720  16.716  1.00  0.00    -0.497 OA
ATOM     29  C   UNL A   1      41.782  45.584  16.463  1.00  0.00     0.278 C 
ENDBRANCH  27  28
ENDBRANCH  12  22
ENDBRANCH   7   9
ENDBRANCH   6   7
ENDBRANCH   3   6
ENDBRANCH   1   2
BRANCH   1  30
ATOM     30  C   UNL A   1      45.783  38.966  29.507  1.00  0.00     0.042 C 
BRANCH  30  31
ATOM     31  C   UNL A   1      46.446  38.093  28.443  1.00  0.00     0.118 C 
BRANCH  31  32
ATOM     32  N   UNL A   1      47.863  37.871  28.711  1.00  0.00    -0.352 N 
ATOM     33  C   UNL A   1      48.540  36.714  28.993  1.00  0.00     0.251 C 
ATOM     34  H   UNL A   1      48.421  38.681  28.683  1.00  0.00     0.163 HD
ATOM     35  O   UNL A   1      49.707  36.781  29.384  1.00  0.00    -0.269 OA
BRANCH  33  36
ATOM     36  C   UNL A   1      47.885  35.397  28.851  1.00  0.00     0.039 A 
ATOM     37  C   UNL A   1      47.371  35.031  27.603  1.00  0.00     0.014 A 
ATOM     38  C   UNL A   1      47.747  34.536  29.943  1.00  0.00     0.014 A 
ATOM     39  C   UNL A   1      46.778  33.778  27.437  1.00  0.00     0.010 A 
ATOM     40  C   UNL A   1      47.222  33.259  29.758  1.00  0.00     0.010 A 
ATOM     41  C   UNL A   1      46.732  32.865  28.504  1.00  0.00    -0.014 A 
BRANCH  41  42
ATOM     42  C   UNL A   1      46.197  31.492  28.320  1.00  0.00     0.031 A 
ATOM     43  C   UNL A   1      47.057  30.410  27.727  1.00  0.00     0.074 A 
ATOM     44  C   UNL A   1      44.910  31.237  28.631  1.00  0.00     0.049 A 
ATOM     45  N   UNL A   1      46.743  29.172  27.442  1.00  0.00    -0.248 NA
ATOM     46  C   UNL A   1      48.443  30.770  27.386  1.00  0.00     0.031 C 
ATOM     47  C   UNL A   1      43.962  32.212  29.177  1.00  0.00     0.029 A 
ATOM     48  N   UNL A   1      44.175  30.084  28.526  1.00  0.00    -0.354 N 
ATOM     49  C   UNL A   1      47.882  28.610  26.878  1.00  0.00     0.074 A 
ATOM     50  C   UNL A   1      48.879  29.656  26.815  1.00  0.00     0.031 C 
ATOM     51  C   UNL A   1      42.780  31.609  29.382  1.00  0.00     0.029 A 
ATOM     52  C   UNL A   1      42.870  30.221  28.941  1.00  0.00     0.049 A 
ATOM     53  H   UNL A   1      44.545  29.237  28.185  1.00  0.00     0.167 HD
ATOM     54  C   UNL A   1      48.085  27.337  26.463  1.00  0.00     0.031 A 
ATOM     55  C   UNL A   1      41.855  29.334  28.954  1.00  0.00     0.031 A 
ATOM     56  C   UNL A   1      47.089  26.298  26.529  1.00  0.00     0.049 A 
ATOM     57  C   UNL A   1      42.101  27.931  28.474  1.00  0.00     0.074 A 
ATOM     58  C   UNL A   1      47.217  24.963  26.186  1.00  0.00     0.029 A 
ATOM     59  N   UNL A   1      45.784  26.477  26.962  1.00  0.00    -0.354 N 
ATOM     60  N   UNL A   1      43.206  27.402  28.008  1.00  0.00    -0.248 NA
ATOM     61  C   UNL A   1      40.964  27.002  28.535  1.00  0.00     0.031 C 
ATOM     62  C   UNL A   1      45.972  24.348  26.356  1.00  0.00     0.029 A 
ATOM     63  C   UNL A   1      45.087  25.283  26.867  1.00  0.00     0.049 A 
ATOM     64  H   UNL A   1      45.409  27.326  27.287  1.00  0.00     0.167 HD
ATOM     65  C   UNL A   1      42.906  26.071  27.744  1.00  0.00     0.074 A 
ATOM     66  C   UNL A   1      41.520  25.873  28.119  1.00  0.00     0.031 C 
ATOM     67  C   UNL A   1      43.707  25.100  27.239  1.00  0.00     0.031 A 
BRANCH  54  68
ATOM     68  C   UNL A   1      49.436  26.996  25.888  1.00  0.00    -0.014 A 
ATOM     69  C   UNL A   1      50.447  26.434  26.689  1.00  0.00     0.010 A 
ATOM     70  C   UNL A   1      49.685  27.197  24.518  1.00  0.00     0.010 A 
ATOM     71  C   UNL A   1      51.694  26.121  26.140  1.00  0.00     0.020 A 
ATOM     72  C   UNL A   1      50.920  26.857  23.959  1.00  0.00     0.020 A 
ATOM     73  C   UNL A   1      51.923  26.337  24.779  1.00  0.00     0.054 A 
BRANCH  73  74
ATOM     74  S   UNL A   1      53.544  25.900  24.091  1.00  0.00     0.124 S 
ATOM     75  O   UNL A   1      53.307  26.035  22.655  1.00  0.00    -0.237 OA
ATOM     76  O   UNL A   1      54.423  26.907  24.679  1.00  0.00    -0.237 OA
ATOM     77  O   UNL A   1      53.764  24.534  24.560  1.00  0.00    -0.744 OA
ENDBRANCH  73  74
ENDBRANCH  54  68
BRANCH  55  78
ATOM     78  C   UNL A   1      40.517  29.751  29.454  1.00  0.00    -0.014 A 
ATOM     79  C   UNL A   1      40.278  29.884  30.832  1.00  0.00     0.010 A 
ATOM     80  C   UNL A   1      39.480  30.043  28.549  1.00  0.00     0.010 A 
ATOM     81  C   UNL A   1      39.024  30.291  31.298  1.00  0.00     0.020 A 
ATOM     82  C   UNL A   1      38.235  30.479  29.008  1.00  0.00     0.020 A 
ATOM     83  C   UNL A   1      38.013  30.593  30.382  1.00  0.00     0.054 A 
BRANCH  83  84
ATOM     84  S   UNL A   1      36.423  31.204  31.003  1.00  0.00     0.124 S 
ATOM     85  O   UNL A   1      35.632  31.296  29.781  1.00  0.00    -0.237 OA
ATOM     86  O   UNL A   1      36.029  30.156  31.940  1.00  0.00    -0.237 OA
ATOM     87  O   UNL A   1      36.773  32.479  31.628  1.00  0.00    -0.744 OA
ENDBRANCH  83  84
ENDBRANCH  55  78
BRANCH  67  88
ATOM     88  C   UNL A   1      43.116  23.722  27.091  1.00  0.00    -0.014 A 
ATOM     89  C   UNL A   1      43.015  22.847  28.186  1.00  0.00     0.010 A 
ATOM     90  C   UNL A   1      42.606  23.319  25.843  1.00  0.00     0.010 A 
ATOM     91  C   UNL A   1      42.443  21.580  28.029  1.00  0.00     0.020 A 
ATOM     92  C   UNL A   1      42.007  22.066  25.688  1.00  0.00     0.020 A 
ATOM     93  C   UNL A   1      41.943  21.199  26.780  1.00  0.00     0.054 A 
BRANCH  93  94
ATOM     94  S   UNL A   1      41.168  19.567  26.612  1.00  0.00     0.124 S 
ATOM     95  O   UNL A   1      41.034  19.151  28.005  1.00  0.00    -0.237 OA
ATOM     96  O   UNL A   1      39.917  19.876  25.925  1.00  0.00    -0.237 OA
ATOM     97  O   UNL A   1      42.134  18.805  25.824  1.00  0.00    -0.744 OA
ENDBRANCH  93  94
ENDBRANCH  67  88
ENDBRANCH  41  42
ENDBRANCH  33  36
ENDBRANCH  31  32
ENDBRANCH  30  31
ENDBRANCH   1  30
TORSDOF 19
ENDMDL
MODEL 3
REMARK VINA RESULT:      -9.7      1.653      2.549
REMARK SMILES COc1ccc(-c2nc(NCC(=O)NCCCNC(=O)c3ccc(-c4c5nc(c(-c6ccc(S(=O)(=O)[O-])cc6)c6ccc([nH]6)c(-c6ccc(S(=O)(=O)[O-])cc6)c6nc(c(-c7ccc(S(=O)(=O)[O-])cc7)c7ccc4[nH]7)C=C6)C=C5)cc3)sc2-c2ccc(OC)cc2)cc1
REMARK SMILES IDX 15 1 14 2 12 3 13 4 11 6 10 7 9 9 7 10 8 11 82 12 81 13 6 14
REMARK SMILES IDX 3 15 4 16 92 17 5 18 91 19 2 20 1 21 83 22 84 23 90 24 85 25
REMARK SMILES IDX 89 26 86 27 87 28 88 29 16 30 17 31 18 32 19 33 20 35 21 36
REMARK SMILES IDX 22 37 80 38 23 39 79 40 24 41 25 42 26 43 73 44 27 45 78 46
REMARK SMILES IDX 72 47 74 48 28 49 77 50 71 51 70 52 29 54 59 55 40 56 58 57
REMARK SMILES IDX 41 58 44 59 57 60 75 61 42 62 43 63 56 65 76 66 45 67 30 68
REMARK SMILES IDX 31 69 39 70 32 71 38 72 33 73 34 74 35 75 36 76 37 77 60 78
REMARK SMILES IDX 61 79 69 80 62 81 68 82 63 83 64 84 65 85 66 86 67 87 46 88
REMARK SMILES IDX 47 89 55 90 48 91 54 92 49 93 50 94 51 95 52 96 53 97
REMARK H PARENT 14 5 10 8 18 34 74 53 44 64
REMARK Flexibility Score: inf
ROOT
ATOM      1  C   UNL A   1      34.588  33.935  29.693  1.00  0.00     0.117 C 
ENDROOT
BRANCH   1   2
ATOM      2  N   UNL A   1      34.750  35.011  30.654  1.00  0.00    -0.355 N 
ATOM      3  C   UNL A   1      34.529  34.991  32.002  1.00  0.00     0.239 C 
ATOM      4  O   UNL A   1      34.700  36.033  32.639  1.00  0.00    -0.273 OA
ATOM      5  H   UNL A   1      35.061  35.869  30.284  1.00  0.00     0.163 HD
BRANCH   3   6
ATOM      6  C   UNL A   1      34.132  33.683  32.697  1.00  0.00     0.215 C 
BRANCH   6   7
ATOM      7  N   UNL A   1      35.213  32.713  32.678  1.00  0.00    -0.352 N 
ATOM      8  H   UNL A   1      35.104  31.931  32.092  1.00  0.00     0.163 HD
BRANCH   7   9
ATOM      9  C   UNL A   1      36.355  32.791  33.394  1.00  0.00     0.184 A 
ATOM     10  C   UNL A   1      38.541  32.699  33.762  1.00  0.00     0.091 A 
ATOM     11  N   UNL A   1      37.508  32.433  32.878  1.00  0.00    -0.220 NA
ATOM     12  C   UNL A   1      38.167  33.341  34.934  1.00  0.00     0.064 A 
ATOM     13  S   UNL A   1      36.459  33.387  35.010  1.00  0.00    -0.096 S 
BRANCH  10  14
ATOM     14  C   UNL A   1      39.923  32.353  33.456  1.00  0.00     0.002 A 
ATOM     15  C   UNL A   1      42.513  31.605  32.668  1.00  0.00     0.118 A 
ATOM     16  C   UNL A   1      41.958  32.804  32.219  1.00  0.00     0.047 A 
ATOM     17  C   UNL A   1      41.791  30.802  33.553  1.00  0.00     0.047 A 
ATOM     18  C   UNL A   1      40.671  33.175  32.605  1.00  0.00     0.014 A 
ATOM     19  C   UNL A   1      40.499  31.179  33.954  1.00  0.00     0.014 A 
BRANCH  15  20
ATOM     20  O   UNL A   1      43.774  31.356  32.207  1.00  0.00    -0.497 OA
ATOM     21  C   UNL A   1      44.742  30.962  33.178  1.00  0.00     0.278 C 
ENDBRANCH  15  20
ENDBRANCH  10  14
BRANCH  12  22
ATOM     22  C   UNL A   1      38.975  33.953  35.993  1.00  0.00    -0.006 A 
ATOM     23  C   UNL A   1      40.278  34.406  35.762  1.00  0.00     0.013 A 
ATOM     24  C   UNL A   1      38.429  34.109  37.276  1.00  0.00     0.013 A 
ATOM     25  C   UNL A   1      41.005  35.014  36.792  1.00  0.00     0.047 A 
ATOM     26  C   UNL A   1      39.153  34.723  38.300  1.00  0.00     0.047 A 
ATOM     27  C   UNL A   1      40.444  35.188  38.059  1.00  0.00     0.118 A 
BRANCH  27  28
ATOM     28  O   UNL A   1      41.251  35.815  38.968  1.00  0.00    -0.497 OA
ATOM     29  C   UNL A   1      41.792  37.069  38.571  1.00  0.00     0.278 C 
ENDBRANCH  27  28
ENDBRANCH  12  22
ENDBRANCH   7   9
ENDBRANCH   6   7
ENDBRANCH   3   6
ENDBRANCH   1   2
BRANCH   1  30
ATOM     30  C   UNL A   1      35.914  33.516  29.068  1.00  0.00     0.042 C 
BRANCH  30  31
ATOM     31  C   UNL A   1      35.970  32.036  28.697  1.00  0.00     0.118 C 
BRANCH  31  32
ATOM     32  N   UNL A   1      35.777  31.167  29.853  1.00  0.00    -0.352 N 
ATOM     33  C   UNL A   1      36.575  30.174  30.357  1.00  0.00     0.251 C 
ATOM     34  H   UNL A   1      34.941  31.320  30.351  1.00  0.00     0.163 HD
ATOM     35  O   UNL A   1      36.126  29.427  31.230  1.00  0.00    -0.269 OA
BRANCH  33  36
ATOM     36  C   UNL A   1      37.952  29.980  29.858  1.00  0.00     0.039 A 
ATOM     37  C   UNL A   1      38.989  29.826  30.783  1.00  0.00     0.014 A 
ATOM     38  C   UNL A   1      38.231  29.979  28.489  1.00  0.00     0.014 A 
ATOM     39  C   UNL A   1      40.293  29.607  30.334  1.00  0.00     0.010 A 
ATOM     40  C   UNL A   1      39.519  29.687  28.043  1.00  0.00     0.010 A 
ATOM     41  C   UNL A   1      40.563  29.498  28.960  1.00  0.00    -0.014 A 
BRANCH  41  42
ATOM     42  C   UNL A   1      41.924  29.166  28.467  1.00  0.00     0.031 A 
ATOM     43  C   UNL A   1      42.263  27.763  28.043  1.00  0.00     0.074 A 
ATOM     44  C   UNL A   1      42.877  30.121  28.463  1.00  0.00     0.049 A 
ATOM     45  N   UNL A   1      43.410  27.279  27.640  1.00  0.00    -0.248 NA
ATOM     46  C   UNL A   1      41.179  26.769  28.101  1.00  0.00     0.031 C 
ATOM     47  C   UNL A   1      42.685  31.510  28.887  1.00  0.00     0.029 A 
ATOM     48  N   UNL A   1      44.198  30.066  28.095  1.00  0.00    -0.354 N 
ATOM     49  C   UNL A   1      43.192  25.925  27.411  1.00  0.00     0.074 A 
ATOM     50  C   UNL A   1      41.815  25.655  27.767  1.00  0.00     0.031 C 
ATOM     51  C   UNL A   1      43.839  32.180  28.732  1.00  0.00     0.029 A 
ATOM     52  C   UNL A   1      44.862  31.262  28.243  1.00  0.00     0.049 A 
ATOM     53  H   UNL A   1      44.631  29.248  27.759  1.00  0.00     0.167 HD
ATOM     54  C   UNL A   1      44.052  24.994  26.934  1.00  0.00     0.031 A 
ATOM     55  C   UNL A   1      46.151  31.584  28.021  1.00  0.00     0.031 A 
ATOM     56  C   UNL A   1      45.421  25.269  26.579  1.00  0.00     0.049 A 
ATOM     57  C   UNL A   1      47.092  30.530  27.507  1.00  0.00     0.074 A 
ATOM     58  C   UNL A   1      46.356  24.406  26.034  1.00  0.00     0.029 A 
ATOM     59  N   UNL A   1      46.052  26.493  26.737  1.00  0.00    -0.354 N 
ATOM     60  N   UNL A   1      46.848  29.272  27.232  1.00  0.00    -0.248 NA
ATOM     61  C   UNL A   1      48.481  30.944  27.261  1.00  0.00     0.031 C 
ATOM     62  C   UNL A   1      47.569  25.093  25.918  1.00  0.00     0.029 A 
ATOM     63  C   UNL A   1      47.372  26.402  26.327  1.00  0.00     0.049 A 
ATOM     64  H   UNL A   1      45.624  27.307  27.088  1.00  0.00     0.167 HD
ATOM     65  C   UNL A   1      48.045  28.750  26.755  1.00  0.00     0.074 A 
ATOM     66  C   UNL A   1      49.006  29.833  26.764  1.00  0.00     0.031 C 
ATOM     67  C   UNL A   1      48.320  27.486  26.345  1.00  0.00     0.031 A 
BRANCH  54  68
ATOM     68  C   UNL A   1      43.542  23.584  26.778  1.00  0.00    -0.014 A 
ATOM     69  C   UNL A   1      43.335  22.758  27.897  1.00  0.00     0.010 A 
ATOM     70  C   UNL A   1      43.220  23.094  25.499  1.00  0.00     0.010 A 
ATOM     71  C   UNL A   1      42.859  21.454  27.737  1.00  0.00     0.020 A 
ATOM     72  C   UNL A   1      42.715  21.801  25.337  1.00  0.00     0.020 A 
ATOM     73  C   UNL A   1      42.554  20.983  26.457  1.00  0.00     0.054 A 
BRANCH  73  74
ATOM     74  S   UNL A   1      41.917  19.294  26.282  1.00  0.00     0.124 S 
ATOM     75  O   UNL A   1      40.494  19.532  26.045  1.00  0.00    -0.237 OA
ATOM     76  O   UNL A   1      42.666  18.786  25.136  1.00  0.00    -0.237 OA
ATOM     77  O   UNL A   1      42.238  18.666  27.561  1.00  0.00    -0.744 OA
ENDBRANCH  73  74
ENDBRANCH  54  68
BRANCH  55  78
ATOM     78  C   UNL A   1      46.620  32.973  28.275  1.00  0.00    -0.014 A 
ATOM     79  C   UNL A   1      47.161  33.330  29.522  1.00  0.00     0.010 A 
ATOM     80  C   UNL A   1      46.551  33.943  27.257  1.00  0.00     0.010 A 
ATOM     81  C   UNL A   1      47.614  34.632  29.751  1.00  0.00     0.020 A 
ATOM     82  C   UNL A   1      47.031  35.237  27.472  1.00  0.00     0.020 A 
ATOM     83  C   UNL A   1      47.553  35.575  28.722  1.00  0.00     0.054 A 
BRANCH  83  84
ATOM     84  S   UNL A   1      48.228  37.232  29.012  1.00  0.00     0.124 S 
ATOM     85  O   UNL A   1      48.041  37.870  27.713  1.00  0.00    -0.237 OA
ATOM     86  O   UNL A   1      47.384  37.730  30.094  1.00  0.00    -0.237 OA
ATOM     87  O   UNL A   1      49.614  36.969  29.394  1.00  0.00    -0.744 OA
ENDBRANCH  83  84
ENDBRANCH  55  78
BRANCH  67  88
ATOM     88  C   UNL A   1      49.712  27.211  25.839  1.00  0.00    -0.014 A 
ATOM     89  C   UNL A   1      50.704  26.673  26.677  1.00  0.00     0.010 A 
ATOM     90  C   UNL A   1      50.015  27.448  24.485  1.00  0.00     0.010 A 
ATOM     91  C   UNL A   1      51.982  26.406  26.179  1.00  0.00     0.020 A 
ATOM     92  C   UNL A   1      51.283  27.155  23.976  1.00  0.00     0.020 A 
ATOM     93  C   UNL A   1      52.263  26.649  24.831  1.00  0.00     0.054 A 
BRANCH  93  94
ATOM     94  S   UNL A   1      53.917  26.254  24.200  1.00  0.00     0.124 S 
ATOM     95  O   UNL A   1      54.219  25.009  24.899  1.00  0.00    -0.237 OA
ATOM     96  O   UNL A   1      53.691  26.130  22.762  1.00  0.00    -0.237 OA
ATOM     97  O   UNL A   1      54.724  27.405  24.601  1.00  0.00    -0.744 OA
ENDBRANCH  93  94
ENDBRANCH  67  88
ENDBRANCH  41  42
ENDBRANCH  33  36
ENDBRANCH  31  32
ENDBRANCH  30  31
ENDBRANCH   1  30
TORSDOF 19
ENDMDL
