MODEL 1
REMARK VINA RESULT:     -12.3      0.000      0.000
REMARK SMILES C[C@@H](C(=O)NCCCNC(=O)c1ccc(-c2c3nc(c(-c4ccc(S(=O)(=O)[O-])cc4)c4ccc([nH]4)c(-c4ccc(S(=O)(=O)[O-])cc4)c4nc(c(-c5ccc(S(=O)(=O)[O-])cc5)c5ccc2[nH]5)C=C4)C=C3)cc1)[N@@H+]1CCc2n[nH]c(C(c3ccccc3)c3ccccc3)c2C1
REMARK SMILES IDX 7 1 6 2 5 3 3 4 4 5 2 7 1 8 72 9 73 10 93 11 74 13 92 14
REMARK SMILES IDX 75 15 78 16 76 17 77 18 79 20 80 21 81 22 85 23 82 24 84 25
REMARK SMILES IDX 83 26 86 27 87 28 91 29 88 30 90 31 89 32 8 33 9 34 10 35
REMARK SMILES IDX 11 37 12 38 13 39 71 40 14 41 70 42 15 43 16 44 17 45 64 46
REMARK SMILES IDX 18 47 69 48 63 49 65 50 19 51 68 52 62 53 61 54 20 56 50 57
REMARK SMILES IDX 31 58 49 59 32 60 35 61 48 62 66 63 33 64 34 65 47 67 67 68
REMARK SMILES IDX 36 69 21 70 22 71 30 72 23 73 29 74 24 75 25 76 26 77 27 78
REMARK SMILES IDX 28 79 51 80 52 81 60 82 53 83 59 84 54 85 55 86 56 87 57 88
REMARK SMILES IDX 58 89 37 90 38 91 46 92 39 93 45 94 40 95 41 96 42 97 43 98
REMARK SMILES IDX 44 99
REMARK H PARENT 5 6 72 12 77 19 9 36 65 55 35 66
REMARK Flexibility Score: inf
ROOT
ATOM      1  C   UNL A   1      36.093  23.474  25.649  1.00  0.00     0.042 C 
ENDROOT
BRANCH   1   2
ATOM      2  C   UNL A   1      34.825  23.447  24.811  1.00  0.00     0.118 C 
BRANCH   2   3
ATOM      3  N   UNL A   1      33.682  24.031  25.475  1.00  0.00    -0.351 N 
ATOM      4  C   UNL A   1      32.620  23.225  25.845  1.00  0.00     0.278 C 
ATOM      5  O   UNL A   1      32.752  22.027  26.085  1.00  0.00    -0.268 OA
ATOM      6  H   UNL A   1      33.660  24.997  25.665  1.00  0.00     0.163 HD
BRANCH   4   7
ATOM      7  C   UNL A   1      31.231  23.891  25.735  1.00  0.00     0.271 C 
ATOM      8  C   UNL A   1      30.352  23.257  26.827  1.00  0.00     0.086 C 
BRANCH   7   9
ATOM      9  N   UNL A   1      30.657  24.001  24.381  1.00  0.00    -0.321 N 
ATOM     10  C   UNL A   1      31.053  23.022  23.355  1.00  0.00     0.269 C 
ATOM     11  C   UNL A   1      30.321  25.332  23.855  1.00  0.00     0.303 C 
ATOM     12  H   UNL A   1      29.746  23.647  24.670  1.00  0.00     0.349 HD
ATOM     13  C   UNL A   1      32.107  23.479  22.318  1.00  0.00     0.120 C 
ATOM     14  C   UNL A   1      31.503  25.838  23.111  1.00  0.00     0.052 A 
ATOM     15  C   UNL A   1      32.338  24.943  22.395  1.00  0.00     0.077 A 
ATOM     16  C   UNL A   1      32.078  27.081  22.926  1.00  0.00     0.056 A 
ATOM     17  N   UNL A   1      33.393  25.542  21.853  1.00  0.00    -0.180 NA
ATOM     18  N   UNL A   1      33.192  26.834  22.146  1.00  0.00    -0.281 N 
ATOM     19  H   UNL A   1      33.790  27.550  21.831  1.00  0.00     0.190 HD
BRANCH  16  20
ATOM     20  C   UNL A   1      31.810  28.512  23.333  1.00  0.00     0.098 C 
BRANCH  20  21
ATOM     21  C   UNL A   1      30.409  28.949  22.899  1.00  0.00    -0.035 A 
ATOM     22  C   UNL A   1      30.258  29.957  21.932  1.00  0.00     0.005 A 
ATOM     23  C   UNL A   1      29.258  28.336  23.425  1.00  0.00     0.005 A 
ATOM     24  C   UNL A   1      28.988  30.347  21.513  1.00  0.00     0.000 A 
ATOM     25  C   UNL A   1      27.990  28.749  23.024  1.00  0.00     0.000 A 
ATOM     26  C   UNL A   1      27.856  29.752  22.066  1.00  0.00     0.000 A 
ENDBRANCH  20  21
BRANCH  20  27
ATOM     27  C   UNL A   1      32.210  28.970  24.737  1.00  0.00    -0.035 A 
ATOM     28  C   UNL A   1      31.604  30.029  25.428  1.00  0.00     0.005 A 
ATOM     29  C   UNL A   1      33.336  28.390  25.338  1.00  0.00     0.005 A 
ATOM     30  C   UNL A   1      32.146  30.517  26.626  1.00  0.00     0.000 A 
ATOM     31  C   UNL A   1      33.884  28.868  26.529  1.00  0.00     0.000 A 
ATOM     32  C   UNL A   1      33.295  29.947  27.168  1.00  0.00     0.000 A 
ENDBRANCH  20  27
ENDBRANCH  16  20
ENDBRANCH   7   9
ENDBRANCH   4   7
ENDBRANCH   2   3
ENDBRANCH   1   2
BRANCH   1  33
ATOM     33  C   UNL A   1      37.406  23.338  24.887  1.00  0.00     0.118 C 
BRANCH  33  34
ATOM     34  N   UNL A   1      38.409  22.502  25.532  1.00  0.00    -0.352 N 
ATOM     35  C   UNL A   1      39.334  22.782  26.508  1.00  0.00     0.251 C 
ATOM     36  H   UNL A   1      38.428  21.572  25.211  1.00  0.00     0.163 HD
ATOM     37  O   UNL A   1      40.045  21.889  26.944  1.00  0.00    -0.269 OA
BRANCH  35  38
ATOM     38  C   UNL A   1      39.518  24.167  26.978  1.00  0.00     0.039 A 
ATOM     39  C   UNL A   1      39.011  24.498  28.237  1.00  0.00     0.014 A 
ATOM     40  C   UNL A   1      40.219  25.108  26.224  1.00  0.00     0.014 A 
ATOM     41  C   UNL A   1      39.299  25.746  28.787  1.00  0.00     0.010 A 
ATOM     42  C   UNL A   1      40.569  26.323  26.804  1.00  0.00     0.010 A 
ATOM     43  C   UNL A   1      40.127  26.644  28.098  1.00  0.00    -0.014 A 
BRANCH  43  44
ATOM     44  C   UNL A   1      40.569  27.909  28.730  1.00  0.00     0.031 A 
ATOM     45  C   UNL A   1      41.956  28.026  29.291  1.00  0.00     0.074 A 
ATOM     46  C   UNL A   1      39.691  28.924  28.856  1.00  0.00     0.049 A 
ATOM     47  N   UNL A   1      42.505  29.029  29.927  1.00  0.00    -0.248 NA
ATOM     48  C   UNL A   1      42.833  26.853  29.145  1.00  0.00     0.031 C 
ATOM     49  C   UNL A   1      38.300  28.906  28.391  1.00  0.00     0.029 A 
ATOM     50  N   UNL A   1      39.834  30.167  29.418  1.00  0.00    -0.354 N 
ATOM     51  C   UNL A   1      43.780  28.600  30.277  1.00  0.00     0.074 A 
ATOM     52  C   UNL A   1      43.906  27.232  29.822  1.00  0.00     0.031 C 
ATOM     53  C   UNL A   1      37.730  30.092  28.659  1.00  0.00     0.029 A 
ATOM     54  C   UNL A   1      38.698  30.941  29.345  1.00  0.00     0.049 A 
ATOM     55  H   UNL A   1      40.670  30.476  29.835  1.00  0.00     0.167 HD
ATOM     56  C   UNL A   1      44.761  29.289  30.906  1.00  0.00     0.031 A 
ATOM     57  C   UNL A   1      38.466  32.195  29.779  1.00  0.00     0.031 A 
ATOM     58  C   UNL A   1      44.630  30.654  31.340  1.00  0.00     0.049 A 
ATOM     59  C   UNL A   1      39.580  32.948  30.449  1.00  0.00     0.074 A 
ATOM     60  C   UNL A   1      45.580  31.463  31.940  1.00  0.00     0.029 A 
ATOM     61  N   UNL A   1      43.477  31.414  31.216  1.00  0.00    -0.354 N 
ATOM     62  N   UNL A   1      40.801  32.546  30.719  1.00  0.00    -0.248 NA
ATOM     63  C   UNL A   1      39.294  34.330  30.857  1.00  0.00     0.031 C 
ATOM     64  C   UNL A   1      44.988  32.701  32.212  1.00  0.00     0.029 A 
ATOM     65  C   UNL A   1      43.686  32.680  31.734  1.00  0.00     0.049 A 
ATOM     66  H   UNL A   1      42.633  31.101  30.818  1.00  0.00     0.167 HD
ATOM     67  C   UNL A   1      41.439  33.639  31.294  1.00  0.00     0.074 A 
ATOM     68  C   UNL A   1      40.472  34.719  31.327  1.00  0.00     0.031 C 
ATOM     69  C   UNL A   1      42.712  33.742  31.749  1.00  0.00     0.031 A 
BRANCH  56  70
ATOM     70  C   UNL A   1      46.056  28.566  31.167  1.00  0.00    -0.014 A 
ATOM     71  C   UNL A   1      47.097  28.578  30.221  1.00  0.00     0.010 A 
ATOM     72  C   UNL A   1      46.240  27.876  32.377  1.00  0.00     0.010 A 
ATOM     73  C   UNL A   1      48.278  27.869  30.457  1.00  0.00     0.020 A 
ATOM     74  C   UNL A   1      47.431  27.189  32.631  1.00  0.00     0.020 A 
ATOM     75  C   UNL A   1      48.433  27.173  31.659  1.00  0.00     0.054 A 
BRANCH  75  76
ATOM     76  S   UNL A   1      49.976  26.262  31.944  1.00  0.00     0.124 S 
ATOM     77  O   UNL A   1      49.664  25.514  33.159  1.00  0.00    -0.237 OA
ATOM     78  O   UNL A   1      50.103  25.459  30.730  1.00  0.00    -0.237 OA
ATOM     79  O   UNL A   1      50.977  27.315  32.098  1.00  0.00    -0.744 OA
ENDBRANCH  75  76
ENDBRANCH  56  70
BRANCH  57  80
ATOM     80  C   UNL A   1      37.138  32.828  29.554  1.00  0.00    -0.014 A 
ATOM     81  C   UNL A   1      36.184  32.861  30.585  1.00  0.00     0.010 A 
ATOM     82  C   UNL A   1      36.825  33.414  28.314  1.00  0.00     0.010 A 
ATOM     83  C   UNL A   1      34.933  33.449  30.376  1.00  0.00     0.020 A 
ATOM     84  C   UNL A   1      35.584  34.025  28.108  1.00  0.00     0.020 A 
ATOM     85  C   UNL A   1      34.640  34.027  29.138  1.00  0.00     0.054 A 
BRANCH  85  86
ATOM     86  S   UNL A   1      33.028  34.827  28.904  1.00  0.00     0.124 S 
ATOM     87  O   UNL A   1      33.410  36.124  28.356  1.00  0.00    -0.237 OA
ATOM     88  O   UNL A   1      32.357  33.919  27.976  1.00  0.00    -0.237 OA
ATOM     89  O   UNL A   1      32.463  34.855  30.251  1.00  0.00    -0.744 OA
ENDBRANCH  85  86
ENDBRANCH  57  80
BRANCH  69  90
ATOM     90  C   UNL A   1      43.150  35.084  32.271  1.00  0.00    -0.014 A 
ATOM     91  C   UNL A   1      43.845  35.996  31.458  1.00  0.00     0.010 A 
ATOM     92  C   UNL A   1      42.815  35.451  33.587  1.00  0.00     0.010 A 
ATOM     93  C   UNL A   1      44.229  37.239  31.965  1.00  0.00     0.020 A 
ATOM     94  C   UNL A   1      43.174  36.704  34.089  1.00  0.00     0.020 A 
ATOM     95  C   UNL A   1      43.893  37.584  33.279  1.00  0.00     0.054 A 
BRANCH  95  96
ATOM     96  S   UNL A   1      44.370  39.217  33.905  1.00  0.00     0.124 S 
ATOM     97  O   UNL A   1      43.087  39.914  33.947  1.00  0.00    -0.237 OA
ATOM     98  O   UNL A   1      44.960  38.906  35.205  1.00  0.00    -0.237 OA
ATOM     99  O   UNL A   1      45.315  39.709  32.904  1.00  0.00    -0.744 OA
ENDBRANCH  95  96
ENDBRANCH  69  90
ENDBRANCH  43  44
ENDBRANCH  35  38
ENDBRANCH  33  34
ENDBRANCH   1  33
TORSDOF 17
ENDMDL
MODEL 2
REMARK VINA RESULT:     -12.3      4.221     10.162
REMARK SMILES C[C@@H](C(=O)NCCCNC(=O)c1ccc(-c2c3nc(c(-c4ccc(S(=O)(=O)[O-])cc4)c4ccc([nH]4)c(-c4ccc(S(=O)(=O)[O-])cc4)c4nc(c(-c5ccc(S(=O)(=O)[O-])cc5)c5ccc2[nH]5)C=C4)C=C3)cc1)[N@@H+]1CCc2n[nH]c(C(c3ccccc3)c3ccccc3)c2C1
REMARK SMILES IDX 7 1 6 2 5 3 3 4 4 5 2 7 1 8 72 9 73 10 93 11 74 13 92 14
REMARK SMILES IDX 75 15 78 16 76 17 77 18 79 20 80 21 81 22 85 23 82 24 84 25
REMARK SMILES IDX 83 26 86 27 87 28 91 29 88 30 90 31 89 32 8 33 9 34 10 35
REMARK SMILES IDX 11 37 12 38 13 39 71 40 14 41 70 42 15 43 16 44 17 45 64 46
REMARK SMILES IDX 18 47 69 48 63 49 65 50 19 51 68 52 62 53 61 54 20 56 50 57
REMARK SMILES IDX 31 58 49 59 32 60 35 61 48 62 66 63 33 64 34 65 47 67 67 68
REMARK SMILES IDX 36 69 21 70 22 71 30 72 23 73 29 74 24 75 25 76 26 77 27 78
REMARK SMILES IDX 28 79 51 80 52 81 60 82 53 83 59 84 54 85 55 86 56 87 57 88
REMARK SMILES IDX 58 89 37 90 38 91 46 92 39 93 45 94 40 95 41 96 42 97 43 98
REMARK SMILES IDX 44 99
REMARK H PARENT 5 6 72 12 77 19 9 36 65 55 35 66
REMARK Flexibility Score: inf
ROOT
ATOM      1  C   UNL A   1      34.918  29.806  27.530  1.00  0.00     0.042 C 
ENDROOT
BRANCH   1   2
ATOM      2  C   UNL A   1      33.494  30.062  27.063  1.00  0.00     0.118 C 
BRANCH   2   3
ATOM      3  N   UNL A   1      32.947  28.987  26.265  1.00  0.00    -0.351 N 
ATOM      4  C   UNL A   1      32.322  27.921  26.888  1.00  0.00     0.278 C 
ATOM      5  O   UNL A   1      31.783  28.023  27.988  1.00  0.00    -0.268 OA
ATOM      6  H   UNL A   1      33.018  29.014  25.284  1.00  0.00     0.163 HD
BRANCH   4   7
ATOM      7  C   UNL A   1      32.530  26.555  26.200  1.00  0.00     0.271 C 
ATOM      8  C   UNL A   1      33.933  26.588  25.572  1.00  0.00     0.086 C 
BRANCH   7   9
ATOM      9  N   UNL A   1      31.421  26.064  25.360  1.00  0.00    -0.321 N 
ATOM     10  C   UNL A   1      30.061  26.028  25.921  1.00  0.00     0.269 C 
ATOM     11  C   UNL A   1      31.694  25.024  24.357  1.00  0.00     0.303 C 
ATOM     12  H   UNL A   1      31.393  26.910  24.792  1.00  0.00     0.349 HD
ATOM     13  C   UNL A   1      29.536  24.656  26.405  1.00  0.00     0.120 C 
ATOM     14  C   UNL A   1      31.450  23.705  24.994  1.00  0.00     0.052 A 
ATOM     15  C   UNL A   1      30.428  23.553  25.965  1.00  0.00     0.077 A 
ATOM     16  C   UNL A   1      32.029  22.454  24.894  1.00  0.00     0.056 A 
ATOM     17  N   UNL A   1      30.393  22.334  26.493  1.00  0.00    -0.180 NA
ATOM     18  N   UNL A   1      31.333  21.677  25.802  1.00  0.00    -0.281 N 
ATOM     19  H   UNL A   1      31.515  20.718  25.930  1.00  0.00     0.190 HD
BRANCH  16  20
ATOM     20  C   UNL A   1      33.136  21.790  24.106  1.00  0.00     0.098 C 
BRANCH  20  21
ATOM     21  C   UNL A   1      34.495  22.401  24.455  1.00  0.00    -0.035 A 
ATOM     22  C   UNL A   1      35.436  22.642  23.440  1.00  0.00     0.005 A 
ATOM     23  C   UNL A   1      34.815  22.761  25.776  1.00  0.00     0.005 A 
ATOM     24  C   UNL A   1      36.668  23.218  23.743  1.00  0.00     0.000 A 
ATOM     25  C   UNL A   1      36.058  23.311  26.078  1.00  0.00     0.000 A 
ATOM     26  C   UNL A   1      36.983  23.541  25.062  1.00  0.00     0.000 A 
ENDBRANCH  20  21
BRANCH  20  27
ATOM     27  C   UNL A   1      33.141  20.266  23.975  1.00  0.00    -0.035 A 
ATOM     28  C   UNL A   1      34.007  19.413  24.673  1.00  0.00     0.005 A 
ATOM     29  C   UNL A   1      32.322  19.673  23.003  1.00  0.00     0.005 A 
ATOM     30  C   UNL A   1      34.086  18.048  24.362  1.00  0.00     0.000 A 
ATOM     31  C   UNL A   1      32.394  18.316  22.685  1.00  0.00     0.000 A 
ATOM     32  C   UNL A   1      33.292  17.503  23.357  1.00  0.00     0.000 A 
ENDBRANCH  20  27
ENDBRANCH  16  20
ENDBRANCH   7   9
ENDBRANCH   4   7
ENDBRANCH   2   3
ENDBRANCH   1   2
BRANCH   1  33
ATOM     33  C   UNL A   1      35.535  30.876  28.423  1.00  0.00     0.118 C 
BRANCH  33  34
ATOM     34  N   UNL A   1      35.539  30.565  29.845  1.00  0.00    -0.352 N 
ATOM     35  C   UNL A   1      36.569  30.314  30.718  1.00  0.00     0.251 C 
ATOM     36  H   UNL A   1      34.644  30.529  30.253  1.00  0.00     0.163 HD
ATOM     37  O   UNL A   1      36.330  30.133  31.903  1.00  0.00    -0.269 OA
BRANCH  35  38
ATOM     38  C   UNL A   1      37.950  30.191  30.217  1.00  0.00     0.039 A 
ATOM     39  C   UNL A   1      38.973  30.059  31.160  1.00  0.00     0.014 A 
ATOM     40  C   UNL A   1      38.233  30.153  28.853  1.00  0.00     0.014 A 
ATOM     41  C   UNL A   1      40.270  29.781  30.733  1.00  0.00     0.010 A 
ATOM     42  C   UNL A   1      39.511  29.801  28.430  1.00  0.00     0.010 A 
ATOM     43  C   UNL A   1      40.535  29.595  29.368  1.00  0.00    -0.014 A 
BRANCH  43  44
ATOM     44  C   UNL A   1      41.872  29.150  28.907  1.00  0.00     0.031 A 
ATOM     45  C   UNL A   1      43.002  30.134  28.814  1.00  0.00     0.074 A 
ATOM     46  C   UNL A   1      42.039  27.873  28.509  1.00  0.00     0.049 A 
ATOM     47  N   UNL A   1      44.223  29.946  28.383  1.00  0.00    -0.248 NA
ATOM     48  C   UNL A   1      42.716  31.516  29.231  1.00  0.00     0.031 C 
ATOM     49  C   UNL A   1      40.999  26.840  28.510  1.00  0.00     0.029 A 
ATOM     50  N   UNL A   1      43.145  27.226  28.019  1.00  0.00    -0.354 N 
ATOM     51  C   UNL A   1      44.842  31.188  28.454  1.00  0.00     0.074 A 
ATOM     52  C   UNL A   1      43.850  32.129  28.928  1.00  0.00     0.031 C 
ATOM     53  C   UNL A   1      41.525  25.684  28.074  1.00  0.00     0.029 A 
ATOM     54  C   UNL A   1      42.926  25.899  27.729  1.00  0.00     0.049 A 
ATOM     55  H   UNL A   1      44.014  27.669  27.888  1.00  0.00     0.167 HD
ATOM     56  C   UNL A   1      46.125  31.511  28.168  1.00  0.00     0.031 A 
ATOM     57  C   UNL A   1      43.762  24.962  27.243  1.00  0.00     0.031 A 
ATOM     58  C   UNL A   1      47.108  30.565  27.713  1.00  0.00     0.049 A 
ATOM     59  C   UNL A   1      45.188  25.339  26.958  1.00  0.00     0.074 A 
ATOM     60  C   UNL A   1      48.448  30.775  27.444  1.00  0.00     0.029 A 
ATOM     61  N   UNL A   1      46.855  29.223  27.465  1.00  0.00    -0.354 N 
ATOM     62  N   UNL A   1      45.773  26.507  27.089  1.00  0.00    -0.248 NA
ATOM     63  C   UNL A   1      46.073  24.269  26.480  1.00  0.00     0.031 C 
ATOM     64  C   UNL A   1      48.998  29.569  26.998  1.00  0.00     0.029 A 
ATOM     65  C   UNL A   1      48.012  28.595  27.039  1.00  0.00     0.049 A 
ATOM     66  H   UNL A   1      45.982  28.782  27.577  1.00  0.00     0.167 HD
ATOM     67  C   UNL A   1      47.104  26.303  26.744  1.00  0.00     0.074 A 
ATOM     68  C   UNL A   1      47.238  24.900  26.406  1.00  0.00     0.031 C 
ATOM     69  C   UNL A   1      48.125  27.195  26.716  1.00  0.00     0.031 A 
BRANCH  56  70
ATOM     70  C   UNL A   1      46.528  32.953  28.331  1.00  0.00    -0.014 A 
ATOM     71  C   UNL A   1      46.239  33.905  27.336  1.00  0.00     0.010 A 
ATOM     72  C   UNL A   1      47.194  33.364  29.499  1.00  0.00     0.010 A 
ATOM     73  C   UNL A   1      46.655  35.231  27.482  1.00  0.00     0.020 A 
ATOM     74  C   UNL A   1      47.586  34.696  29.662  1.00  0.00     0.020 A 
ATOM     75  C   UNL A   1      47.333  35.616  28.642  1.00  0.00     0.054 A 
BRANCH  75  76
ATOM     76  S   UNL A   1      47.861  37.343  28.809  1.00  0.00     0.124 S 
ATOM     77  O   UNL A   1      48.058  37.733  27.415  1.00  0.00    -0.237 OA
ATOM     78  O   UNL A   1      46.721  37.965  29.478  1.00  0.00    -0.237 OA
ATOM     79  O   UNL A   1      49.079  37.258  29.611  1.00  0.00    -0.744 OA
ENDBRANCH  75  76
ENDBRANCH  56  70
BRANCH  57  80
ATOM     80  C   UNL A   1      43.280  23.568  27.035  1.00  0.00    -0.014 A 
ATOM     81  C   UNL A   1      42.839  23.152  25.767  1.00  0.00     0.010 A 
ATOM     82  C   UNL A   1      43.273  22.648  28.098  1.00  0.00     0.010 A 
ATOM     83  C   UNL A   1      42.380  21.846  25.570  1.00  0.00     0.020 A 
ATOM     84  C   UNL A   1      42.838  21.333  27.899  1.00  0.00     0.020 A 
ATOM     85  C   UNL A   1      42.382  20.945  26.638  1.00  0.00     0.054 A 
BRANCH  85  86
ATOM     86  S   UNL A   1      41.827  19.242  26.348  1.00  0.00     0.124 S 
ATOM     87  O   UNL A   1      41.947  18.653  27.677  1.00  0.00    -0.237 OA
ATOM     88  O   UNL A   1      40.462  19.433  25.859  1.00  0.00    -0.237 OA
ATOM     89  O   UNL A   1      42.770  18.740  25.351  1.00  0.00    -0.744 OA
ENDBRANCH  85  86
ENDBRANCH  57  80
BRANCH  69  90
ATOM     90  C   UNL A   1      49.488  26.669  26.358  1.00  0.00    -0.014 A 
ATOM     91  C   UNL A   1      50.022  26.833  25.068  1.00  0.00     0.010 A 
ATOM     92  C   UNL A   1      50.263  26.040  27.349  1.00  0.00     0.010 A 
ATOM     93  C   UNL A   1      51.296  26.344  24.767  1.00  0.00     0.020 A 
ATOM     94  C   UNL A   1      51.548  25.574  27.059  1.00  0.00     0.020 A 
ATOM     95  C   UNL A   1      52.049  25.715  25.764  1.00  0.00     0.054 A 
BRANCH  95  96
ATOM     96  S   UNL A   1      53.713  25.121  25.359  1.00  0.00     0.124 S 
ATOM     97  O   UNL A   1      53.904  25.646  24.010  1.00  0.00    -0.237 OA
ATOM     98  O   UNL A   1      54.537  25.737  26.396  1.00  0.00    -0.237 OA
ATOM     99  O   UNL A   1      53.594  23.667  25.452  1.00  0.00    -0.744 OA
ENDBRANCH  95  96
ENDBRANCH  69  90
ENDBRANCH  43  44
ENDBRANCH  35  38
ENDBRANCH  33  34
ENDBRANCH   1  33
TORSDOF 17
ENDMDL
MODEL 3
REMARK VINA RESULT:     -12.3      0.813      2.237
REMARK SMILES C[C@@H](C(=O)NCCCNC(=O)c1ccc(-c2c3nc(c(-c4ccc(S(=O)(=O)[O-])cc4)c4ccc([nH]4)c(-c4ccc(S(=O)(=O)[O-])cc4)c4nc(c(-c5ccc(S(=O)(=O)[O-])cc5)c5ccc2[nH]5)C=C4)C=C3)cc1)[N@@H+]1CCc2n[nH]c(C(c3ccccc3)c3ccccc3)c2C1
REMARK SMILES IDX 7 1 6 2 5 3 3 4 4 5 2 7 1 8 72 9 73 10 93 11 74 13 92 14
REMARK SMILES IDX 75 15 78 16 76 17 77 18 79 20 80 21 81 22 85 23 82 24 84 25
REMARK SMILES IDX 83 26 86 27 87 28 91 29 88 30 90 31 89 32 8 33 9 34 10 35
REMARK SMILES IDX 11 37 12 38 13 39 71 40 14 41 70 42 15 43 16 44 17 45 64 46
REMARK SMILES IDX 18 47 69 48 63 49 65 50 19 51 68 52 62 53 61 54 20 56 50 57
REMARK SMILES IDX 31 58 49 59 32 60 35 61 48 62 66 63 33 64 34 65 47 67 67 68
REMARK SMILES IDX 36 69 21 70 22 71 30 72 23 73 29 74 24 75 25 76 26 77 27 78
REMARK SMILES IDX 28 79 51 80 52 81 60 82 53 83 59 84 54 85 55 86 56 87 57 88
REMARK SMILES IDX 58 89 37 90 38 91 46 92 39 93 45 94 40 95 41 96 42 97 43 98
REMARK SMILES IDX 44 99
REMARK H PARENT 5 6 72 12 77 19 9 36 65 55 35 66
REMARK Flexibility Score: inf
ROOT
ATOM      1  C   UNL A   1      36.130  23.555  25.901  1.00  0.00     0.042 C 
ENDROOT
BRANCH   1   2
ATOM      2  C   UNL A   1      35.413  22.241  26.160  1.00  0.00     0.118 C 
BRANCH   2   3
ATOM      3  N   UNL A   1      33.983  22.384  26.313  1.00  0.00    -0.351 N 
ATOM      4  C   UNL A   1      33.137  21.921  25.320  1.00  0.00     0.278 C 
ATOM      5  O   UNL A   1      33.448  21.004  24.563  1.00  0.00    -0.268 OA
ATOM      6  H   UNL A   1      33.611  22.808  27.120  1.00  0.00     0.163 HD
BRANCH   4   7
ATOM      7  C   UNL A   1      31.869  22.772  25.099  1.00  0.00     0.271 C 
ATOM      8  C   UNL A   1      30.789  22.203  26.036  1.00  0.00     0.086 C 
BRANCH   7   9
ATOM      9  N   UNL A   1      31.483  23.032  23.699  1.00  0.00    -0.321 N 
ATOM     10  C   UNL A   1      32.419  22.670  22.621  1.00  0.00     0.269 C 
ATOM     11  C   UNL A   1      30.625  24.188  23.399  1.00  0.00     0.303 C 
ATOM     12  H   UNL A   1      30.820  22.258  23.671  1.00  0.00     0.349 HD
ATOM     13  C   UNL A   1      33.250  23.817  21.998  1.00  0.00     0.120 C 
ATOM     14  C   UNL A   1      31.509  25.342  23.095  1.00  0.00     0.052 A 
ATOM     15  C   UNL A   1      32.750  25.144  22.437  1.00  0.00     0.077 A 
ATOM     16  C   UNL A   1      31.446  26.703  23.324  1.00  0.00     0.056 A 
ATOM     17  N   UNL A   1      33.453  26.264  22.312  1.00  0.00    -0.180 NA
ATOM     18  N   UNL A   1      32.631  27.196  22.811  1.00  0.00    -0.281 N 
ATOM     19  H   UNL A   1      32.853  28.156  22.812  1.00  0.00     0.190 HD
BRANCH  16  20
ATOM     20  C   UNL A   1      30.484  27.692  23.944  1.00  0.00     0.098 C 
BRANCH  20  21
ATOM     21  C   UNL A   1      31.135  28.422  25.121  1.00  0.00    -0.035 A 
ATOM     22  C   UNL A   1      31.552  27.698  26.250  1.00  0.00     0.005 A 
ATOM     23  C   UNL A   1      31.359  29.810  25.084  1.00  0.00     0.005 A 
ATOM     24  C   UNL A   1      32.166  28.349  27.318  1.00  0.00     0.000 A 
ATOM     25  C   UNL A   1      31.947  30.461  26.166  1.00  0.00     0.000 A 
ATOM     26  C   UNL A   1      32.353  29.730  27.281  1.00  0.00     0.000 A 
ENDBRANCH  20  21
BRANCH  20  27
ATOM     27  C   UNL A   1      29.649  28.588  23.026  1.00  0.00    -0.035 A 
ATOM     28  C   UNL A   1      30.186  29.511  22.117  1.00  0.00     0.005 A 
ATOM     29  C   UNL A   1      28.255  28.593  23.179  1.00  0.00     0.005 A 
ATOM     30  C   UNL A   1      29.365  30.431  21.450  1.00  0.00     0.000 A 
ATOM     31  C   UNL A   1      27.429  29.505  22.520  1.00  0.00     0.000 A 
ATOM     32  C   UNL A   1      27.989  30.438  21.663  1.00  0.00     0.000 A 
ENDBRANCH  20  27
ENDBRANCH  16  20
ENDBRANCH   7   9
ENDBRANCH   4   7
ENDBRANCH   2   3
ENDBRANCH   1   2
BRANCH   1  33
ATOM     33  C   UNL A   1      37.328  23.494  24.961  1.00  0.00     0.118 C 
BRANCH  33  34
ATOM     34  N   UNL A   1      38.435  22.671  25.427  1.00  0.00    -0.352 N 
ATOM     35  C   UNL A   1      39.445  22.927  26.322  1.00  0.00     0.251 C 
ATOM     36  H   UNL A   1      38.465  21.772  25.028  1.00  0.00     0.163 HD
ATOM     37  O   UNL A   1      40.243  22.046  26.606  1.00  0.00    -0.269 OA
BRANCH  35  38
ATOM     38  C   UNL A   1      39.610  24.280  26.884  1.00  0.00     0.039 A 
ATOM     39  C   UNL A   1      39.080  24.524  28.154  1.00  0.00     0.014 A 
ATOM     40  C   UNL A   1      40.313  25.274  26.205  1.00  0.00     0.014 A 
ATOM     41  C   UNL A   1      39.348  25.735  28.789  1.00  0.00     0.010 A 
ATOM     42  C   UNL A   1      40.644  26.451  26.870  1.00  0.00     0.010 A 
ATOM     43  C   UNL A   1      40.179  26.683  28.174  1.00  0.00    -0.014 A 
BRANCH  43  44
ATOM     44  C   UNL A   1      40.600  27.907  28.895  1.00  0.00     0.031 A 
ATOM     45  C   UNL A   1      41.955  27.975  29.538  1.00  0.00     0.074 A 
ATOM     46  C   UNL A   1      39.728  28.927  29.025  1.00  0.00     0.049 A 
ATOM     47  N   UNL A   1      42.479  28.935  30.255  1.00  0.00    -0.248 NA
ATOM     48  C   UNL A   1      42.824  26.797  29.379  1.00  0.00     0.031 C 
ATOM     49  C   UNL A   1      38.366  28.953  28.483  1.00  0.00     0.029 A 
ATOM     50  N   UNL A   1      39.854  30.137  29.659  1.00  0.00    -0.354 N 
ATOM     51  C   UNL A   1      43.726  28.470  30.652  1.00  0.00     0.074 A 
ATOM     52  C   UNL A   1      43.862  27.126  30.134  1.00  0.00     0.031 C 
ATOM     53  C   UNL A   1      37.795  30.133  28.781  1.00  0.00     0.029 A 
ATOM     54  C   UNL A   1      38.733  30.931  29.562  1.00  0.00     0.049 A 
ATOM     55  H   UNL A   1      40.669  30.412  30.136  1.00  0.00     0.167 HD
ATOM     56  C   UNL A   1      44.679  29.111  31.369  1.00  0.00     0.031 A 
ATOM     57  C   UNL A   1      38.493  32.163  30.048  1.00  0.00     0.031 A 
ATOM     58  C   UNL A   1      44.541  30.453  31.866  1.00  0.00     0.049 A 
ATOM     59  C   UNL A   1      39.576  32.865  30.818  1.00  0.00     0.074 A 
ATOM     60  C   UNL A   1      45.464  31.216  32.558  1.00  0.00     0.029 A 
ATOM     61  N   UNL A   1      43.405  31.236  31.718  1.00  0.00    -0.354 N 
ATOM     62  N   UNL A   1      40.774  32.432  31.133  1.00  0.00    -0.248 NA
ATOM     63  C   UNL A   1      39.283  34.228  31.280  1.00  0.00     0.031 C 
ATOM     64  C   UNL A   1      44.873  32.448  32.862  1.00  0.00     0.029 A 
ATOM     65  C   UNL A   1      43.600  32.471  32.312  1.00  0.00     0.049 A 
ATOM     66  H   UNL A   1      42.581  30.956  31.257  1.00  0.00     0.167 HD
ATOM     67  C   UNL A   1      41.392  33.484  31.799  1.00  0.00     0.074 A 
ATOM     68  C   UNL A   1      40.438  34.575  31.835  1.00  0.00     0.031 C 
ATOM     69  C   UNL A   1      42.639  33.545  32.328  1.00  0.00     0.031 A 
BRANCH  56  70
ATOM     70  C   UNL A   1      45.948  28.356  31.663  1.00  0.00    -0.014 A 
ATOM     71  C   UNL A   1      47.054  28.430  30.796  1.00  0.00     0.010 A 
ATOM     72  C   UNL A   1      46.043  27.573  32.826  1.00  0.00     0.010 A 
ATOM     73  C   UNL A   1      48.212  27.693  31.059  1.00  0.00     0.020 A 
ATOM     74  C   UNL A   1      47.209  26.856  33.108  1.00  0.00     0.020 A 
ATOM     75  C   UNL A   1      48.278  26.904  32.211  1.00  0.00     0.054 A 
BRANCH  75  76
ATOM     76  S   UNL A   1      49.792  25.958  32.532  1.00  0.00     0.124 S 
ATOM     77  O   UNL A   1      50.429  25.956  31.217  1.00  0.00    -0.237 OA
ATOM     78  O   UNL A   1      50.463  26.760  33.551  1.00  0.00    -0.237 OA
ATOM     79  O   UNL A   1      49.300  24.660  32.989  1.00  0.00    -0.744 OA
ENDBRANCH  75  76
ENDBRANCH  56  70
BRANCH  57  80
ATOM     80  C   UNL A   1      37.186  32.827  29.783  1.00  0.00    -0.014 A 
ATOM     81  C   UNL A   1      36.108  32.650  30.668  1.00  0.00     0.010 A 
ATOM     82  C   UNL A   1      37.017  33.650  28.655  1.00  0.00     0.010 A 
ATOM     83  C   UNL A   1      34.878  33.266  30.419  1.00  0.00     0.020 A 
ATOM     84  C   UNL A   1      35.796  34.288  28.416  1.00  0.00     0.020 A 
ATOM     85  C   UNL A   1      34.730  34.082  29.294  1.00  0.00     0.054 A 
BRANCH  85  86
ATOM     86  S   UNL A   1      33.139  34.909  29.016  1.00  0.00     0.124 S 
ATOM     87  O   UNL A   1      33.560  36.228  28.553  1.00  0.00    -0.237 OA
ATOM     88  O   UNL A   1      32.509  34.055  28.011  1.00  0.00    -0.237 OA
ATOM     89  O   UNL A   1      32.504  34.879  30.332  1.00  0.00    -0.744 OA
ENDBRANCH  85  86
ENDBRANCH  57  80
BRANCH  69  90
ATOM     90  C   UNL A   1      43.063  34.851  32.943  1.00  0.00    -0.014 A 
ATOM     91  C   UNL A   1      42.830  35.133  34.299  1.00  0.00     0.010 A 
ATOM     92  C   UNL A   1      43.748  35.791  32.152  1.00  0.00     0.010 A 
ATOM     93  C   UNL A   1      43.244  36.350  34.847  1.00  0.00     0.020 A 
ATOM     94  C   UNL A   1      44.188  36.998  32.702  1.00  0.00     0.020 A 
ATOM     95  C   UNL A   1      43.918  37.276  34.043  1.00  0.00     0.054 A 
BRANCH  95  96
ATOM     96  S   UNL A   1      44.479  38.833  34.784  1.00  0.00     0.124 S 
ATOM     97  O   UNL A   1      43.497  39.784  34.270  1.00  0.00    -0.237 OA
ATOM     98  O   UNL A   1      44.397  38.557  36.216  1.00  0.00    -0.237 OA
ATOM     99  O   UNL A   1      45.835  38.994  34.265  1.00  0.00    -0.744 OA
ENDBRANCH  95  96
ENDBRANCH  69  90
ENDBRANCH  43  44
ENDBRANCH  35  38
ENDBRANCH  33  34
ENDBRANCH   1  33
TORSDOF 17
ENDMDL
