MODEL 1
REMARK VINA RESULT:     -12.7      0.000      0.000
REMARK SMILES O=C(NCCCNC(=O)[C@H]1CC=CC[C@@H]1C(=O)Nc1ccccc1C(=O)NCc1ccco1)c1ccc(-c2c3nc(c(-c4ccc(S(=O)(=O)[O-])cc4)c4ccc([nH]4)c(-c4ccc(S(=O)(=O)[O-])cc4)c4nc(c(-c5ccc(S(=O)(=O)[O-])cc5)c5ccc2[nH]5)C=C4)C=C3)cc1
REMARK SMILES IDX 6 1 5 2 4 3 3 4 1 5 2 6 34 8 35 9 93 10 36 11 92 12 37 13
REMARK SMILES IDX 38 14 39 15 86 16 40 17 91 18 85 19 87 20 41 21 90 22 84 23
REMARK SMILES IDX 83 24 42 26 72 27 53 28 71 29 54 30 57 31 70 32 88 33 55 34
REMARK SMILES IDX 56 35 69 37 89 38 58 39 43 40 44 41 52 42 45 43 51 44 46 45
REMARK SMILES IDX 47 46 48 47 49 48 50 49 73 50 74 51 82 52 75 53 81 54 76 55
REMARK SMILES IDX 77 56 78 57 79 58 80 59 59 60 60 61 68 62 61 63 67 64 62 65
REMARK SMILES IDX 63 66 64 67 65 68 66 69 7 70 8 71 9 73 10 74 11 75 15 76
REMARK SMILES IDX 12 77 14 78 13 79 16 80 17 81 18 82 19 84 20 85 24 86 21 87
REMARK SMILES IDX 23 88 22 89 25 90 26 91 27 92 28 94 29 95 30 96 33 97 31 98
REMARK SMILES IDX 32 99
REMARK H PARENT 3 7 87 25 57 36 7 72 18 83 27 93
REMARK Flexibility Score: inf
ROOT
ATOM      1  C   UNL A   1      37.736  22.131  25.615  1.00  0.00     0.117 C 
ENDROOT
BRANCH   1   2
ATOM      2  C   UNL A   1      38.871  22.615  26.506  1.00  0.00     0.042 C 
BRANCH   2   3
ATOM      3  C   UNL A   1      39.031  24.132  26.549  1.00  0.00     0.118 C 
BRANCH   3   4
ATOM      4  N   UNL A   1      40.171  24.600  25.775  1.00  0.00    -0.352 N 
ATOM      5  O   UNL A   1      41.732  26.052  25.060  1.00  0.00    -0.269 OA
ATOM      6  C   UNL A   1      40.931  25.733  25.931  1.00  0.00     0.251 C 
ATOM      7  H   UNL A   1      40.437  24.017  25.027  1.00  0.00     0.163 HD
BRANCH   6   8
ATOM      8  C   UNL A   1      40.766  26.573  27.136  1.00  0.00     0.039 A 
ATOM      9  C   UNL A   1      41.395  27.817  27.239  1.00  0.00     0.014 A 
ATOM     10  C   UNL A   1      39.943  26.114  28.168  1.00  0.00     0.014 A 
ATOM     11  C   UNL A   1      41.310  28.542  28.424  1.00  0.00     0.010 A 
ATOM     12  C   UNL A   1      39.795  26.881  29.323  1.00  0.00     0.010 A 
ATOM     13  C   UNL A   1      40.498  28.088  29.473  1.00  0.00    -0.014 A 
BRANCH  13  14
ATOM     14  C   UNL A   1      40.338  28.897  30.706  1.00  0.00     0.031 A 
ATOM     15  C   UNL A   1      39.298  29.977  30.785  1.00  0.00     0.074 A 
ATOM     16  C   UNL A   1      41.173  28.685  31.741  1.00  0.00     0.049 A 
ATOM     17  N   UNL A   1      39.084  30.848  31.736  1.00  0.00    -0.248 NA
ATOM     18  C   UNL A   1      38.383  30.100  29.639  1.00  0.00     0.031 C 
ATOM     19  C   UNL A   1      42.220  27.661  31.785  1.00  0.00     0.029 A 
ATOM     20  N   UNL A   1      41.287  29.329  32.947  1.00  0.00    -0.354 N 
ATOM     21  C   UNL A   1      38.035  31.644  31.295  1.00  0.00     0.074 A 
ATOM     22  C   UNL A   1      37.669  31.164  29.979  1.00  0.00     0.031 C 
ATOM     23  C   UNL A   1      42.866  27.744  32.956  1.00  0.00     0.029 A 
ATOM     24  C   UNL A   1      42.329  28.868  33.716  1.00  0.00     0.049 A 
ATOM     25  H   UNL A   1      40.682  30.051  33.234  1.00  0.00     0.167 HD
ATOM     26  C   UNL A   1      37.434  32.683  31.928  1.00  0.00     0.031 A 
ATOM     27  C   UNL A   1      42.831  29.320  34.880  1.00  0.00     0.031 A 
ATOM     28  C   UNL A   1      37.824  33.163  33.229  1.00  0.00     0.049 A 
ATOM     29  C   UNL A   1      42.189  30.504  35.543  1.00  0.00     0.074 A 
ATOM     30  C   UNL A   1      37.260  34.185  33.972  1.00  0.00     0.029 A 
ATOM     31  N   UNL A   1      38.887  32.668  33.972  1.00  0.00    -0.354 N 
ATOM     32  N   UNL A   1      41.171  31.222  35.131  1.00  0.00    -0.248 NA
ATOM     33  C   UNL A   1      42.752  30.935  36.828  1.00  0.00     0.031 C 
ATOM     34  C   UNL A   1      38.024  34.354  35.131  1.00  0.00     0.029 A 
ATOM     35  C   UNL A   1      39.015  33.385  35.150  1.00  0.00     0.049 A 
ATOM     36  H   UNL A   1      39.464  31.918  33.701  1.00  0.00     0.167 HD
ATOM     37  C   UNL A   1      40.952  32.171  36.122  1.00  0.00     0.074 A 
ATOM     38  C   UNL A   1      41.943  31.936  37.152  1.00  0.00     0.031 C 
ATOM     39  C   UNL A   1      40.004  33.139  36.173  1.00  0.00     0.031 A 
BRANCH  26  40
ATOM     40  C   UNL A   1      36.331  33.401  31.192  1.00  0.00    -0.014 A 
ATOM     41  C   UNL A   1      36.497  33.848  29.867  1.00  0.00     0.010 A 
ATOM     42  C   UNL A   1      35.104  33.635  31.839  1.00  0.00     0.010 A 
ATOM     43  C   UNL A   1      35.486  34.575  29.233  1.00  0.00     0.020 A 
ATOM     44  C   UNL A   1      34.077  34.331  31.196  1.00  0.00     0.020 A 
ATOM     45  C   UNL A   1      34.286  34.824  29.907  1.00  0.00     0.054 A 
BRANCH  45  46
ATOM     46  S   UNL A   1      33.007  35.805  29.075  1.00  0.00     0.124 S 
ATOM     47  O   UNL A   1      32.195  36.255  30.202  1.00  0.00    -0.237 OA
ATOM     48  O   UNL A   1      33.784  36.845  28.407  1.00  0.00    -0.237 OA
ATOM     49  O   UNL A   1      32.358  34.846  28.184  1.00  0.00    -0.744 OA
ENDBRANCH  45  46
ENDBRANCH  26  40
BRANCH  27  50
ATOM     50  C   UNL A   1      44.020  28.642  35.462  1.00  0.00    -0.014 A 
ATOM     51  C   UNL A   1      45.316  29.109  35.188  1.00  0.00     0.010 A 
ATOM     52  C   UNL A   1      43.851  27.581  36.373  1.00  0.00     0.010 A 
ATOM     53  C   UNL A   1      46.421  28.533  35.823  1.00  0.00     0.020 A 
ATOM     54  C   UNL A   1      44.950  27.023  37.030  1.00  0.00     0.020 A 
ATOM     55  C   UNL A   1      46.230  27.503  36.750  1.00  0.00     0.054 A 
BRANCH  55  56
ATOM     56  S   UNL A   1      47.670  26.845  37.634  1.00  0.00     0.124 S 
ATOM     57  O   UNL A   1      48.070  27.985  38.454  1.00  0.00    -0.237 OA
ATOM     58  O   UNL A   1      47.100  25.712  38.360  1.00  0.00    -0.237 OA
ATOM     59  O   UNL A   1      48.597  26.487  36.563  1.00  0.00    -0.744 OA
ENDBRANCH  55  56
ENDBRANCH  27  50
BRANCH  39  60
ATOM     60  C   UNL A   1      39.941  33.998  37.409  1.00  0.00    -0.014 A 
ATOM     61  C   UNL A   1      40.679  35.189  37.516  1.00  0.00     0.010 A 
ATOM     62  C   UNL A   1      39.036  33.658  38.431  1.00  0.00     0.010 A 
ATOM     63  C   UNL A   1      40.511  36.024  38.626  1.00  0.00     0.020 A 
ATOM     64  C   UNL A   1      38.845  34.502  39.527  1.00  0.00     0.020 A 
ATOM     65  C   UNL A   1      39.586  35.681  39.618  1.00  0.00     0.054 A 
BRANCH  65  66
ATOM     66  S   UNL A   1      39.313  36.830  40.994  1.00  0.00     0.124 S 
ATOM     67  O   UNL A   1      38.568  37.908  40.348  1.00  0.00    -0.237 OA
ATOM     68  O   UNL A   1      38.550  36.019  41.940  1.00  0.00    -0.237 OA
ATOM     69  O   UNL A   1      40.663  37.181  41.429  1.00  0.00    -0.744 OA
ENDBRANCH  65  66
ENDBRANCH  39  60
ENDBRANCH  13  14
ENDBRANCH   6   8
ENDBRANCH   3   4
ENDBRANCH   2   3
ENDBRANCH   1   2
BRANCH   1  70
ATOM     70  N   UNL A   1      36.545  21.826  26.385  1.00  0.00    -0.356 N 
ATOM     71  C   UNL A   1      35.242  22.128  26.143  1.00  0.00     0.224 C 
ATOM     72  H   UNL A   1      36.706  21.322  27.215  1.00  0.00     0.163 HD
ATOM     73  O   UNL A   1      34.432  21.844  27.025  1.00  0.00    -0.275 OA
BRANCH  71  74
ATOM     74  C   UNL A   1      34.847  22.801  24.834  1.00  0.00     0.095 C 
ATOM     75  C   UNL A   1      34.038  21.842  23.935  1.00  0.00     0.041 C 
ATOM     76  C   UNL A   1      34.088  24.115  25.126  1.00  0.00     0.095 C 
ATOM     77  C   UNL A   1      32.550  21.910  24.118  1.00  0.00    -0.030 C 
ATOM     78  C   UNL A   1      32.669  23.864  25.666  1.00  0.00     0.041 C 
ATOM     79  C   UNL A   1      31.936  22.797  24.911  1.00  0.00    -0.030 C 
BRANCH  76  80
ATOM     80  C   UNL A   1      33.993  24.974  23.871  1.00  0.00     0.228 C 
ATOM     81  O   UNL A   1      34.448  24.619  22.781  1.00  0.00    -0.274 OA
ATOM     82  N   UNL A   1      33.328  26.163  23.897  1.00  0.00    -0.325 N 
ATOM     83  H   UNL A   1      33.097  26.516  23.007  1.00  0.00     0.169 HD
BRANCH  82  84
ATOM     84  C   UNL A   1      32.910  26.974  24.964  1.00  0.00     0.054 A 
ATOM     85  C   UNL A   1      33.999  27.472  25.713  1.00  0.00     0.027 A 
ATOM     86  C   UNL A   1      31.596  27.342  25.318  1.00  0.00     0.063 A 
ATOM     87  C   UNL A   1      33.828  28.458  26.681  1.00  0.00     0.002 A 
ATOM     88  C   UNL A   1      31.461  28.375  26.279  1.00  0.00     0.016 A 
ATOM     89  C   UNL A   1      32.558  28.941  26.934  1.00  0.00     0.001 A 
BRANCH  86  90
ATOM     90  C   UNL A   1      30.263  26.750  24.917  1.00  0.00     0.253 C 
ATOM     91  O   UNL A   1      29.745  25.925  25.675  1.00  0.00    -0.269 OA
ATOM     92  N   UNL A   1      29.606  26.965  23.725  1.00  0.00    -0.345 N 
ATOM     93  H   UNL A   1      28.922  26.292  23.501  1.00  0.00     0.164 HD
BRANCH  92  94
ATOM     94  C   UNL A   1      29.762  28.016  22.759  1.00  0.00     0.191 C 
BRANCH  94  95
ATOM     95  C   UNL A   1      29.003  29.258  22.996  1.00  0.00     0.122 A 
ATOM     96  C   UNL A   1      27.697  29.682  22.900  1.00  0.00     0.047 A 
ATOM     97  O   UNL A   1      29.763  30.240  23.571  1.00  0.00    -0.467 OA
ATOM     98  C   UNL A   1      27.664  30.991  23.454  1.00  0.00     0.042 A 
ATOM     99  C   UNL A   1      28.947  31.278  23.852  1.00  0.00     0.195 A 
ENDBRANCH  94  95
ENDBRANCH  92  94
ENDBRANCH  86  90
ENDBRANCH  82  84
ENDBRANCH  76  80
ENDBRANCH  71  74
ENDBRANCH   1  70
TORSDOF 18
ENDMDL
MODEL 2
REMARK VINA RESULT:     -12.7      6.156     11.491
REMARK SMILES O=C(NCCCNC(=O)[C@H]1CC=CC[C@@H]1C(=O)Nc1ccccc1C(=O)NCc1ccco1)c1ccc(-c2c3nc(c(-c4ccc(S(=O)(=O)[O-])cc4)c4ccc([nH]4)c(-c4ccc(S(=O)(=O)[O-])cc4)c4nc(c(-c5ccc(S(=O)(=O)[O-])cc5)c5ccc2[nH]5)C=C4)C=C3)cc1
REMARK SMILES IDX 6 1 5 2 4 3 3 4 1 5 2 6 34 8 35 9 93 10 36 11 92 12 37 13
REMARK SMILES IDX 38 14 39 15 86 16 40 17 91 18 85 19 87 20 41 21 90 22 84 23
REMARK SMILES IDX 83 24 42 26 72 27 53 28 71 29 54 30 57 31 70 32 88 33 55 34
REMARK SMILES IDX 56 35 69 37 89 38 58 39 43 40 44 41 52 42 45 43 51 44 46 45
REMARK SMILES IDX 47 46 48 47 49 48 50 49 73 50 74 51 82 52 75 53 81 54 76 55
REMARK SMILES IDX 77 56 78 57 79 58 80 59 59 60 60 61 68 62 61 63 67 64 62 65
REMARK SMILES IDX 63 66 64 67 65 68 66 69 7 70 8 71 9 73 10 74 11 75 15 76
REMARK SMILES IDX 12 77 14 78 13 79 16 80 17 81 18 82 19 84 20 85 24 86 21 87
REMARK SMILES IDX 23 88 22 89 25 90 26 91 27 92 28 94 29 95 30 96 33 97 31 98
REMARK SMILES IDX 32 99
REMARK H PARENT 3 7 87 25 57 36 7 72 18 83 27 93
REMARK Flexibility Score: inf
ROOT
ATOM      1  C   UNL A   1      34.131  29.483  26.645  1.00  0.00     0.117 C 
ENDROOT
BRANCH   1   2
ATOM      2  C   UNL A   1      34.219  30.805  27.395  1.00  0.00     0.042 C 
BRANCH   2   3
ATOM      3  C   UNL A   1      35.561  31.048  28.079  1.00  0.00     0.118 C 
BRANCH   3   4
ATOM      4  N   UNL A   1      35.446  31.134  29.527  1.00  0.00    -0.352 N 
ATOM      5  O   UNL A   1      35.955  30.698  31.674  1.00  0.00    -0.269 OA
ATOM      6  C   UNL A   1      36.316  30.711  30.502  1.00  0.00     0.251 C 
ATOM      7  H   UNL A   1      34.621  31.559  29.857  1.00  0.00     0.163 HD
BRANCH   6   8
ATOM      8  C   UNL A   1      37.672  30.253  30.134  1.00  0.00     0.039 A 
ATOM      9  C   UNL A   1      38.593  29.868  31.113  1.00  0.00     0.014 A 
ATOM     10  C   UNL A   1      38.015  30.186  28.782  1.00  0.00     0.014 A 
ATOM     11  C   UNL A   1      39.896  29.541  30.750  1.00  0.00     0.010 A 
ATOM     12  C   UNL A   1      39.298  29.781  28.415  1.00  0.00     0.010 A 
ATOM     13  C   UNL A   1      40.258  29.482  29.397  1.00  0.00    -0.014 A 
BRANCH  13  14
ATOM     14  C   UNL A   1      41.622  29.054  29.000  1.00  0.00     0.031 A 
ATOM     15  C   UNL A   1      42.744  30.049  28.917  1.00  0.00     0.074 A 
ATOM     16  C   UNL A   1      41.833  27.767  28.663  1.00  0.00     0.049 A 
ATOM     17  N   UNL A   1      43.968  29.878  28.489  1.00  0.00    -0.248 NA
ATOM     18  C   UNL A   1      42.448  31.420  29.363  1.00  0.00     0.031 C 
ATOM     19  C   UNL A   1      40.823  26.707  28.710  1.00  0.00     0.029 A 
ATOM     20  N   UNL A   1      42.959  27.135  28.200  1.00  0.00    -0.354 N 
ATOM     21  C   UNL A   1      44.581  31.121  28.583  1.00  0.00     0.074 A 
ATOM     22  C   UNL A   1      43.585  32.042  29.090  1.00  0.00     0.031 C 
ATOM     23  C   UNL A   1      41.375  25.557  28.296  1.00  0.00     0.029 A 
ATOM     24  C   UNL A   1      42.752  25.812  27.889  1.00  0.00     0.049 A 
ATOM     25  H   UNL A   1      43.829  27.584  28.100  1.00  0.00     0.167 HD
ATOM     26  C   UNL A   1      45.857  31.462  28.273  1.00  0.00     0.031 A 
ATOM     27  C   UNL A   1      43.560  24.910  27.300  1.00  0.00     0.031 A 
ATOM     28  C   UNL A   1      46.830  30.538  27.749  1.00  0.00     0.049 A 
ATOM     29  C   UNL A   1      44.952  25.318  26.913  1.00  0.00     0.074 A 
ATOM     30  C   UNL A   1      48.156  30.774  27.434  1.00  0.00     0.029 A 
ATOM     31  N   UNL A   1      46.578  29.207  27.447  1.00  0.00    -0.354 N 
ATOM     32  N   UNL A   1      45.530  26.487  27.045  1.00  0.00    -0.248 NA
ATOM     33  C   UNL A   1      45.804  24.287  26.307  1.00  0.00     0.031 C 
ATOM     34  C   UNL A   1      48.686  29.607  26.875  1.00  0.00     0.029 A 
ATOM     35  C   UNL A   1      47.714  28.618  26.918  1.00  0.00     0.049 A 
ATOM     36  H   UNL A   1      45.717  28.749  27.587  1.00  0.00     0.167 HD
ATOM     37  C   UNL A   1      46.825  26.326  26.568  1.00  0.00     0.074 A 
ATOM     38  C   UNL A   1      46.944  24.946  26.143  1.00  0.00     0.031 C 
ATOM     39  C   UNL A   1      47.825  27.240  26.502  1.00  0.00     0.031 A 
BRANCH  26  40
ATOM     40  C   UNL A   1      46.249  32.909  28.439  1.00  0.00    -0.014 A 
ATOM     41  C   UNL A   1      46.789  33.393  29.645  1.00  0.00     0.010 A 
ATOM     42  C   UNL A   1      46.072  33.802  27.366  1.00  0.00     0.010 A 
ATOM     43  C   UNL A   1      47.075  34.753  29.797  1.00  0.00     0.020 A 
ATOM     44  C   UNL A   1      46.390  35.156  27.502  1.00  0.00     0.020 A 
ATOM     45  C   UNL A   1      46.862  35.629  28.727  1.00  0.00     0.054 A 
BRANCH  45  46
ATOM     46  S   UNL A   1      47.204  37.394  28.966  1.00  0.00     0.124 S 
ATOM     47  O   UNL A   1      46.178  37.769  29.934  1.00  0.00    -0.237 OA
ATOM     48  O   UNL A   1      48.574  37.390  29.473  1.00  0.00    -0.237 OA
ATOM     49  O   UNL A   1      47.038  37.964  27.631  1.00  0.00    -0.744 OA
ENDBRANCH  45  46
ENDBRANCH  26  40
BRANCH  27  50
ATOM     50  C   UNL A   1      43.039  23.543  27.035  1.00  0.00    -0.014 A 
ATOM     51  C   UNL A   1      42.659  23.160  25.738  1.00  0.00     0.010 A 
ATOM     52  C   UNL A   1      43.012  22.586  28.068  1.00  0.00     0.010 A 
ATOM     53  C   UNL A   1      42.271  21.843  25.477  1.00  0.00     0.020 A 
ATOM     54  C   UNL A   1      42.652  21.262  27.805  1.00  0.00     0.020 A 
ATOM     55  C   UNL A   1      42.283  20.899  26.509  1.00  0.00     0.054 A 
BRANCH  55  56
ATOM     56  S   UNL A   1      41.875  19.175  26.121  1.00  0.00     0.124 S 
ATOM     57  O   UNL A   1      42.793  18.883  25.025  1.00  0.00    -0.237 OA
ATOM     58  O   UNL A   1      42.158  18.495  27.383  1.00  0.00    -0.237 OA
ATOM     59  O   UNL A   1      40.460  19.230  25.756  1.00  0.00    -0.744 OA
ENDBRANCH  55  56
ENDBRANCH  27  50
BRANCH  39  60
ATOM     60  C   UNL A   1      49.169  26.779  26.002  1.00  0.00    -0.014 A 
ATOM     61  C   UNL A   1      49.594  27.039  24.688  1.00  0.00     0.010 A 
ATOM     62  C   UNL A   1      50.062  26.175  26.906  1.00  0.00     0.010 A 
ATOM     63  C   UNL A   1      50.892  26.702  24.289  1.00  0.00     0.020 A 
ATOM     64  C   UNL A   1      51.367  25.861  26.519  1.00  0.00     0.020 A 
ATOM     65  C   UNL A   1      51.773  26.126  25.210  1.00  0.00     0.054 A 
BRANCH  65  66
ATOM     66  S   UNL A   1      53.481  25.792  24.697  1.00  0.00     0.124 S 
ATOM     67  O   UNL A   1      53.430  26.076  23.265  1.00  0.00    -0.237 OA
ATOM     68  O   UNL A   1      54.246  26.743  25.500  1.00  0.00    -0.237 OA
ATOM     69  O   UNL A   1      53.681  24.387  25.046  1.00  0.00    -0.744 OA
ENDBRANCH  65  66
ENDBRANCH  39  60
ENDBRANCH  13  14
ENDBRANCH   6   8
ENDBRANCH   3   4
ENDBRANCH   2   3
ENDBRANCH   1   2
BRANCH   1  70
ATOM     70  N   UNL A   1      33.548  29.653  25.328  1.00  0.00    -0.356 N 
ATOM     71  C   UNL A   1      32.666  28.872  24.650  1.00  0.00     0.224 C 
ATOM     72  H   UNL A   1      33.837  30.463  24.848  1.00  0.00     0.163 HD
ATOM     73  O   UNL A   1      32.416  29.194  23.489  1.00  0.00    -0.275 OA
BRANCH  71  74
ATOM     74  C   UNL A   1      32.050  27.655  25.329  1.00  0.00     0.095 C 
ATOM     75  C   UNL A   1      30.596  27.432  24.863  1.00  0.00     0.041 C 
ATOM     76  C   UNL A   1      32.940  26.413  25.092  1.00  0.00     0.095 C 
ATOM     77  C   UNL A   1      30.444  26.524  23.678  1.00  0.00    -0.030 C 
ATOM     78  C   UNL A   1      32.862  25.904  23.642  1.00  0.00     0.041 C 
ATOM     79  C   UNL A   1      31.460  25.859  23.114  1.00  0.00    -0.030 C 
BRANCH  76  80
ATOM     80  C   UNL A   1      32.550  25.282  26.035  1.00  0.00     0.228 C 
ATOM     81  O   UNL A   1      31.640  25.384  26.861  1.00  0.00    -0.274 OA
ATOM     82  N   UNL A   1      33.163  24.068  25.947  1.00  0.00    -0.325 N 
ATOM     83  H   UNL A   1      32.683  23.339  26.402  1.00  0.00     0.169 HD
BRANCH  82  84
ATOM     84  C   UNL A   1      34.357  23.670  25.324  1.00  0.00     0.054 A 
ATOM     85  C   UNL A   1      35.498  24.162  25.994  1.00  0.00     0.027 A 
ATOM     86  C   UNL A   1      34.516  22.853  24.186  1.00  0.00     0.063 A 
ATOM     87  C   UNL A   1      36.778  23.720  25.672  1.00  0.00     0.002 A 
ATOM     88  C   UNL A   1      35.827  22.392  23.912  1.00  0.00     0.016 A 
ATOM     89  C   UNL A   1      36.938  22.798  24.654  1.00  0.00     0.001 A 
BRANCH  86  90
ATOM     90  C   UNL A   1      33.526  22.445  23.117  1.00  0.00     0.253 C 
ATOM     91  O   UNL A   1      33.608  22.993  22.013  1.00  0.00    -0.269 OA
ATOM     92  N   UNL A   1      32.462  21.586  23.281  1.00  0.00    -0.345 N 
ATOM     93  H   UNL A   1      31.759  21.659  22.595  1.00  0.00     0.164 HD
BRANCH  92  94
ATOM     94  C   UNL A   1      32.217  20.601  24.297  1.00  0.00     0.191 C 
BRANCH  94  95
ATOM     95  C   UNL A   1      32.835  19.277  24.104  1.00  0.00     0.122 A 
ATOM     96  C   UNL A   1      32.523  18.094  23.471  1.00  0.00     0.047 A 
ATOM     97  O   UNL A   1      34.115  19.215  24.585  1.00  0.00    -0.467 OA
ATOM     98  C   UNL A   1      33.681  17.275  23.568  1.00  0.00     0.042 A 
ATOM     99  C   UNL A   1      34.621  18.009  24.250  1.00  0.00     0.195 A 
ENDBRANCH  94  95
ENDBRANCH  92  94
ENDBRANCH  86  90
ENDBRANCH  82  84
ENDBRANCH  76  80
ENDBRANCH  71  74
ENDBRANCH   1  70
TORSDOF 18
ENDMDL
MODEL 3
REMARK VINA RESULT:     -12.4      0.812      7.937
REMARK SMILES O=C(NCCCNC(=O)[C@H]1CC=CC[C@@H]1C(=O)Nc1ccccc1C(=O)NCc1ccco1)c1ccc(-c2c3nc(c(-c4ccc(S(=O)(=O)[O-])cc4)c4ccc([nH]4)c(-c4ccc(S(=O)(=O)[O-])cc4)c4nc(c(-c5ccc(S(=O)(=O)[O-])cc5)c5ccc2[nH]5)C=C4)C=C3)cc1
REMARK SMILES IDX 6 1 5 2 4 3 3 4 1 5 2 6 34 8 35 9 93 10 36 11 92 12 37 13
REMARK SMILES IDX 38 14 39 15 86 16 40 17 91 18 85 19 87 20 41 21 90 22 84 23
REMARK SMILES IDX 83 24 42 26 72 27 53 28 71 29 54 30 57 31 70 32 88 33 55 34
REMARK SMILES IDX 56 35 69 37 89 38 58 39 43 40 44 41 52 42 45 43 51 44 46 45
REMARK SMILES IDX 47 46 48 47 49 48 50 49 73 50 74 51 82 52 75 53 81 54 76 55
REMARK SMILES IDX 77 56 78 57 79 58 80 59 59 60 60 61 68 62 61 63 67 64 62 65
REMARK SMILES IDX 63 66 64 67 65 68 66 69 7 70 8 71 9 73 10 74 11 75 15 76
REMARK SMILES IDX 12 77 14 78 13 79 16 80 17 81 18 82 19 84 20 85 24 86 21 87
REMARK SMILES IDX 23 88 22 89 25 90 26 91 27 92 28 94 29 95 30 96 33 97 31 98
REMARK SMILES IDX 32 99
REMARK H PARENT 3 7 87 25 57 36 7 72 18 83 27 93
REMARK Flexibility Score: inf
ROOT
ATOM      1  C   UNL A   1      37.581  22.613  25.589  1.00  0.00     0.117 C 
ENDROOT
BRANCH   1   2
ATOM      2  C   UNL A   1      38.891  22.189  26.239  1.00  0.00     0.042 C 
BRANCH   2   3
ATOM      3  C   UNL A   1      39.678  23.336  26.867  1.00  0.00     0.118 C 
BRANCH   3   4
ATOM      4  N   UNL A   1      40.887  23.660  26.126  1.00  0.00    -0.352 N 
ATOM      5  O   UNL A   1      42.582  24.942  25.389  1.00  0.00    -0.269 OA
ATOM      6  C   UNL A   1      41.716  24.750  26.235  1.00  0.00     0.251 C 
ATOM      7  H   UNL A   1      41.151  23.000  25.445  1.00  0.00     0.163 HD
BRANCH   6   8
ATOM      8  C   UNL A   1      41.546  25.699  27.356  1.00  0.00     0.039 A 
ATOM      9  C   UNL A   1      40.474  25.579  28.245  1.00  0.00     0.014 A 
ATOM     10  C   UNL A   1      42.494  26.708  27.532  1.00  0.00     0.014 A 
ATOM     11  C   UNL A   1      40.276  26.544  29.228  1.00  0.00     0.010 A 
ATOM     12  C   UNL A   1      42.338  27.628  28.569  1.00  0.00     0.010 A 
ATOM     13  C   UNL A   1      41.213  27.570  29.409  1.00  0.00    -0.014 A 
BRANCH  13  14
ATOM     14  C   UNL A   1      41.051  28.554  30.508  1.00  0.00     0.031 A 
ATOM     15  C   UNL A   1      41.875  28.448  31.759  1.00  0.00     0.074 A 
ATOM     16  C   UNL A   1      40.117  29.517  30.392  1.00  0.00     0.049 A 
ATOM     17  N   UNL A   1      41.796  29.150  32.860  1.00  0.00    -0.248 NA
ATOM     18  C   UNL A   1      42.917  27.409  31.780  1.00  0.00     0.031 C 
ATOM     19  C   UNL A   1      39.260  29.725  29.223  1.00  0.00     0.029 A 
ATOM     20  N   UNL A   1      39.719  30.490  31.273  1.00  0.00    -0.354 N 
ATOM     21  C   UNL A   1      42.754  28.622  33.717  1.00  0.00     0.074 A 
ATOM     22  C   UNL A   1      43.386  27.525  33.013  1.00  0.00     0.031 C 
ATOM     23  C   UNL A   1      38.441  30.760  29.457  1.00  0.00     0.029 A 
ATOM     24  C   UNL A   1      38.665  31.244  30.815  1.00  0.00     0.049 A 
ATOM     25  H   UNL A   1      40.146  30.635  32.148  1.00  0.00     0.167 HD
ATOM     26  C   UNL A   1      43.073  29.014  34.975  1.00  0.00     0.031 A 
ATOM     27  C   UNL A   1      37.927  32.188  31.427  1.00  0.00     0.031 A 
ATOM     28  C   UNL A   1      42.419  30.093  35.670  1.00  0.00     0.049 A 
ATOM     29  C   UNL A   1      38.258  32.574  32.840  1.00  0.00     0.074 A 
ATOM     30  C   UNL A   1      42.688  30.591  36.932  1.00  0.00     0.029 A 
ATOM     31  N   UNL A   1      41.354  30.829  35.169  1.00  0.00    -0.354 N 
ATOM     32  N   UNL A   1      39.193  32.092  33.623  1.00  0.00    -0.248 NA
ATOM     33  C   UNL A   1      37.445  33.634  33.449  1.00  0.00     0.031 C 
ATOM     34  C   UNL A   1      41.743  31.579  37.222  1.00  0.00     0.029 A 
ATOM     35  C   UNL A   1      40.934  31.754  36.109  1.00  0.00     0.049 A 
ATOM     36  H   UNL A   1      40.955  30.710  34.276  1.00  0.00     0.167 HD
ATOM     37  C   UNL A   1      39.102  32.811  34.808  1.00  0.00     0.074 A 
ATOM     38  C   UNL A   1      38.020  33.761  34.638  1.00  0.00     0.031 C 
ATOM     39  C   UNL A   1      39.858  32.700  35.928  1.00  0.00     0.031 A 
BRANCH  26  40
ATOM     40  C   UNL A   1      44.139  28.229  35.698  1.00  0.00    -0.014 A 
ATOM     41  C   UNL A   1      45.496  28.596  35.634  1.00  0.00     0.010 A 
ATOM     42  C   UNL A   1      43.775  27.101  36.456  1.00  0.00     0.010 A 
ATOM     43  C   UNL A   1      46.472  27.809  36.253  1.00  0.00     0.020 A 
ATOM     44  C   UNL A   1      44.743  26.332  37.106  1.00  0.00     0.020 A 
ATOM     45  C   UNL A   1      46.090  26.674  36.975  1.00  0.00     0.054 A 
BRANCH  45  46
ATOM     46  S   UNL A   1      47.381  25.650  37.733  1.00  0.00     0.124 S 
ATOM     47  O   UNL A   1      47.036  24.320  37.238  1.00  0.00    -0.237 OA
ATOM     48  O   UNL A   1      48.608  26.224  37.189  1.00  0.00    -0.237 OA
ATOM     49  O   UNL A   1      47.185  25.849  39.168  1.00  0.00    -0.744 OA
ENDBRANCH  45  46
ENDBRANCH  26  40
BRANCH  27  50
ATOM     50  C   UNL A   1      36.793  32.806  30.689  1.00  0.00    -0.014 A 
ATOM     51  C   UNL A   1      35.470  32.410  30.947  1.00  0.00     0.010 A 
ATOM     52  C   UNL A   1      37.030  33.864  29.790  1.00  0.00     0.010 A 
ATOM     53  C   UNL A   1      34.404  33.069  30.327  1.00  0.00     0.020 A 
ATOM     54  C   UNL A   1      35.966  34.542  29.191  1.00  0.00     0.020 A 
ATOM     55  C   UNL A   1      34.658  34.139  29.462  1.00  0.00     0.054 A 
BRANCH  55  56
ATOM     56  S   UNL A   1      33.254  35.041  28.753  1.00  0.00     0.124 S 
ATOM     57  O   UNL A   1      32.636  34.025  27.907  1.00  0.00    -0.237 OA
ATOM     58  O   UNL A   1      32.495  35.422  29.942  1.00  0.00    -0.237 OA
ATOM     59  O   UNL A   1      33.883  36.152  28.042  1.00  0.00    -0.744 OA
ENDBRANCH  55  56
ENDBRANCH  27  50
BRANCH  39  60
ATOM     60  C   UNL A   1      39.592  33.663  37.056  1.00  0.00    -0.014 A 
ATOM     61  C   UNL A   1      38.695  33.353  38.092  1.00  0.00     0.010 A 
ATOM     62  C   UNL A   1      40.345  34.849  37.132  1.00  0.00     0.010 A 
ATOM     63  C   UNL A   1      38.557  34.215  39.185  1.00  0.00     0.020 A 
ATOM     64  C   UNL A   1      40.231  35.698  38.235  1.00  0.00     0.020 A 
ATOM     65  C   UNL A   1      39.335  35.376  39.255  1.00  0.00     0.054 A 
BRANCH  65  66
ATOM     66  S   UNL A   1      39.212  36.424  40.730  1.00  0.00     0.124 S 
ATOM     67  O   UNL A   1      38.541  35.539  41.678  1.00  0.00    -0.237 OA
ATOM     68  O   UNL A   1      40.611  36.720  41.028  1.00  0.00    -0.237 OA
ATOM     69  O   UNL A   1      38.421  37.568  40.280  1.00  0.00    -0.744 OA
ENDBRANCH  65  66
ENDBRANCH  39  60
ENDBRANCH  13  14
ENDBRANCH   6   8
ENDBRANCH   3   4
ENDBRANCH   2   3
ENDBRANCH   1   2
BRANCH   1  70
ATOM     70  N   UNL A   1      36.438  22.015  26.253  1.00  0.00    -0.356 N 
ATOM     71  C   UNL A   1      35.120  22.037  25.922  1.00  0.00     0.224 C 
ATOM     72  H   UNL A   1      36.650  21.513  27.073  1.00  0.00     0.163 HD
ATOM     73  O   UNL A   1      34.336  21.536  26.727  1.00  0.00    -0.275 OA
BRANCH  71  74
ATOM     74  C   UNL A   1      34.674  22.677  24.613  1.00  0.00     0.095 C 
ATOM     75  C   UNL A   1      33.712  21.752  23.838  1.00  0.00     0.041 C 
ATOM     76  C   UNL A   1      34.059  24.068  24.889  1.00  0.00     0.095 C 
ATOM     77  C   UNL A   1      32.257  21.964  24.136  1.00  0.00    -0.030 C 
ATOM     78  C   UNL A   1      32.675  23.974  25.556  1.00  0.00     0.041 C 
ATOM     79  C   UNL A   1      31.791  22.942  24.924  1.00  0.00    -0.030 C 
BRANCH  76  80
ATOM     80  C   UNL A   1      33.933  24.868  23.599  1.00  0.00     0.228 C 
ATOM     81  O   UNL A   1      34.358  24.461  22.515  1.00  0.00    -0.274 OA
ATOM     82  N   UNL A   1      33.270  26.059  23.587  1.00  0.00    -0.325 N 
ATOM     83  H   UNL A   1      33.016  26.371  22.689  1.00  0.00     0.169 HD
BRANCH  82  84
ATOM     84  C   UNL A   1      32.883  26.920  24.627  1.00  0.00     0.054 A 
ATOM     85  C   UNL A   1      33.963  27.254  25.473  1.00  0.00     0.027 A 
ATOM     86  C   UNL A   1      31.610  27.473  24.873  1.00  0.00     0.063 A 
ATOM     87  C   UNL A   1      33.853  28.252  26.436  1.00  0.00     0.002 A 
ATOM     88  C   UNL A   1      31.542  28.513  25.833  1.00  0.00     0.016 A 
ATOM     89  C   UNL A   1      32.648  28.913  26.588  1.00  0.00     0.001 A 
BRANCH  86  90
ATOM     90  C   UNL A   1      30.245  27.081  24.351  1.00  0.00     0.253 C 
ATOM     91  O   UNL A   1      29.628  26.197  24.953  1.00  0.00    -0.269 OA
ATOM     92  N   UNL A   1      29.654  27.544  23.196  1.00  0.00    -0.345 N 
ATOM     93  H   UNL A   1      28.923  26.983  22.850  1.00  0.00     0.164 HD
BRANCH  92  94
ATOM     94  C   UNL A   1      29.938  28.718  22.418  1.00  0.00     0.191 C 
BRANCH  94  95
ATOM     95  C   UNL A   1      29.015  29.857  22.568  1.00  0.00     0.122 A 
ATOM     96  C   UNL A   1      28.111  30.313  23.502  1.00  0.00     0.047 A 
ATOM     97  O   UNL A   1      29.153  30.785  21.572  1.00  0.00    -0.467 OA
ATOM     98  C   UNL A   1      27.684  31.591  23.048  1.00  0.00     0.042 A 
ATOM     99  C   UNL A   1      28.355  31.831  21.873  1.00  0.00     0.195 A 
ENDBRANCH  94  95
ENDBRANCH  92  94
ENDBRANCH  86  90
ENDBRANCH  82  84
ENDBRANCH  76  80
ENDBRANCH  71  74
ENDBRANCH   1  70
TORSDOF 18
ENDMDL
