MODEL 1
REMARK VINA RESULT:      -9.7      0.000      0.000
REMARK SMILES CCN(CC(C)C)C(=O)N[C@](C)(CC)C(=O)NCCCNC(=O)c1ccc(-c2c3nc(c(-c4ccc(S(=O)(=O)[O-])cc4)c4ccc([nH]4)c(-c4ccc(S(=O)(=O)[O-])cc4)c4nc(c(-c5ccc(S(=O)(=O)[O-])cc5)c5ccc2[nH]5)C=C4)C=C3)cc1
REMARK SMILES IDX 18 1 17 2 15 3 16 4 11 6 12 7 10 8 8 9 9 10 3 12 2 13 1 14
REMARK SMILES IDX 4 15 5 16 6 17 7 18 13 19 14 20 19 21 20 22 21 23 22 24
REMARK SMILES IDX 23 26 24 27 25 28 83 29 26 30 82 31 27 32 28 33 29 34 76 35
REMARK SMILES IDX 30 36 81 37 75 38 77 39 31 40 80 41 74 42 73 43 32 45 62 46
REMARK SMILES IDX 43 47 61 48 44 49 47 50 60 51 78 52 45 53 46 54 59 56 79 57
REMARK SMILES IDX 48 58 33 59 34 60 42 61 35 62 41 63 36 64 37 65 38 66 39 67
REMARK SMILES IDX 40 68 63 69 64 70 72 71 65 72 71 73 66 74 67 75 68 76 69 77
REMARK SMILES IDX 70 78 49 79 50 80 58 81 51 82 57 83 52 84 53 85 54 86 55 87
REMARK SMILES IDX 56 88
REMARK H PARENT 17 5 10 11 21 25 77 44 47 55
REMARK Flexibility Score: inf
ROOT
ATOM      1  C   UNL A   1      36.851  21.528  24.900  1.00  0.00     0.117 C 
ENDROOT
BRANCH   1   2
ATOM      2  N   UNL A   1      36.039  21.570  26.106  1.00  0.00    -0.354 N 
ATOM      3  C   UNL A   1      34.692  21.504  26.313  1.00  0.00     0.245 C 
ATOM      4  O   UNL A   1      34.324  21.733  27.471  1.00  0.00    -0.272 OA
ATOM      5  H   UNL A   1      36.563  21.664  26.935  1.00  0.00     0.163 HD
BRANCH   3   6
ATOM      6  C   UNL A   1      33.660  21.377  25.154  1.00  0.00     0.117 C 
ATOM      7  C   UNL A   1      34.068  22.200  23.910  1.00  0.00     0.045 C 
BRANCH   6   8
ATOM      8  N   UNL A   1      32.253  21.687  25.580  1.00  0.00    -0.324 N 
ATOM      9  C   UNL A   1      31.342  22.656  25.737  1.00  0.00     0.318 C 
ATOM     10  O   UNL A   1      30.247  22.224  26.127  1.00  0.00    -0.249 OA
ATOM     11  H   UNL A   1      31.832  20.839  25.850  1.00  0.00     0.166 HD
BRANCH   9  12
ATOM     12  N   UNL A   1      31.523  23.992  25.540  1.00  0.00    -0.325 N 
BRANCH  12  13
ATOM     13  C   UNL A   1      30.987  24.562  24.292  1.00  0.00     0.118 C 
ATOM     14  C   UNL A   1      29.890  25.591  24.529  1.00  0.00     0.027 C 
ENDBRANCH  12  13
BRANCH  12  15
ATOM     15  C   UNL A   1      32.170  24.961  26.413  1.00  0.00     0.124 C 
BRANCH  15  16
ATOM     16  C   UNL A   1      33.160  25.930  25.727  1.00  0.00     0.002 C 
ATOM     17  C   UNL A   1      33.247  27.307  26.385  1.00  0.00     0.009 C 
ATOM     18  C   UNL A   1      34.535  25.263  25.583  1.00  0.00     0.009 C 
ENDBRANCH  15  16
ENDBRANCH  12  15
ENDBRANCH   9  12
ENDBRANCH   6   8
BRANCH   6  19
ATOM     19  C   UNL A   1      33.681  19.866  24.709  1.00  0.00     0.035 C 
ATOM     20  C   UNL A   1      32.907  18.893  25.601  1.00  0.00     0.007 C 
ENDBRANCH   6  19
ENDBRANCH   3   6
ENDBRANCH   1   2
BRANCH   1  21
ATOM     21  C   UNL A   1      37.937  20.458  25.001  1.00  0.00     0.042 C 
BRANCH  21  22
ATOM     22  C   UNL A   1      39.098  20.841  25.918  1.00  0.00     0.118 C 
BRANCH  22  23
ATOM     23  N   UNL A   1      40.137  19.824  25.969  1.00  0.00    -0.352 N 
ATOM     24  C   UNL A   1      41.492  19.982  26.128  1.00  0.00     0.251 C 
ATOM     25  H   UNL A   1      39.826  18.894  25.877  1.00  0.00     0.163 HD
ATOM     26  O   UNL A   1      42.239  19.011  25.990  1.00  0.00    -0.269 OA
BRANCH  24  27
ATOM     27  C   UNL A   1      42.061  21.313  26.436  1.00  0.00     0.039 A 
ATOM     28  C   UNL A   1      42.340  22.191  25.385  1.00  0.00     0.014 A 
ATOM     29  C   UNL A   1      42.336  21.693  27.753  1.00  0.00     0.014 A 
ATOM     30  C   UNL A   1      42.849  23.464  25.658  1.00  0.00     0.010 A 
ATOM     31  C   UNL A   1      42.773  22.989  28.028  1.00  0.00     0.010 A 
ATOM     32  C   UNL A   1      43.048  23.884  26.983  1.00  0.00    -0.014 A 
BRANCH  32  33
ATOM     33  C   UNL A   1      43.571  25.243  27.287  1.00  0.00     0.031 A 
ATOM     34  C   UNL A   1      45.019  25.573  27.034  1.00  0.00     0.074 A 
ATOM     35  C   UNL A   1      42.755  26.171  27.827  1.00  0.00     0.049 A 
ATOM     36  N   UNL A   1      45.661  26.693  27.247  1.00  0.00    -0.248 NA
ATOM     37  C   UNL A   1      45.865  24.492  26.498  1.00  0.00     0.031 C 
ATOM     38  C   UNL A   1      41.345  25.965  28.168  1.00  0.00     0.029 A 
ATOM     39  N   UNL A   1      42.994  27.475  28.184  1.00  0.00    -0.354 N 
ATOM     40  C   UNL A   1      46.983  26.448  26.889  1.00  0.00     0.074 A 
ATOM     41  C   UNL A   1      47.064  25.058  26.500  1.00  0.00     0.031 C 
ATOM     42  C   UNL A   1      40.837  27.111  28.652  1.00  0.00     0.029 A 
ATOM     43  C   UNL A   1      41.889  28.123  28.687  1.00  0.00     0.049 A 
ATOM     44  H   UNL A   1      43.874  27.907  28.090  1.00  0.00     0.167 HD
ATOM     45  C   UNL A   1      48.032  27.306  26.862  1.00  0.00     0.031 A 
ATOM     46  C   UNL A   1      41.737  29.389  29.120  1.00  0.00     0.031 A 
ATOM     47  C   UNL A   1      47.946  28.694  27.232  1.00  0.00     0.049 A 
ATOM     48  C   UNL A   1      42.909  30.331  29.058  1.00  0.00     0.074 A 
ATOM     49  C   UNL A   1      48.937  29.660  27.189  1.00  0.00     0.029 A 
ATOM     50  N   UNL A   1      46.802  29.316  27.709  1.00  0.00    -0.354 N 
ATOM     51  N   UNL A   1      44.135  30.096  28.655  1.00  0.00    -0.248 NA
ATOM     52  C   UNL A   1      42.669  31.716  29.487  1.00  0.00     0.031 C 
ATOM     53  C   UNL A   1      48.403  30.856  27.682  1.00  0.00     0.029 A 
ATOM     54  C   UNL A   1      47.064  30.649  27.976  1.00  0.00     0.049 A 
ATOM     55  H   UNL A   1      45.932  28.874  27.840  1.00  0.00     0.167 HD
ATOM     56  C   UNL A   1      44.803  31.312  28.751  1.00  0.00     0.074 A 
ATOM     57  C   UNL A   1      43.842  32.280  29.236  1.00  0.00     0.031 C 
ATOM     58  C   UNL A   1      46.097  31.601  28.458  1.00  0.00     0.031 A 
BRANCH  45  59
ATOM     59  C   UNL A   1      49.364  26.761  26.415  1.00  0.00    -0.014 A 
ATOM     60  C   UNL A   1      50.227  26.118  27.323  1.00  0.00     0.010 A 
ATOM     61  C   UNL A   1      49.750  26.867  25.066  1.00  0.00     0.010 A 
ATOM     62  C   UNL A   1      51.469  25.636  26.900  1.00  0.00     0.020 A 
ATOM     63  C   UNL A   1      50.978  26.358  24.634  1.00  0.00     0.020 A 
ATOM     64  C   UNL A   1      51.838  25.763  25.558  1.00  0.00     0.054 A 
BRANCH  64  65
ATOM     65  S   UNL A   1      53.449  25.115  25.035  1.00  0.00     0.124 S 
ATOM     66  O   UNL A   1      53.279  23.679  25.246  1.00  0.00    -0.237 OA
ATOM     67  O   UNL A   1      53.529  25.539  23.640  1.00  0.00    -0.237 OA
ATOM     68  O   UNL A   1      54.396  25.767  25.936  1.00  0.00    -0.744 OA
ENDBRANCH  64  65
ENDBRANCH  45  59
BRANCH  46  69
ATOM     69  C   UNL A   1      40.410  29.852  29.616  1.00  0.00    -0.014 A 
ATOM     70  C   UNL A   1      40.184  30.030  30.993  1.00  0.00     0.010 A 
ATOM     71  C   UNL A   1      39.368  30.128  28.713  1.00  0.00     0.010 A 
ATOM     72  C   UNL A   1      38.936  30.454  31.458  1.00  0.00     0.020 A 
ATOM     73  C   UNL A   1      38.127  30.580  29.172  1.00  0.00     0.020 A 
ATOM     74  C   UNL A   1      37.916  30.728  30.544  1.00  0.00     0.054 A 
BRANCH  74  75
ATOM     75  S   UNL A   1      36.320  31.327  31.166  1.00  0.00     0.124 S 
ATOM     76  O   UNL A   1      36.689  32.601  31.775  1.00  0.00    -0.237 OA
ATOM     77  O   UNL A   1      35.518  31.417  29.948  1.00  0.00    -0.237 OA
ATOM     78  O   UNL A   1      35.904  30.283  32.100  1.00  0.00    -0.744 OA
ENDBRANCH  74  75
ENDBRANCH  46  69
BRANCH  58  79
ATOM     79  C   UNL A   1      46.534  33.034  28.611  1.00  0.00    -0.014 A 
ATOM     80  C   UNL A   1      47.092  33.509  29.810  1.00  0.00     0.010 A 
ATOM     81  C   UNL A   1      46.412  33.911  27.517  1.00  0.00     0.010 A 
ATOM     82  C   UNL A   1      47.478  34.848  29.927  1.00  0.00     0.020 A 
ATOM     83  C   UNL A   1      46.824  35.241  27.621  1.00  0.00     0.020 A 
ATOM     84  C   UNL A   1      47.336  35.706  28.833  1.00  0.00     0.054 A 
BRANCH  84  85
ATOM     85  S   UNL A   1      47.859  37.434  29.003  1.00  0.00     0.124 S 
ATOM     86  O   UNL A   1      48.754  37.369  30.155  1.00  0.00    -0.237 OA
ATOM     87  O   UNL A   1      48.505  37.704  27.720  1.00  0.00    -0.237 OA
ATOM     88  O   UNL A   1      46.608  38.155  29.226  1.00  0.00    -0.744 OA
ENDBRANCH  84  85
ENDBRANCH  58  79
ENDBRANCH  32  33
ENDBRANCH  24  27
ENDBRANCH  22  23
ENDBRANCH  21  22
ENDBRANCH   1  21
TORSDOF 19
ENDMDL
MODEL 2
REMARK VINA RESULT:      -9.6      6.112      8.295
REMARK SMILES CCN(CC(C)C)C(=O)N[C@](C)(CC)C(=O)NCCCNC(=O)c1ccc(-c2c3nc(c(-c4ccc(S(=O)(=O)[O-])cc4)c4ccc([nH]4)c(-c4ccc(S(=O)(=O)[O-])cc4)c4nc(c(-c5ccc(S(=O)(=O)[O-])cc5)c5ccc2[nH]5)C=C4)C=C3)cc1
REMARK SMILES IDX 18 1 17 2 15 3 16 4 11 6 12 7 10 8 8 9 9 10 3 12 2 13 1 14
REMARK SMILES IDX 4 15 5 16 6 17 7 18 13 19 14 20 19 21 20 22 21 23 22 24
REMARK SMILES IDX 23 26 24 27 25 28 83 29 26 30 82 31 27 32 28 33 29 34 76 35
REMARK SMILES IDX 30 36 81 37 75 38 77 39 31 40 80 41 74 42 73 43 32 45 62 46
REMARK SMILES IDX 43 47 61 48 44 49 47 50 60 51 78 52 45 53 46 54 59 56 79 57
REMARK SMILES IDX 48 58 33 59 34 60 42 61 35 62 41 63 36 64 37 65 38 66 39 67
REMARK SMILES IDX 40 68 63 69 64 70 72 71 65 72 71 73 66 74 67 75 68 76 69 77
REMARK SMILES IDX 70 78 49 79 50 80 58 81 51 82 57 83 52 84 53 85 54 86 55 87
REMARK SMILES IDX 56 88
REMARK H PARENT 17 5 10 11 21 25 77 44 47 55
REMARK Flexibility Score: inf
ROOT
ATOM      1  C   UNL A   1      38.344  22.605  26.123  1.00  0.00     0.117 C 
ENDROOT
BRANCH   1   2
ATOM      2  N   UNL A   1      37.603  21.452  25.638  1.00  0.00    -0.354 N 
ATOM      3  C   UNL A   1      36.321  21.300  25.195  1.00  0.00     0.245 C 
ATOM      4  O   UNL A   1      35.962  20.133  25.005  1.00  0.00    -0.272 OA
ATOM      5  H   UNL A   1      38.126  20.618  25.627  1.00  0.00     0.163 HD
BRANCH   3   6
ATOM      6  C   UNL A   1      35.297  22.472  25.143  1.00  0.00     0.117 C 
ATOM      7  C   UNL A   1      35.185  23.218  26.493  1.00  0.00     0.045 C 
BRANCH   6   8
ATOM      8  N   UNL A   1      33.946  22.054  24.633  1.00  0.00    -0.324 N 
ATOM      9  C   UNL A   1      32.687  22.450  24.410  1.00  0.00     0.318 C 
ATOM     10  O   UNL A   1      31.993  21.565  23.888  1.00  0.00    -0.249 OA
ATOM     11  H   UNL A   1      34.016  21.113  24.350  1.00  0.00     0.166 HD
BRANCH   9  12
ATOM     12  N   UNL A   1      32.141  23.660  24.716  1.00  0.00    -0.325 N 
BRANCH  12  13
ATOM     13  C   UNL A   1      31.695  23.860  26.105  1.00  0.00     0.118 C 
ATOM     14  C   UNL A   1      30.523  22.966  26.490  1.00  0.00     0.027 C 
ENDBRANCH  12  13
BRANCH  12  15
ATOM     15  C   UNL A   1      31.946  24.815  23.852  1.00  0.00     0.124 C 
BRANCH  15  16
ATOM     16  C   UNL A   1      33.231  25.563  23.428  1.00  0.00     0.002 C 
ATOM     17  C   UNL A   1      33.200  26.101  21.997  1.00  0.00     0.009 C 
ATOM     18  C   UNL A   1      33.570  26.651  24.456  1.00  0.00     0.009 C 
ENDBRANCH  15  16
ENDBRANCH  12  15
ENDBRANCH   9  12
ENDBRANCH   6   8
BRANCH   6  19
ATOM     19  C   UNL A   1      35.872  23.514  24.110  1.00  0.00     0.035 C 
ATOM     20  C   UNL A   1      36.582  22.927  22.889  1.00  0.00     0.007 C 
ENDBRANCH   6  19
ENDBRANCH   3   6
ENDBRANCH   1   2
BRANCH   1  21
ATOM     21  C   UNL A   1      39.652  22.181  26.790  1.00  0.00     0.042 C 
BRANCH  21  22
ATOM     22  C   UNL A   1      40.525  23.352  27.238  1.00  0.00     0.118 C 
BRANCH  22  23
ATOM     23  N   UNL A   1      41.048  24.126  26.121  1.00  0.00    -0.352 N 
ATOM     24  C   UNL A   1      41.256  25.482  26.034  1.00  0.00     0.251 C 
ATOM     25  H   UNL A   1      41.284  23.608  25.318  1.00  0.00     0.163 HD
ATOM     26  O   UNL A   1      41.560  25.981  24.949  1.00  0.00    -0.269 OA
BRANCH  24  27
ATOM     27  C   UNL A   1      41.091  26.344  27.225  1.00  0.00     0.039 A 
ATOM     28  C   UNL A   1      41.975  27.411  27.417  1.00  0.00     0.014 A 
ATOM     29  C   UNL A   1      40.082  26.097  28.161  1.00  0.00     0.014 A 
ATOM     30  C   UNL A   1      41.816  28.255  28.520  1.00  0.00     0.010 A 
ATOM     31  C   UNL A   1      39.880  26.984  29.218  1.00  0.00     0.010 A 
ATOM     32  C   UNL A   1      40.753  28.064  29.418  1.00  0.00    -0.014 A 
BRANCH  32  33
ATOM     33  C   UNL A   1      40.563  28.968  30.584  1.00  0.00     0.031 A 
ATOM     34  C   UNL A   1      41.422  28.812  31.812  1.00  0.00     0.074 A 
ATOM     35  C   UNL A   1      39.591  29.903  30.558  1.00  0.00     0.049 A 
ATOM     36  N   UNL A   1      41.397  29.493  32.930  1.00  0.00    -0.248 NA
ATOM     37  C   UNL A   1      42.423  27.732  31.793  1.00  0.00     0.031 C 
ATOM     38  C   UNL A   1      38.658  30.124  29.451  1.00  0.00     0.029 A 
ATOM     39  N   UNL A   1      39.228  30.844  31.489  1.00  0.00    -0.354 N 
ATOM     40  C   UNL A   1      42.362  28.914  33.749  1.00  0.00     0.074 A 
ATOM     41  C   UNL A   1      42.913  27.793  33.023  1.00  0.00     0.031 C 
ATOM     42  C   UNL A   1      37.852  31.156  29.754  1.00  0.00     0.029 A 
ATOM     43  C   UNL A   1      38.189  31.650  31.085  1.00  0.00     0.049 A 
ATOM     44  H   UNL A   1      39.670  30.933  32.365  1.00  0.00     0.167 HD
ATOM     45  C   UNL A   1      42.770  29.294  34.984  1.00  0.00     0.031 A 
ATOM     46  C   UNL A   1      37.580  32.676  31.712  1.00  0.00     0.031 A 
ATOM     47  C   UNL A   1      42.232  30.422  35.699  1.00  0.00     0.049 A 
ATOM     48  C   UNL A   1      38.066  33.096  33.073  1.00  0.00     0.074 A 
ATOM     49  C   UNL A   1      42.614  30.923  36.932  1.00  0.00     0.029 A 
ATOM     50  N   UNL A   1      41.200  31.228  35.242  1.00  0.00    -0.354 N 
ATOM     51  N   UNL A   1      39.024  32.575  33.803  1.00  0.00    -0.248 NA
ATOM     52  C   UNL A   1      37.406  34.258  33.683  1.00  0.00     0.031 C 
ATOM     53  C   UNL A   1      41.782  32.006  37.239  1.00  0.00     0.029 A 
ATOM     54  C   UNL A   1      40.923  32.215  36.172  1.00  0.00     0.049 A 
ATOM     55  H   UNL A   1      40.733  31.115  34.382  1.00  0.00     0.167 HD
ATOM     56  C   UNL A   1      39.102  33.366  34.944  1.00  0.00     0.074 A 
ATOM     57  C   UNL A   1      38.105  34.407  34.799  1.00  0.00     0.031 C 
ATOM     58  C   UNL A   1      39.928  33.245  36.014  1.00  0.00     0.031 A 
BRANCH  45  59
ATOM     59  C   UNL A   1      43.853  28.478  35.640  1.00  0.00    -0.014 A 
ATOM     60  C   UNL A   1      43.557  27.581  36.684  1.00  0.00     0.010 A 
ATOM     61  C   UNL A   1      45.182  28.585  35.191  1.00  0.00     0.010 A 
ATOM     62  C   UNL A   1      44.574  26.845  37.297  1.00  0.00     0.020 A 
ATOM     63  C   UNL A   1      46.198  27.827  35.781  1.00  0.00     0.020 A 
ATOM     64  C   UNL A   1      45.890  26.976  36.844  1.00  0.00     0.054 A 
BRANCH  64  65
ATOM     65  S   UNL A   1      47.188  25.997  37.649  1.00  0.00     0.124 S 
ATOM     66  O   UNL A   1      46.479  24.759  37.964  1.00  0.00    -0.237 OA
ATOM     67  O   UNL A   1      48.204  25.891  36.605  1.00  0.00    -0.237 OA
ATOM     68  O   UNL A   1      47.568  26.807  38.804  1.00  0.00    -0.744 OA
ENDBRANCH  64  65
ENDBRANCH  45  59
BRANCH  46  69
ATOM     69  C   UNL A   1      36.466  33.402  31.041  1.00  0.00    -0.014 A 
ATOM     70  C   UNL A   1      35.263  33.654  31.724  1.00  0.00     0.010 A 
ATOM     71  C   UNL A   1      36.608  33.857  29.718  1.00  0.00     0.010 A 
ATOM     72  C   UNL A   1      34.214  34.327  31.090  1.00  0.00     0.020 A 
ATOM     73  C   UNL A   1      35.572  34.556  29.090  1.00  0.00     0.020 A 
ATOM     74  C   UNL A   1      34.376  34.775  29.777  1.00  0.00     0.054 A 
BRANCH  74  75
ATOM     75  S   UNL A   1      33.022  35.692  28.991  1.00  0.00     0.124 S 
ATOM     76  O   UNL A   1      33.741  36.715  28.241  1.00  0.00    -0.237 OA
ATOM     77  O   UNL A   1      32.365  34.662  28.189  1.00  0.00    -0.237 OA
ATOM     78  O   UNL A   1      32.238  36.179  30.124  1.00  0.00    -0.744 OA
ENDBRANCH  74  75
ENDBRANCH  46  69
BRANCH  58  79
ATOM     79  C   UNL A   1      39.821  34.292  37.091  1.00  0.00    -0.014 A 
ATOM     80  C   UNL A   1      38.945  34.141  38.179  1.00  0.00     0.010 A 
ATOM     81  C   UNL A   1      40.640  35.435  37.023  1.00  0.00     0.010 A 
ATOM     82  C   UNL A   1      38.857  35.135  39.158  1.00  0.00     0.020 A 
ATOM     83  C   UNL A   1      40.575  36.416  38.015  1.00  0.00     0.020 A 
ATOM     84  C   UNL A   1      39.670  36.270  39.066  1.00  0.00     0.054 A 
BRANCH  84  85
ATOM     85  S   UNL A   1      39.550  37.539  40.356  1.00  0.00     0.124 S 
ATOM     86  O   UNL A   1      38.808  36.840  41.401  1.00  0.00    -0.237 OA
ATOM     87  O   UNL A   1      40.951  37.820  40.662  1.00  0.00    -0.237 OA
ATOM     88  O   UNL A   1      38.831  38.630  39.703  1.00  0.00    -0.744 OA
ENDBRANCH  84  85
ENDBRANCH  58  79
ENDBRANCH  32  33
ENDBRANCH  24  27
ENDBRANCH  22  23
ENDBRANCH  21  22
ENDBRANCH   1  21
TORSDOF 19
ENDMDL
MODEL 3
REMARK VINA RESULT:      -9.6      6.381      8.363
REMARK SMILES CCN(CC(C)C)C(=O)N[C@](C)(CC)C(=O)NCCCNC(=O)c1ccc(-c2c3nc(c(-c4ccc(S(=O)(=O)[O-])cc4)c4ccc([nH]4)c(-c4ccc(S(=O)(=O)[O-])cc4)c4nc(c(-c5ccc(S(=O)(=O)[O-])cc5)c5ccc2[nH]5)C=C4)C=C3)cc1
REMARK SMILES IDX 18 1 17 2 15 3 16 4 11 6 12 7 10 8 8 9 9 10 3 12 2 13 1 14
REMARK SMILES IDX 4 15 5 16 6 17 7 18 13 19 14 20 19 21 20 22 21 23 22 24
REMARK SMILES IDX 23 26 24 27 25 28 83 29 26 30 82 31 27 32 28 33 29 34 76 35
REMARK SMILES IDX 30 36 81 37 75 38 77 39 31 40 80 41 74 42 73 43 32 45 62 46
REMARK SMILES IDX 43 47 61 48 44 49 47 50 60 51 78 52 45 53 46 54 59 56 79 57
REMARK SMILES IDX 48 58 33 59 34 60 42 61 35 62 41 63 36 64 37 65 38 66 39 67
REMARK SMILES IDX 40 68 63 69 64 70 72 71 65 72 71 73 66 74 67 75 68 76 69 77
REMARK SMILES IDX 70 78 49 79 50 80 58 81 51 82 57 83 52 84 53 85 54 86 55 87
REMARK SMILES IDX 56 88
REMARK H PARENT 17 5 10 11 21 25 77 44 47 55
REMARK Flexibility Score: inf
ROOT
ATOM      1  C   UNL A   1      36.647  22.852  25.671  1.00  0.00     0.117 C 
ENDROOT
BRANCH   1   2
ATOM      2  N   UNL A   1      35.673  22.464  26.680  1.00  0.00    -0.354 N 
ATOM      3  C   UNL A   1      34.582  21.645  26.640  1.00  0.00     0.245 C 
ATOM      4  O   UNL A   1      33.871  21.663  27.651  1.00  0.00    -0.272 OA
ATOM      5  H   UNL A   1      35.831  22.870  27.562  1.00  0.00     0.163 HD
BRANCH   3   6
ATOM      6  C   UNL A   1      34.119  20.910  25.348  1.00  0.00     0.117 C 
ATOM      7  C   UNL A   1      35.267  20.121  24.676  1.00  0.00     0.045 C 
BRANCH   6   8
ATOM      8  N   UNL A   1      33.429  21.817  24.367  1.00  0.00    -0.324 N 
ATOM      9  C   UNL A   1      33.073  23.080  24.104  1.00  0.00     0.318 C 
ATOM     10  O   UNL A   1      32.502  23.197  23.010  1.00  0.00    -0.249 OA
ATOM     11  H   UNL A   1      33.114  21.258  23.620  1.00  0.00     0.166 HD
BRANCH   9  12
ATOM     12  N   UNL A   1      33.255  24.168  24.905  1.00  0.00    -0.325 N 
BRANCH  12  13
ATOM     13  C   UNL A   1      34.153  25.222  24.404  1.00  0.00     0.118 C 
ATOM     14  C   UNL A   1      33.928  26.568  25.082  1.00  0.00     0.027 C 
ENDBRANCH  12  13
BRANCH  12  15
ATOM     15  C   UNL A   1      32.664  24.450  26.204  1.00  0.00     0.124 C 
BRANCH  15  16
ATOM     16  C   UNL A   1      31.119  24.424  26.261  1.00  0.00     0.002 C 
ATOM     17  C   UNL A   1      30.438  25.173  25.115  1.00  0.00     0.009 C 
ATOM     18  C   UNL A   1      30.620  22.979  26.394  1.00  0.00     0.009 C 
ENDBRANCH  15  16
ENDBRANCH  12  15
ENDBRANCH   9  12
ENDBRANCH   6   8
BRANCH   6  19
ATOM     19  C   UNL A   1      33.057  19.840  25.805  1.00  0.00     0.035 C 
ATOM     20  C   UNL A   1      33.000  18.555  24.978  1.00  0.00     0.007 C 
ENDBRANCH   6  19
ENDBRANCH   3   6
ENDBRANCH   1   2
BRANCH   1  21
ATOM     21  C   UNL A   1      37.430  24.090  26.107  1.00  0.00     0.042 C 
BRANCH  21  22
ATOM     22  C   UNL A   1      38.704  23.772  26.886  1.00  0.00     0.118 C 
BRANCH  22  23
ATOM     23  N   UNL A   1      39.915  24.069  26.135  1.00  0.00    -0.352 N 
ATOM     24  C   UNL A   1      40.768  25.139  26.262  1.00  0.00     0.251 C 
ATOM     25  H   UNL A   1      40.156  23.414  25.441  1.00  0.00     0.163 HD
ATOM     26  O   UNL A   1      41.662  25.306  25.430  1.00  0.00    -0.269 OA
BRANCH  24  27
ATOM     27  C   UNL A   1      40.602  26.104  27.371  1.00  0.00     0.039 A 
ATOM     28  C   UNL A   1      39.743  25.782  28.427  1.00  0.00     0.014 A 
ATOM     29  C   UNL A   1      41.273  27.330  27.369  1.00  0.00     0.014 A 
ATOM     30  C   UNL A   1      39.596  26.667  29.499  1.00  0.00     0.010 A 
ATOM     31  C   UNL A   1      41.183  28.176  28.473  1.00  0.00     0.010 A 
ATOM     32  C   UNL A   1      40.333  27.862  29.545  1.00  0.00    -0.014 A 
BRANCH  32  33
ATOM     33  C   UNL A   1      40.200  28.802  30.689  1.00  0.00     0.031 A 
ATOM     34  C   UNL A   1      41.074  28.642  31.907  1.00  0.00     0.074 A 
ATOM     35  C   UNL A   1      39.268  29.775  30.655  1.00  0.00     0.049 A 
ATOM     36  N   UNL A   1      41.097  29.352  33.006  1.00  0.00    -0.248 NA
ATOM     37  C   UNL A   1      42.030  27.522  31.899  1.00  0.00     0.031 C 
ATOM     38  C   UNL A   1      38.324  30.006  29.558  1.00  0.00     0.029 A 
ATOM     39  N   UNL A   1      38.960  30.753  31.567  1.00  0.00    -0.354 N 
ATOM     40  C   UNL A   1      42.051  28.755  33.824  1.00  0.00     0.074 A 
ATOM     41  C   UNL A   1      42.544  27.593  33.119  1.00  0.00     0.031 C 
ATOM     42  C   UNL A   1      37.567  31.078  29.847  1.00  0.00     0.029 A 
ATOM     43  C   UNL A   1      37.947  31.591  31.159  1.00  0.00     0.049 A 
ATOM     44  H   UNL A   1      39.419  30.847  32.433  1.00  0.00     0.167 HD
ATOM     45  C   UNL A   1      42.496  29.149  35.042  1.00  0.00     0.031 A 
ATOM     46  C   UNL A   1      37.392  32.657  31.769  1.00  0.00     0.031 A 
ATOM     47  C   UNL A   1      42.017  30.316  35.736  1.00  0.00     0.049 A 
ATOM     48  C   UNL A   1      37.918  33.091  33.110  1.00  0.00     0.074 A 
ATOM     49  C   UNL A   1      42.441  30.832  36.949  1.00  0.00     0.029 A 
ATOM     50  N   UNL A   1      41.011  31.152  35.275  1.00  0.00    -0.354 N 
ATOM     51  N   UNL A   1      38.866  32.550  33.838  1.00  0.00    -0.248 NA
ATOM     52  C   UNL A   1      37.316  34.294  33.700  1.00  0.00     0.031 C 
ATOM     53  C   UNL A   1      41.659  31.955  37.242  1.00  0.00     0.029 A 
ATOM     54  C   UNL A   1      40.790  32.172  36.184  1.00  0.00     0.049 A 
ATOM     55  H   UNL A   1      40.524  31.036  34.427  1.00  0.00     0.167 HD
ATOM     56  C   UNL A   1      38.996  33.366  34.957  1.00  0.00     0.074 A 
ATOM     57  C   UNL A   1      38.040  34.443  34.801  1.00  0.00     0.031 C 
ATOM     58  C   UNL A   1      39.836  33.238  36.015  1.00  0.00     0.031 A 
BRANCH  45  59
ATOM     59  C   UNL A   1      43.557  28.305  35.701  1.00  0.00    -0.014 A 
ATOM     60  C   UNL A   1      44.924  28.533  35.454  1.00  0.00     0.010 A 
ATOM     61  C   UNL A   1      43.187  27.289  36.601  1.00  0.00     0.010 A 
ATOM     62  C   UNL A   1      45.897  27.731  36.056  1.00  0.00     0.020 A 
ATOM     63  C   UNL A   1      44.159  26.504  37.229  1.00  0.00     0.020 A 
ATOM     64  C   UNL A   1      45.507  26.717  36.937  1.00  0.00     0.054 A 
BRANCH  64  65
ATOM     65  S   UNL A   1      46.792  25.701  37.714  1.00  0.00     0.124 S 
ATOM     66  O   UNL A   1      46.314  24.348  37.439  1.00  0.00    -0.237 OA
ATOM     67  O   UNL A   1      47.997  26.099  36.992  1.00  0.00    -0.237 OA
ATOM     68  O   UNL A   1      46.750  26.102  39.119  1.00  0.00    -0.744 OA
ENDBRANCH  64  65
ENDBRANCH  45  59
BRANCH  46  69
ATOM     69  C   UNL A   1      36.297  33.411  31.098  1.00  0.00    -0.014 A 
ATOM     70  C   UNL A   1      35.073  33.631  31.755  1.00  0.00     0.010 A 
ATOM     71  C   UNL A   1      36.476  33.924  29.801  1.00  0.00     0.010 A 
ATOM     72  C   UNL A   1      34.042  34.331  31.120  1.00  0.00     0.020 A 
ATOM     73  C   UNL A   1      35.458  34.649  29.174  1.00  0.00     0.020 A 
ATOM     74  C   UNL A   1      34.242  34.837  29.833  1.00  0.00     0.054 A 
BRANCH  74  75
ATOM     75  S   UNL A   1      32.909  35.786  29.049  1.00  0.00     0.124 S 
ATOM     76  O   UNL A   1      32.110  36.196  30.199  1.00  0.00    -0.237 OA
ATOM     77  O   UNL A   1      33.638  36.855  28.370  1.00  0.00    -0.237 OA
ATOM     78  O   UNL A   1      32.277  34.814  28.159  1.00  0.00    -0.744 OA
ENDBRANCH  74  75
ENDBRANCH  46  69
BRANCH  58  79
ATOM     79  C   UNL A   1      39.790  34.316  37.066  1.00  0.00    -0.014 A 
ATOM     80  C   UNL A   1      40.469  35.535  36.898  1.00  0.00     0.010 A 
ATOM     81  C   UNL A   1      39.024  34.113  38.228  1.00  0.00     0.010 A 
ATOM     82  C   UNL A   1      40.419  36.514  37.895  1.00  0.00     0.020 A 
ATOM     83  C   UNL A   1      38.948  35.100  39.213  1.00  0.00     0.020 A 
ATOM     84  C   UNL A   1      39.663  36.287  39.049  1.00  0.00     0.054 A 
BRANCH  84  85
ATOM     85  S   UNL A   1      39.599  37.577  40.321  1.00  0.00     0.124 S 
ATOM     86  O   UNL A   1      41.016  37.852  40.546  1.00  0.00    -0.237 OA
ATOM     87  O   UNL A   1      38.850  38.644  39.662  1.00  0.00    -0.237 OA
ATOM     88  O   UNL A   1      38.906  36.933  41.434  1.00  0.00    -0.744 OA
ENDBRANCH  84  85
ENDBRANCH  58  79
ENDBRANCH  32  33
ENDBRANCH  24  27
ENDBRANCH  22  23
ENDBRANCH  21  22
ENDBRANCH   1  21
TORSDOF 19
ENDMDL
