MODEL 1
REMARK VINA RESULT:     -13.4      0.000      0.000
REMARK SMILES Cc1ccc2[nH]cc([C@@H](C(=O)NCCCNC(=O)c3ccc(-c4c5nc(c(-c6ccc(S(=O)(=O)[O-])cc6)c6ccc([nH]6)c(-c6ccc(S(=O)(=O)[O-])cc6)c6nc(c(-c7ccc(S(=O)(=O)[O-])cc7)c7ccc4[nH]7)C=C6)C=C5)cc3)[NH+]3CCN(c4ccc(F)cc4)CC3)c2c1
REMARK SMILES IDX 14 1 13 2 12 3 10 4 11 5 9 7 8 8 1 9 2 10 3 11 93 12 4 13
REMARK SMILES IDX 92 14 5 15 6 16 7 17 79 19 80 20 91 21 81 23 90 24 82 25
REMARK SMILES IDX 83 26 84 27 89 28 85 29 88 30 86 31 87 32 15 33 16 34 17 35
REMARK SMILES IDX 18 37 19 38 20 39 78 40 21 41 77 42 22 43 23 44 24 45 71 46
REMARK SMILES IDX 25 47 76 48 70 49 72 50 26 51 75 52 69 53 68 54 27 56 57 57
REMARK SMILES IDX 38 58 56 59 39 60 42 61 55 62 73 63 40 64 41 65 54 67 74 68
REMARK SMILES IDX 43 69 28 70 29 71 37 72 30 73 36 74 31 75 32 76 33 77 34 78
REMARK SMILES IDX 35 79 58 80 59 81 67 82 60 83 66 84 61 85 62 86 63 87 64 88
REMARK SMILES IDX 65 89 44 90 45 91 53 92 46 93 52 94 47 95 48 96 49 97 50 98
REMARK SMILES IDX 51 99
REMARK H PARENT 12 6 6 18 79 22 16 36 72 55 42 66
REMARK Flexibility Score: inf
ROOT
ATOM      1  C   UNL A   1      37.841  23.044  25.804  1.00  0.00     0.042 C 
ENDROOT
BRANCH   1   2
ATOM      2  C   UNL A   1      36.415  23.454  25.447  1.00  0.00     0.118 C 
BRANCH   2   3
ATOM      3  N   UNL A   1      35.447  23.066  26.457  1.00  0.00    -0.351 N 
ATOM      4  C   UNL A   1      34.106  23.347  26.548  1.00  0.00     0.283 C 
ATOM      5  O   UNL A   1      33.535  22.883  27.541  1.00  0.00    -0.268 OA
ATOM      6  H   UNL A   1      35.809  22.517  27.189  1.00  0.00     0.163 HD
BRANCH   4   7
ATOM      7  C   UNL A   1      33.396  24.154  25.411  1.00  0.00     0.307 C 
BRANCH   7   8
ATOM      8  C   UNL A   1      32.422  25.173  25.947  1.00  0.00     0.044 A 
ATOM      9  C   UNL A   1      35.239  29.306  27.103  1.00  0.00     0.044 C 
ATOM     10  C   UNL A   1      33.943  28.572  26.924  1.00  0.00    -0.050 A 
ATOM     11  C   UNL A   1      32.734  29.152  27.319  1.00  0.00     0.005 A 
ATOM     12  C   UNL A   1      33.948  27.266  26.407  1.00  0.00     0.014 A 
ATOM     13  C   UNL A   1      31.528  28.448  27.242  1.00  0.00     0.027 A 
ATOM     14  C   UNL A   1      32.749  26.519  26.345  1.00  0.00     0.009 A 
ATOM     15  C   UNL A   1      31.574  27.129  26.780  1.00  0.00     0.046 A 
ATOM     16  N   UNL A   1      30.570  26.196  26.679  1.00  0.00    -0.361 N 
ATOM     17  C   UNL A   1      31.082  25.001  26.250  1.00  0.00     0.094 A 
ATOM     18  H   UNL A   1      29.622  26.362  26.886  1.00  0.00     0.166 HD
ENDBRANCH   7   8
BRANCH   7  19
ATOM     19  N   UNL A   1      32.832  23.285  24.348  1.00  0.00    -0.318 N 
ATOM     20  C   UNL A   1      33.757  22.563  23.458  1.00  0.00     0.284 C 
ATOM     21  C   UNL A   1      31.741  22.394  24.783  1.00  0.00     0.284 C 
ATOM     22  H   UNL A   1      32.444  24.020  23.757  1.00  0.00     0.349 HD
ATOM     23  C   UNL A   1      34.187  21.138  23.865  1.00  0.00     0.178 C 
ATOM     24  C   UNL A   1      32.149  20.991  25.293  1.00  0.00     0.178 C 
ATOM     25  N   UNL A   1      33.064  20.326  24.352  1.00  0.00    -0.360 N 
BRANCH  25  26
ATOM     26  C   UNL A   1      33.348  18.995  24.665  1.00  0.00     0.037 A 
ATOM     27  C   UNL A   1      34.510  18.344  24.221  1.00  0.00     0.029 A 
ATOM     28  C   UNL A   1      32.445  18.275  25.459  1.00  0.00     0.029 A 
ATOM     29  C   UNL A   1      34.746  17.002  24.529  1.00  0.00     0.041 A 
ATOM     30  C   UNL A   1      32.675  16.933  25.768  1.00  0.00     0.041 A 
ATOM     31  C   UNL A   1      33.820  16.308  25.294  1.00  0.00     0.123 A 
ATOM     32  F   UNL A   1      34.035  15.017  25.580  1.00  0.00    -0.207 F 
ENDBRANCH  25  26
ENDBRANCH   7  19
ENDBRANCH   4   7
ENDBRANCH   2   3
ENDBRANCH   1   2
BRANCH   1  33
ATOM     33  C   UNL A   1      38.618  24.085  26.599  1.00  0.00     0.118 C 
BRANCH  33  34
ATOM     34  N   UNL A   1      39.968  24.272  26.095  1.00  0.00    -0.352 N 
ATOM     35  C   UNL A   1      40.907  25.222  26.410  1.00  0.00     0.251 C 
ATOM     36  H   UNL A   1      40.253  23.613  25.422  1.00  0.00     0.163 HD
ATOM     37  O   UNL A   1      41.908  25.321  25.705  1.00  0.00    -0.269 OA
BRANCH  35  38
ATOM     38  C   UNL A   1      40.727  26.126  27.570  1.00  0.00     0.039 A 
ATOM     39  C   UNL A   1      41.556  27.248  27.673  1.00  0.00     0.014 A 
ATOM     40  C   UNL A   1      39.802  25.855  28.583  1.00  0.00     0.014 A 
ATOM     41  C   UNL A   1      41.433  28.109  28.765  1.00  0.00     0.010 A 
ATOM     42  C   UNL A   1      39.629  26.755  29.635  1.00  0.00     0.010 A 
ATOM     43  C   UNL A   1      40.454  27.884  29.746  1.00  0.00    -0.014 A 
BRANCH  43  44
ATOM     44  C   UNL A   1      40.296  28.824  30.885  1.00  0.00     0.031 A 
ATOM     45  C   UNL A   1      41.164  28.703  32.109  1.00  0.00     0.074 A 
ATOM     46  C   UNL A   1      39.345  29.777  30.829  1.00  0.00     0.049 A 
ATOM     47  N   UNL A   1      41.192  29.461  33.177  1.00  0.00    -0.248 NA
ATOM     48  C   UNL A   1      42.105  27.573  32.153  1.00  0.00     0.031 C 
ATOM     49  C   UNL A   1      38.397  29.960  29.727  1.00  0.00     0.029 A 
ATOM     50  N   UNL A   1      39.019  30.773  31.715  1.00  0.00    -0.354 N 
ATOM     51  C   UNL A   1      42.137  28.893  34.022  1.00  0.00     0.074 A 
ATOM     52  C   UNL A   1      42.626  27.700  33.364  1.00  0.00     0.031 C 
ATOM     53  C   UNL A   1      37.622  31.026  29.986  1.00  0.00     0.029 A 
ATOM     54  C   UNL A   1      38.000  31.586  31.280  1.00  0.00     0.049 A 
ATOM     55  H   UNL A   1      39.474  30.894  32.580  1.00  0.00     0.167 HD
ATOM     56  C   UNL A   1      42.575  29.331  35.228  1.00  0.00     0.031 A 
ATOM     57  C   UNL A   1      37.436  32.668  31.851  1.00  0.00     0.031 A 
ATOM     58  C   UNL A   1      42.096  30.525  35.874  1.00  0.00     0.049 A 
ATOM     59  C   UNL A   1      37.967  33.165  33.166  1.00  0.00     0.074 A 
ATOM     60  C   UNL A   1      42.522  31.090  37.064  1.00  0.00     0.029 A 
ATOM     61  N   UNL A   1      41.085  31.338  35.386  1.00  0.00    -0.354 N 
ATOM     62  N   UNL A   1      38.920  32.660  33.911  1.00  0.00    -0.248 NA
ATOM     63  C   UNL A   1      37.363  34.391  33.704  1.00  0.00     0.031 C 
ATOM     64  C   UNL A   1      41.738  32.222  37.316  1.00  0.00     0.029 A 
ATOM     65  C   UNL A   1      40.860  32.390  36.257  1.00  0.00     0.049 A 
ATOM     66  H   UNL A   1      40.598  31.188  34.543  1.00  0.00     0.167 HD
ATOM     67  C   UNL A   1      39.048  33.520  34.995  1.00  0.00     0.074 A 
ATOM     68  C   UNL A   1      38.083  34.584  34.800  1.00  0.00     0.031 C 
ATOM     69  C   UNL A   1      39.890  33.438  36.055  1.00  0.00     0.031 A 
BRANCH  56  70
ATOM     70  C   UNL A   1      43.622  28.504  35.929  1.00  0.00    -0.014 A 
ATOM     71  C   UNL A   1      43.261  27.431  36.763  1.00  0.00     0.010 A 
ATOM     72  C   UNL A   1      44.985  28.790  35.735  1.00  0.00     0.010 A 
ATOM     73  C   UNL A   1      44.242  26.692  37.431  1.00  0.00     0.020 A 
ATOM     74  C   UNL A   1      45.970  28.036  36.378  1.00  0.00     0.020 A 
ATOM     75  C   UNL A   1      45.591  27.004  37.241  1.00  0.00     0.054 A 
BRANCH  75  76
ATOM     76  S   UNL A   1      46.846  26.029  38.116  1.00  0.00     0.124 S 
ATOM     77  O   UNL A   1      46.079  25.494  39.238  1.00  0.00    -0.237 OA
ATOM     78  O   UNL A   1      47.250  25.049  37.110  1.00  0.00    -0.237 OA
ATOM     79  O   UNL A   1      47.866  27.012  38.469  1.00  0.00    -0.744 OA
ENDBRANCH  75  76
ENDBRANCH  56  70
BRANCH  57  80
ATOM     80  C   UNL A   1      36.334  33.376  31.147  1.00  0.00    -0.014 A 
ATOM     81  C   UNL A   1      35.112  33.619  31.797  1.00  0.00     0.010 A 
ATOM     82  C   UNL A   1      36.522  33.858  29.839  1.00  0.00     0.010 A 
ATOM     83  C   UNL A   1      34.094  34.324  31.149  1.00  0.00     0.020 A 
ATOM     84  C   UNL A   1      35.516  34.584  29.197  1.00  0.00     0.020 A 
ATOM     85  C   UNL A   1      34.304  34.807  29.855  1.00  0.00     0.054 A 
BRANCH  85  86
ATOM     86  S   UNL A   1      33.002  35.792  29.062  1.00  0.00     0.124 S 
ATOM     87  O   UNL A   1      33.774  36.839  28.401  1.00  0.00    -0.237 OA
ATOM     88  O   UNL A   1      32.363  34.820  28.178  1.00  0.00    -0.237 OA
ATOM     89  O   UNL A   1      32.178  36.233  30.185  1.00  0.00    -0.744 OA
ENDBRANCH  85  86
ENDBRANCH  57  80
BRANCH  69  90
ATOM     90  C   UNL A   1      39.829  34.546  37.071  1.00  0.00    -0.014 A 
ATOM     91  C   UNL A   1      40.616  35.703  36.936  1.00  0.00     0.010 A 
ATOM     92  C   UNL A   1      38.945  34.439  38.160  1.00  0.00     0.010 A 
ATOM     93  C   UNL A   1      40.548  36.719  37.894  1.00  0.00     0.020 A 
ATOM     94  C   UNL A   1      38.855  35.463  39.106  1.00  0.00     0.020 A 
ATOM     95  C   UNL A   1      39.671  36.589  38.976  1.00  0.00     0.054 A 
BRANCH  95  96
ATOM     96  S   UNL A   1      39.581  37.929  40.196  1.00  0.00     0.124 S 
ATOM     97  O   UNL A   1      40.870  38.590  40.016  1.00  0.00    -0.237 OA
ATOM     98  O   UNL A   1      38.416  38.691  39.751  1.00  0.00    -0.237 OA
ATOM     99  O   UNL A   1      39.410  37.228  41.467  1.00  0.00    -0.744 OA
ENDBRANCH  95  96
ENDBRANCH  69  90
ENDBRANCH  43  44
ENDBRANCH  35  38
ENDBRANCH  33  34
ENDBRANCH   1  33
TORSDOF 16
ENDMDL
MODEL 2
REMARK VINA RESULT:     -13.3      2.112      4.688
REMARK SMILES Cc1ccc2[nH]cc([C@@H](C(=O)NCCCNC(=O)c3ccc(-c4c5nc(c(-c6ccc(S(=O)(=O)[O-])cc6)c6ccc([nH]6)c(-c6ccc(S(=O)(=O)[O-])cc6)c6nc(c(-c7ccc(S(=O)(=O)[O-])cc7)c7ccc4[nH]7)C=C6)C=C5)cc3)[NH+]3CCN(c4ccc(F)cc4)CC3)c2c1
REMARK SMILES IDX 14 1 13 2 12 3 10 4 11 5 9 7 8 8 1 9 2 10 3 11 93 12 4 13
REMARK SMILES IDX 92 14 5 15 6 16 7 17 79 19 80 20 91 21 81 23 90 24 82 25
REMARK SMILES IDX 83 26 84 27 89 28 85 29 88 30 86 31 87 32 15 33 16 34 17 35
REMARK SMILES IDX 18 37 19 38 20 39 78 40 21 41 77 42 22 43 23 44 24 45 71 46
REMARK SMILES IDX 25 47 76 48 70 49 72 50 26 51 75 52 69 53 68 54 27 56 57 57
REMARK SMILES IDX 38 58 56 59 39 60 42 61 55 62 73 63 40 64 41 65 54 67 74 68
REMARK SMILES IDX 43 69 28 70 29 71 37 72 30 73 36 74 31 75 32 76 33 77 34 78
REMARK SMILES IDX 35 79 58 80 59 81 67 82 60 83 66 84 61 85 62 86 63 87 64 88
REMARK SMILES IDX 65 89 44 90 45 91 53 92 46 93 52 94 47 95 48 96 49 97 50 98
REMARK SMILES IDX 51 99
REMARK H PARENT 12 6 6 18 79 22 16 36 72 55 42 66
REMARK Flexibility Score: inf
ROOT
ATOM      1  C   UNL A   1      37.752  22.943  25.792  1.00  0.00     0.042 C 
ENDROOT
BRANCH   1   2
ATOM      2  C   UNL A   1      36.230  22.996  25.907  1.00  0.00     0.118 C 
BRANCH   2   3
ATOM      3  N   UNL A   1      35.602  23.648  24.773  1.00  0.00    -0.351 N 
ATOM      4  C   UNL A   1      34.373  23.431  24.200  1.00  0.00     0.283 C 
ATOM      5  O   UNL A   1      34.111  24.142  23.224  1.00  0.00    -0.268 OA
ATOM      6  H   UNL A   1      36.140  24.355  24.349  1.00  0.00     0.163 HD
BRANCH   4   7
ATOM      7  C   UNL A   1      33.393  22.382  24.822  1.00  0.00     0.307 C 
BRANCH   7   8
ATOM      8  C   UNL A   1      32.834  21.431  23.794  1.00  0.00     0.044 A 
ATOM      9  C   UNL A   1      34.734  16.817  25.002  1.00  0.00     0.044 C 
ATOM     10  C   UNL A   1      33.845  17.740  24.222  1.00  0.00    -0.050 A 
ATOM     11  C   UNL A   1      33.119  17.273  23.123  1.00  0.00     0.005 A 
ATOM     12  C   UNL A   1      33.785  19.102  24.565  1.00  0.00     0.014 A 
ATOM     13  C   UNL A   1      32.355  18.139  22.333  1.00  0.00     0.027 A 
ATOM     14  C   UNL A   1      33.045  20.005  23.767  1.00  0.00     0.009 A 
ATOM     15  C   UNL A   1      32.363  19.497  22.663  1.00  0.00     0.046 A 
ATOM     16  N   UNL A   1      31.779  20.563  22.022  1.00  0.00    -0.361 N 
ATOM     17  C   UNL A   1      32.115  21.731  22.651  1.00  0.00     0.094 A 
ATOM     18  H   UNL A   1      31.202  20.496  21.226  1.00  0.00     0.166 HD
ENDBRANCH   7   8
BRANCH   7  19
ATOM     19  N   UNL A   1      32.361  22.998  25.695  1.00  0.00    -0.318 N 
ATOM     20  C   UNL A   1      32.698  24.227  26.432  1.00  0.00     0.284 C 
ATOM     21  C   UNL A   1      31.022  23.114  25.091  1.00  0.00     0.284 C 
ATOM     22  H   UNL A   1      32.338  22.276  26.415  1.00  0.00     0.349 HD
ATOM     23  C   UNL A   1      32.390  25.581  25.757  1.00  0.00     0.178 C 
ATOM     24  C   UNL A   1      30.717  24.421  24.320  1.00  0.00     0.178 C 
ATOM     25  N   UNL A   1      31.069  25.606  25.118  1.00  0.00    -0.360 N 
BRANCH  25  26
ATOM     26  C   UNL A   1      30.673  26.821  24.554  1.00  0.00     0.037 A 
ATOM     27  C   UNL A   1      29.531  26.946  23.747  1.00  0.00     0.029 A 
ATOM     28  C   UNL A   1      31.439  27.968  24.803  1.00  0.00     0.029 A 
ATOM     29  C   UNL A   1      29.184  28.172  23.174  1.00  0.00     0.041 A 
ATOM     30  C   UNL A   1      31.098  29.196  24.231  1.00  0.00     0.041 A 
ATOM     31  C   UNL A   1      29.977  29.283  23.417  1.00  0.00     0.123 A 
ATOM     32  F   UNL A   1      29.656  30.458  22.859  1.00  0.00    -0.207 F 
ENDBRANCH  25  26
ENDBRANCH   7  19
ENDBRANCH   4   7
ENDBRANCH   2   3
ENDBRANCH   1   2
BRANCH   1  33
ATOM     33  C   UNL A   1      38.478  24.090  26.482  1.00  0.00     0.118 C 
BRANCH  33  34
ATOM     34  N   UNL A   1      39.755  24.390  25.859  1.00  0.00    -0.352 N 
ATOM     35  C   UNL A   1      40.644  25.406  26.106  1.00  0.00     0.251 C 
ATOM     36  H   UNL A   1      40.026  23.766  25.147  1.00  0.00     0.163 HD
ATOM     37  O   UNL A   1      41.563  25.595  25.313  1.00  0.00    -0.269 OA
BRANCH  35  38
ATOM     38  C   UNL A   1      40.506  26.276  27.297  1.00  0.00     0.039 A 
ATOM     39  C   UNL A   1      41.279  27.440  27.364  1.00  0.00     0.014 A 
ATOM     40  C   UNL A   1      39.677  25.934  28.371  1.00  0.00     0.014 A 
ATOM     41  C   UNL A   1      41.194  28.271  28.482  1.00  0.00     0.010 A 
ATOM     42  C   UNL A   1      39.537  26.803  29.454  1.00  0.00     0.010 A 
ATOM     43  C   UNL A   1      40.307  27.973  29.529  1.00  0.00    -0.014 A 
BRANCH  43  44
ATOM     44  C   UNL A   1      40.187  28.880  30.698  1.00  0.00     0.031 A 
ATOM     45  C   UNL A   1      41.071  28.703  31.905  1.00  0.00     0.074 A 
ATOM     46  C   UNL A   1      39.256  29.855  30.687  1.00  0.00     0.049 A 
ATOM     47  N   UNL A   1      41.131  29.426  32.995  1.00  0.00    -0.248 NA
ATOM     48  C   UNL A   1      41.987  27.552  31.899  1.00  0.00     0.031 C 
ATOM     49  C   UNL A   1      38.297  30.093  29.606  1.00  0.00     0.029 A 
ATOM     50  N   UNL A   1      38.966  30.829  31.608  1.00  0.00    -0.354 N 
ATOM     51  C   UNL A   1      42.076  28.811  33.807  1.00  0.00     0.074 A 
ATOM     52  C   UNL A   1      42.529  27.629  33.105  1.00  0.00     0.031 C 
ATOM     53  C   UNL A   1      37.550  31.167  29.910  1.00  0.00     0.029 A 
ATOM     54  C   UNL A   1      37.959  31.677  31.214  1.00  0.00     0.049 A 
ATOM     55  H   UNL A   1      39.437  30.914  32.469  1.00  0.00     0.167 HD
ATOM     56  C   UNL A   1      42.542  29.203  35.019  1.00  0.00     0.031 A 
ATOM     57  C   UNL A   1      37.428  32.753  31.827  1.00  0.00     0.031 A 
ATOM     58  C   UNL A   1      42.099  30.386  35.709  1.00  0.00     0.049 A 
ATOM     59  C   UNL A   1      37.989  33.198  33.148  1.00  0.00     0.074 A 
ATOM     60  C   UNL A   1      42.555  30.904  36.909  1.00  0.00     0.029 A 
ATOM     61  N   UNL A   1      41.099  31.235  35.262  1.00  0.00    -0.354 N 
ATOM     62  N   UNL A   1      38.942  32.649  33.863  1.00  0.00    -0.248 NA
ATOM     63  C   UNL A   1      37.420  34.419  33.733  1.00  0.00     0.031 C 
ATOM     64  C   UNL A   1      41.800  32.044  37.208  1.00  0.00     0.029 A 
ATOM     65  C   UNL A   1      40.910  32.264  36.169  1.00  0.00     0.049 A 
ATOM     66  H   UNL A   1      40.596  31.123  34.423  1.00  0.00     0.167 HD
ATOM     67  C   UNL A   1      39.104  33.472  34.971  1.00  0.00     0.074 A 
ATOM     68  C   UNL A   1      38.161  34.562  34.824  1.00  0.00     0.031 C 
ATOM     69  C   UNL A   1      39.961  33.339  36.014  1.00  0.00     0.031 A 
BRANCH  56  70
ATOM     70  C   UNL A   1      43.580  28.332  35.678  1.00  0.00    -0.014 A 
ATOM     71  C   UNL A   1      43.215  27.346  36.612  1.00  0.00     0.010 A 
ATOM     72  C   UNL A   1      44.938  28.486  35.343  1.00  0.00     0.010 A 
ATOM     73  C   UNL A   1      44.193  26.566  37.238  1.00  0.00     0.020 A 
ATOM     74  C   UNL A   1      45.915  27.689  35.945  1.00  0.00     0.020 A 
ATOM     75  C   UNL A   1      45.538  26.748  36.906  1.00  0.00     0.054 A 
BRANCH  75  76
ATOM     76  S   UNL A   1      46.787  25.722  37.729  1.00  0.00     0.124 S 
ATOM     77  O   UNL A   1      47.812  26.708  38.062  1.00  0.00    -0.237 OA
ATOM     78  O   UNL A   1      46.053  25.172  38.866  1.00  0.00    -0.237 OA
ATOM     79  O   UNL A   1      47.166  24.750  36.707  1.00  0.00    -0.744 OA
ENDBRANCH  75  76
ENDBRANCH  56  70
BRANCH  57  80
ATOM     80  C   UNL A   1      36.331  33.507  31.163  1.00  0.00    -0.014 A 
ATOM     81  C   UNL A   1      35.148  33.808  31.859  1.00  0.00     0.010 A 
ATOM     82  C   UNL A   1      36.487  33.972  29.845  1.00  0.00     0.010 A 
ATOM     83  C   UNL A   1      34.137  34.555  31.248  1.00  0.00     0.020 A 
ATOM     84  C   UNL A   1      35.490  34.739  29.238  1.00  0.00     0.020 A 
ATOM     85  C   UNL A   1      34.317  35.020  29.943  1.00  0.00     0.054 A 
BRANCH  85  86
ATOM     86  S   UNL A   1      33.029  36.059  29.195  1.00  0.00     0.124 S 
ATOM     87  O   UNL A   1      33.821  37.062  28.490  1.00  0.00    -0.237 OA
ATOM     88  O   UNL A   1      32.308  35.111  28.350  1.00  0.00    -0.237 OA
ATOM     89  O   UNL A   1      32.277  36.549  30.348  1.00  0.00    -0.744 OA
ENDBRANCH  85  86
ENDBRANCH  57  80
BRANCH  69  90
ATOM     90  C   UNL A   1      39.940  34.415  37.065  1.00  0.00    -0.014 A 
ATOM     91  C   UNL A   1      40.777  35.542  36.972  1.00  0.00     0.010 A 
ATOM     92  C   UNL A   1      39.043  34.313  38.144  1.00  0.00     0.010 A 
ATOM     93  C   UNL A   1      40.745  36.528  37.962  1.00  0.00     0.020 A 
ATOM     94  C   UNL A   1      38.990  35.309  39.122  1.00  0.00     0.020 A 
ATOM     95  C   UNL A   1      39.854  36.402  39.033  1.00  0.00     0.054 A 
BRANCH  95  96
ATOM     96  S   UNL A   1      39.812  37.705  40.294  1.00  0.00     0.124 S 
ATOM     97  O   UNL A   1      40.754  38.681  39.754  1.00  0.00    -0.237 OA
ATOM     98  O   UNL A   1      38.410  38.116  40.287  1.00  0.00    -0.237 OA
ATOM     99  O   UNL A   1      40.248  37.023  41.511  1.00  0.00    -0.744 OA
ENDBRANCH  95  96
ENDBRANCH  69  90
ENDBRANCH  43  44
ENDBRANCH  35  38
ENDBRANCH  33  34
ENDBRANCH   1  33
TORSDOF 16
ENDMDL
MODEL 3
REMARK VINA RESULT:     -13.3      4.845     10.542
REMARK SMILES Cc1ccc2[nH]cc([C@@H](C(=O)NCCCNC(=O)c3ccc(-c4c5nc(c(-c6ccc(S(=O)(=O)[O-])cc6)c6ccc([nH]6)c(-c6ccc(S(=O)(=O)[O-])cc6)c6nc(c(-c7ccc(S(=O)(=O)[O-])cc7)c7ccc4[nH]7)C=C6)C=C5)cc3)[NH+]3CCN(c4ccc(F)cc4)CC3)c2c1
REMARK SMILES IDX 14 1 13 2 12 3 10 4 11 5 9 7 8 8 1 9 2 10 3 11 93 12 4 13
REMARK SMILES IDX 92 14 5 15 6 16 7 17 79 19 80 20 91 21 81 23 90 24 82 25
REMARK SMILES IDX 83 26 84 27 89 28 85 29 88 30 86 31 87 32 15 33 16 34 17 35
REMARK SMILES IDX 18 37 19 38 20 39 78 40 21 41 77 42 22 43 23 44 24 45 71 46
REMARK SMILES IDX 25 47 76 48 70 49 72 50 26 51 75 52 69 53 68 54 27 56 57 57
REMARK SMILES IDX 38 58 56 59 39 60 42 61 55 62 73 63 40 64 41 65 54 67 74 68
REMARK SMILES IDX 43 69 28 70 29 71 37 72 30 73 36 74 31 75 32 76 33 77 34 78
REMARK SMILES IDX 35 79 58 80 59 81 67 82 60 83 66 84 61 85 62 86 63 87 64 88
REMARK SMILES IDX 65 89 44 90 45 91 53 92 46 93 52 94 47 95 48 96 49 97 50 98
REMARK SMILES IDX 51 99
REMARK H PARENT 12 6 6 18 79 22 16 36 72 55 42 66
REMARK Flexibility Score: inf
ROOT
ATOM      1  C   UNL A   1      34.049  28.089  26.184  1.00  0.00     0.042 C 
ENDROOT
BRANCH   1   2
ATOM      2  C   UNL A   1      33.073  27.120  25.521  1.00  0.00     0.118 C 
BRANCH   2   3
ATOM      3  N   UNL A   1      33.587  26.561  24.284  1.00  0.00    -0.351 N 
ATOM      4  C   UNL A   1      33.593  25.262  23.839  1.00  0.00     0.283 C 
ATOM      5  O   UNL A   1      34.117  25.084  22.734  1.00  0.00    -0.268 OA
ATOM      6  H   UNL A   1      33.993  27.214  23.670  1.00  0.00     0.163 HD
BRANCH   4   7
ATOM      7  C   UNL A   1      32.915  24.138  24.691  1.00  0.00     0.307 C 
BRANCH   7   8
ATOM      8  C   UNL A   1      33.676  22.837  24.645  1.00  0.00     0.044 A 
ATOM      9  C   UNL A   1      38.467  23.986  26.088  1.00  0.00     0.044 C 
ATOM     10  C   UNL A   1      37.369  23.034  25.718  1.00  0.00    -0.050 A 
ATOM     11  C   UNL A   1      37.633  21.673  25.541  1.00  0.00     0.005 A 
ATOM     12  C   UNL A   1      36.071  23.522  25.493  1.00  0.00     0.014 A 
ATOM     13  C   UNL A   1      36.640  20.787  25.111  1.00  0.00     0.027 A 
ATOM     14  C   UNL A   1      35.054  22.656  25.029  1.00  0.00     0.009 A 
ATOM     15  C   UNL A   1      35.374  21.313  24.837  1.00  0.00     0.046 A 
ATOM     16  N   UNL A   1      34.254  20.697  24.333  1.00  0.00    -0.361 N 
ATOM     17  C   UNL A   1      33.256  21.616  24.147  1.00  0.00     0.094 A 
ATOM     18  H   UNL A   1      34.180  19.736  24.134  1.00  0.00     0.166 HD
ENDBRANCH   7   8
BRANCH   7  19
ATOM     19  N   UNL A   1      31.464  23.995  24.414  1.00  0.00    -0.318 N 
ATOM     20  C   UNL A   1      30.499  24.536  25.386  1.00  0.00     0.284 C 
ATOM     21  C   UNL A   1      31.054  24.341  23.041  1.00  0.00     0.284 C 
ATOM     22  H   UNL A   1      31.397  22.984  24.535  1.00  0.00     0.349 HD
ATOM     23  C   UNL A   1      30.007  25.985  25.186  1.00  0.00     0.178 C 
ATOM     24  C   UNL A   1      30.650  25.812  22.784  1.00  0.00     0.178 C 
ATOM     25  N   UNL A   1      29.680  26.282  23.786  1.00  0.00    -0.360 N 
BRANCH  25  26
ATOM     26  C   UNL A   1      29.147  27.547  23.526  1.00  0.00     0.037 A 
ATOM     27  C   UNL A   1      27.770  27.773  23.378  1.00  0.00     0.029 A 
ATOM     28  C   UNL A   1      30.016  28.640  23.413  1.00  0.00     0.029 A 
ATOM     29  C   UNL A   1      27.276  29.047  23.088  1.00  0.00     0.041 A 
ATOM     30  C   UNL A   1      29.529  29.917  23.121  1.00  0.00     0.041 A 
ATOM     31  C   UNL A   1      28.163  30.105  22.955  1.00  0.00     0.123 A 
ATOM     32  F   UNL A   1      27.696  31.326  22.663  1.00  0.00    -0.207 F 
ENDBRANCH  25  26
ENDBRANCH   7  19
ENDBRANCH   4   7
ENDBRANCH   2   3
ENDBRANCH   1   2
BRANCH   1  33
ATOM     33  C   UNL A   1      33.641  28.540  27.580  1.00  0.00     0.118 C 
BRANCH  33  34
ATOM     34  N   UNL A   1      33.600  29.987  27.704  1.00  0.00    -0.352 N 
ATOM     35  C   UNL A   1      34.536  30.860  28.200  1.00  0.00     0.251 C 
ATOM     36  H   UNL A   1      32.771  30.407  27.380  1.00  0.00     0.163 HD
ATOM     37  O   UNL A   1      34.207  32.025  28.408  1.00  0.00    -0.269 OA
BRANCH  35  38
ATOM     38  C   UNL A   1      35.919  30.418  28.496  1.00  0.00     0.039 A 
ATOM     39  C   UNL A   1      36.863  30.457  27.465  1.00  0.00     0.014 A 
ATOM     40  C   UNL A   1      36.282  29.913  29.748  1.00  0.00     0.014 A 
ATOM     41  C   UNL A   1      38.170  30.025  27.699  1.00  0.00     0.010 A 
ATOM     42  C   UNL A   1      37.606  29.551  30.002  1.00  0.00     0.010 A 
ATOM     43  C   UNL A   1      38.561  29.588  28.975  1.00  0.00    -0.014 A 
BRANCH  43  44
ATOM     44  C   UNL A   1      39.962  29.169  29.233  1.00  0.00     0.031 A 
ATOM     45  C   UNL A   1      40.940  30.112  29.885  1.00  0.00     0.074 A 
ATOM     46  C   UNL A   1      40.366  27.941  28.853  1.00  0.00     0.049 A 
ATOM     47  N   UNL A   1      42.187  29.900  30.222  1.00  0.00    -0.248 NA
ATOM     48  C   UNL A   1      40.465  31.474  30.172  1.00  0.00     0.031 C 
ATOM     49  C   UNL A   1      39.534  26.957  28.157  1.00  0.00     0.029 A 
ATOM     50  N   UNL A   1      41.575  27.309  29.002  1.00  0.00    -0.354 N 
ATOM     51  C   UNL A   1      42.649  31.102  30.745  1.00  0.00     0.074 A 
ATOM     52  C   UNL A   1      41.564  32.052  30.636  1.00  0.00     0.031 C 
ATOM     53  C   UNL A   1      40.246  25.833  27.971  1.00  0.00     0.029 A 
ATOM     54  C   UNL A   1      41.588  26.024  28.512  1.00  0.00     0.049 A 
ATOM     55  H   UNL A   1      42.357  27.734  29.421  1.00  0.00     0.167 HD
ATOM     56  C   UNL A   1      43.860  31.386  31.285  1.00  0.00     0.031 A 
ATOM     57  C   UNL A   1      42.565  25.097  28.507  1.00  0.00     0.031 A 
ATOM     58  C   UNL A   1      44.934  30.435  31.403  1.00  0.00     0.049 A 
ATOM     59  C   UNL A   1      43.884  25.417  29.151  1.00  0.00     0.074 A 
ATOM     60  C   UNL A   1      46.174  30.606  31.994  1.00  0.00     0.029 A 
ATOM     61  N   UNL A   1      44.896  29.135  30.923  1.00  0.00    -0.354 N 
ATOM     62  N   UNL A   1      44.274  26.535  29.715  1.00  0.00    -0.248 NA
ATOM     63  C   UNL A   1      44.886  24.343  29.179  1.00  0.00     0.031 C 
ATOM     64  C   UNL A   1      46.903  29.422  31.832  1.00  0.00     0.029 A 
ATOM     65  C   UNL A   1      46.097  28.497  31.187  1.00  0.00     0.049 A 
ATOM     66  H   UNL A   1      44.129  28.726  30.462  1.00  0.00     0.167 HD
ATOM     67  C   UNL A   1      45.558  26.292  30.188  1.00  0.00     0.074 A 
ATOM     68  C   UNL A   1      45.872  24.917  29.855  1.00  0.00     0.031 C 
ATOM     69  C   UNL A   1      46.399  27.130  30.843  1.00  0.00     0.031 A 
BRANCH  56  70
ATOM     70  C   UNL A   1      44.086  32.792  31.780  1.00  0.00    -0.014 A 
ATOM     71  C   UNL A   1      43.730  33.167  33.088  1.00  0.00     0.010 A 
ATOM     72  C   UNL A   1      44.682  33.744  30.935  1.00  0.00     0.010 A 
ATOM     73  C   UNL A   1      43.918  34.483  33.524  1.00  0.00     0.020 A 
ATOM     74  C   UNL A   1      44.898  35.052  31.375  1.00  0.00     0.020 A 
ATOM     75  C   UNL A   1      44.494  35.420  32.661  1.00  0.00     0.054 A 
BRANCH  75  76
ATOM     76  S   UNL A   1      44.730  37.119  33.250  1.00  0.00     0.124 S 
ATOM     77  O   UNL A   1      44.571  36.960  34.693  1.00  0.00    -0.237 OA
ATOM     78  O   UNL A   1      46.085  37.430  32.800  1.00  0.00    -0.237 OA
ATOM     79  O   UNL A   1      43.669  37.868  32.584  1.00  0.00    -0.744 OA
ENDBRANCH  75  76
ENDBRANCH  56  70
BRANCH  57  80
ATOM     80  C   UNL A   1      42.304  23.762  27.906  1.00  0.00    -0.014 A 
ATOM     81  C   UNL A   1      42.584  23.522  26.550  1.00  0.00     0.010 A 
ATOM     82  C   UNL A   1      41.822  22.708  28.703  1.00  0.00     0.010 A 
ATOM     83  C   UNL A   1      42.380  22.253  25.999  1.00  0.00     0.020 A 
ATOM     84  C   UNL A   1      41.640  21.433  28.162  1.00  0.00     0.020 A 
ATOM     85  C   UNL A   1      41.914  21.215  26.810  1.00  0.00     0.054 A 
BRANCH  85  86
ATOM     86  S   UNL A   1      41.735  19.556  26.097  1.00  0.00     0.124 S 
ATOM     87  O   UNL A   1      42.152  18.703  27.206  1.00  0.00    -0.237 OA
ATOM     88  O   UNL A   1      40.315  19.507  25.759  1.00  0.00    -0.237 OA
ATOM     89  O   UNL A   1      42.638  19.580  24.949  1.00  0.00    -0.744 OA
ENDBRANCH  85  86
ENDBRANCH  57  80
BRANCH  69  90
ATOM     90  C   UNL A   1      47.730  26.575  31.271  1.00  0.00    -0.014 A 
ATOM     91  C   UNL A   1      48.853  26.639  30.426  1.00  0.00     0.010 A 
ATOM     92  C   UNL A   1      47.867  26.013  32.553  1.00  0.00     0.010 A 
ATOM     93  C   UNL A   1      50.079  26.112  30.841  1.00  0.00     0.020 A 
ATOM     94  C   UNL A   1      49.097  25.510  32.982  1.00  0.00     0.020 A 
ATOM     95  C   UNL A   1      50.191  25.547  32.115  1.00  0.00     0.054 A 
BRANCH  95  96
ATOM     96  S   UNL A   1      51.798  24.891  32.644  1.00  0.00     0.124 S 
ATOM     97  O   UNL A   1      51.658  23.468  32.347  1.00  0.00    -0.237 OA
ATOM     98  O   UNL A   1      52.739  25.620  31.796  1.00  0.00    -0.237 OA
ATOM     99  O   UNL A   1      51.860  25.230  34.064  1.00  0.00    -0.744 OA
ENDBRANCH  95  96
ENDBRANCH  69  90
ENDBRANCH  43  44
ENDBRANCH  35  38
ENDBRANCH  33  34
ENDBRANCH   1  33
TORSDOF 16
ENDMDL
