MODEL 1
REMARK VINA RESULT:      -9.1      0.000      0.000
REMARK SMILES CCCCCCC(=O)N[C@@H](C)C(=O)NCCCNC(=O)c1ccc(-c2c3nc(c(-c4ccc(S(=O)(=O)[O-])cc4)c4ccc([nH]4)c(-c4ccc(S(=O)(=O)[O-])cc4)c4nc(c(-c5ccc(S(=O)(=O)[O-])cc5)c5ccc2[nH]5)C=C4)C=C3)cc1
REMARK SMILES IDX 12 1 13 2 14 3 10 5 11 6 9 7 7 8 8 9 6 11 5 12 4 13 3 14
REMARK SMILES IDX 2 15 1 16 15 17 16 18 17 19 18 20 19 21 20 23 21 24 22 25
REMARK SMILES IDX 80 26 23 27 79 28 24 29 25 30 26 31 73 32 27 33 78 34 72 35
REMARK SMILES IDX 74 36 28 37 77 38 71 39 70 40 29 42 59 43 40 44 58 45 41 46
REMARK SMILES IDX 44 47 57 48 75 49 42 50 43 51 56 53 76 54 45 55 30 56 31 57
REMARK SMILES IDX 39 58 32 59 38 60 33 61 34 62 35 63 36 64 37 65 60 66 61 67
REMARK SMILES IDX 69 68 62 69 68 70 63 71 64 72 65 73 66 74 67 75 46 76 47 77
REMARK SMILES IDX 55 78 48 79 54 80 49 81 50 82 51 83 52 84 53 85
REMARK H PARENT 14 4 9 10 18 22 74 41 44 52
REMARK Flexibility Score: inf
ROOT
ATOM      1  C   UNL A   1      32.766  22.590  23.186  1.00  0.00     0.242 C 
ATOM      2  O   UNL A   1      32.181  21.562  22.836  1.00  0.00    -0.273 OA
ATOM      3  N   UNL A   1      34.122  22.590  23.184  1.00  0.00    -0.354 N 
ATOM      4  H   UNL A   1      34.542  21.812  22.752  1.00  0.00     0.163 HD
ENDROOT
BRANCH   1   5
ATOM      5  C   UNL A   1      31.993  23.862  23.537  1.00  0.00     0.168 C 
ATOM      6  C   UNL A   1      30.878  23.587  24.549  1.00  0.00     0.041 C 
BRANCH   5   7
ATOM      7  N   UNL A   1      31.531  24.662  22.412  1.00  0.00    -0.345 N 
ATOM      8  C   UNL A   1      32.035  25.840  21.949  1.00  0.00     0.220 C 
ATOM      9  O   UNL A   1      31.428  26.411  21.040  1.00  0.00    -0.275 OA
ATOM     10  H   UNL A   1      30.755  24.304  21.923  1.00  0.00     0.164 HD
BRANCH   8  11
ATOM     11  C   UNL A   1      33.325  26.421  22.509  1.00  0.00     0.100 C 
BRANCH  11  12
ATOM     12  C   UNL A   1      33.193  27.278  23.776  1.00  0.00     0.010 C 
BRANCH  12  13
ATOM     13  C   UNL A   1      33.719  26.709  25.101  1.00  0.00     0.001 C 
BRANCH  13  14
ATOM     14  C   UNL A   1      33.526  27.598  26.343  1.00  0.00    -0.000 C 
BRANCH  14  15
ATOM     15  C   UNL A   1      33.887  29.064  26.150  1.00  0.00    -0.003 C 
ATOM     16  C   UNL A   1      34.343  29.720  27.443  1.00  0.00     0.004 C 
ENDBRANCH  14  15
ENDBRANCH  13  14
ENDBRANCH  12  13
ENDBRANCH  11  12
ENDBRANCH   8  11
ENDBRANCH   5   7
ENDBRANCH   1   5
BRANCH   3  17
ATOM     17  C   UNL A   1      35.041  23.569  23.729  1.00  0.00     0.117 C 
BRANCH  17  18
ATOM     18  C   UNL A   1      35.794  22.991  24.911  1.00  0.00     0.042 C 
BRANCH  18  19
ATOM     19  C   UNL A   1      37.158  23.637  25.098  1.00  0.00     0.118 C 
BRANCH  19  20
ATOM     20  N   UNL A   1      38.148  22.687  25.597  1.00  0.00    -0.352 N 
ATOM     21  C   UNL A   1      39.314  22.933  26.281  1.00  0.00     0.251 C 
ATOM     22  H   UNL A   1      37.953  21.739  25.419  1.00  0.00     0.163 HD
ATOM     23  O   UNL A   1      40.167  22.064  26.386  1.00  0.00    -0.269 OA
BRANCH  21  24
ATOM     24  C   UNL A   1      39.515  24.271  26.867  1.00  0.00     0.039 A 
ATOM     25  C   UNL A   1      39.069  24.532  28.161  1.00  0.00     0.014 A 
ATOM     26  C   UNL A   1      40.206  25.243  26.139  1.00  0.00     0.014 A 
ATOM     27  C   UNL A   1      39.389  25.753  28.755  1.00  0.00     0.010 A 
ATOM     28  C   UNL A   1      40.624  26.400  26.772  1.00  0.00     0.010 A 
ATOM     29  C   UNL A   1      40.208  26.675  28.082  1.00  0.00    -0.014 A 
BRANCH  29  30
ATOM     30  C   UNL A   1      40.640  27.944  28.715  1.00  0.00     0.031 A 
ATOM     31  C   UNL A   1      42.020  28.048  29.305  1.00  0.00     0.074 A 
ATOM     32  C   UNL A   1      39.766  28.963  28.831  1.00  0.00     0.049 A 
ATOM     33  N   UNL A   1      42.557  29.035  29.973  1.00  0.00    -0.248 NA
ATOM     34  C   UNL A   1      42.902  26.876  29.154  1.00  0.00     0.031 C 
ATOM     35  C   UNL A   1      38.383  28.958  28.344  1.00  0.00     0.029 A 
ATOM     36  N   UNL A   1      39.909  30.201  29.404  1.00  0.00    -0.354 N 
ATOM     37  C   UNL A   1      43.823  28.594  30.340  1.00  0.00     0.074 A 
ATOM     38  C   UNL A   1      43.953  27.232  29.875  1.00  0.00     0.031 C 
ATOM     39  C   UNL A   1      37.818  30.146  28.609  1.00  0.00     0.029 A 
ATOM     40  C   UNL A   1      38.777  30.979  29.327  1.00  0.00     0.049 A 
ATOM     41  H   UNL A   1      40.743  30.504  29.829  1.00  0.00     0.167 HD
ATOM     42  C   UNL A   1      44.801  29.272  30.984  1.00  0.00     0.031 A 
ATOM     43  C   UNL A   1      38.536  32.220  29.792  1.00  0.00     0.031 A 
ATOM     44  C   UNL A   1      44.669  30.633  31.428  1.00  0.00     0.049 A 
ATOM     45  C   UNL A   1      39.636  32.951  30.514  1.00  0.00     0.074 A 
ATOM     46  C   UNL A   1      45.620  31.436  32.031  1.00  0.00     0.029 A 
ATOM     47  N   UNL A   1      43.512  31.391  31.317  1.00  0.00    -0.354 N 
ATOM     48  N   UNL A   1      40.855  32.547  30.782  1.00  0.00    -0.248 NA
ATOM     49  C   UNL A   1      39.332  34.308  30.986  1.00  0.00     0.031 C 
ATOM     50  C   UNL A   1      45.019  32.659  32.342  1.00  0.00     0.029 A 
ATOM     51  C   UNL A   1      43.716  32.644  31.870  1.00  0.00     0.049 A 
ATOM     52  H   UNL A   1      42.672  31.084  30.908  1.00  0.00     0.167 HD
ATOM     53  C   UNL A   1      41.472  33.610  31.431  1.00  0.00     0.074 A 
ATOM     54  C   UNL A   1      40.496  34.680  31.499  1.00  0.00     0.031 C 
ATOM     55  C   UNL A   1      42.732  33.695  31.926  1.00  0.00     0.031 A 
BRANCH  42  56
ATOM     56  C   UNL A   1      46.095  28.548  31.249  1.00  0.00    -0.014 A 
ATOM     57  C   UNL A   1      46.302  27.839  32.447  1.00  0.00     0.010 A 
ATOM     58  C   UNL A   1      47.105  28.545  30.271  1.00  0.00     0.010 A 
ATOM     59  C   UNL A   1      47.510  27.176  32.678  1.00  0.00     0.020 A 
ATOM     60  C   UNL A   1      48.303  27.855  30.485  1.00  0.00     0.020 A 
ATOM     61  C   UNL A   1      48.503  27.188  31.694  1.00  0.00     0.054 A 
BRANCH  61  62
ATOM     62  S   UNL A   1      50.047  26.292  32.011  1.00  0.00     0.124 S 
ATOM     63  O   UNL A   1      49.589  24.905  32.048  1.00  0.00    -0.237 OA
ATOM     64  O   UNL A   1      50.867  26.650  30.857  1.00  0.00    -0.237 OA
ATOM     65  O   UNL A   1      50.505  26.830  33.289  1.00  0.00    -0.744 OA
ENDBRANCH  61  62
ENDBRANCH  42  56
BRANCH  43  66
ATOM     66  C   UNL A   1      37.205  32.851  29.578  1.00  0.00    -0.014 A 
ATOM     67  C   UNL A   1      36.873  33.416  28.333  1.00  0.00     0.010 A 
ATOM     68  C   UNL A   1      36.252  32.878  30.613  1.00  0.00     0.010 A 
ATOM     69  C   UNL A   1      35.625  34.014  28.135  1.00  0.00     0.020 A 
ATOM     70  C   UNL A   1      34.991  33.447  30.409  1.00  0.00     0.020 A 
ATOM     71  C   UNL A   1      34.691  34.023  29.175  1.00  0.00     0.054 A 
BRANCH  71  72
ATOM     72  S   UNL A   1      33.061  34.762  28.876  1.00  0.00     0.124 S 
ATOM     73  O   UNL A   1      32.471  33.823  27.926  1.00  0.00    -0.237 OA
ATOM     74  O   UNL A   1      32.469  34.770  30.211  1.00  0.00    -0.237 OA
ATOM     75  O   UNL A   1      33.379  36.082  28.335  1.00  0.00    -0.744 OA
ENDBRANCH  71  72
ENDBRANCH  43  66
BRANCH  55  76
ATOM     76  C   UNL A   1      43.145  34.998  32.557  1.00  0.00    -0.014 A 
ATOM     77  C   UNL A   1      43.719  36.029  31.792  1.00  0.00     0.010 A 
ATOM     78  C   UNL A   1      42.886  35.217  33.922  1.00  0.00     0.010 A 
ATOM     79  C   UNL A   1      44.051  37.247  32.390  1.00  0.00     0.020 A 
ATOM     80  C   UNL A   1      43.187  36.445  34.515  1.00  0.00     0.020 A 
ATOM     81  C   UNL A   1      43.779  37.448  33.747  1.00  0.00     0.054 A 
BRANCH  81  82
ATOM     82  S   UNL A   1      44.167  39.059  34.483  1.00  0.00     0.124 S 
ATOM     83  O   UNL A   1      45.509  39.315  33.966  1.00  0.00    -0.237 OA
ATOM     84  O   UNL A   1      43.114  39.918  33.947  1.00  0.00    -0.237 OA
ATOM     85  O   UNL A   1      44.090  38.813  35.921  1.00  0.00    -0.744 OA
ENDBRANCH  81  82
ENDBRANCH  55  76
ENDBRANCH  29  30
ENDBRANCH  21  24
ENDBRANCH  19  20
ENDBRANCH  18  19
ENDBRANCH  17  18
ENDBRANCH   3  17
TORSDOF 19
ENDMDL
MODEL 2
REMARK VINA RESULT:      -8.7      4.306      8.550
REMARK SMILES CCCCCCC(=O)N[C@@H](C)C(=O)NCCCNC(=O)c1ccc(-c2c3nc(c(-c4ccc(S(=O)(=O)[O-])cc4)c4ccc([nH]4)c(-c4ccc(S(=O)(=O)[O-])cc4)c4nc(c(-c5ccc(S(=O)(=O)[O-])cc5)c5ccc2[nH]5)C=C4)C=C3)cc1
REMARK SMILES IDX 12 1 13 2 14 3 10 5 11 6 9 7 7 8 8 9 6 11 5 12 4 13 3 14
REMARK SMILES IDX 2 15 1 16 15 17 16 18 17 19 18 20 19 21 20 23 21 24 22 25
REMARK SMILES IDX 80 26 23 27 79 28 24 29 25 30 26 31 73 32 27 33 78 34 72 35
REMARK SMILES IDX 74 36 28 37 77 38 71 39 70 40 29 42 59 43 40 44 58 45 41 46
REMARK SMILES IDX 44 47 57 48 75 49 42 50 43 51 56 53 76 54 45 55 30 56 31 57
REMARK SMILES IDX 39 58 32 59 38 60 33 61 34 62 35 63 36 64 37 65 60 66 61 67
REMARK SMILES IDX 69 68 62 69 68 70 63 71 64 72 65 73 66 74 67 75 46 76 47 77
REMARK SMILES IDX 55 78 48 79 54 80 49 81 50 82 51 83 52 84 53 85
REMARK H PARENT 14 4 9 10 18 22 74 41 44 52
REMARK Flexibility Score: inf
ROOT
ATOM      1  C   UNL A   1      32.949  28.892  25.863  1.00  0.00     0.242 C 
ATOM      2  O   UNL A   1      34.098  28.469  26.016  1.00  0.00    -0.273 OA
ATOM      3  N   UNL A   1      32.720  30.214  26.059  1.00  0.00    -0.354 N 
ATOM      4  H   UNL A   1      33.527  30.771  26.159  1.00  0.00     0.163 HD
ENDROOT
BRANCH   1   5
ATOM      5  C   UNL A   1      31.822  27.975  25.386  1.00  0.00     0.168 C 
ATOM      6  C   UNL A   1      31.471  26.917  26.435  1.00  0.00     0.041 C 
BRANCH   5   7
ATOM      7  N   UNL A   1      31.982  27.402  24.058  1.00  0.00    -0.345 N 
ATOM      8  C   UNL A   1      31.325  27.733  22.910  1.00  0.00     0.220 C 
ATOM      9  O   UNL A   1      31.536  27.049  21.906  1.00  0.00    -0.275 OA
ATOM     10  H   UNL A   1      32.651  26.684  23.979  1.00  0.00     0.164 HD
BRANCH   8  11
ATOM     11  C   UNL A   1      30.384  28.927  22.856  1.00  0.00     0.100 C 
BRANCH  11  12
ATOM     12  C   UNL A   1      28.882  28.610  22.817  1.00  0.00     0.010 C 
BRANCH  12  13
ATOM     13  C   UNL A   1      27.895  29.772  22.638  1.00  0.00     0.001 C 
BRANCH  13  14
ATOM     14  C   UNL A   1      28.183  30.732  21.470  1.00  0.00    -0.000 C 
BRANCH  14  15
ATOM     15  C   UNL A   1      27.939  32.204  21.769  1.00  0.00    -0.003 C 
ATOM     16  C   UNL A   1      28.912  32.752  22.800  1.00  0.00     0.004 C 
ENDBRANCH  14  15
ENDBRANCH  13  14
ENDBRANCH  12  13
ENDBRANCH  11  12
ENDBRANCH   8  11
ENDBRANCH   5   7
ENDBRANCH   1   5
BRANCH   3  17
ATOM     17  C   UNL A   1      31.461  30.926  26.144  1.00  0.00     0.117 C 
BRANCH  17  18
ATOM     18  C   UNL A   1      31.533  32.009  27.203  1.00  0.00     0.042 C 
BRANCH  18  19
ATOM     19  C   UNL A   1      32.901  32.671  27.258  1.00  0.00     0.118 C 
BRANCH  19  20
ATOM     20  N   UNL A   1      32.818  34.059  27.705  1.00  0.00    -0.352 N 
ATOM     21  C   UNL A   1      33.478  34.675  28.740  1.00  0.00     0.251 C 
ATOM     22  H   UNL A   1      32.203  34.632  27.193  1.00  0.00     0.163 HD
ATOM     23  O   UNL A   1      33.100  35.758  29.160  1.00  0.00    -0.269 OA
BRANCH  21  24
ATOM     24  C   UNL A   1      34.639  33.990  29.337  1.00  0.00     0.039 A 
ATOM     25  C   UNL A   1      35.928  34.336  28.934  1.00  0.00     0.014 A 
ATOM     26  C   UNL A   1      34.435  33.046  30.346  1.00  0.00     0.014 A 
ATOM     27  C   UNL A   1      37.019  33.785  29.606  1.00  0.00     0.010 A 
ATOM     28  C   UNL A   1      35.513  32.595  31.088  1.00  0.00     0.010 A 
ATOM     29  C   UNL A   1      36.818  32.948  30.717  1.00  0.00    -0.014 A 
BRANCH  29  30
ATOM     30  C   UNL A   1      37.952  32.413  31.506  1.00  0.00     0.031 A 
ATOM     31  C   UNL A   1      38.687  31.193  31.018  1.00  0.00     0.074 A 
ATOM     32  C   UNL A   1      38.261  32.970  32.694  1.00  0.00     0.049 A 
ATOM     33  N   UNL A   1      39.646  30.523  31.602  1.00  0.00    -0.248 NA
ATOM     34  C   UNL A   1      38.267  30.634  29.721  1.00  0.00     0.031 C 
ATOM     35  C   UNL A   1      37.583  34.123  33.295  1.00  0.00     0.029 A 
ATOM     36  N   UNL A   1      39.221  32.636  33.615  1.00  0.00    -0.354 N 
ATOM     37  C   UNL A   1      39.924  29.455  30.756  1.00  0.00     0.074 A 
ATOM     38  C   UNL A   1      38.995  29.531  29.652  1.00  0.00     0.031 C 
ATOM     39  C   UNL A   1      38.171  34.419  34.465  1.00  0.00     0.029 A 
ATOM     40  C   UNL A   1      39.231  33.451  34.723  1.00  0.00     0.049 A 
ATOM     41  H   UNL A   1      39.845  31.884  33.494  1.00  0.00     0.167 HD
ATOM     42  C   UNL A   1      40.886  28.510  30.875  1.00  0.00     0.031 A 
ATOM     43  C   UNL A   1      40.001  33.415  35.828  1.00  0.00     0.031 A 
ATOM     44  C   UNL A   1      41.817  28.453  31.969  1.00  0.00     0.049 A 
ATOM     45  C   UNL A   1      41.057  32.349  35.942  1.00  0.00     0.074 A 
ATOM     46  C   UNL A   1      42.872  27.579  32.154  1.00  0.00     0.029 A 
ATOM     47  N   UNL A   1      41.804  29.306  33.063  1.00  0.00    -0.354 N 
ATOM     48  N   UNL A   1      41.358  31.394  35.094  1.00  0.00    -0.248 NA
ATOM     49  C   UNL A   1      41.884  32.362  37.156  1.00  0.00     0.031 C 
ATOM     50  C   UNL A   1      43.458  27.862  33.391  1.00  0.00     0.029 A 
ATOM     51  C   UNL A   1      42.814  28.957  33.943  1.00  0.00     0.049 A 
ATOM     52  H   UNL A   1      41.170  30.047  33.195  1.00  0.00     0.167 HD
ATOM     53  C   UNL A   1      42.427  30.708  35.660  1.00  0.00     0.074 A 
ATOM     54  C   UNL A   1      42.730  31.370  36.914  1.00  0.00     0.031 C 
ATOM     55  C   UNL A   1      43.099  29.630  35.186  1.00  0.00     0.031 A 
BRANCH  42  56
ATOM     56  C   UNL A   1      40.972  27.462  29.797  1.00  0.00    -0.014 A 
ATOM     57  C   UNL A   1      39.876  26.630  29.499  1.00  0.00     0.010 A 
ATOM     58  C   UNL A   1      42.153  27.331  29.045  1.00  0.00     0.010 A 
ATOM     59  C   UNL A   1      39.975  25.661  28.498  1.00  0.00     0.020 A 
ATOM     60  C   UNL A   1      42.244  26.384  28.020  1.00  0.00     0.020 A 
ATOM     61  C   UNL A   1      41.159  25.545  27.764  1.00  0.00     0.054 A 
BRANCH  61  62
ATOM     62  S   UNL A   1      41.245  24.298  26.451  1.00  0.00     0.124 S 
ATOM     63  O   UNL A   1      42.132  23.298  27.042  1.00  0.00    -0.237 OA
ATOM     64  O   UNL A   1      39.851  23.890  26.305  1.00  0.00    -0.237 OA
ATOM     65  O   UNL A   1      41.801  25.028  25.315  1.00  0.00    -0.744 OA
ENDBRANCH  61  62
ENDBRANCH  42  56
BRANCH  43  66
ATOM     66  C   UNL A   1      39.809  34.426  36.904  1.00  0.00    -0.014 A 
ATOM     67  C   UNL A   1      40.467  35.667  36.844  1.00  0.00     0.010 A 
ATOM     68  C   UNL A   1      38.953  34.161  37.988  1.00  0.00     0.010 A 
ATOM     69  C   UNL A   1      40.291  36.613  37.858  1.00  0.00     0.020 A 
ATOM     70  C   UNL A   1      38.749  35.116  38.988  1.00  0.00     0.020 A 
ATOM     71  C   UNL A   1      39.430  36.332  38.923  1.00  0.00     0.054 A 
BRANCH  71  72
ATOM     72  S   UNL A   1      39.182  37.596  40.201  1.00  0.00     0.124 S 
ATOM     73  O   UNL A   1      40.528  38.138  40.358  1.00  0.00    -0.237 OA
ATOM     74  O   UNL A   1      38.208  38.488  39.576  1.00  0.00    -0.237 OA
ATOM     75  O   UNL A   1      38.677  36.835  41.341  1.00  0.00    -0.744 OA
ENDBRANCH  71  72
ENDBRANCH  43  66
BRANCH  55  76
ATOM     76  C   UNL A   1      44.250  29.112  36.006  1.00  0.00    -0.014 A 
ATOM     77  C   UNL A   1      45.538  29.664  35.886  1.00  0.00     0.010 A 
ATOM     78  C   UNL A   1      44.020  28.107  36.962  1.00  0.00     0.010 A 
ATOM     79  C   UNL A   1      46.580  29.200  36.690  1.00  0.00     0.020 A 
ATOM     80  C   UNL A   1      45.053  27.663  37.790  1.00  0.00     0.020 A 
ATOM     81  C   UNL A   1      46.330  28.205  37.640  1.00  0.00     0.054 A 
BRANCH  81  82
ATOM     82  S   UNL A   1      47.689  27.662  38.711  1.00  0.00     0.124 S 
ATOM     83  O   UNL A   1      48.784  28.524  38.274  1.00  0.00    -0.237 OA
ATOM     84  O   UNL A   1      47.170  27.934  40.050  1.00  0.00    -0.237 OA
ATOM     85  O   UNL A   1      47.844  26.246  38.386  1.00  0.00    -0.744 OA
ENDBRANCH  81  82
ENDBRANCH  55  76
ENDBRANCH  29  30
ENDBRANCH  21  24
ENDBRANCH  19  20
ENDBRANCH  18  19
ENDBRANCH  17  18
ENDBRANCH   3  17
TORSDOF 19
ENDMDL
MODEL 3
REMARK VINA RESULT:      -8.7      4.274     10.197
REMARK SMILES CCCCCCC(=O)N[C@@H](C)C(=O)NCCCNC(=O)c1ccc(-c2c3nc(c(-c4ccc(S(=O)(=O)[O-])cc4)c4ccc([nH]4)c(-c4ccc(S(=O)(=O)[O-])cc4)c4nc(c(-c5ccc(S(=O)(=O)[O-])cc5)c5ccc2[nH]5)C=C4)C=C3)cc1
REMARK SMILES IDX 12 1 13 2 14 3 10 5 11 6 9 7 7 8 8 9 6 11 5 12 4 13 3 14
REMARK SMILES IDX 2 15 1 16 15 17 16 18 17 19 18 20 19 21 20 23 21 24 22 25
REMARK SMILES IDX 80 26 23 27 79 28 24 29 25 30 26 31 73 32 27 33 78 34 72 35
REMARK SMILES IDX 74 36 28 37 77 38 71 39 70 40 29 42 59 43 40 44 58 45 41 46
REMARK SMILES IDX 44 47 57 48 75 49 42 50 43 51 56 53 76 54 45 55 30 56 31 57
REMARK SMILES IDX 39 58 32 59 38 60 33 61 34 62 35 63 36 64 37 65 60 66 61 67
REMARK SMILES IDX 69 68 62 69 68 70 63 71 64 72 65 73 66 74 67 75 46 76 47 77
REMARK SMILES IDX 55 78 48 79 54 80 49 81 50 82 51 83 52 84 53 85
REMARK H PARENT 14 4 9 10 18 22 74 41 44 52
REMARK Flexibility Score: inf
ROOT
ATOM      1  C   UNL A   1      36.206  22.988  23.609  1.00  0.00     0.242 C 
ATOM      2  O   UNL A   1      36.523  23.772  22.711  1.00  0.00    -0.273 OA
ATOM      3  N   UNL A   1      37.175  22.549  24.449  1.00  0.00    -0.354 N 
ATOM      4  H   UNL A   1      38.040  23.013  24.374  1.00  0.00     0.163 HD
ENDROOT
BRANCH   1   5
ATOM      5  C   UNL A   1      34.749  22.580  23.829  1.00  0.00     0.168 C 
ATOM      6  C   UNL A   1      33.867  22.960  22.637  1.00  0.00     0.041 C 
BRANCH   5   7
ATOM      7  N   UNL A   1      34.157  22.975  25.098  1.00  0.00    -0.345 N 
ATOM      8  C   UNL A   1      33.582  22.182  26.047  1.00  0.00     0.220 C 
ATOM      9  O   UNL A   1      33.045  22.731  27.011  1.00  0.00    -0.275 OA
ATOM     10  H   UNL A   1      34.176  23.939  25.298  1.00  0.00     0.164 HD
BRANCH   8  11
ATOM     11  C   UNL A   1      33.628  20.665  25.940  1.00  0.00     0.100 C 
BRANCH  11  12
ATOM     12  C   UNL A   1      32.469  19.999  25.186  1.00  0.00     0.010 C 
BRANCH  12  13
ATOM     13  C   UNL A   1      32.679  19.614  23.715  1.00  0.00     0.001 C 
BRANCH  13  14
ATOM     14  C   UNL A   1      32.381  18.149  23.350  1.00  0.00    -0.000 C 
BRANCH  14  15
ATOM     15  C   UNL A   1      33.596  17.322  22.955  1.00  0.00    -0.003 C 
ATOM     16  C   UNL A   1      34.146  16.514  24.119  1.00  0.00     0.004 C 
ENDBRANCH  14  15
ENDBRANCH  13  14
ENDBRANCH  12  13
ENDBRANCH  11  12
ENDBRANCH   8  11
ENDBRANCH   5   7
ENDBRANCH   1   5
BRANCH   3  17
ATOM     17  C   UNL A   1      37.122  21.493  25.441  1.00  0.00     0.117 C 
BRANCH  17  18
ATOM     18  C   UNL A   1      38.211  20.469  25.186  1.00  0.00     0.042 C 
BRANCH  18  19
ATOM     19  C   UNL A   1      39.500  20.803  25.920  1.00  0.00     0.118 C 
BRANCH  19  20
ATOM     20  N   UNL A   1      40.340  19.624  26.112  1.00  0.00    -0.352 N 
ATOM     21  C   UNL A   1      41.708  19.544  26.211  1.00  0.00     0.251 C 
ATOM     22  H   UNL A   1      39.859  18.768  26.178  1.00  0.00     0.163 HD
ATOM     23  O   UNL A   1      42.278  18.470  26.092  1.00  0.00    -0.269 OA
BRANCH  21  24
ATOM     24  C   UNL A   1      42.467  20.786  26.448  1.00  0.00     0.039 A 
ATOM     25  C   UNL A   1      43.012  21.478  25.368  1.00  0.00     0.014 A 
ATOM     26  C   UNL A   1      42.578  21.286  27.748  1.00  0.00     0.014 A 
ATOM     27  C   UNL A   1      43.603  22.723  25.589  1.00  0.00     0.010 A 
ATOM     28  C   UNL A   1      43.055  22.571  27.946  1.00  0.00     0.010 A 
ATOM     29  C   UNL A   1      43.586  23.297  26.872  1.00  0.00    -0.014 A 
BRANCH  29  30
ATOM     30  C   UNL A   1      44.128  24.652  27.127  1.00  0.00     0.031 A 
ATOM     31  C   UNL A   1      43.190  25.768  27.505  1.00  0.00     0.074 A 
ATOM     32  C   UNL A   1      45.440  24.894  26.939  1.00  0.00     0.049 A 
ATOM     33  N   UNL A   1      43.452  27.036  27.686  1.00  0.00    -0.248 NA
ATOM     34  C   UNL A   1      41.767  25.419  27.665  1.00  0.00     0.031 C 
ATOM     35  C   UNL A   1      46.437  23.902  26.522  1.00  0.00     0.029 A 
ATOM     36  N   UNL A   1      46.162  26.053  27.066  1.00  0.00    -0.354 N 
ATOM     37  C   UNL A   1      42.227  27.635  27.958  1.00  0.00     0.074 A 
ATOM     38  C   UNL A   1      41.216  26.607  27.857  1.00  0.00     0.031 C 
ATOM     39  C   UNL A   1      47.643  24.488  26.461  1.00  0.00     0.029 A 
ATOM     40  C   UNL A   1      47.501  25.904  26.783  1.00  0.00     0.049 A 
ATOM     41  H   UNL A   1      45.761  26.911  27.334  1.00  0.00     0.167 HD
ATOM     42  C   UNL A   1      41.971  28.923  28.287  1.00  0.00     0.031 A 
ATOM     43  C   UNL A   1      48.499  26.808  26.776  1.00  0.00     0.031 A 
ATOM     44  C   UNL A   1      42.985  29.934  28.401  1.00  0.00     0.049 A 
ATOM     45  C   UNL A   1      48.187  28.236  27.137  1.00  0.00     0.074 A 
ATOM     46  C   UNL A   1      42.843  31.253  28.793  1.00  0.00     0.029 A 
ATOM     47  N   UNL A   1      44.331  29.739  28.123  1.00  0.00    -0.354 N 
ATOM     48  N   UNL A   1      47.034  28.768  27.468  1.00  0.00    -0.248 NA
ATOM     49  C   UNL A   1      49.311  29.182  27.132  1.00  0.00     0.031 C 
ATOM     50  C   UNL A   1      44.092  31.872  28.691  1.00  0.00     0.029 A 
ATOM     51  C   UNL A   1      45.025  30.923  28.304  1.00  0.00     0.049 A 
ATOM     52  H   UNL A   1      44.731  28.887  27.838  1.00  0.00     0.167 HD
ATOM     53  C   UNL A   1      47.300  30.107  27.738  1.00  0.00     0.074 A 
ATOM     54  C   UNL A   1      48.724  30.296  27.547  1.00  0.00     0.031 C 
ATOM     55  C   UNL A   1      46.443  31.090  28.110  1.00  0.00     0.031 A 
BRANCH  42  56
ATOM     56  C   UNL A   1      40.536  29.305  28.541  1.00  0.00    -0.014 A 
ATOM     57  C   UNL A   1      39.605  29.386  27.489  1.00  0.00     0.010 A 
ATOM     58  C   UNL A   1      40.103  29.552  29.856  1.00  0.00     0.010 A 
ATOM     59  C   UNL A   1      38.279  29.746  27.743  1.00  0.00     0.020 A 
ATOM     60  C   UNL A   1      38.769  29.880  30.118  1.00  0.00     0.020 A 
ATOM     61  C   UNL A   1      37.870  29.990  29.057  1.00  0.00     0.054 A 
BRANCH  61  62
ATOM     62  S   UNL A   1      36.136  30.425  29.357  1.00  0.00     0.124 S 
ATOM     63  O   UNL A   1      35.433  29.468  28.506  1.00  0.00    -0.237 OA
ATOM     64  O   UNL A   1      35.995  30.207  30.794  1.00  0.00    -0.237 OA
ATOM     65  O   UNL A   1      36.048  31.819  28.928  1.00  0.00    -0.744 OA
ENDBRANCH  61  62
ENDBRANCH  42  56
BRANCH  43  66
ATOM     66  C   UNL A   1      49.884  26.388  26.428  1.00  0.00    -0.014 A 
ATOM     67  C   UNL A   1      50.340  26.463  25.100  1.00  0.00     0.010 A 
ATOM     68  C   UNL A   1      50.761  25.923  27.424  1.00  0.00     0.010 A 
ATOM     69  C   UNL A   1      51.639  26.061  24.772  1.00  0.00     0.020 A 
ATOM     70  C   UNL A   1      52.071  25.550  27.106  1.00  0.00     0.020 A 
ATOM     71  C   UNL A   1      52.497  25.610  25.779  1.00  0.00     0.054 A 
BRANCH  71  72
ATOM     72  S   UNL A   1      54.192  25.141  25.334  1.00  0.00     0.124 S 
ATOM     73  O   UNL A   1      54.479  26.051  24.229  1.00  0.00    -0.237 OA
ATOM     74  O   UNL A   1      54.924  25.395  26.572  1.00  0.00    -0.237 OA
ATOM     75  O   UNL A   1      54.072  23.731  24.969  1.00  0.00    -0.744 OA
ENDBRANCH  71  72
ENDBRANCH  43  66
BRANCH  55  76
ATOM     76  C   UNL A   1      47.022  32.455  28.370  1.00  0.00    -0.014 A 
ATOM     77  C   UNL A   1      47.177  33.392  27.333  1.00  0.00     0.010 A 
ATOM     78  C   UNL A   1      47.349  32.827  29.686  1.00  0.00     0.010 A 
ATOM     79  C   UNL A   1      47.673  34.668  27.606  1.00  0.00     0.020 A 
ATOM     80  C   UNL A   1      47.815  34.113  29.967  1.00  0.00     0.020 A 
ATOM     81  C   UNL A   1      47.985  35.022  28.923  1.00  0.00     0.054 A 
BRANCH  81  82
ATOM     82  S   UNL A   1      48.572  36.704  29.256  1.00  0.00     0.124 S 
ATOM     83  O   UNL A   1      47.418  37.512  28.870  1.00  0.00    -0.237 OA
ATOM     84  O   UNL A   1      48.860  36.665  30.688  1.00  0.00    -0.237 OA
ATOM     85  O   UNL A   1      49.745  36.842  28.395  1.00  0.00    -0.744 OA
ENDBRANCH  81  82
ENDBRANCH  55  76
ENDBRANCH  29  30
ENDBRANCH  21  24
ENDBRANCH  19  20
ENDBRANCH  18  19
ENDBRANCH  17  18
ENDBRANCH   3  17
TORSDOF 19
ENDMDL
