MODEL 1
REMARK VINA RESULT:     -11.3      0.000      0.000
REMARK SMILES CC(=O)N1CCC(C(=O)Nc2sccc2C(=O)NCCCNC(=O)c2ccc(-c3c4nc(c(-c5ccc(S(=O)(=O)[O-])cc5)c5ccc([nH]5)c(-c5ccc(S(=O)(=O)[O-])cc5)c5nc(c(-c6ccc(S(=O)(=O)[O-])cc6)c6ccc3[nH]6)C=C5)C=C4)cc2)CC1
REMARK SMILES IDX 20 1 19 2 18 3 16 4 17 5 15 7 11 8 12 9 13 10 14 11 10 12
REMARK SMILES IDX 8 13 9 14 7 16 1 17 2 18 3 19 4 20 5 21 86 22 6 23 85 24
REMARK SMILES IDX 21 25 22 26 23 27 24 29 25 30 26 31 84 32 27 33 83 34 28 35
REMARK SMILES IDX 29 36 30 37 77 38 31 39 82 40 76 41 78 42 32 43 81 44 75 45
REMARK SMILES IDX 74 46 33 48 63 49 44 50 62 51 45 52 48 53 61 54 79 55 46 56
REMARK SMILES IDX 47 57 60 59 80 60 49 61 34 62 35 63 43 64 36 65 42 66 37 67
REMARK SMILES IDX 38 68 39 69 40 70 41 71 64 72 65 73 73 74 66 75 72 76 67 77
REMARK SMILES IDX 68 78 69 79 70 80 71 81 50 82 51 83 59 84 52 85 58 86 53 87
REMARK SMILES IDX 54 88 55 89 56 90 57 91
REMARK H PARENT 18 6 10 15 22 28 78 47 48 58
REMARK Flexibility Score: inf
ROOT
ATOM      1  C   UNL A   1      34.012  28.107  26.297  1.00  0.00     0.042 C 
ENDROOT
BRANCH   1   2
ATOM      2  C   UNL A   1      33.699  28.974  25.088  1.00  0.00     0.118 C 
BRANCH   2   3
ATOM      3  N   UNL A   1      33.811  28.254  23.837  1.00  0.00    -0.352 N 
ATOM      4  C   UNL A   1      32.870  27.695  23.018  1.00  0.00     0.254 C 
ATOM      5  O   UNL A   1      33.306  27.104  22.028  1.00  0.00    -0.269 OA
ATOM      6  H   UNL A   1      34.736  28.146  23.516  1.00  0.00     0.163 HD
BRANCH   4   7
ATOM      7  C   UNL A   1      31.429  27.726  23.294  1.00  0.00     0.074 A 
ATOM      8  C   UNL A   1      30.661  27.169  24.305  1.00  0.00     0.108 A 
ATOM      9  S   UNL A   1      28.991  27.154  23.921  1.00  0.00    -0.126 S 
ATOM     10  C   UNL A   1      29.217  28.234  22.625  1.00  0.00     0.068 A 
ATOM     11  C   UNL A   1      30.553  28.450  22.392  1.00  0.00     0.028 A 
BRANCH   8  12
ATOM     12  N   UNL A   1      30.890  26.501  25.481  1.00  0.00    -0.317 N 
ATOM     13  C   UNL A   1      31.443  25.279  25.725  1.00  0.00     0.228 C 
ATOM     14  O   UNL A   1      31.385  24.867  26.892  1.00  0.00    -0.274 OA
ATOM     15  H   UNL A   1      30.607  26.988  26.289  1.00  0.00     0.170 HD
BRANCH  13  16
ATOM     16  C   UNL A   1      32.237  24.466  24.705  1.00  0.00     0.082 C 
ATOM     17  C   UNL A   1      32.543  19.645  23.970  1.00  0.00     0.114 C 
ATOM     18  C   UNL A   1      33.534  20.698  24.401  1.00  0.00     0.219 C 
ATOM     19  O   UNL A   1      34.460  20.396  25.153  1.00  0.00    -0.275 OA
ATOM     20  N   UNL A   1      33.362  21.974  23.886  1.00  0.00    -0.343 N 
ATOM     21  C   UNL A   1      34.302  23.031  24.237  1.00  0.00     0.120 C 
ATOM     22  C   UNL A   1      32.171  22.443  23.193  1.00  0.00     0.120 C 
ATOM     23  C   UNL A   1      33.636  24.050  25.156  1.00  0.00     0.035 C 
ATOM     24  C   UNL A   1      31.374  23.324  24.143  1.00  0.00     0.035 C 
ENDBRANCH  13  16
ENDBRANCH   8  12
ENDBRANCH   4   7
ENDBRANCH   2   3
ENDBRANCH   1   2
BRANCH   1  25
ATOM     25  C   UNL A   1      33.330  28.591  27.572  1.00  0.00     0.118 C 
BRANCH  25  26
ATOM     26  N   UNL A   1      33.473  30.025  27.809  1.00  0.00    -0.352 N 
ATOM     27  C   UNL A   1      34.569  30.763  28.198  1.00  0.00     0.251 C 
ATOM     28  H   UNL A   1      32.651  30.549  27.668  1.00  0.00     0.163 HD
ATOM     29  O   UNL A   1      34.448  31.964  28.426  1.00  0.00    -0.269 OA
BRANCH  27  30
ATOM     30  C   UNL A   1      35.878  30.104  28.395  1.00  0.00     0.039 A 
ATOM     31  C   UNL A   1      36.794  30.083  27.339  1.00  0.00     0.014 A 
ATOM     32  C   UNL A   1      36.224  29.550  29.624  1.00  0.00     0.014 A 
ATOM     33  C   UNL A   1      38.092  29.613  27.559  1.00  0.00     0.010 A 
ATOM     34  C   UNL A   1      37.546  29.204  29.877  1.00  0.00     0.010 A 
ATOM     35  C   UNL A   1      38.501  29.234  28.849  1.00  0.00    -0.014 A 
BRANCH  35  36
ATOM     36  C   UNL A   1      39.911  28.873  29.158  1.00  0.00     0.031 A 
ATOM     37  C   UNL A   1      40.836  29.897  29.766  1.00  0.00     0.074 A 
ATOM     38  C   UNL A   1      40.392  27.665  28.796  1.00  0.00     0.049 A 
ATOM     39  N   UNL A   1      42.126  29.824  29.973  1.00  0.00    -0.248 NA
ATOM     40  C   UNL A   1      40.241  31.190  30.146  1.00  0.00     0.031 C 
ATOM     41  C   UNL A   1      39.626  26.604  28.137  1.00  0.00     0.029 A 
ATOM     42  N   UNL A   1      41.652  27.130  28.919  1.00  0.00    -0.354 N 
ATOM     43  C   UNL A   1      42.501  31.073  30.458  1.00  0.00     0.074 A 
ATOM     44  C   UNL A   1      41.313  31.898  30.470  1.00  0.00     0.031 C 
ATOM     45  C   UNL A   1      40.420  25.537  27.946  1.00  0.00     0.029 A 
ATOM     46  C   UNL A   1      41.761  25.851  28.426  1.00  0.00     0.049 A 
ATOM     47  H   UNL A   1      42.405  27.616  29.323  1.00  0.00     0.167 HD
ATOM     48  C   UNL A   1      43.718  31.491  30.880  1.00  0.00     0.031 A 
ATOM     49  C   UNL A   1      42.822  25.022  28.360  1.00  0.00     0.031 A 
ATOM     50  C   UNL A   1      44.885  30.653  30.926  1.00  0.00     0.049 A 
ATOM     51  C   UNL A   1      44.148  25.486  28.894  1.00  0.00     0.074 A 
ATOM     52  C   UNL A   1      46.141  30.956  31.420  1.00  0.00     0.029 A 
ATOM     53  N   UNL A   1      44.934  29.343  30.476  1.00  0.00    -0.354 N 
ATOM     54  N   UNL A   1      44.466  26.649  29.409  1.00  0.00    -0.248 NA
ATOM     55  C   UNL A   1      45.256  24.521  28.850  1.00  0.00     0.031 C 
ATOM     56  C   UNL A   1      46.961  29.836  31.240  1.00  0.00     0.029 A 
ATOM     57  C   UNL A   1      46.202  28.825  30.673  1.00  0.00     0.049 A 
ATOM     58  H   UNL A   1      44.179  28.854  30.075  1.00  0.00     0.167 HD
ATOM     59  C   UNL A   1      45.803  26.549  29.772  1.00  0.00     0.074 A 
ATOM     60  C   UNL A   1      46.231  25.207  29.432  1.00  0.00     0.031 C 
ATOM     61  C   UNL A   1      46.606  27.485  30.336  1.00  0.00     0.031 A 
BRANCH  48  62
ATOM     62  C   UNL A   1      43.841  32.920  31.338  1.00  0.00    -0.014 A 
ATOM     63  C   UNL A   1      43.869  33.244  32.707  1.00  0.00     0.010 A 
ATOM     64  C   UNL A   1      43.957  33.952  30.389  1.00  0.00     0.010 A 
ATOM     65  C   UNL A   1      43.961  34.576  33.118  1.00  0.00     0.020 A 
ATOM     66  C   UNL A   1      44.078  35.283  30.797  1.00  0.00     0.020 A 
ATOM     67  C   UNL A   1      44.059  35.588  32.159  1.00  0.00     0.054 A 
BRANCH  67  68
ATOM     68  S   UNL A   1      44.194  37.308  32.720  1.00  0.00     0.124 S 
ATOM     69  O   UNL A   1      45.492  37.303  33.391  1.00  0.00    -0.237 OA
ATOM     70  O   UNL A   1      44.138  38.060  31.469  1.00  0.00    -0.237 OA
ATOM     71  O   UNL A   1      43.039  37.477  33.597  1.00  0.00    -0.744 OA
ENDBRANCH  67  68
ENDBRANCH  48  62
BRANCH  49  72
ATOM     72  C   UNL A   1      42.666  23.656  27.787  1.00  0.00    -0.014 A 
ATOM     73  C   UNL A   1      42.929  23.425  26.424  1.00  0.00     0.010 A 
ATOM     74  C   UNL A   1      42.270  22.580  28.599  1.00  0.00     0.010 A 
ATOM     75  C   UNL A   1      42.777  22.147  25.879  1.00  0.00     0.020 A 
ATOM     76  C   UNL A   1      42.140  21.294  28.063  1.00  0.00     0.020 A 
ATOM     77  C   UNL A   1      42.383  21.089  26.703  1.00  0.00     0.054 A 
BRANCH  77  78
ATOM     78  S   UNL A   1      42.242  19.427  25.988  1.00  0.00     0.124 S 
ATOM     79  O   UNL A   1      43.164  19.503  24.860  1.00  0.00    -0.237 OA
ATOM     80  O   UNL A   1      42.663  18.568  27.093  1.00  0.00    -0.237 OA
ATOM     81  O   UNL A   1      40.827  19.327  25.638  1.00  0.00    -0.744 OA
ENDBRANCH  77  78
ENDBRANCH  49  72
BRANCH  61  82
ATOM     82  C   UNL A   1      48.019  27.082  30.655  1.00  0.00    -0.014 A 
ATOM     83  C   UNL A   1      49.087  27.454  29.821  1.00  0.00     0.010 A 
ATOM     84  C   UNL A   1      48.286  26.374  31.841  1.00  0.00     0.010 A 
ATOM     85  C   UNL A   1      50.397  27.103  30.155  1.00  0.00     0.020 A 
ATOM     86  C   UNL A   1      49.596  26.041  32.190  1.00  0.00     0.020 A 
ATOM     87  C   UNL A   1      50.643  26.397  31.338  1.00  0.00     0.054 A 
BRANCH  87  88
ATOM     88  S   UNL A   1      52.357  25.996  31.776  1.00  0.00     0.124 S 
ATOM     89  O   UNL A   1      52.210  24.688  32.406  1.00  0.00    -0.237 OA
ATOM     90  O   UNL A   1      53.030  25.998  30.479  1.00  0.00    -0.237 OA
ATOM     91  O   UNL A   1      52.746  27.082  32.674  1.00  0.00    -0.744 OA
ENDBRANCH  87  88
ENDBRANCH  61  82
ENDBRANCH  35  36
ENDBRANCH  27  30
ENDBRANCH  25  26
ENDBRANCH   1  25
TORSDOF 15
ENDMDL
MODEL 2
REMARK VINA RESULT:     -11.2      2.725      9.356
REMARK SMILES CC(=O)N1CCC(C(=O)Nc2sccc2C(=O)NCCCNC(=O)c2ccc(-c3c4nc(c(-c5ccc(S(=O)(=O)[O-])cc5)c5ccc([nH]5)c(-c5ccc(S(=O)(=O)[O-])cc5)c5nc(c(-c6ccc(S(=O)(=O)[O-])cc6)c6ccc3[nH]6)C=C5)C=C4)cc2)CC1
REMARK SMILES IDX 20 1 19 2 18 3 16 4 17 5 15 7 11 8 12 9 13 10 14 11 10 12
REMARK SMILES IDX 8 13 9 14 7 16 1 17 2 18 3 19 4 20 5 21 86 22 6 23 85 24
REMARK SMILES IDX 21 25 22 26 23 27 24 29 25 30 26 31 84 32 27 33 83 34 28 35
REMARK SMILES IDX 29 36 30 37 77 38 31 39 82 40 76 41 78 42 32 43 81 44 75 45
REMARK SMILES IDX 74 46 33 48 63 49 44 50 62 51 45 52 48 53 61 54 79 55 46 56
REMARK SMILES IDX 47 57 60 59 80 60 49 61 34 62 35 63 43 64 36 65 42 66 37 67
REMARK SMILES IDX 38 68 39 69 40 70 41 71 64 72 65 73 73 74 66 75 72 76 67 77
REMARK SMILES IDX 68 78 69 79 70 80 71 81 50 82 51 83 59 84 52 85 58 86 53 87
REMARK SMILES IDX 54 88 55 89 56 90 57 91
REMARK H PARENT 18 6 10 15 22 28 78 47 48 58
REMARK Flexibility Score: inf
ROOT
ATOM      1  C   UNL A   1      36.319  23.003  23.682  1.00  0.00     0.042 C 
ENDROOT
BRANCH   1   2
ATOM      2  C   UNL A   1      34.979  23.689  23.473  1.00  0.00     0.118 C 
BRANCH   2   3
ATOM      3  N   UNL A   1      33.911  22.759  23.172  1.00  0.00    -0.352 N 
ATOM      4  C   UNL A   1      33.130  21.976  23.975  1.00  0.00     0.254 C 
ATOM      5  O   UNL A   1      32.323  21.249  23.391  1.00  0.00    -0.269 OA
ATOM      6  H   UNL A   1      33.711  22.673  22.211  1.00  0.00     0.163 HD
BRANCH   4   7
ATOM      7  C   UNL A   1      33.251  21.933  25.436  1.00  0.00     0.074 A 
ATOM      8  C   UNL A   1      32.440  22.408  26.454  1.00  0.00     0.108 A 
ATOM      9  S   UNL A   1      33.253  22.468  27.961  1.00  0.00    -0.126 S 
ATOM     10  C   UNL A   1      34.525  21.498  27.382  1.00  0.00     0.068 A 
ATOM     11  C   UNL A   1      34.411  21.292  26.029  1.00  0.00     0.028 A 
BRANCH   8  12
ATOM     12  N   UNL A   1      31.194  22.975  26.557  1.00  0.00    -0.317 N 
ATOM     13  C   UNL A   1      30.761  24.241  26.300  1.00  0.00     0.228 C 
ATOM     14  O   UNL A   1      29.597  24.507  26.629  1.00  0.00    -0.274 OA
ATOM     15  H   UNL A   1      30.491  22.360  26.869  1.00  0.00     0.170 HD
BRANCH  13  16
ATOM     16  C   UNL A   1      31.555  25.289  25.523  1.00  0.00     0.082 C 
ATOM     17  C   UNL A   1      30.247  29.649  23.746  1.00  0.00     0.114 C 
ATOM     18  C   UNL A   1      30.690  28.355  23.109  1.00  0.00     0.219 C 
ATOM     19  O   UNL A   1      30.272  28.047  21.993  1.00  0.00    -0.275 OA
ATOM     20  N   UNL A   1      31.593  27.580  23.820  1.00  0.00    -0.343 N 
ATOM     21  C   UNL A   1      32.087  26.333  23.248  1.00  0.00     0.120 C 
ATOM     22  C   UNL A   1      31.937  27.768  25.222  1.00  0.00     0.120 C 
ATOM     23  C   UNL A   1      31.510  25.138  24.003  1.00  0.00     0.035 C 
ATOM     24  C   UNL A   1      31.229  26.700  26.041  1.00  0.00     0.035 C 
ENDBRANCH  13  16
ENDBRANCH   8  12
ENDBRANCH   4   7
ENDBRANCH   2   3
ENDBRANCH   1   2
BRANCH   1  25
ATOM     25  C   UNL A   1      37.066  23.511  24.909  1.00  0.00     0.118 C 
BRANCH  25  26
ATOM     26  N   UNL A   1      38.183  22.662  25.313  1.00  0.00    -0.352 N 
ATOM     27  C   UNL A   1      39.276  22.937  26.104  1.00  0.00     0.251 C 
ATOM     28  H   UNL A   1      38.148  21.741  24.964  1.00  0.00     0.163 HD
ATOM     29  O   UNL A   1      40.155  22.091  26.250  1.00  0.00    -0.269 OA
BRANCH  27  30
ATOM     30  C   UNL A   1      39.423  24.266  26.734  1.00  0.00     0.039 A 
ATOM     31  C   UNL A   1      38.906  24.473  28.017  1.00  0.00     0.014 A 
ATOM     32  C   UNL A   1      40.105  25.295  26.088  1.00  0.00     0.014 A 
ATOM     33  C   UNL A   1      39.181  25.667  28.690  1.00  0.00     0.010 A 
ATOM     34  C   UNL A   1      40.484  26.425  26.802  1.00  0.00     0.010 A 
ATOM     35  C   UNL A   1      40.031  26.626  28.115  1.00  0.00    -0.014 A 
BRANCH  35  36
ATOM     36  C   UNL A   1      40.470  27.839  28.856  1.00  0.00     0.031 A 
ATOM     37  C   UNL A   1      41.811  27.858  29.546  1.00  0.00     0.074 A 
ATOM     38  C   UNL A   1      39.626  28.882  29.003  1.00  0.00     0.049 A 
ATOM     39  N   UNL A   1      42.310  28.755  30.357  1.00  0.00    -0.248 NA
ATOM     40  C   UNL A   1      42.686  26.692  29.334  1.00  0.00     0.031 C 
ATOM     41  C   UNL A   1      38.272  28.969  28.446  1.00  0.00     0.029 A 
ATOM     42  N   UNL A   1      39.778  30.069  29.678  1.00  0.00    -0.354 N 
ATOM     43  C   UNL A   1      43.527  28.240  30.788  1.00  0.00     0.074 A 
ATOM     44  C   UNL A   1      43.670  26.932  30.187  1.00  0.00     0.031 C 
ATOM     45  C   UNL A   1      37.734  30.154  28.775  1.00  0.00     0.029 A 
ATOM     46  C   UNL A   1      38.682  30.895  29.600  1.00  0.00     0.049 A 
ATOM     47  H   UNL A   1      40.595  30.305  30.172  1.00  0.00     0.167 HD
ATOM     48  C   UNL A   1      44.457  28.810  31.591  1.00  0.00     0.031 A 
ATOM     49  C   UNL A   1      38.458  32.111  30.136  1.00  0.00     0.031 A 
ATOM     50  C   UNL A   1      44.343  30.134  32.138  1.00  0.00     0.049 A 
ATOM     51  C   UNL A   1      39.531  32.753  30.972  1.00  0.00     0.074 A 
ATOM     52  C   UNL A   1      45.269  30.837  32.889  1.00  0.00     0.029 A 
ATOM     53  N   UNL A   1      43.242  30.961  31.980  1.00  0.00    -0.354 N 
ATOM     54  N   UNL A   1      40.702  32.273  31.314  1.00  0.00    -0.248 NA
ATOM     55  C   UNL A   1      39.257  34.103  31.483  1.00  0.00     0.031 C 
ATOM     56  C   UNL A   1      44.714  32.080  33.212  1.00  0.00     0.029 A 
ATOM     57  C   UNL A   1      43.461  32.166  32.625  1.00  0.00     0.049 A 
ATOM     58  H   UNL A   1      42.426  30.727  31.482  1.00  0.00     0.167 HD
ATOM     59  C   UNL A   1      41.316  33.272  32.060  1.00  0.00     0.074 A 
ATOM     60  C   UNL A   1      40.391  34.387  32.108  1.00  0.00     0.031 C 
ATOM     61  C   UNL A   1      42.534  33.267  32.654  1.00  0.00     0.031 A 
BRANCH  48  62
ATOM     62  C   UNL A   1      45.687  28.003  31.914  1.00  0.00    -0.014 A 
ATOM     63  C   UNL A   1      46.907  28.244  31.256  1.00  0.00     0.010 A 
ATOM     64  C   UNL A   1      45.629  27.007  32.906  1.00  0.00     0.010 A 
ATOM     65  C   UNL A   1      48.034  27.472  31.549  1.00  0.00     0.020 A 
ATOM     66  C   UNL A   1      46.762  26.252  33.222  1.00  0.00     0.020 A 
ATOM     67  C   UNL A   1      47.952  26.477  32.527  1.00  0.00     0.054 A 
BRANCH  67  68
ATOM     68  S   UNL A   1      49.435  25.500  32.900  1.00  0.00     0.124 S 
ATOM     69  O   UNL A   1      48.947  24.603  33.945  1.00  0.00    -0.237 OA
ATOM     70  O   UNL A   1      49.734  24.866  31.618  1.00  0.00    -0.237 OA
ATOM     71  O   UNL A   1      50.406  26.499  33.338  1.00  0.00    -0.744 OA
ENDBRANCH  67  68
ENDBRANCH  48  62
BRANCH  49  72
ATOM     72  C   UNL A   1      37.171  32.815  29.878  1.00  0.00    -0.014 A 
ATOM     73  C   UNL A   1      36.130  32.758  30.823  1.00  0.00     0.010 A 
ATOM     74  C   UNL A   1      36.983  33.554  28.697  1.00  0.00     0.010 A 
ATOM     75  C   UNL A   1      34.917  33.409  30.582  1.00  0.00     0.020 A 
ATOM     76  C   UNL A   1      35.780  34.228  28.464  1.00  0.00     0.020 A 
ATOM     77  C   UNL A   1      34.750  34.141  29.403  1.00  0.00     0.054 A 
BRANCH  77  78
ATOM     78  S   UNL A   1      33.187  35.023  29.132  1.00  0.00     0.124 S 
ATOM     79  O   UNL A   1      33.648  36.308  28.617  1.00  0.00    -0.237 OA
ATOM     80  O   UNL A   1      32.500  34.165  28.170  1.00  0.00    -0.237 OA
ATOM     81  O   UNL A   1      32.584  35.060  30.463  1.00  0.00    -0.744 OA
ENDBRANCH  77  78
ENDBRANCH  49  72
BRANCH  61  82
ATOM     82  C   UNL A   1      42.957  34.515  33.377  1.00  0.00    -0.014 A 
ATOM     83  C   UNL A   1      42.690  34.688  34.746  1.00  0.00     0.010 A 
ATOM     84  C   UNL A   1      43.687  35.501  32.688  1.00  0.00     0.010 A 
ATOM     85  C   UNL A   1      43.124  35.838  35.408  1.00  0.00     0.020 A 
ATOM     86  C   UNL A   1      44.143  36.642  33.352  1.00  0.00     0.020 A 
ATOM     87  C   UNL A   1      43.848  36.809  34.706  1.00  0.00     0.054 A 
BRANCH  87  88
ATOM     88  S   UNL A   1      44.445  38.271  35.599  1.00  0.00     0.124 S 
ATOM     89  O   UNL A   1      45.890  38.161  35.428  1.00  0.00    -0.237 OA
ATOM     90  O   UNL A   1      43.807  39.371  34.879  1.00  0.00    -0.237 OA
ATOM     91  O   UNL A   1      43.960  38.064  36.962  1.00  0.00    -0.744 OA
ENDBRANCH  87  88
ENDBRANCH  61  82
ENDBRANCH  35  36
ENDBRANCH  27  30
ENDBRANCH  25  26
ENDBRANCH   1  25
TORSDOF 15
ENDMDL
MODEL 3
REMARK VINA RESULT:     -11.1      1.335      2.089
REMARK SMILES CC(=O)N1CCC(C(=O)Nc2sccc2C(=O)NCCCNC(=O)c2ccc(-c3c4nc(c(-c5ccc(S(=O)(=O)[O-])cc5)c5ccc([nH]5)c(-c5ccc(S(=O)(=O)[O-])cc5)c5nc(c(-c6ccc(S(=O)(=O)[O-])cc6)c6ccc3[nH]6)C=C5)C=C4)cc2)CC1
REMARK SMILES IDX 20 1 19 2 18 3 16 4 17 5 15 7 11 8 12 9 13 10 14 11 10 12
REMARK SMILES IDX 8 13 9 14 7 16 1 17 2 18 3 19 4 20 5 21 86 22 6 23 85 24
REMARK SMILES IDX 21 25 22 26 23 27 24 29 25 30 26 31 84 32 27 33 83 34 28 35
REMARK SMILES IDX 29 36 30 37 77 38 31 39 82 40 76 41 78 42 32 43 81 44 75 45
REMARK SMILES IDX 74 46 33 48 63 49 44 50 62 51 45 52 48 53 61 54 79 55 46 56
REMARK SMILES IDX 47 57 60 59 80 60 49 61 34 62 35 63 43 64 36 65 42 66 37 67
REMARK SMILES IDX 38 68 39 69 40 70 41 71 64 72 65 73 73 74 66 75 72 76 67 77
REMARK SMILES IDX 68 78 69 79 70 80 71 81 50 82 51 83 59 84 52 85 58 86 53 87
REMARK SMILES IDX 54 88 55 89 56 90 57 91
REMARK H PARENT 18 6 10 15 22 28 78 47 48 58
REMARK Flexibility Score: inf
ROOT
ATOM      1  C   UNL A   1      32.931  28.428  25.939  1.00  0.00     0.042 C 
ENDROOT
BRANCH   1   2
ATOM      2  C   UNL A   1      31.577  27.747  25.827  1.00  0.00     0.118 C 
BRANCH   2   3
ATOM      3  N   UNL A   1      31.471  26.566  26.658  1.00  0.00    -0.352 N 
ATOM      4  C   UNL A   1      31.699  25.244  26.400  1.00  0.00     0.254 C 
ATOM      5  O   UNL A   1      31.470  24.470  27.331  1.00  0.00    -0.269 OA
ATOM      6  H   UNL A   1      31.179  26.750  27.581  1.00  0.00     0.163 HD
BRANCH   4   7
ATOM      7  C   UNL A   1      32.134  24.733  25.095  1.00  0.00     0.074 A 
ATOM      8  C   UNL A   1      33.377  24.665  24.487  1.00  0.00     0.108 A 
ATOM      9  S   UNL A   1      33.265  24.370  22.803  1.00  0.00    -0.126 S 
ATOM     10  C   UNL A   1      31.627  23.928  22.929  1.00  0.00     0.068 A 
ATOM     11  C   UNL A   1      31.145  24.174  24.191  1.00  0.00     0.028 A 
BRANCH   8  12
ATOM     12  N   UNL A   1      34.680  24.903  24.848  1.00  0.00    -0.317 N 
ATOM     13  C   UNL A   1      35.564  24.149  25.561  1.00  0.00     0.228 C 
ATOM     14  O   UNL A   1      36.637  24.690  25.861  1.00  0.00    -0.274 OA
ATOM     15  H   UNL A   1      35.038  25.765  24.538  1.00  0.00     0.170 HD
BRANCH  13  16
ATOM     16  C   UNL A   1      35.380  22.668  25.884  1.00  0.00     0.082 C 
ATOM     17  C   UNL A   1      33.042  19.117  23.477  1.00  0.00     0.114 C 
ATOM     18  C   UNL A   1      32.833  19.779  24.816  1.00  0.00     0.219 C 
ATOM     19  O   UNL A   1      31.698  19.878  25.281  1.00  0.00    -0.275 OA
ATOM     20  N   UNL A   1      33.965  20.222  25.484  1.00  0.00    -0.343 N 
ATOM     21  C   UNL A   1      33.838  20.842  26.797  1.00  0.00     0.120 C 
ATOM     22  C   UNL A   1      35.290  20.346  24.893  1.00  0.00     0.120 C 
ATOM     23  C   UNL A   1      34.137  22.336  26.709  1.00  0.00     0.035 C 
ATOM     24  C   UNL A   1      35.560  21.817  24.616  1.00  0.00     0.035 C 
ENDBRANCH  13  16
ENDBRANCH   8  12
ENDBRANCH   4   7
ENDBRANCH   2   3
ENDBRANCH   1   2
BRANCH   1  25
ATOM     25  C   UNL A   1      33.384  28.623  27.382  1.00  0.00     0.118 C 
BRANCH  25  26
ATOM     26  N   UNL A   1      33.489  30.023  27.783  1.00  0.00    -0.352 N 
ATOM     27  C   UNL A   1      34.558  30.733  28.283  1.00  0.00     0.251 C 
ATOM     28  H   UNL A   1      32.660  30.545  27.678  1.00  0.00     0.163 HD
ATOM     29  O   UNL A   1      34.404  31.899  28.641  1.00  0.00    -0.269 OA
BRANCH  27  30
ATOM     30  C   UNL A   1      35.875  30.082  28.441  1.00  0.00     0.039 A 
ATOM     31  C   UNL A   1      36.776  30.100  27.372  1.00  0.00     0.014 A 
ATOM     32  C   UNL A   1      36.245  29.496  29.649  1.00  0.00     0.014 A 
ATOM     33  C   UNL A   1      38.081  29.637  27.558  1.00  0.00     0.010 A 
ATOM     34  C   UNL A   1      37.574  29.156  29.871  1.00  0.00     0.010 A 
ATOM     35  C   UNL A   1      38.513  29.225  28.830  1.00  0.00    -0.014 A 
BRANCH  35  36
ATOM     36  C   UNL A   1      39.931  28.868  29.108  1.00  0.00     0.031 A 
ATOM     37  C   UNL A   1      40.870  29.901  29.679  1.00  0.00     0.074 A 
ATOM     38  C   UNL A   1      40.404  27.657  28.748  1.00  0.00     0.049 A 
ATOM     39  N   UNL A   1      42.165  29.832  29.854  1.00  0.00    -0.248 NA
ATOM     40  C   UNL A   1      40.284  31.198  30.059  1.00  0.00     0.031 C 
ATOM     41  C   UNL A   1      39.622  26.587  28.123  1.00  0.00     0.029 A 
ATOM     42  N   UNL A   1      41.667  27.124  28.846  1.00  0.00    -0.354 N 
ATOM     43  C   UNL A   1      42.551  31.087  30.313  1.00  0.00     0.074 A 
ATOM     44  C   UNL A   1      41.363  31.911  30.345  1.00  0.00     0.031 C 
ATOM     45  C   UNL A   1      40.412  25.519  27.924  1.00  0.00     0.029 A 
ATOM     46  C   UNL A   1      41.765  25.839  28.366  1.00  0.00     0.049 A 
ATOM     47  H   UNL A   1      42.430  27.616  29.225  1.00  0.00     0.167 HD
ATOM     48  C   UNL A   1      43.778  31.511  30.699  1.00  0.00     0.031 A 
ATOM     49  C   UNL A   1      42.825  25.010  28.284  1.00  0.00     0.031 A 
ATOM     50  C   UNL A   1      44.947  30.675  30.726  1.00  0.00     0.049 A 
ATOM     51  C   UNL A   1      44.164  25.482  28.778  1.00  0.00     0.074 A 
ATOM     52  C   UNL A   1      46.215  30.984  31.183  1.00  0.00     0.029 A 
ATOM     53  N   UNL A   1      44.985  29.359  30.291  1.00  0.00    -0.354 N 
ATOM     54  N   UNL A   1      44.493  26.652  29.269  1.00  0.00    -0.248 NA
ATOM     55  C   UNL A   1      45.272  24.517  28.718  1.00  0.00     0.031 C 
ATOM     56  C   UNL A   1      47.031  29.863  30.996  1.00  0.00     0.029 A 
ATOM     57  C   UNL A   1      46.259  28.844  30.461  1.00  0.00     0.049 A 
ATOM     58  H   UNL A   1      44.221  28.865  29.916  1.00  0.00     0.167 HD
ATOM     59  C   UNL A   1      45.840  26.557  29.600  1.00  0.00     0.074 A 
ATOM     60  C   UNL A   1      46.260  25.211  29.265  1.00  0.00     0.031 C 
ATOM     61  C   UNL A   1      46.656  27.501  30.131  1.00  0.00     0.031 A 
BRANCH  48  62
ATOM     62  C   UNL A   1      43.912  32.946  31.136  1.00  0.00    -0.014 A 
ATOM     63  C   UNL A   1      44.384  33.933  30.252  1.00  0.00     0.010 A 
ATOM     64  C   UNL A   1      43.536  33.319  32.440  1.00  0.00     0.010 A 
ATOM     65  C   UNL A   1      44.524  35.256  30.677  1.00  0.00     0.020 A 
ATOM     66  C   UNL A   1      43.647  34.647  32.859  1.00  0.00     0.020 A 
ATOM     67  C   UNL A   1      44.160  35.603  31.981  1.00  0.00     0.054 A 
BRANCH  67  68
ATOM     68  S   UNL A   1      44.336  37.332  32.502  1.00  0.00     0.124 S 
ATOM     69  O   UNL A   1      45.769  37.417  32.775  1.00  0.00    -0.237 OA
ATOM     70  O   UNL A   1      43.876  38.071  31.329  1.00  0.00    -0.237 OA
ATOM     71  O   UNL A   1      43.471  37.430  33.675  1.00  0.00    -0.744 OA
ENDBRANCH  67  68
ENDBRANCH  48  62
BRANCH  49  72
ATOM     72  C   UNL A   1      42.656  23.638  27.732  1.00  0.00    -0.014 A 
ATOM     73  C   UNL A   1      42.912  23.384  26.372  1.00  0.00     0.010 A 
ATOM     74  C   UNL A   1      42.253  22.577  28.561  1.00  0.00     0.010 A 
ATOM     75  C   UNL A   1      42.747  22.099  25.847  1.00  0.00     0.020 A 
ATOM     76  C   UNL A   1      42.112  21.284  28.045  1.00  0.00     0.020 A 
ATOM     77  C   UNL A   1      42.348  21.057  26.688  1.00  0.00     0.054 A 
BRANCH  77  78
ATOM     78  S   UNL A   1      42.192  19.385  25.998  1.00  0.00     0.124 S 
ATOM     79  O   UNL A   1      40.756  19.289  25.759  1.00  0.00    -0.237 OA
ATOM     80  O   UNL A   1      43.029  19.455  24.803  1.00  0.00    -0.237 OA
ATOM     81  O   UNL A   1      42.711  18.529  27.063  1.00  0.00    -0.744 OA
ENDBRANCH  77  78
ENDBRANCH  49  72
BRANCH  61  82
ATOM     82  C   UNL A   1      48.077  27.103  30.419  1.00  0.00    -0.014 A 
ATOM     83  C   UNL A   1      49.120  27.451  29.545  1.00  0.00     0.010 A 
ATOM     84  C   UNL A   1      48.377  26.425  31.615  1.00  0.00     0.010 A 
ATOM     85  C   UNL A   1      50.439  27.105  29.849  1.00  0.00     0.020 A 
ATOM     86  C   UNL A   1      49.697  26.098  31.934  1.00  0.00     0.020 A 
ATOM     87  C   UNL A   1      50.719  26.430  31.042  1.00  0.00     0.054 A 
BRANCH  87  88
ATOM     88  S   UNL A   1      52.444  26.036  31.440  1.00  0.00     0.124 S 
ATOM     89  O   UNL A   1      52.322  24.709  32.035  1.00  0.00    -0.237 OA
ATOM     90  O   UNL A   1      53.095  26.082  30.132  1.00  0.00    -0.237 OA
ATOM     91  O   UNL A   1      52.837  27.101  32.361  1.00  0.00    -0.744 OA
ENDBRANCH  87  88
ENDBRANCH  61  82
ENDBRANCH  35  36
ENDBRANCH  27  30
ENDBRANCH  25  26
ENDBRANCH   1  25
TORSDOF 15
ENDMDL
