MODEL 1
REMARK VINA RESULT:     -11.5      0.000      0.000
REMARK SMILES Cc1cc(C)n2ncc(C(=O)N(C)CCCC(=O)NCCCNC(=O)c3ccc(-c4c5nc(c(-c6ccc(S(=O)(=O)[O-])cc6)c6ccc([nH]6)c(-c6ccc(S(=O)(=O)[O-])cc6)c6nc(c(-c7ccc(S(=O)(=O)[O-])cc7)c7ccc4[nH]7)C=C6)C=C5)cc3)c2n1
REMARK SMILES IDX 20 1 19 2 17 3 18 4 16 6 15 7 14 8 12 9 13 10 10 11 11 12
REMARK SMILES IDX 9 13 1 14 2 15 3 16 87 17 4 18 86 19 5 20 6 21 7 22 8 23
REMARK SMILES IDX 21 24 22 25 23 26 24 27 25 29 26 30 27 31 85 32 28 33 84 34
REMARK SMILES IDX 29 35 30 36 31 37 78 38 32 39 83 40 77 41 79 42 33 43 82 44
REMARK SMILES IDX 76 45 75 46 34 48 64 49 45 50 63 51 46 52 49 53 62 54 80 55
REMARK SMILES IDX 47 56 48 57 61 59 81 60 50 61 35 62 36 63 44 64 37 65 43 66
REMARK SMILES IDX 38 67 39 68 40 69 41 70 42 71 65 72 66 73 74 74 67 75 73 76
REMARK SMILES IDX 68 77 69 78 70 79 71 80 72 81 51 82 52 83 60 84 53 85 59 86
REMARK SMILES IDX 54 87 55 88 56 89 57 90 58 91
REMARK H PARENT 19 5 23 28 79 47 49 58
REMARK Flexibility Score: inf
ROOT
ATOM      1  C   UNL A   1      37.987  22.862  25.576  1.00  0.00     0.117 C 
ENDROOT
BRANCH   1   2
ATOM      2  N   UNL A   1      36.769  22.825  26.360  1.00  0.00    -0.356 N 
ATOM      3  C   UNL A   1      35.486  22.561  25.991  1.00  0.00     0.220 C 
ATOM      4  O   UNL A   1      34.628  22.596  26.876  1.00  0.00    -0.275 OA
ATOM      5  H   UNL A   1      36.888  23.024  27.316  1.00  0.00     0.163 HD
BRANCH   3   6
ATOM      6  C   UNL A   1      35.121  22.129  24.584  1.00  0.00     0.102 C 
BRANCH   6   7
ATOM      7  C   UNL A   1      33.715  21.621  24.252  1.00  0.00     0.031 C 
BRANCH   7   8
ATOM      8  C   UNL A   1      32.757  22.339  23.294  1.00  0.00     0.120 C 
BRANCH   8   9
ATOM      9  N   UNL A   1      32.450  23.784  23.301  1.00  0.00    -0.342 N 
ATOM     10  C   UNL A   1      32.996  24.478  22.136  1.00  0.00     0.147 C 
BRANCH   9  11
ATOM     11  C   UNL A   1      31.821  24.419  24.389  1.00  0.00     0.259 C 
ATOM     12  O   UNL A   1      30.836  23.911  24.918  1.00  0.00    -0.269 OA
BRANCH  11  13
ATOM     13  C   UNL A   1      32.315  25.689  24.930  1.00  0.00     0.104 A 
ATOM     14  C   UNL A   1      29.649  29.112  22.545  1.00  0.00     0.067 C 
ATOM     15  C   UNL A   1      30.614  28.611  23.591  1.00  0.00     0.042 A 
ATOM     16  C   UNL A   1      31.029  29.609  24.626  1.00  0.00     0.047 A 
ATOM     17  N   UNL A   1      31.006  27.369  23.555  1.00  0.00    -0.233 NA
ATOM     18  C   UNL A   1      31.926  29.189  25.532  1.00  0.00     0.043 A 
ATOM     19  C   UNL A   1      31.861  26.952  24.547  1.00  0.00     0.168 A 
ATOM     20  C   UNL A   1      32.415  30.063  26.646  1.00  0.00     0.067 C 
ATOM     21  N   UNL A   1      32.378  27.861  25.482  1.00  0.00    -0.219 N 
ATOM     22  N   UNL A   1      33.273  27.263  26.307  1.00  0.00    -0.174 NA
ATOM     23  C   UNL A   1      33.175  25.968  26.011  1.00  0.00     0.151 A 
ENDBRANCH  11  13
ENDBRANCH   9  11
ENDBRANCH   8   9
ENDBRANCH   7   8
ENDBRANCH   6   7
ENDBRANCH   3   6
ENDBRANCH   1   2
BRANCH   1  24
ATOM     24  C   UNL A   1      38.802  21.575  25.750  1.00  0.00     0.042 C 
BRANCH  24  25
ATOM     25  C   UNL A   1      39.856  21.663  26.828  1.00  0.00     0.118 C 
BRANCH  25  26
ATOM     26  N   UNL A   1      41.216  21.775  26.296  1.00  0.00    -0.352 N 
ATOM     27  C   UNL A   1      41.964  22.938  26.138  1.00  0.00     0.251 C 
ATOM     28  H   UNL A   1      41.649  20.935  26.020  1.00  0.00     0.163 HD
ATOM     29  O   UNL A   1      42.892  22.991  25.361  1.00  0.00    -0.269 OA
BRANCH  27  30
ATOM     30  C   UNL A   1      41.558  24.107  26.947  1.00  0.00     0.039 A 
ATOM     31  C   UNL A   1      42.209  24.458  28.127  1.00  0.00     0.014 A 
ATOM     32  C   UNL A   1      40.591  24.934  26.392  1.00  0.00     0.014 A 
ATOM     33  C   UNL A   1      41.958  25.720  28.668  1.00  0.00     0.010 A 
ATOM     34  C   UNL A   1      40.548  26.246  26.776  1.00  0.00     0.010 A 
ATOM     35  C   UNL A   1      41.159  26.634  27.957  1.00  0.00    -0.014 A 
BRANCH  35  36
ATOM     36  C   UNL A   1      40.989  28.013  28.397  1.00  0.00     0.031 A 
ATOM     37  C   UNL A   1      42.031  28.965  27.941  1.00  0.00     0.074 A 
ATOM     38  C   UNL A   1      39.913  28.468  29.075  1.00  0.00     0.049 A 
ATOM     39  N   UNL A   1      43.083  29.326  28.598  1.00  0.00    -0.248 NA
ATOM     40  C   UNL A   1      41.996  29.450  26.555  1.00  0.00     0.031 C 
ATOM     41  C   UNL A   1      38.647  27.790  29.396  1.00  0.00     0.029 A 
ATOM     42  N   UNL A   1      39.715  29.711  29.587  1.00  0.00    -0.354 N 
ATOM     43  C   UNL A   1      43.716  30.280  27.812  1.00  0.00     0.074 A 
ATOM     44  C   UNL A   1      43.126  30.162  26.501  1.00  0.00     0.031 C 
ATOM     45  C   UNL A   1      37.746  28.686  29.857  1.00  0.00     0.029 A 
ATOM     46  C   UNL A   1      38.435  29.940  30.071  1.00  0.00     0.049 A 
ATOM     47  H   UNL A   1      40.423  30.394  29.613  1.00  0.00     0.167 HD
ATOM     48  C   UNL A   1      44.488  31.253  28.374  1.00  0.00     0.031 A 
ATOM     49  C   UNL A   1      37.983  31.061  30.679  1.00  0.00     0.031 A 
ATOM     50  C   UNL A   1      44.750  30.979  29.768  1.00  0.00     0.049 A 
ATOM     51  C   UNL A   1      39.174  31.732  31.249  1.00  0.00     0.074 A 
ATOM     52  C   UNL A   1      45.366  29.961  30.468  1.00  0.00     0.029 A 
ATOM     53  N   UNL A   1      43.960  31.643  30.681  1.00  0.00    -0.354 N 
ATOM     54  N   UNL A   1      39.895  31.218  32.206  1.00  0.00    -0.248 NA
ATOM     55  C   UNL A   1      39.820  32.774  30.470  1.00  0.00     0.031 C 
ATOM     56  C   UNL A   1      44.565  29.778  31.636  1.00  0.00     0.029 A 
ATOM     57  C   UNL A   1      43.546  30.735  31.623  1.00  0.00     0.049 A 
ATOM     58  H   UNL A   1      43.733  32.600  30.661  1.00  0.00     0.167 HD
ATOM     59  C   UNL A   1      41.204  31.554  31.887  1.00  0.00     0.074 A 
ATOM     60  C   UNL A   1      41.082  32.601  30.874  1.00  0.00     0.031 C 
ATOM     61  C   UNL A   1      42.254  30.775  32.283  1.00  0.00     0.031 A 
BRANCH  48  62
ATOM     62  C   UNL A   1      44.652  32.642  27.799  1.00  0.00    -0.014 A 
ATOM     63  C   UNL A   1      45.946  33.078  27.442  1.00  0.00     0.010 A 
ATOM     64  C   UNL A   1      43.643  33.625  27.852  1.00  0.00     0.010 A 
ATOM     65  C   UNL A   1      46.228  34.435  27.235  1.00  0.00     0.020 A 
ATOM     66  C   UNL A   1      43.904  34.975  27.604  1.00  0.00     0.020 A 
ATOM     67  C   UNL A   1      45.204  35.376  27.334  1.00  0.00     0.054 A 
BRANCH  67  68
ATOM     68  S   UNL A   1      45.599  37.135  27.185  1.00  0.00     0.124 S 
ATOM     69  O   UNL A   1      44.294  37.709  26.874  1.00  0.00    -0.237 OA
ATOM     70  O   UNL A   1      46.130  37.444  28.509  1.00  0.00    -0.237 OA
ATOM     71  O   UNL A   1      46.578  37.174  26.101  1.00  0.00    -0.744 OA
ENDBRANCH  67  68
ENDBRANCH  48  62
BRANCH  49  72
ATOM     72  C   UNL A   1      36.684  31.738  30.467  1.00  0.00    -0.014 A 
ATOM     73  C   UNL A   1      36.319  32.838  31.263  1.00  0.00     0.010 A 
ATOM     74  C   UNL A   1      35.947  31.502  29.287  1.00  0.00     0.010 A 
ATOM     75  C   UNL A   1      35.313  33.724  30.848  1.00  0.00     0.020 A 
ATOM     76  C   UNL A   1      34.939  32.380  28.870  1.00  0.00     0.020 A 
ATOM     77  C   UNL A   1      34.648  33.505  29.638  1.00  0.00     0.054 A 
BRANCH  77  78
ATOM     78  S   UNL A   1      33.496  34.767  29.020  1.00  0.00     0.124 S 
ATOM     79  O   UNL A   1      34.397  35.739  28.410  1.00  0.00    -0.237 OA
ATOM     80  O   UNL A   1      32.664  34.005  28.092  1.00  0.00    -0.237 OA
ATOM     81  O   UNL A   1      32.810  35.229  30.226  1.00  0.00    -0.744 OA
ENDBRANCH  77  78
ENDBRANCH  49  72
BRANCH  61  82
ATOM     82  C   UNL A   1      42.010  29.723  33.345  1.00  0.00    -0.014 A 
ATOM     83  C   UNL A   1      41.605  28.401  33.071  1.00  0.00     0.010 A 
ATOM     84  C   UNL A   1      42.350  30.053  34.670  1.00  0.00     0.010 A 
ATOM     85  C   UNL A   1      41.528  27.444  34.098  1.00  0.00     0.020 A 
ATOM     86  C   UNL A   1      42.293  29.103  35.693  1.00  0.00     0.020 A 
ATOM     87  C   UNL A   1      41.878  27.803  35.405  1.00  0.00     0.054 A 
BRANCH  87  88
ATOM     88  S   UNL A   1      41.831  26.552  36.721  1.00  0.00     0.124 S 
ATOM     89  O   UNL A   1      40.555  26.825  37.377  1.00  0.00    -0.237 OA
ATOM     90  O   UNL A   1      41.901  25.296  35.979  1.00  0.00    -0.237 OA
ATOM     91  O   UNL A   1      43.014  26.851  37.529  1.00  0.00    -0.744 OA
ENDBRANCH  87  88
ENDBRANCH  61  82
ENDBRANCH  35  36
ENDBRANCH  27  30
ENDBRANCH  25  26
ENDBRANCH  24  25
ENDBRANCH   1  24
TORSDOF 18
ENDMDL
MODEL 2
REMARK VINA RESULT:     -11.4      2.788      9.609
REMARK SMILES Cc1cc(C)n2ncc(C(=O)N(C)CCCC(=O)NCCCNC(=O)c3ccc(-c4c5nc(c(-c6ccc(S(=O)(=O)[O-])cc6)c6ccc([nH]6)c(-c6ccc(S(=O)(=O)[O-])cc6)c6nc(c(-c7ccc(S(=O)(=O)[O-])cc7)c7ccc4[nH]7)C=C6)C=C5)cc3)c2n1
REMARK SMILES IDX 20 1 19 2 17 3 18 4 16 6 15 7 14 8 12 9 13 10 10 11 11 12
REMARK SMILES IDX 9 13 1 14 2 15 3 16 87 17 4 18 86 19 5 20 6 21 7 22 8 23
REMARK SMILES IDX 21 24 22 25 23 26 24 27 25 29 26 30 27 31 85 32 28 33 84 34
REMARK SMILES IDX 29 35 30 36 31 37 78 38 32 39 83 40 77 41 79 42 33 43 82 44
REMARK SMILES IDX 76 45 75 46 34 48 64 49 45 50 63 51 46 52 49 53 62 54 80 55
REMARK SMILES IDX 47 56 48 57 61 59 81 60 50 61 35 62 36 63 44 64 37 65 43 66
REMARK SMILES IDX 38 67 39 68 40 69 41 70 42 71 65 72 66 73 74 74 67 75 73 76
REMARK SMILES IDX 68 77 69 78 70 79 71 80 72 81 51 82 52 83 60 84 53 85 59 86
REMARK SMILES IDX 54 87 55 88 56 89 57 90 58 91
REMARK H PARENT 19 5 23 28 79 47 49 58
REMARK Flexibility Score: inf
ROOT
ATOM      1  C   UNL A   1      33.846  30.074  27.179  1.00  0.00     0.117 C 
ENDROOT
BRANCH   1   2
ATOM      2  N   UNL A   1      32.916  29.134  27.773  1.00  0.00    -0.356 N 
ATOM      3  C   UNL A   1      31.835  28.503  27.242  1.00  0.00     0.220 C 
ATOM      4  O   UNL A   1      31.210  27.739  27.982  1.00  0.00    -0.275 OA
ATOM      5  H   UNL A   1      33.096  28.917  28.716  1.00  0.00     0.163 HD
BRANCH   3   6
ATOM      6  C   UNL A   1      31.463  28.628  25.777  1.00  0.00     0.102 C 
BRANCH   6   7
ATOM      7  C   UNL A   1      31.058  27.399  24.956  1.00  0.00     0.031 C 
BRANCH   7   8
ATOM      8  C   UNL A   1      32.049  26.328  24.484  1.00  0.00     0.120 C 
BRANCH   8   9
ATOM      9  N   UNL A   1      33.156  26.538  23.528  1.00  0.00    -0.342 N 
ATOM     10  C   UNL A   1      33.769  27.858  23.663  1.00  0.00     0.147 C 
BRANCH   9  11
ATOM     11  C   UNL A   1      33.472  25.606  22.521  1.00  0.00     0.259 C 
ATOM     12  O   UNL A   1      33.708  25.986  21.377  1.00  0.00    -0.269 OA
BRANCH  11  13
ATOM     13  C   UNL A   1      33.541  24.168  22.797  1.00  0.00     0.104 A 
ATOM     14  C   UNL A   1      37.384  23.733  25.888  1.00  0.00     0.067 C 
ATOM     15  C   UNL A   1      36.167  23.250  25.139  1.00  0.00     0.042 A 
ATOM     16  C   UNL A   1      35.677  21.884  25.504  1.00  0.00     0.047 A 
ATOM     17  N   UNL A   1      35.608  24.030  24.257  1.00  0.00    -0.233 NA
ATOM     18  C   UNL A   1      34.626  21.422  24.808  1.00  0.00     0.043 A 
ATOM     19  C   UNL A   1      34.485  23.556  23.623  1.00  0.00     0.168 A 
ATOM     20  C   UNL A   1      34.006  20.085  25.078  1.00  0.00     0.067 C 
ATOM     21  N   UNL A   1      34.037  22.243  23.834  1.00  0.00    -0.219 N 
ATOM     22  N   UNL A   1      32.977  21.951  23.040  1.00  0.00    -0.174 NA
ATOM     23  C   UNL A   1      32.655  23.117  22.483  1.00  0.00     0.151 A 
ENDBRANCH  11  13
ENDBRANCH   9  11
ENDBRANCH   8   9
ENDBRANCH   7   8
ENDBRANCH   6   7
ENDBRANCH   3   6
ENDBRANCH   1   2
BRANCH   1  24
ATOM     24  C   UNL A   1      33.425  31.523  27.451  1.00  0.00     0.042 C 
BRANCH  24  25
ATOM     25  C   UNL A   1      34.559  32.409  27.912  1.00  0.00     0.118 C 
BRANCH  25  26
ATOM     26  N   UNL A   1      34.505  32.717  29.342  1.00  0.00    -0.352 N 
ATOM     27  C   UNL A   1      35.263  32.137  30.356  1.00  0.00     0.251 C 
ATOM     28  H   UNL A   1      33.861  33.409  29.618  1.00  0.00     0.163 HD
ATOM     29  O   UNL A   1      34.899  32.166  31.511  1.00  0.00    -0.269 OA
BRANCH  27  30
ATOM     30  C   UNL A   1      36.519  31.471  29.951  1.00  0.00     0.039 A 
ATOM     31  C   UNL A   1      37.732  32.152  29.873  1.00  0.00     0.014 A 
ATOM     32  C   UNL A   1      36.463  30.092  29.802  1.00  0.00     0.014 A 
ATOM     33  C   UNL A   1      38.903  31.401  29.769  1.00  0.00     0.010 A 
ATOM     34  C   UNL A   1      37.612  29.366  29.961  1.00  0.00     0.010 A 
ATOM     35  C   UNL A   1      38.840  29.999  29.864  1.00  0.00    -0.014 A 
BRANCH  35  36
ATOM     36  C   UNL A   1      40.042  29.176  29.916  1.00  0.00     0.031 A 
ATOM     37  C   UNL A   1      40.542  28.856  31.275  1.00  0.00     0.074 A 
ATOM     38  C   UNL A   1      40.631  28.619  28.834  1.00  0.00     0.049 A 
ATOM     39  N   UNL A   1      41.456  29.492  31.928  1.00  0.00    -0.248 NA
ATOM     40  C   UNL A   1      39.855  27.823  32.062  1.00  0.00     0.031 C 
ATOM     41  C   UNL A   1      40.173  28.565  27.437  1.00  0.00     0.029 A 
ATOM     42  N   UNL A   1      41.789  27.911  28.788  1.00  0.00    -0.354 N 
ATOM     43  C   UNL A   1      41.641  28.790  33.111  1.00  0.00     0.074 A 
ATOM     44  C   UNL A   1      40.503  27.912  33.228  1.00  0.00     0.031 C 
ATOM     45  C   UNL A   1      40.931  27.693  26.735  1.00  0.00     0.029 A 
ATOM     46  C   UNL A   1      42.049  27.306  27.567  1.00  0.00     0.049 A 
ATOM     47  H   UNL A   1      42.396  27.833  29.560  1.00  0.00     0.167 HD
ATOM     48  C   UNL A   1      42.840  28.810  33.761  1.00  0.00     0.031 A 
ATOM     49  C   UNL A   1      43.148  26.592  27.230  1.00  0.00     0.031 A 
ATOM     50  C   UNL A   1      43.716  29.823  33.218  1.00  0.00     0.049 A 
ATOM     51  C   UNL A   1      44.231  27.047  28.131  1.00  0.00     0.074 A 
ATOM     52  C   UNL A   1      43.663  31.196  33.086  1.00  0.00     0.029 A 
ATOM     53  N   UNL A   1      44.667  29.392  32.320  1.00  0.00    -0.354 N 
ATOM     54  N   UNL A   1      44.719  28.256  28.109  1.00  0.00    -0.248 NA
ATOM     55  C   UNL A   1      44.482  26.295  29.348  1.00  0.00     0.031 C 
ATOM     56  C   UNL A   1      44.234  31.466  31.805  1.00  0.00     0.029 A 
ATOM     57  C   UNL A   1      44.668  30.257  31.255  1.00  0.00     0.049 A 
ATOM     58  H   UNL A   1      45.246  28.603  32.425  1.00  0.00     0.167 HD
ATOM     59  C   UNL A   1      44.959  28.570  29.439  1.00  0.00     0.074 A 
ATOM     60  C   UNL A   1      44.898  27.288  30.140  1.00  0.00     0.031 C 
ATOM     61  C   UNL A   1      44.927  29.862  29.883  1.00  0.00     0.031 A 
BRANCH  48  62
ATOM     62  C   UNL A   1      43.378  27.661  34.584  1.00  0.00    -0.014 A 
ATOM     63  C   UNL A   1      44.185  27.951  35.704  1.00  0.00     0.010 A 
ATOM     64  C   UNL A   1      43.353  26.320  34.149  1.00  0.00     0.010 A 
ATOM     65  C   UNL A   1      44.988  26.969  36.299  1.00  0.00     0.020 A 
ATOM     66  C   UNL A   1      44.115  25.324  34.763  1.00  0.00     0.020 A 
ATOM     67  C   UNL A   1      44.958  25.664  35.811  1.00  0.00     0.054 A 
BRANCH  67  68
ATOM     68  S   UNL A   1      46.085  24.432  36.506  1.00  0.00     0.124 S 
ATOM     69  O   UNL A   1      46.261  23.519  35.381  1.00  0.00    -0.237 OA
ATOM     70  O   UNL A   1      47.249  25.241  36.855  1.00  0.00    -0.237 OA
ATOM     71  O   UNL A   1      45.343  23.892  37.643  1.00  0.00    -0.744 OA
ENDBRANCH  67  68
ENDBRANCH  48  62
BRANCH  49  72
ATOM     72  C   UNL A   1      43.198  25.326  26.463  1.00  0.00    -0.014 A 
ATOM     73  C   UNL A   1      43.993  25.228  25.308  1.00  0.00     0.010 A 
ATOM     74  C   UNL A   1      42.712  24.131  27.036  1.00  0.00     0.010 A 
ATOM     75  C   UNL A   1      44.368  23.976  24.797  1.00  0.00     0.020 A 
ATOM     76  C   UNL A   1      43.079  22.879  26.527  1.00  0.00     0.020 A 
ATOM     77  C   UNL A   1      43.931  22.808  25.428  1.00  0.00     0.054 A 
BRANCH  77  78
ATOM     78  S   UNL A   1      44.587  21.206  24.877  1.00  0.00     0.124 S 
ATOM     79  O   UNL A   1      45.881  21.152  25.549  1.00  0.00    -0.237 OA
ATOM     80  O   UNL A   1      43.581  20.268  25.368  1.00  0.00    -0.237 OA
ATOM     81  O   UNL A   1      44.649  21.339  23.422  1.00  0.00    -0.744 OA
ENDBRANCH  77  78
ENDBRANCH  49  72
BRANCH  61  82
ATOM     82  C   UNL A   1      44.950  30.976  28.856  1.00  0.00    -0.014 A 
ATOM     83  C   UNL A   1      46.094  31.736  28.538  1.00  0.00     0.010 A 
ATOM     84  C   UNL A   1      43.793  31.158  28.077  1.00  0.00     0.010 A 
ATOM     85  C   UNL A   1      46.070  32.662  27.480  1.00  0.00     0.020 A 
ATOM     86  C   UNL A   1      43.768  32.063  27.013  1.00  0.00     0.020 A 
ATOM     87  C   UNL A   1      44.905  32.816  26.721  1.00  0.00     0.054 A 
BRANCH  87  88
ATOM     88  S   UNL A   1      44.893  33.972  25.321  1.00  0.00     0.124 S 
ATOM     89  O   UNL A   1      44.328  33.165  24.244  1.00  0.00    -0.237 OA
ATOM     90  O   UNL A   1      44.045  35.059  25.804  1.00  0.00    -0.237 OA
ATOM     91  O   UNL A   1      46.302  34.328  25.149  1.00  0.00    -0.744 OA
ENDBRANCH  87  88
ENDBRANCH  61  82
ENDBRANCH  35  36
ENDBRANCH  27  30
ENDBRANCH  25  26
ENDBRANCH  24  25
ENDBRANCH   1  24
TORSDOF 18
ENDMDL
MODEL 3
REMARK VINA RESULT:     -11.4      2.729      9.663
REMARK SMILES Cc1cc(C)n2ncc(C(=O)N(C)CCCC(=O)NCCCNC(=O)c3ccc(-c4c5nc(c(-c6ccc(S(=O)(=O)[O-])cc6)c6ccc([nH]6)c(-c6ccc(S(=O)(=O)[O-])cc6)c6nc(c(-c7ccc(S(=O)(=O)[O-])cc7)c7ccc4[nH]7)C=C6)C=C5)cc3)c2n1
REMARK SMILES IDX 20 1 19 2 17 3 18 4 16 6 15 7 14 8 12 9 13 10 10 11 11 12
REMARK SMILES IDX 9 13 1 14 2 15 3 16 87 17 4 18 86 19 5 20 6 21 7 22 8 23
REMARK SMILES IDX 21 24 22 25 23 26 24 27 25 29 26 30 27 31 85 32 28 33 84 34
REMARK SMILES IDX 29 35 30 36 31 37 78 38 32 39 83 40 77 41 79 42 33 43 82 44
REMARK SMILES IDX 76 45 75 46 34 48 64 49 45 50 63 51 46 52 49 53 62 54 80 55
REMARK SMILES IDX 47 56 48 57 61 59 81 60 50 61 35 62 36 63 44 64 37 65 43 66
REMARK SMILES IDX 38 67 39 68 40 69 41 70 42 71 65 72 66 73 74 74 67 75 73 76
REMARK SMILES IDX 68 77 69 78 70 79 71 80 72 81 51 82 52 83 60 84 53 85 59 86
REMARK SMILES IDX 54 87 55 88 56 89 57 90 58 91
REMARK H PARENT 19 5 23 28 79 47 49 58
REMARK Flexibility Score: inf
ROOT
ATOM      1  C   UNL A   1      33.677  30.362  27.015  1.00  0.00     0.117 C 
ENDROOT
BRANCH   1   2
ATOM      2  N   UNL A   1      32.823  29.371  27.638  1.00  0.00    -0.356 N 
ATOM      3  C   UNL A   1      31.856  28.575  27.108  1.00  0.00     0.220 C 
ATOM      4  O   UNL A   1      31.275  27.806  27.877  1.00  0.00    -0.275 OA
ATOM      5  H   UNL A   1      32.965  29.255  28.605  1.00  0.00     0.163 HD
BRANCH   3   6
ATOM      6  C   UNL A   1      31.569  28.534  25.618  1.00  0.00     0.102 C 
BRANCH   6   7
ATOM      7  C   UNL A   1      31.137  27.235  24.932  1.00  0.00     0.031 C 
BRANCH   7   8
ATOM      8  C   UNL A   1      32.057  26.020  24.757  1.00  0.00     0.120 C 
BRANCH   8   9
ATOM      9  N   UNL A   1      31.714  24.622  25.092  1.00  0.00    -0.342 N 
ATOM     10  C   UNL A   1      30.719  24.057  24.183  1.00  0.00     0.147 C 
BRANCH   9  11
ATOM     11  C   UNL A   1      32.203  23.979  26.245  1.00  0.00     0.259 C 
ATOM     12  O   UNL A   1      31.544  23.977  27.281  1.00  0.00    -0.269 OA
BRANCH  11  13
ATOM     13  C   UNL A   1      33.497  23.288  26.250  1.00  0.00     0.104 A 
ATOM     14  C   UNL A   1      32.438  18.769  24.528  1.00  0.00     0.067 C 
ATOM     15  C   UNL A   1      33.348  19.891  24.963  1.00  0.00     0.042 A 
ATOM     16  C   UNL A   1      34.808  19.680  24.710  1.00  0.00     0.047 A 
ATOM     17  N   UNL A   1      32.832  20.961  25.498  1.00  0.00    -0.233 NA
ATOM     18  C   UNL A   1      35.633  20.649  25.140  1.00  0.00     0.043 A 
ATOM     19  C   UNL A   1      33.700  21.967  25.851  1.00  0.00     0.168 A 
ATOM     20  C   UNL A   1      37.116  20.594  24.934  1.00  0.00     0.067 C 
ATOM     21  N   UNL A   1      35.088  21.791  25.746  1.00  0.00    -0.219 N 
ATOM     22  N   UNL A   1      35.758  22.864  26.236  1.00  0.00    -0.174 NA
ATOM     23  C   UNL A   1      34.805  23.765  26.468  1.00  0.00     0.151 A 
ENDBRANCH  11  13
ENDBRANCH   9  11
ENDBRANCH   8   9
ENDBRANCH   7   8
ENDBRANCH   6   7
ENDBRANCH   3   6
ENDBRANCH   1   2
BRANCH   1  24
ATOM     24  C   UNL A   1      33.307  31.780  27.465  1.00  0.00     0.042 C 
BRANCH  24  25
ATOM     25  C   UNL A   1      34.493  32.610  27.898  1.00  0.00     0.118 C 
BRANCH  25  26
ATOM     26  N   UNL A   1      34.470  32.947  29.323  1.00  0.00    -0.352 N 
ATOM     27  C   UNL A   1      35.210  32.349  30.340  1.00  0.00     0.251 C 
ATOM     28  H   UNL A   1      33.866  33.676  29.591  1.00  0.00     0.163 HD
ATOM     29  O   UNL A   1      34.860  32.418  31.498  1.00  0.00    -0.269 OA
BRANCH  27  30
ATOM     30  C   UNL A   1      36.425  31.612  29.935  1.00  0.00     0.039 A 
ATOM     31  C   UNL A   1      37.651  32.247  29.741  1.00  0.00     0.014 A 
ATOM     32  C   UNL A   1      36.326  30.228  29.910  1.00  0.00     0.014 A 
ATOM     33  C   UNL A   1      38.795  31.454  29.647  1.00  0.00     0.010 A 
ATOM     34  C   UNL A   1      37.462  29.484  30.076  1.00  0.00     0.010 A 
ATOM     35  C   UNL A   1      38.700  30.068  29.866  1.00  0.00    -0.014 A 
BRANCH  35  36
ATOM     36  C   UNL A   1      39.881  29.216  29.932  1.00  0.00     0.031 A 
ATOM     37  C   UNL A   1      40.348  28.872  31.297  1.00  0.00     0.074 A 
ATOM     38  C   UNL A   1      40.476  28.655  28.857  1.00  0.00     0.049 A 
ATOM     39  N   UNL A   1      41.265  29.481  31.973  1.00  0.00    -0.248 NA
ATOM     40  C   UNL A   1      39.623  27.849  32.063  1.00  0.00     0.031 C 
ATOM     41  C   UNL A   1      40.043  28.624  27.451  1.00  0.00     0.029 A 
ATOM     42  N   UNL A   1      41.617  27.919  28.825  1.00  0.00    -0.354 N 
ATOM     43  C   UNL A   1      41.411  28.765  33.152  1.00  0.00     0.074 A 
ATOM     44  C   UNL A   1      40.251  27.912  33.241  1.00  0.00     0.031 C 
ATOM     45  C   UNL A   1      40.792  27.740  26.755  1.00  0.00     0.029 A 
ATOM     46  C   UNL A   1      41.885  27.319  27.603  1.00  0.00     0.049 A 
ATOM     47  H   UNL A   1      42.208  27.821  29.606  1.00  0.00     0.167 HD
ATOM     48  C   UNL A   1      42.598  28.750  33.823  1.00  0.00     0.031 A 
ATOM     49  C   UNL A   1      42.973  26.582  27.280  1.00  0.00     0.031 A 
ATOM     50  C   UNL A   1      43.508  29.746  33.306  1.00  0.00     0.049 A 
ATOM     51  C   UNL A   1      44.050  27.003  28.204  1.00  0.00     0.074 A 
ATOM     52  C   UNL A   1      43.491  31.122  33.186  1.00  0.00     0.029 A 
ATOM     53  N   UNL A   1      44.465  29.301  32.422  1.00  0.00    -0.354 N 
ATOM     54  N   UNL A   1      44.567  28.201  28.202  1.00  0.00    -0.248 NA
ATOM     55  C   UNL A   1      44.260  26.235  29.418  1.00  0.00     0.031 C 
ATOM     56  C   UNL A   1      44.091  31.389  31.918  1.00  0.00     0.029 A 
ATOM     57  C   UNL A   1      44.506  30.175  31.364  1.00  0.00     0.049 A 
ATOM     58  H   UNL A   1      45.023  28.497  32.530  1.00  0.00     0.167 HD
ATOM     59  C   UNL A   1      44.790  28.497  29.539  1.00  0.00     0.074 A 
ATOM     60  C   UNL A   1      44.686  27.210  30.226  1.00  0.00     0.031 C 
ATOM     61  C   UNL A   1      44.781  29.785  29.993  1.00  0.00     0.031 A 
BRANCH  48  62
ATOM     62  C   UNL A   1      43.094  27.582  34.646  1.00  0.00    -0.014 A 
ATOM     63  C   UNL A   1      43.466  27.808  35.987  1.00  0.00     0.010 A 
ATOM     64  C   UNL A   1      43.466  26.343  34.083  1.00  0.00     0.010 A 
ATOM     65  C   UNL A   1      44.242  26.881  36.696  1.00  0.00     0.020 A 
ATOM     66  C   UNL A   1      44.202  25.393  34.796  1.00  0.00     0.020 A 
ATOM     67  C   UNL A   1      44.618  25.685  36.086  1.00  0.00     0.054 A 
BRANCH  67  68
ATOM     68  S   UNL A   1      45.718  24.550  36.964  1.00  0.00     0.124 S 
ATOM     69  O   UNL A   1      45.367  24.810  38.357  1.00  0.00    -0.237 OA
ATOM     70  O   UNL A   1      45.306  23.253  36.436  1.00  0.00    -0.237 OA
ATOM     71  O   UNL A   1      47.053  24.987  36.560  1.00  0.00    -0.744 OA
ENDBRANCH  67  68
ENDBRANCH  48  62
BRANCH  49  72
ATOM     72  C   UNL A   1      43.007  25.322  26.502  1.00  0.00    -0.014 A 
ATOM     73  C   UNL A   1      43.771  25.236  25.325  1.00  0.00     0.010 A 
ATOM     74  C   UNL A   1      42.542  24.121  27.079  1.00  0.00     0.010 A 
ATOM     75  C   UNL A   1      44.137  23.989  24.795  1.00  0.00     0.020 A 
ATOM     76  C   UNL A   1      42.899  22.874  26.551  1.00  0.00     0.020 A 
ATOM     77  C   UNL A   1      43.721  22.815  25.428  1.00  0.00     0.054 A 
BRANCH  77  78
ATOM     78  S   UNL A   1      44.368  21.219  24.848  1.00  0.00     0.124 S 
ATOM     79  O   UNL A   1      45.608  21.091  25.607  1.00  0.00    -0.237 OA
ATOM     80  O   UNL A   1      43.302  20.293  25.219  1.00  0.00    -0.237 OA
ATOM     81  O   UNL A   1      44.540  21.418  23.410  1.00  0.00    -0.744 OA
ENDBRANCH  77  78
ENDBRANCH  49  72
BRANCH  61  82
ATOM     82  C   UNL A   1      44.849  30.907  28.978  1.00  0.00    -0.014 A 
ATOM     83  C   UNL A   1      46.013  31.649  28.694  1.00  0.00     0.010 A 
ATOM     84  C   UNL A   1      43.714  31.117  28.173  1.00  0.00     0.010 A 
ATOM     85  C   UNL A   1      46.032  32.584  27.645  1.00  0.00     0.020 A 
ATOM     86  C   UNL A   1      43.732  32.032  27.116  1.00  0.00     0.020 A 
ATOM     87  C   UNL A   1      44.889  32.766  26.859  1.00  0.00     0.054 A 
BRANCH  87  88
ATOM     88  S   UNL A   1      44.932  33.934  25.469  1.00  0.00     0.124 S 
ATOM     89  O   UNL A   1      44.055  35.008  25.926  1.00  0.00    -0.237 OA
ATOM     90  O   UNL A   1      46.350  34.276  25.375  1.00  0.00    -0.237 OA
ATOM     91  O   UNL A   1      44.417  33.156  24.342  1.00  0.00    -0.744 OA
ENDBRANCH  87  88
ENDBRANCH  61  82
ENDBRANCH  35  36
ENDBRANCH  27  30
ENDBRANCH  25  26
ENDBRANCH  24  25
ENDBRANCH   1  24
TORSDOF 18
ENDMDL
