MODEL 1
REMARK VINA RESULT:      -7.9      0.000      0.000
REMARK SMILES Cn1nc(-c2cccs2)cc1C(=O)N1CC[C@@H](c2ccccc2C(=O)NCCCNC(=O)c2ccc(-c3c4nc(c(-c5ccc(S(=O)(=O)[O-])cc5)c5ccc([nH]5)c(-c5ccc(S(=O)(=O)[O-])cc5)c5nc(c(-c6ccc(S(=O)(=O)[O-])cc6)c6ccc3[nH]6)C=C5)C=C4)cc2)C1
REMARK SMILES IDX 27 1 26 2 24 3 25 4 23 6 18 7 19 8 20 9 22 10 21 11 17 12
REMARK SMILES IDX 14 13 15 14 93 15 16 16 12 17 13 18 11 19 1 20 2 21 3 22
REMARK SMILES IDX 4 23 10 24 5 25 6 26 9 27 7 28 8 29 28 30 29 31 30 32 31 33
REMARK SMILES IDX 32 35 33 36 34 37 92 38 35 39 91 40 36 41 37 42 38 43 85 44
REMARK SMILES IDX 39 45 90 46 84 47 86 48 40 49 89 50 83 51 82 52 41 54 71 55
REMARK SMILES IDX 52 56 70 57 53 58 56 59 69 60 87 61 54 62 55 63 68 65 88 66
REMARK SMILES IDX 57 67 42 68 43 69 51 70 44 71 50 72 45 73 46 74 47 75 48 76
REMARK SMILES IDX 49 77 72 78 73 79 81 80 74 81 80 82 75 83 76 84 77 85 78 86
REMARK SMILES IDX 79 87 58 88 59 89 67 90 60 91 66 92 61 93 62 94 63 95 64 96
REMARK SMILES IDX 65 97
REMARK H PARENT 26 5 30 34 86 53 56 64
REMARK Flexibility Score: inf
ROOT
ATOM      1  C   UNL A   1      38.669  31.611  31.800  1.00  0.00     0.118 C 
ENDROOT
BRANCH   1   2
ATOM      2  N   UNL A   1      38.722  32.817  32.608  1.00  0.00    -0.352 N 
ATOM      3  C   UNL A   1      39.462  33.962  32.480  1.00  0.00     0.251 C 
ATOM      4  O   UNL A   1      39.283  34.884  33.273  1.00  0.00    -0.269 OA
ATOM      5  H   UNL A   1      38.117  32.811  33.386  1.00  0.00     0.163 HD
BRANCH   3   6
ATOM      6  C   UNL A   1      40.418  34.164  31.370  1.00  0.00     0.043 A 
ATOM      7  C   UNL A   1      41.820  34.132  31.514  1.00  0.00    -0.030 A 
ATOM      8  C   UNL A   1      42.600  34.518  30.403  1.00  0.00     0.005 A 
ATOM      9  C   UNL A   1      42.017  34.918  29.200  1.00  0.00     0.000 A 
ATOM     10  C   UNL A   1      39.837  34.578  30.157  1.00  0.00     0.014 A 
ATOM     11  C   UNL A   1      40.634  34.943  29.074  1.00  0.00     0.001 A 
BRANCH   7  12
ATOM     12  C   UNL A   1      42.509  33.679  32.779  1.00  0.00     0.041 C 
ATOM     13  N   UNL A   1      44.314  32.466  33.663  1.00  0.00    -0.337 N 
ATOM     14  C   UNL A   1      44.457  33.803  34.222  1.00  0.00     0.120 C 
ATOM     15  C   UNL A   1      43.415  32.471  32.534  1.00  0.00     0.128 C 
ATOM     16  C   UNL A   1      43.470  34.680  33.443  1.00  0.00     0.032 C 
BRANCH  13  17
ATOM     17  C   UNL A   1      45.045  31.330  33.952  1.00  0.00     0.272 C 
ATOM     18  O   UNL A   1      45.479  31.138  35.087  1.00  0.00    -0.267 OA
BRANCH  17  19
ATOM     19  C   UNL A   1      45.287  30.393  32.889  1.00  0.00     0.126 A 
ATOM     20  C   UNL A   1      47.533  31.224  32.060  1.00  0.00     0.174 C 
ATOM     21  N   UNL A   1      46.376  30.361  32.059  1.00  0.00    -0.262 N 
ATOM     22  N   UNL A   1      46.382  29.311  31.223  1.00  0.00    -0.172 NA
ATOM     23  C   UNL A   1      45.316  28.587  31.577  1.00  0.00     0.103 A 
ATOM     24  C   UNL A   1      44.592  29.228  32.606  1.00  0.00     0.065 A 
BRANCH  23  25
ATOM     25  C   UNL A   1      45.009  27.255  30.956  1.00  0.00     0.055 A 
ATOM     26  C   UNL A   1      43.747  26.709  30.835  1.00  0.00     0.022 A 
ATOM     27  S   UNL A   1      46.210  26.210  30.327  1.00  0.00    -0.142 S 
ATOM     28  C   UNL A   1      43.772  25.418  30.223  1.00  0.00     0.012 A 
ATOM     29  C   UNL A   1      45.051  25.030  29.894  1.00  0.00     0.065 A 
ENDBRANCH  23  25
ENDBRANCH  17  19
ENDBRANCH  13  17
ENDBRANCH   7  12
ENDBRANCH   3   6
ENDBRANCH   1   2
BRANCH   1  30
ATOM     30  C   UNL A   1      37.260  31.362  31.253  1.00  0.00     0.042 C 
BRANCH  30  31
ATOM     31  C   UNL A   1      36.838  29.889  31.238  1.00  0.00     0.118 C 
BRANCH  31  32
ATOM     32  N   UNL A   1      36.067  29.557  30.054  1.00  0.00    -0.352 N 
ATOM     33  C   UNL A   1      36.508  29.262  28.785  1.00  0.00     0.251 C 
ATOM     34  H   UNL A   1      35.090  29.542  30.175  1.00  0.00     0.163 HD
ATOM     35  O   UNL A   1      35.695  29.196  27.867  1.00  0.00    -0.269 OA
BRANCH  33  36
ATOM     36  C   UNL A   1      37.947  29.031  28.509  1.00  0.00     0.039 A 
ATOM     37  C   UNL A   1      38.734  28.441  29.504  1.00  0.00     0.014 A 
ATOM     38  C   UNL A   1      38.544  29.469  27.322  1.00  0.00     0.014 A 
ATOM     39  C   UNL A   1      40.107  28.262  29.303  1.00  0.00     0.010 A 
ATOM     40  C   UNL A   1      39.913  29.271  27.112  1.00  0.00     0.010 A 
ATOM     41  C   UNL A   1      40.707  28.674  28.104  1.00  0.00    -0.014 A 
BRANCH  41  42
ATOM     42  C   UNL A   1      42.170  28.528  27.893  1.00  0.00     0.031 A 
ATOM     43  C   UNL A   1      43.096  29.672  28.201  1.00  0.00     0.074 A 
ATOM     44  C   UNL A   1      42.674  27.383  27.396  1.00  0.00     0.049 A 
ATOM     45  N   UNL A   1      44.382  29.777  27.974  1.00  0.00    -0.248 NA
ATOM     46  C   UNL A   1      42.496  30.854  28.838  1.00  0.00     0.031 C 
ATOM     47  C   UNL A   1      41.898  26.190  27.054  1.00  0.00     0.029 A 
ATOM     48  N   UNL A   1      43.967  27.041  27.086  1.00  0.00    -0.354 N 
ATOM     49  C   UNL A   1      44.739  31.048  28.404  1.00  0.00     0.074 A 
ATOM     50  C   UNL A   1      43.536  31.673  28.919  1.00  0.00     0.031 C 
ATOM     51  C   UNL A   1      42.731  25.244  26.585  1.00  0.00     0.029 A 
ATOM     52  C   UNL A   1      44.094  25.772  26.577  1.00  0.00     0.049 A 
ATOM     53  H   UNL A   1      44.730  27.649  27.217  1.00  0.00     0.167 HD
ATOM     54  C   UNL A   1      45.952  31.650  28.369  1.00  0.00     0.031 A 
ATOM     55  C   UNL A   1      45.182  25.110  26.141  1.00  0.00     0.031 A 
ATOM     56  C   UNL A   1      47.160  31.038  27.889  1.00  0.00     0.049 A 
ATOM     57  C   UNL A   1      46.528  25.777  26.163  1.00  0.00     0.074 A 
ATOM     58  C   UNL A   1      48.431  31.581  27.805  1.00  0.00     0.029 A 
ATOM     59  N   UNL A   1      47.253  29.735  27.429  1.00  0.00    -0.354 N 
ATOM     60  N   UNL A   1      46.837  26.994  26.537  1.00  0.00    -0.248 NA
ATOM     61  C   UNL A   1      47.671  24.977  25.698  1.00  0.00     0.031 C 
ATOM     62  C   UNL A   1      49.294  30.602  27.295  1.00  0.00     0.029 A 
ATOM     63  C   UNL A   1      48.559  29.450  27.069  1.00  0.00     0.049 A 
ATOM     64  H   UNL A   1      46.500  29.103  27.367  1.00  0.00     0.167 HD
ATOM     65  C   UNL A   1      48.209  27.109  26.348  1.00  0.00     0.074 A 
ATOM     66  C   UNL A   1      48.673  25.834  25.839  1.00  0.00     0.031 C 
ATOM     67  C   UNL A   1      49.008  28.180  26.568  1.00  0.00     0.031 A 
BRANCH  54  68
ATOM     68  C   UNL A   1      46.009  33.071  28.847  1.00  0.00    -0.014 A 
ATOM     69  C   UNL A   1      45.938  34.139  27.938  1.00  0.00     0.010 A 
ATOM     70  C   UNL A   1      46.153  33.337  30.219  1.00  0.00     0.010 A 
ATOM     71  C   UNL A   1      46.053  35.457  28.390  1.00  0.00     0.020 A 
ATOM     72  C   UNL A   1      46.261  34.653  30.675  1.00  0.00     0.020 A 
ATOM     73  C   UNL A   1      46.233  35.704  29.754  1.00  0.00     0.054 A 
BRANCH  73  74
ATOM     74  S   UNL A   1      46.407  37.410  30.345  1.00  0.00     0.124 S 
ATOM     75  O   UNL A   1      47.816  37.679  30.068  1.00  0.00    -0.237 OA
ATOM     76  O   UNL A   1      45.455  38.151  29.520  1.00  0.00    -0.237 OA
ATOM     77  O   UNL A   1      46.053  37.313  31.758  1.00  0.00    -0.744 OA
ENDBRANCH  73  74
ENDBRANCH  54  68
BRANCH  55  78
ATOM     78  C   UNL A   1      45.039  23.727  25.627  1.00  0.00    -0.014 A 
ATOM     79  C   UNL A   1      44.659  23.502  24.293  1.00  0.00     0.010 A 
ATOM     80  C   UNL A   1      45.297  22.632  26.468  1.00  0.00     0.010 A 
ATOM     81  C   UNL A   1      44.532  22.198  23.806  1.00  0.00     0.020 A 
ATOM     82  C   UNL A   1      45.177  21.327  25.982  1.00  0.00     0.020 A 
ATOM     83  C   UNL A   1      44.787  21.119  24.656  1.00  0.00     0.054 A 
BRANCH  83  84
ATOM     84  S   UNL A   1      44.666  19.420  24.028  1.00  0.00     0.124 S 
ATOM     85  O   UNL A   1      43.475  18.929  24.713  1.00  0.00    -0.237 OA
ATOM     86  O   UNL A   1      44.531  19.601  22.585  1.00  0.00    -0.237 OA
ATOM     87  O   UNL A   1      45.930  18.824  24.459  1.00  0.00    -0.744 OA
ENDBRANCH  83  84
ENDBRANCH  55  78
BRANCH  67  88
ATOM     88  C   UNL A   1      50.468  28.016  26.260  1.00  0.00    -0.014 A 
ATOM     89  C   UNL A   1      51.360  27.591  27.259  1.00  0.00     0.010 A 
ATOM     90  C   UNL A   1      50.947  28.259  24.962  1.00  0.00     0.010 A 
ATOM     91  C   UNL A   1      52.718  27.428  26.968  1.00  0.00     0.020 A 
ATOM     92  C   UNL A   1      52.303  28.094  24.668  1.00  0.00     0.020 A 
ATOM     93  C   UNL A   1      53.182  27.689  25.676  1.00  0.00     0.054 A 
BRANCH  93  94
ATOM     94  S   UNL A   1      54.939  27.443  25.289  1.00  0.00     0.124 S 
ATOM     95  O   UNL A   1      55.117  26.024  25.583  1.00  0.00    -0.237 OA
ATOM     96  O   UNL A   1      55.024  27.806  23.875  1.00  0.00    -0.237 OA
ATOM     97  O   UNL A   1      55.616  28.361  26.200  1.00  0.00    -0.744 OA
ENDBRANCH  93  94
ENDBRANCH  67  88
ENDBRANCH  41  42
ENDBRANCH  33  36
ENDBRANCH  31  32
ENDBRANCH  30  31
ENDBRANCH   1  30
TORSDOF 17
ENDMDL
MODEL 2
REMARK VINA RESULT:      -7.8      2.612      9.117
REMARK SMILES Cn1nc(-c2cccs2)cc1C(=O)N1CC[C@@H](c2ccccc2C(=O)NCCCNC(=O)c2ccc(-c3c4nc(c(-c5ccc(S(=O)(=O)[O-])cc5)c5ccc([nH]5)c(-c5ccc(S(=O)(=O)[O-])cc5)c5nc(c(-c6ccc(S(=O)(=O)[O-])cc6)c6ccc3[nH]6)C=C5)C=C4)cc2)C1
REMARK SMILES IDX 27 1 26 2 24 3 25 4 23 6 18 7 19 8 20 9 22 10 21 11 17 12
REMARK SMILES IDX 14 13 15 14 93 15 16 16 12 17 13 18 11 19 1 20 2 21 3 22
REMARK SMILES IDX 4 23 10 24 5 25 6 26 9 27 7 28 8 29 28 30 29 31 30 32 31 33
REMARK SMILES IDX 32 35 33 36 34 37 92 38 35 39 91 40 36 41 37 42 38 43 85 44
REMARK SMILES IDX 39 45 90 46 84 47 86 48 40 49 89 50 83 51 82 52 41 54 71 55
REMARK SMILES IDX 52 56 70 57 53 58 56 59 69 60 87 61 54 62 55 63 68 65 88 66
REMARK SMILES IDX 57 67 42 68 43 69 51 70 44 71 50 72 45 73 46 74 47 75 48 76
REMARK SMILES IDX 49 77 72 78 73 79 81 80 74 81 80 82 75 83 76 84 77 85 78 86
REMARK SMILES IDX 79 87 58 88 59 89 67 90 60 91 66 92 61 93 62 94 63 95 64 96
REMARK SMILES IDX 65 97
REMARK H PARENT 26 5 30 34 86 53 56 64
REMARK Flexibility Score: inf
ROOT
ATOM      1  C   UNL A   1      43.476  35.452  31.293  1.00  0.00     0.118 C 
ENDROOT
BRANCH   1   2
ATOM      2  N   UNL A   1      42.795  35.063  32.516  1.00  0.00    -0.352 N 
ATOM      3  C   UNL A   1      42.759  33.874  33.194  1.00  0.00     0.251 C 
ATOM      4  O   UNL A   1      42.148  33.809  34.258  1.00  0.00    -0.269 OA
ATOM      5  H   UNL A   1      42.266  35.783  32.932  1.00  0.00     0.163 HD
BRANCH   3   6
ATOM      6  C   UNL A   1      43.499  32.679  32.733  1.00  0.00     0.043 A 
ATOM      7  C   UNL A   1      42.895  31.555  32.135  1.00  0.00    -0.030 A 
ATOM      8  C   UNL A   1      43.704  30.420  31.910  1.00  0.00     0.005 A 
ATOM      9  C   UNL A   1      45.055  30.401  32.262  1.00  0.00     0.000 A 
ATOM     10  C   UNL A   1      44.858  32.650  33.093  1.00  0.00     0.014 A 
ATOM     11  C   UNL A   1      45.634  31.519  32.849  1.00  0.00     0.001 A 
BRANCH   7  12
ATOM     12  C   UNL A   1      41.448  31.526  31.705  1.00  0.00     0.041 C 
ATOM     13  N   UNL A   1      39.237  31.995  32.342  1.00  0.00    -0.337 N 
ATOM     14  C   UNL A   1      39.445  32.770  31.127  1.00  0.00     0.120 C 
ATOM     15  C   UNL A   1      40.496  31.565  32.903  1.00  0.00     0.128 C 
ATOM     16  C   UNL A   1      40.952  32.708  30.854  1.00  0.00     0.032 C 
BRANCH  13  17
ATOM     17  C   UNL A   1      38.071  31.818  33.062  1.00  0.00     0.272 C 
ATOM     18  O   UNL A   1      37.818  30.733  33.585  1.00  0.00    -0.267 OA
BRANCH  17  19
ATOM     19  C   UNL A   1      37.167  32.930  33.168  1.00  0.00     0.126 A 
ATOM     20  C   UNL A   1      38.482  34.430  34.733  1.00  0.00     0.174 C 
ATOM     21  N   UNL A   1      37.351  34.066  33.911  1.00  0.00    -0.262 N 
ATOM     22  N   UNL A   1      36.385  34.981  33.740  1.00  0.00    -0.172 NA
ATOM     23  C   UNL A   1      35.595  34.470  32.792  1.00  0.00     0.103 A 
ATOM     24  C   UNL A   1      36.036  33.183  32.410  1.00  0.00     0.065 A 
BRANCH  23  25
ATOM     25  C   UNL A   1      34.436  35.232  32.217  1.00  0.00     0.055 A 
ATOM     26  C   UNL A   1      33.667  36.146  32.909  1.00  0.00     0.022 A 
ATOM     27  S   UNL A   1      33.891  35.043  30.606  1.00  0.00    -0.142 S 
ATOM     28  C   UNL A   1      32.620  36.692  32.104  1.00  0.00     0.012 A 
ATOM     29  C   UNL A   1      32.632  36.178  30.828  1.00  0.00     0.065 A 
ENDBRANCH  23  25
ENDBRANCH  17  19
ENDBRANCH  13  17
ENDBRANCH   7  12
ENDBRANCH   3   6
ENDBRANCH   1   2
BRANCH   1  30
ATOM     30  C   UNL A   1      44.192  36.798  31.450  1.00  0.00     0.042 C 
BRANCH  30  31
ATOM     31  C   UNL A   1      45.620  36.696  31.996  1.00  0.00     0.118 C 
BRANCH  31  32
ATOM     32  N   UNL A   1      46.568  37.427  31.175  1.00  0.00    -0.352 N 
ATOM     33  C   UNL A   1      47.396  36.961  30.181  1.00  0.00     0.251 C 
ATOM     34  H   UNL A   1      46.627  38.393  31.357  1.00  0.00     0.163 HD
ATOM     35  O   UNL A   1      48.268  37.700  29.732  1.00  0.00    -0.269 OA
BRANCH  33  36
ATOM     36  C   UNL A   1      47.257  35.582  29.652  1.00  0.00     0.039 A 
ATOM     37  C   UNL A   1      46.945  35.413  28.298  1.00  0.00     0.014 A 
ATOM     38  C   UNL A   1      47.343  34.464  30.489  1.00  0.00     0.014 A 
ATOM     39  C   UNL A   1      46.748  34.130  27.776  1.00  0.00     0.010 A 
ATOM     40  C   UNL A   1      47.166  33.180  29.962  1.00  0.00     0.010 A 
ATOM     41  C   UNL A   1      46.859  33.003  28.604  1.00  0.00    -0.014 A 
BRANCH  41  42
ATOM     42  C   UNL A   1      46.612  31.638  28.073  1.00  0.00     0.031 A 
ATOM     43  C   UNL A   1      45.226  31.057  28.099  1.00  0.00     0.074 A 
ATOM     44  C   UNL A   1      47.632  30.902  27.593  1.00  0.00     0.049 A 
ATOM     45  N   UNL A   1      44.834  29.845  27.792  1.00  0.00    -0.248 NA
ATOM     46  C   UNL A   1      44.143  31.950  28.538  1.00  0.00     0.031 C 
ATOM     47  C   UNL A   1      49.026  31.336  27.502  1.00  0.00     0.029 A 
ATOM     48  N   UNL A   1      47.646  29.622  27.095  1.00  0.00    -0.354 N 
ATOM     49  C   UNL A   1      43.466  29.818  28.035  1.00  0.00     0.074 A 
ATOM     50  C   UNL A   1      43.095  31.139  28.502  1.00  0.00     0.031 C 
ATOM     51  C   UNL A   1      49.762  30.341  26.975  1.00  0.00     0.029 A 
ATOM     52  C   UNL A   1      48.894  29.195  26.710  1.00  0.00     0.049 A 
ATOM     53  H   UNL A   1      46.838  29.064  27.020  1.00  0.00     0.167 HD
ATOM     54  C   UNL A   1      42.596  28.790  27.892  1.00  0.00     0.031 A 
ATOM     55  C   UNL A   1      49.298  28.012  26.212  1.00  0.00     0.031 A 
ATOM     56  C   UNL A   1      42.940  27.483  27.403  1.00  0.00     0.049 A 
ATOM     57  C   UNL A   1      48.305  26.903  26.009  1.00  0.00     0.074 A 
ATOM     58  C   UNL A   1      42.123  26.377  27.239  1.00  0.00     0.029 A 
ATOM     59  N   UNL A   1      44.205  27.109  26.978  1.00  0.00    -0.354 N 
ATOM     60  N   UNL A   1      47.024  26.885  26.282  1.00  0.00    -0.248 NA
ATOM     61  C   UNL A   1      48.819  25.651  25.432  1.00  0.00     0.031 C 
ATOM     62  C   UNL A   1      42.896  25.334  26.712  1.00  0.00     0.029 A 
ATOM     63  C   UNL A   1      44.191  25.795  26.543  1.00  0.00     0.049 A 
ATOM     64  H   UNL A   1      44.998  27.693  26.985  1.00  0.00     0.167 HD
ATOM     65  C   UNL A   1      46.579  25.620  25.918  1.00  0.00     0.074 A 
ATOM     66  C   UNL A   1      47.723  24.905  25.390  1.00  0.00     0.031 C 
ATOM     67  C   UNL A   1      45.333  25.097  26.019  1.00  0.00     0.031 A 
BRANCH  54  68
ATOM     68  C   UNL A   1      41.178  29.049  28.306  1.00  0.00    -0.014 A 
ATOM     69  C   UNL A   1      40.798  28.973  29.656  1.00  0.00     0.010 A 
ATOM     70  C   UNL A   1      40.214  29.356  27.331  1.00  0.00     0.010 A 
ATOM     71  C   UNL A   1      39.462  29.158  30.023  1.00  0.00     0.020 A 
ATOM     72  C   UNL A   1      38.880  29.548  27.694  1.00  0.00     0.020 A 
ATOM     73  C   UNL A   1      38.508  29.426  29.036  1.00  0.00     0.054 A 
BRANCH  73  74
ATOM     74  S   UNL A   1      36.768  29.644  29.501  1.00  0.00     0.124 S 
ATOM     75  O   UNL A   1      36.078  29.054  28.356  1.00  0.00    -0.237 OA
ATOM     76  O   UNL A   1      36.657  28.894  30.751  1.00  0.00    -0.237 OA
ATOM     77  O   UNL A   1      36.636  31.092  29.636  1.00  0.00    -0.744 OA
ENDBRANCH  73  74
ENDBRANCH  54  68
BRANCH  55  78
ATOM     78  C   UNL A   1      50.728  27.808  25.879  1.00  0.00    -0.014 A 
ATOM     79  C   UNL A   1      51.661  27.547  26.896  1.00  0.00     0.010 A 
ATOM     80  C   UNL A   1      51.156  27.861  24.543  1.00  0.00     0.010 A 
ATOM     81  C   UNL A   1      53.008  27.346  26.582  1.00  0.00     0.020 A 
ATOM     82  C   UNL A   1      52.501  27.656  24.226  1.00  0.00     0.020 A 
ATOM     83  C   UNL A   1      53.420  27.408  25.248  1.00  0.00     0.054 A 
BRANCH  83  84
ATOM     84  S   UNL A   1      55.159  27.110  24.819  1.00  0.00     0.124 S 
ATOM     85  O   UNL A   1      55.787  27.046  26.135  1.00  0.00    -0.237 OA
ATOM     86  O   UNL A   1      55.114  25.849  24.082  1.00  0.00    -0.237 OA
ATOM     87  O   UNL A   1      55.500  28.282  24.015  1.00  0.00    -0.744 OA
ENDBRANCH  83  84
ENDBRANCH  55  78
BRANCH  67  88
ATOM     88  C   UNL A   1      45.146  23.684  25.549  1.00  0.00    -0.014 A 
ATOM     89  C   UNL A   1      44.871  23.417  24.197  1.00  0.00     0.010 A 
ATOM     90  C   UNL A   1      45.273  22.617  26.455  1.00  0.00     0.010 A 
ATOM     91  C   UNL A   1      44.708  22.099  23.759  1.00  0.00     0.020 A 
ATOM     92  C   UNL A   1      45.114  21.299  26.018  1.00  0.00     0.020 A 
ATOM     93  C   UNL A   1      44.821  21.049  24.675  1.00  0.00     0.054 A 
BRANCH  93  94
ATOM     94  S   UNL A   1      44.646  19.336  24.099  1.00  0.00     0.124 S 
ATOM     95  O   UNL A   1      43.423  18.913  24.775  1.00  0.00    -0.237 OA
ATOM     96  O   UNL A   1      44.543  19.479  22.648  1.00  0.00    -0.237 OA
ATOM     97  O   UNL A   1      45.873  18.698  24.567  1.00  0.00    -0.744 OA
ENDBRANCH  93  94
ENDBRANCH  67  88
ENDBRANCH  41  42
ENDBRANCH  33  36
ENDBRANCH  31  32
ENDBRANCH  30  31
ENDBRANCH   1  30
TORSDOF 17
ENDMDL
MODEL 3
REMARK VINA RESULT:      -7.8      7.336     12.619
REMARK SMILES Cn1nc(-c2cccs2)cc1C(=O)N1CC[C@@H](c2ccccc2C(=O)NCCCNC(=O)c2ccc(-c3c4nc(c(-c5ccc(S(=O)(=O)[O-])cc5)c5ccc([nH]5)c(-c5ccc(S(=O)(=O)[O-])cc5)c5nc(c(-c6ccc(S(=O)(=O)[O-])cc6)c6ccc3[nH]6)C=C5)C=C4)cc2)C1
REMARK SMILES IDX 27 1 26 2 24 3 25 4 23 6 18 7 19 8 20 9 22 10 21 11 17 12
REMARK SMILES IDX 14 13 15 14 93 15 16 16 12 17 13 18 11 19 1 20 2 21 3 22
REMARK SMILES IDX 4 23 10 24 5 25 6 26 9 27 7 28 8 29 28 30 29 31 30 32 31 33
REMARK SMILES IDX 32 35 33 36 34 37 92 38 35 39 91 40 36 41 37 42 38 43 85 44
REMARK SMILES IDX 39 45 90 46 84 47 86 48 40 49 89 50 83 51 82 52 41 54 71 55
REMARK SMILES IDX 52 56 70 57 53 58 56 59 69 60 87 61 54 62 55 63 68 65 88 66
REMARK SMILES IDX 57 67 42 68 43 69 51 70 44 71 50 72 45 73 46 74 47 75 48 76
REMARK SMILES IDX 49 77 72 78 73 79 81 80 74 81 80 82 75 83 76 84 77 85 78 86
REMARK SMILES IDX 79 87 58 88 59 89 67 90 60 91 66 92 61 93 62 94 63 95 64 96
REMARK SMILES IDX 65 97
REMARK H PARENT 26 5 30 34 86 53 56 64
REMARK Flexibility Score: inf
ROOT
ATOM      1  C   UNL A   1      45.829  40.028  26.183  1.00  0.00     0.118 C 
ENDROOT
BRANCH   1   2
ATOM      2  N   UNL A   1      44.451  40.407  25.919  1.00  0.00    -0.352 N 
ATOM      3  C   UNL A   1      43.878  41.627  25.680  1.00  0.00     0.251 C 
ATOM      4  O   UNL A   1      42.678  41.685  25.420  1.00  0.00    -0.269 OA
ATOM      5  H   UNL A   1      43.817  39.653  25.909  1.00  0.00     0.163 HD
BRANCH   3   6
ATOM      6  C   UNL A   1      44.666  42.878  25.643  1.00  0.00     0.043 A 
ATOM      7  C   UNL A   1      45.302  43.381  24.490  1.00  0.00    -0.030 A 
ATOM      8  C   UNL A   1      46.163  44.488  24.650  1.00  0.00     0.005 A 
ATOM      9  C   UNL A   1      46.384  45.072  25.898  1.00  0.00     0.000 A 
ATOM     10  C   UNL A   1      44.901  43.466  26.900  1.00  0.00     0.014 A 
ATOM     11  C   UNL A   1      45.749  44.564  27.024  1.00  0.00     0.001 A 
BRANCH   7  12
ATOM     12  C   UNL A   1      45.079  42.812  23.110  1.00  0.00     0.041 C 
ATOM     13  N   UNL A   1      44.094  43.177  21.010  1.00  0.00    -0.337 N 
ATOM     14  C   UNL A   1      45.506  42.962  20.725  1.00  0.00     0.120 C 
ATOM     15  C   UNL A   1      43.888  43.468  22.409  1.00  0.00     0.128 C 
ATOM     16  C   UNL A   1      46.210  43.008  22.086  1.00  0.00     0.032 C 
BRANCH  13  17
ATOM     17  C   UNL A   1      43.048  43.318  20.119  1.00  0.00     0.272 C 
ATOM     18  O   UNL A   1      42.127  42.503  20.101  1.00  0.00    -0.267 OA
BRANCH  17  19
ATOM     19  C   UNL A   1      43.078  44.434  19.214  1.00  0.00     0.126 A 
ATOM     20  C   UNL A   1      40.711  44.344  18.310  1.00  0.00     0.174 C 
ATOM     21  N   UNL A   1      42.051  44.870  18.418  1.00  0.00    -0.262 N 
ATOM     22  N   UNL A   1      42.333  45.999  17.750  1.00  0.00    -0.172 NA
ATOM     23  C   UNL A   1      43.542  46.363  18.189  1.00  0.00     0.103 A 
ATOM     24  C   UNL A   1      44.054  45.410  19.097  1.00  0.00     0.065 A 
BRANCH  23  25
ATOM     25  C   UNL A   1      44.194  47.649  17.770  1.00  0.00     0.055 A 
ATOM     26  C   UNL A   1      43.520  48.786  17.371  1.00  0.00     0.022 A 
ATOM     27  S   UNL A   1      45.890  47.868  17.708  1.00  0.00    -0.142 S 
ATOM     28  C   UNL A   1      44.410  49.844  17.009  1.00  0.00     0.012 A 
ATOM     29  C   UNL A   1      45.729  49.476  17.150  1.00  0.00     0.065 A 
ENDBRANCH  23  25
ENDBRANCH  17  19
ENDBRANCH  13  17
ENDBRANCH   7  12
ENDBRANCH   3   6
ENDBRANCH   1   2
BRANCH   1  30
ATOM     30  C   UNL A   1      46.032  39.633  27.649  1.00  0.00     0.042 C 
BRANCH  30  31
ATOM     31  C   UNL A   1      46.370  38.154  27.866  1.00  0.00     0.118 C 
BRANCH  31  32
ATOM     32  N   UNL A   1      47.593  37.982  28.627  1.00  0.00    -0.352 N 
ATOM     33  C   UNL A   1      48.111  36.841  29.192  1.00  0.00     0.251 C 
ATOM     34  H   UNL A   1      48.127  38.799  28.760  1.00  0.00     0.163 HD
ATOM     35  O   UNL A   1      49.061  36.931  29.964  1.00  0.00    -0.269 OA
BRANCH  33  36
ATOM     36  C   UNL A   1      47.535  35.507  28.890  1.00  0.00     0.039 A 
ATOM     37  C   UNL A   1      47.426  34.575  29.929  1.00  0.00     0.014 A 
ATOM     38  C   UNL A   1      47.187  35.137  27.588  1.00  0.00     0.014 A 
ATOM     39  C   UNL A   1      46.943  33.287  29.671  1.00  0.00     0.010 A 
ATOM     40  C   UNL A   1      46.685  33.856  27.334  1.00  0.00     0.010 A 
ATOM     41  C   UNL A   1      46.567  32.918  28.371  1.00  0.00    -0.014 A 
BRANCH  41  42
ATOM     42  C   UNL A   1      46.092  31.542  28.075  1.00  0.00     0.031 A 
ATOM     43  C   UNL A   1      44.661  31.164  28.339  1.00  0.00     0.074 A 
ATOM     44  C   UNL A   1      46.945  30.617  27.597  1.00  0.00     0.049 A 
ATOM     45  N   UNL A   1      44.090  29.988  28.257  1.00  0.00    -0.248 NA
ATOM     46  C   UNL A   1      43.759  32.247  28.761  1.00  0.00     0.031 C 
ATOM     47  C   UNL A   1      48.358  30.841  27.290  1.00  0.00     0.029 A 
ATOM     48  N   UNL A   1      46.741  29.294  27.293  1.00  0.00    -0.354 N 
ATOM     49  C   UNL A   1      42.772  30.180  28.652  1.00  0.00     0.074 A 
ATOM     50  C   UNL A   1      42.625  31.589  28.960  1.00  0.00     0.031 C 
ATOM     51  C   UNL A   1      48.895  29.695  26.836  1.00  0.00     0.029 A 
ATOM     52  C   UNL A   1      47.869  28.654  26.838  1.00  0.00     0.049 A 
ATOM     53  H   UNL A   1      45.870  28.847  27.390  1.00  0.00     0.167 HD
ATOM     54  C   UNL A   1      41.773  29.271  28.758  1.00  0.00     0.031 A 
ATOM     55  C   UNL A   1      48.060  27.371  26.476  1.00  0.00     0.031 A 
ATOM     56  C   UNL A   1      41.892  27.877  28.429  1.00  0.00     0.049 A 
ATOM     57  C   UNL A   1      46.924  26.392  26.548  1.00  0.00     0.074 A 
ATOM     58  C   UNL A   1      40.933  26.882  28.520  1.00  0.00     0.029 A 
ATOM     59  N   UNL A   1      43.037  27.282  27.926  1.00  0.00    -0.354 N 
ATOM     60  N   UNL A   1      45.695  26.586  26.961  1.00  0.00    -0.248 NA
ATOM     61  C   UNL A   1      47.205  25.018  26.106  1.00  0.00     0.031 C 
ATOM     62  C   UNL A   1      41.501  25.683  28.068  1.00  0.00     0.029 A 
ATOM     63  C   UNL A   1      42.809  25.937  27.691  1.00  0.00     0.049 A 
ATOM     64  H   UNL A   1      43.889  27.748  27.760  1.00  0.00     0.167 HD
ATOM     65  C   UNL A   1      45.058  25.357  26.836  1.00  0.00     0.074 A 
ATOM     66  C   UNL A   1      46.031  24.430  26.295  1.00  0.00     0.031 C 
ATOM     67  C   UNL A   1      43.782  25.027  27.151  1.00  0.00     0.031 A 
BRANCH  54  68
ATOM     68  C   UNL A   1      40.462  29.774  29.285  1.00  0.00    -0.014 A 
ATOM     69  C   UNL A   1      39.377  29.992  28.421  1.00  0.00     0.010 A 
ATOM     70  C   UNL A   1      40.322  30.045  30.657  1.00  0.00     0.010 A 
ATOM     71  C   UNL A   1      38.179  30.517  28.915  1.00  0.00     0.020 A 
ATOM     72  C   UNL A   1      39.125  30.563  31.154  1.00  0.00     0.020 A 
ATOM     73  C   UNL A   1      38.067  30.817  30.276  1.00  0.00     0.054 A 
BRANCH  73  74
ATOM     74  S   UNL A   1      36.524  31.521  30.920  1.00  0.00     0.124 S 
ATOM     75  O   UNL A   1      35.943  30.376  31.617  1.00  0.00    -0.237 OA
ATOM     76  O   UNL A   1      36.984  32.609  31.780  1.00  0.00    -0.237 OA
ATOM     77  O   UNL A   1      35.820  31.944  29.713  1.00  0.00    -0.744 OA
ENDBRANCH  73  74
ENDBRANCH  54  68
BRANCH  55  78
ATOM     78  C   UNL A   1      49.400  26.933  26.020  1.00  0.00    -0.014 A 
ATOM     79  C   UNL A   1      49.743  27.000  24.659  1.00  0.00     0.010 A 
ATOM     80  C   UNL A   1      50.341  26.460  26.949  1.00  0.00     0.010 A 
ATOM     81  C   UNL A   1      51.009  26.594  24.230  1.00  0.00     0.020 A 
ATOM     82  C   UNL A   1      51.610  26.058  26.523  1.00  0.00     0.020 A 
ATOM     83  C   UNL A   1      51.933  26.120  25.165  1.00  0.00     0.054 A 
BRANCH  83  84
ATOM     84  S   UNL A   1      53.596  25.627  24.630  1.00  0.00     0.124 S 
ATOM     85  O   UNL A   1      53.461  24.178  24.522  1.00  0.00    -0.237 OA
ATOM     86  O   UNL A   1      53.769  26.338  23.365  1.00  0.00    -0.237 OA
ATOM     87  O   UNL A   1      54.443  26.101  25.723  1.00  0.00    -0.744 OA
ENDBRANCH  83  84
ENDBRANCH  55  78
BRANCH  67  88
ATOM     88  C   UNL A   1      43.368  23.604  26.915  1.00  0.00    -0.014 A 
ATOM     89  C   UNL A   1      43.178  23.128  25.607  1.00  0.00     0.010 A 
ATOM     90  C   UNL A   1      43.195  22.730  28.002  1.00  0.00     0.010 A 
ATOM     91  C   UNL A   1      42.803  21.799  25.389  1.00  0.00     0.020 A 
ATOM     92  C   UNL A   1      42.823  21.401  27.786  1.00  0.00     0.020 A 
ATOM     93  C   UNL A   1      42.618  20.946  26.481  1.00  0.00     0.054 A 
BRANCH  93  94
ATOM     94  S   UNL A   1      42.166  19.211  26.196  1.00  0.00     0.124 S 
ATOM     95  O   UNL A   1      43.003  18.864  25.051  1.00  0.00    -0.237 OA
ATOM     96  O   UNL A   1      42.526  18.560  27.455  1.00  0.00    -0.237 OA
ATOM     97  O   UNL A   1      40.733  19.277  25.927  1.00  0.00    -0.744 OA
ENDBRANCH  93  94
ENDBRANCH  67  88
ENDBRANCH  41  42
ENDBRANCH  33  36
ENDBRANCH  31  32
ENDBRANCH  30  31
ENDBRANCH   1  30
TORSDOF 17
ENDMDL
