MODEL 1
REMARK VINA RESULT:     -12.0      0.000      0.000
REMARK SMILES O=C(NCCCNC(=O)c1cc(S(=O)(=O)Nc2cc(F)ccc2F)cc2c1OCCO2)c1ccc(-c2c3nc(c(-c4ccc(S(=O)(=O)[O-])cc4)c4ccc([nH]4)c(-c4ccc(S(=O)(=O)[O-])cc4)c4nc(c(-c5ccc(S(=O)(=O)[O-])cc5)c5ccc2[nH]5)C=C4)C=C3)cc1
REMARK SMILES IDX 5 1 4 2 3 3 1 4 2 5 32 7 33 8 91 9 34 10 90 11 35 12 36 13
REMARK SMILES IDX 37 14 84 15 38 16 89 17 83 18 85 19 39 20 88 21 82 22 81 23
REMARK SMILES IDX 40 25 70 26 51 27 69 28 52 29 55 30 68 31 86 32 53 33 54 34
REMARK SMILES IDX 67 36 87 37 56 38 41 39 42 40 50 41 43 42 49 43 44 44 45 45
REMARK SMILES IDX 46 46 47 47 48 48 71 49 72 50 80 51 73 52 79 53 74 54 75 55
REMARK SMILES IDX 76 56 77 57 78 58 57 59 58 60 66 61 59 62 65 63 60 64 61 65
REMARK SMILES IDX 62 66 63 67 64 68 6 69 7 70 8 71 9 73 10 74 11 75 27 76
REMARK SMILES IDX 12 77 26 78 28 79 25 80 31 81 29 82 30 83 13 84 14 85 15 86
REMARK SMILES IDX 16 87 17 89 18 90 23 91 19 92 22 93 24 94 20 95 21 96
REMARK H PARENT 3 6 85 24 55 35 7 72 16 88
REMARK Flexibility Score: inf
ROOT
ATOM      1  C   UNL A   1      33.719  28.036  25.782  1.00  0.00     0.042 C 
ENDROOT
BRANCH   1   2
ATOM      2  C   UNL A   1      33.439  28.325  27.249  1.00  0.00     0.118 C 
BRANCH   2   3
ATOM      3  N   UNL A   1      33.364  29.746  27.555  1.00  0.00    -0.352 N 
ATOM      4  O   UNL A   1      33.922  31.750  28.391  1.00  0.00    -0.269 OA
ATOM      5  C   UNL A   1      34.286  30.614  28.091  1.00  0.00     0.251 C 
ATOM      6  H   UNL A   1      32.497  30.162  27.339  1.00  0.00     0.163 HD
BRANCH   5   7
ATOM      7  C   UNL A   1      35.689  30.204  28.339  1.00  0.00     0.039 A 
ATOM      8  C   UNL A   1      36.107  29.720  29.578  1.00  0.00     0.014 A 
ATOM      9  C   UNL A   1      36.605  30.258  27.280  1.00  0.00     0.014 A 
ATOM     10  C   UNL A   1      37.456  29.457  29.808  1.00  0.00     0.010 A 
ATOM     11  C   UNL A   1      37.944  29.899  27.485  1.00  0.00     0.010 A 
ATOM     12  C   UNL A   1      38.391  29.534  28.762  1.00  0.00    -0.014 A 
BRANCH  12  13
ATOM     13  C   UNL A   1      39.812  29.184  29.025  1.00  0.00     0.031 A 
ATOM     14  C   UNL A   1      40.740  30.156  29.705  1.00  0.00     0.074 A 
ATOM     15  C   UNL A   1      40.260  27.961  28.678  1.00  0.00     0.049 A 
ATOM     16  N   UNL A   1      41.997  29.995  30.038  1.00  0.00    -0.248 NA
ATOM     17  C   UNL A   1      40.195  31.478  30.050  1.00  0.00     0.031 C 
ATOM     18  C   UNL A   1      39.464  26.931  28.004  1.00  0.00     0.029 A 
ATOM     19  N   UNL A   1      41.483  27.366  28.862  1.00  0.00    -0.354 N 
ATOM     20  C   UNL A   1      42.399  31.197  30.609  1.00  0.00     0.074 A 
ATOM     21  C   UNL A   1      41.258  32.087  30.559  1.00  0.00     0.031 C 
ATOM     22  C   UNL A   1      40.199  25.816  27.882  1.00  0.00     0.029 A 
ATOM     23  C   UNL A   1      41.534  26.067  28.413  1.00  0.00     0.049 A 
ATOM     24  H   UNL A   1      42.249  27.824  29.277  1.00  0.00     0.167 HD
ATOM     25  C   UNL A   1      43.604  31.530  31.130  1.00  0.00     0.031 A 
ATOM     26  C   UNL A   1      42.543  25.176  28.415  1.00  0.00     0.031 A 
ATOM     27  C   UNL A   1      44.738  30.644  31.189  1.00  0.00     0.049 A 
ATOM     28  C   UNL A   1      43.871  25.570  28.992  1.00  0.00     0.074 A 
ATOM     29  C   UNL A   1      45.992  30.884  31.724  1.00  0.00     0.029 A 
ATOM     30  N   UNL A   1      44.756  29.347  30.696  1.00  0.00    -0.354 N 
ATOM     31  N   UNL A   1      44.220  26.706  29.545  1.00  0.00    -0.248 NA
ATOM     32  C   UNL A   1      44.939  24.565  28.943  1.00  0.00     0.031 C 
ATOM     33  C   UNL A   1      46.780  29.745  31.520  1.00  0.00     0.029 A 
ATOM     34  C   UNL A   1      46.005  28.782  30.897  1.00  0.00     0.049 A 
ATOM     35  H   UNL A   1      43.995  28.896  30.266  1.00  0.00     0.167 HD
ATOM     36  C   UNL A   1      45.549  26.550  29.918  1.00  0.00     0.074 A 
ATOM     37  C   UNL A   1      45.934  25.203  29.546  1.00  0.00     0.031 C 
ATOM     38  C   UNL A   1      46.376  27.445  30.512  1.00  0.00     0.031 A 
BRANCH  25  39
ATOM     39  C   UNL A   1      43.770  32.930  31.658  1.00  0.00    -0.014 A 
ATOM     40  C   UNL A   1      44.172  33.983  30.817  1.00  0.00     0.010 A 
ATOM     41  C   UNL A   1      43.484  33.203  33.009  1.00  0.00     0.010 A 
ATOM     42  C   UNL A   1      44.324  35.277  31.327  1.00  0.00     0.020 A 
ATOM     43  C   UNL A   1      43.615  34.499  33.516  1.00  0.00     0.020 A 
ATOM     44  C   UNL A   1      44.053  35.524  32.676  1.00  0.00     0.054 A 
BRANCH  44  45
ATOM     45  S   UNL A   1      44.252  37.211  33.314  1.00  0.00     0.124 S 
ATOM     46  O   UNL A   1      44.457  37.973  32.084  1.00  0.00    -0.237 OA
ATOM     47  O   UNL A   1      42.982  37.451  33.996  1.00  0.00    -0.237 OA
ATOM     48  O   UNL A   1      45.417  37.116  34.190  1.00  0.00    -0.744 OA
ENDBRANCH  44  45
ENDBRANCH  25  39
BRANCH  26  49
ATOM     49  C   UNL A   1      42.323  23.822  27.843  1.00  0.00    -0.014 A 
ATOM     50  C   UNL A   1      42.555  23.576  26.479  1.00  0.00     0.010 A 
ATOM     51  C   UNL A   1      41.928  22.759  28.675  1.00  0.00     0.010 A 
ATOM     52  C   UNL A   1      42.393  22.289  25.956  1.00  0.00     0.020 A 
ATOM     53  C   UNL A   1      41.788  21.468  28.162  1.00  0.00     0.020 A 
ATOM     54  C   UNL A   1      42.015  21.242  26.802  1.00  0.00     0.054 A 
BRANCH  54  55
ATOM     55  S   UNL A   1      41.890  19.564  26.125  1.00  0.00     0.124 S 
ATOM     56  O   UNL A   1      42.292  18.747  27.265  1.00  0.00    -0.237 OA
ATOM     57  O   UNL A   1      40.481  19.476  25.750  1.00  0.00    -0.237 OA
ATOM     58  O   UNL A   1      42.825  19.581  25.002  1.00  0.00    -0.744 OA
ENDBRANCH  54  55
ENDBRANCH  26  49
BRANCH  38  59
ATOM     59  C   UNL A   1      47.777  26.988  30.809  1.00  0.00    -0.014 A 
ATOM     60  C   UNL A   1      48.835  27.284  29.932  1.00  0.00     0.010 A 
ATOM     61  C   UNL A   1      48.044  26.288  31.999  1.00  0.00     0.010 A 
ATOM     62  C   UNL A   1      50.134  26.860  30.225  1.00  0.00     0.020 A 
ATOM     63  C   UNL A   1      49.345  25.881  32.307  1.00  0.00     0.020 A 
ATOM     64  C   UNL A   1      50.380  26.158  31.409  1.00  0.00     0.054 A 
BRANCH  64  65
ATOM     65  S   UNL A   1      52.079  25.650  31.791  1.00  0.00     0.124 S 
ATOM     66  O   UNL A   1      52.768  25.933  30.536  1.00  0.00    -0.237 OA
ATOM     67  O   UNL A   1      52.433  26.518  32.911  1.00  0.00    -0.237 OA
ATOM     68  O   UNL A   1      51.947  24.234  32.127  1.00  0.00    -0.744 OA
ENDBRANCH  64  65
ENDBRANCH  38  59
ENDBRANCH  12  13
ENDBRANCH   5   7
ENDBRANCH   2   3
ENDBRANCH   1   2
BRANCH   1  69
ATOM     69  C   UNL A   1      33.484  29.203  24.833  1.00  0.00     0.118 C 
BRANCH  69  70
ATOM     70  N   UNL A   1      34.049  29.016  23.503  1.00  0.00    -0.352 N 
ATOM     71  C   UNL A   1      33.600  28.222  22.473  1.00  0.00     0.255 C 
ATOM     72  H   UNL A   1      34.867  29.530  23.315  1.00  0.00     0.163 HD
ATOM     73  O   UNL A   1      34.214  28.177  21.409  1.00  0.00    -0.269 OA
BRANCH  71  74
ATOM     74  C   UNL A   1      32.462  27.304  22.686  1.00  0.00     0.087 A 
ATOM     75  C   UNL A   1      32.791  25.951  22.827  1.00  0.00     0.040 A 
ATOM     76  C   UNL A   1      31.148  27.736  22.867  1.00  0.00     0.174 A 
ATOM     77  C   UNL A   1      31.850  25.055  23.329  1.00  0.00     0.092 A 
ATOM     78  C   UNL A   1      30.180  26.809  23.274  1.00  0.00     0.163 A 
ATOM     79  O   UNL A   1      30.857  29.060  22.661  1.00  0.00    -0.485 OA
ATOM     80  C   UNL A   1      30.534  25.484  23.540  1.00  0.00     0.072 A 
ATOM     81  O   UNL A   1      28.869  27.145  23.501  1.00  0.00    -0.486 OA
ATOM     82  C   UNL A   1      29.653  29.440  23.336  1.00  0.00     0.271 C 
ATOM     83  C   UNL A   1      28.550  28.451  23.009  1.00  0.00     0.271 C 
BRANCH  77  84
ATOM     84  S   UNL A   1      32.268  23.413  23.884  1.00  0.00     0.262 S 
ATOM     85  O   UNL A   1      32.219  23.448  25.328  1.00  0.00    -0.201 OA
ATOM     86  O   UNL A   1      31.431  22.507  23.123  1.00  0.00    -0.201 OA
BRANCH  84  87
ATOM     87  N   UNL A   1      33.830  23.060  23.412  1.00  0.00    -0.277 N 
ATOM     88  H   UNL A   1      34.015  23.063  22.445  1.00  0.00     0.180 HD
BRANCH  87  89
ATOM     89  C   UNL A   1      34.921  22.757  24.280  1.00  0.00     0.087 A 
ATOM     90  C   UNL A   1      35.868  23.688  24.703  1.00  0.00     0.069 A 
ATOM     91  C   UNL A   1      35.084  21.409  24.638  1.00  0.00     0.147 A 
ATOM     92  C   UNL A   1      37.019  23.236  25.351  1.00  0.00     0.125 A 
ATOM     93  C   UNL A   1      36.222  20.966  25.304  1.00  0.00     0.044 A 
ATOM     94  F   UNL A   1      34.161  20.511  24.260  1.00  0.00    -0.205 F 
ATOM     95  F   UNL A   1      37.985  24.111  25.656  1.00  0.00    -0.207 F 
ATOM     96  C   UNL A   1      37.211  21.887  25.639  1.00  0.00     0.042 A 
ENDBRANCH  87  89
ENDBRANCH  84  87
ENDBRANCH  77  84
ENDBRANCH  71  74
ENDBRANCH  69  70
ENDBRANCH   1  69
TORSDOF 16
ENDMDL
MODEL 2
REMARK VINA RESULT:     -11.7      1.463      2.281
REMARK SMILES O=C(NCCCNC(=O)c1cc(S(=O)(=O)Nc2cc(F)ccc2F)cc2c1OCCO2)c1ccc(-c2c3nc(c(-c4ccc(S(=O)(=O)[O-])cc4)c4ccc([nH]4)c(-c4ccc(S(=O)(=O)[O-])cc4)c4nc(c(-c5ccc(S(=O)(=O)[O-])cc5)c5ccc2[nH]5)C=C4)C=C3)cc1
REMARK SMILES IDX 5 1 4 2 3 3 1 4 2 5 32 7 33 8 91 9 34 10 90 11 35 12 36 13
REMARK SMILES IDX 37 14 84 15 38 16 89 17 83 18 85 19 39 20 88 21 82 22 81 23
REMARK SMILES IDX 40 25 70 26 51 27 69 28 52 29 55 30 68 31 86 32 53 33 54 34
REMARK SMILES IDX 67 36 87 37 56 38 41 39 42 40 50 41 43 42 49 43 44 44 45 45
REMARK SMILES IDX 46 46 47 47 48 48 71 49 72 50 80 51 73 52 79 53 74 54 75 55
REMARK SMILES IDX 76 56 77 57 78 58 57 59 58 60 66 61 59 62 65 63 60 64 61 65
REMARK SMILES IDX 62 66 63 67 64 68 6 69 7 70 8 71 9 73 10 74 11 75 27 76
REMARK SMILES IDX 12 77 26 78 28 79 25 80 31 81 29 82 30 83 13 84 14 85 15 86
REMARK SMILES IDX 16 87 17 89 18 90 23 91 19 92 22 93 24 94 20 95 21 96
REMARK H PARENT 3 6 85 24 55 35 7 72 16 88
REMARK Flexibility Score: inf
ROOT
ATOM      1  C   UNL A   1      34.233  28.432  24.351  1.00  0.00     0.042 C 
ENDROOT
BRANCH   1   2
ATOM      2  C   UNL A   1      33.925  28.234  25.827  1.00  0.00     0.118 C 
BRANCH   2   3
ATOM      3  N   UNL A   1      33.548  29.463  26.510  1.00  0.00    -0.352 N 
ATOM      4  O   UNL A   1      33.602  31.152  27.984  1.00  0.00    -0.269 OA
ATOM      5  C   UNL A   1      34.207  30.226  27.446  1.00  0.00     0.251 C 
ATOM      6  H   UNL A   1      32.662  29.811  26.258  1.00  0.00     0.163 HD
BRANCH   5   7
ATOM      7  C   UNL A   1      35.608  29.941  27.837  1.00  0.00     0.039 A 
ATOM      8  C   UNL A   1      36.672  30.132  26.957  1.00  0.00     0.014 A 
ATOM      9  C   UNL A   1      35.870  29.517  29.147  1.00  0.00     0.014 A 
ATOM     10  C   UNL A   1      37.959  29.741  27.320  1.00  0.00     0.010 A 
ATOM     11  C   UNL A   1      37.180  29.217  29.544  1.00  0.00     0.010 A 
ATOM     12  C   UNL A   1      38.232  29.288  28.621  1.00  0.00    -0.014 A 
BRANCH  12  13
ATOM     13  C   UNL A   1      39.629  28.939  28.997  1.00  0.00     0.031 A 
ATOM     14  C   UNL A   1      40.485  29.895  29.783  1.00  0.00     0.074 A 
ATOM     15  C   UNL A   1      40.115  27.729  28.654  1.00  0.00     0.049 A 
ATOM     16  N   UNL A   1      41.710  29.732  30.220  1.00  0.00    -0.248 NA
ATOM     17  C   UNL A   1      39.901  31.203  30.118  1.00  0.00     0.031 C 
ATOM     18  C   UNL A   1      39.390  26.716  27.883  1.00  0.00     0.029 A 
ATOM     19  N   UNL A   1      41.322  27.136  28.927  1.00  0.00    -0.354 N 
ATOM     20  C   UNL A   1      42.050  30.919  30.859  1.00  0.00     0.074 A 
ATOM     21  C   UNL A   1      40.910  31.803  30.736  1.00  0.00     0.031 C 
ATOM     22  C   UNL A   1      40.142  25.609  27.793  1.00  0.00     0.029 A 
ATOM     23  C   UNL A   1      41.424  25.852  28.446  1.00  0.00     0.049 A 
ATOM     24  H   UNL A   1      42.045  27.587  29.420  1.00  0.00     0.167 HD
ATOM     25  C   UNL A   1      43.203  31.242  31.493  1.00  0.00     0.031 A 
ATOM     26  C   UNL A   1      42.436  24.967  28.510  1.00  0.00     0.031 A 
ATOM     27  C   UNL A   1      44.334  30.362  31.624  1.00  0.00     0.049 A 
ATOM     28  C   UNL A   1      43.705  25.351  29.212  1.00  0.00     0.074 A 
ATOM     29  C   UNL A   1      45.535  30.593  32.274  1.00  0.00     0.029 A 
ATOM     30  N   UNL A   1      44.407  29.081  31.097  1.00  0.00    -0.354 N 
ATOM     31  N   UNL A   1      43.995  26.473  29.827  1.00  0.00    -0.248 NA
ATOM     32  C   UNL A   1      44.782  24.354  29.227  1.00  0.00     0.031 C 
ATOM     33  C   UNL A   1      46.348  29.465  32.106  1.00  0.00     0.029 A 
ATOM     34  C   UNL A   1      45.637  28.517  31.390  1.00  0.00     0.049 A 
ATOM     35  H   UNL A   1      43.689  28.638  30.589  1.00  0.00     0.167 HD
ATOM     36  C   UNL A   1      45.287  26.313  30.310  1.00  0.00     0.074 A 
ATOM     37  C   UNL A   1      45.715  24.980  29.933  1.00  0.00     0.031 C 
ATOM     38  C   UNL A   1      46.052  27.194  30.999  1.00  0.00     0.031 A 
BRANCH  25  39
ATOM     39  C   UNL A   1      43.310  32.627  32.075  1.00  0.00    -0.014 A 
ATOM     40  C   UNL A   1      43.771  33.708  31.302  1.00  0.00     0.010 A 
ATOM     41  C   UNL A   1      42.908  32.857  33.404  1.00  0.00     0.010 A 
ATOM     42  C   UNL A   1      43.868  34.986  31.861  1.00  0.00     0.020 A 
ATOM     43  C   UNL A   1      42.983  34.138  33.959  1.00  0.00     0.020 A 
ATOM     44  C   UNL A   1      43.481  35.191  33.189  1.00  0.00     0.054 A 
BRANCH  44  45
ATOM     45  S   UNL A   1      43.609  36.859  33.892  1.00  0.00     0.124 S 
ATOM     46  O   UNL A   1      44.801  36.742  34.727  1.00  0.00    -0.237 OA
ATOM     47  O   UNL A   1      43.753  37.699  32.705  1.00  0.00    -0.237 OA
ATOM     48  O   UNL A   1      42.352  37.026  34.618  1.00  0.00    -0.744 OA
ENDBRANCH  44  45
ENDBRANCH  25  39
BRANCH  26  49
ATOM     49  C   UNL A   1      42.278  23.630  27.881  1.00  0.00    -0.014 A 
ATOM     50  C   UNL A   1      42.571  23.441  26.520  1.00  0.00     0.010 A 
ATOM     51  C   UNL A   1      41.882  22.526  28.658  1.00  0.00     0.010 A 
ATOM     52  C   UNL A   1      42.466  22.171  25.945  1.00  0.00     0.020 A 
ATOM     53  C   UNL A   1      41.800  21.251  28.093  1.00  0.00     0.020 A 
ATOM     54  C   UNL A   1      42.087  21.083  26.737  1.00  0.00     0.054 A 
BRANCH  54  55
ATOM     55  S   UNL A   1      42.037  19.428  25.995  1.00  0.00     0.124 S 
ATOM     56  O   UNL A   1      42.579  18.599  27.067  1.00  0.00    -0.237 OA
ATOM     57  O   UNL A   1      40.615  19.247  25.713  1.00  0.00    -0.237 OA
ATOM     58  O   UNL A   1      42.886  19.561  24.813  1.00  0.00    -0.744 OA
ENDBRANCH  54  55
ENDBRANCH  26  49
BRANCH  38  59
ATOM     59  C   UNL A   1      47.426  26.736  31.404  1.00  0.00    -0.014 A 
ATOM     60  C   UNL A   1      48.533  26.942  30.563  1.00  0.00     0.010 A 
ATOM     61  C   UNL A   1      47.617  26.129  32.658  1.00  0.00     0.010 A 
ATOM     62  C   UNL A   1      49.805  26.520  30.956  1.00  0.00     0.020 A 
ATOM     63  C   UNL A   1      48.891  25.725  33.064  1.00  0.00     0.020 A 
ATOM     64  C   UNL A   1      49.975  25.910  32.203  1.00  0.00     0.054 A 
BRANCH  64  65
ATOM     65  S   UNL A   1      51.642  25.403  32.711  1.00  0.00     0.124 S 
ATOM     66  O   UNL A   1      51.553  25.488  34.166  1.00  0.00    -0.237 OA
ATOM     67  O   UNL A   1      51.749  24.051  32.166  1.00  0.00    -0.237 OA
ATOM     68  O   UNL A   1      52.510  26.393  32.078  1.00  0.00    -0.744 OA
ENDBRANCH  64  65
ENDBRANCH  38  59
ENDBRANCH  12  13
ENDBRANCH   5   7
ENDBRANCH   2   3
ENDBRANCH   1   2
BRANCH   1  69
ATOM     69  C   UNL A   1      33.018  28.538  23.442  1.00  0.00     0.118 C 
BRANCH  69  70
ATOM     70  N   UNL A   1      33.138  27.796  22.193  1.00  0.00    -0.352 N 
ATOM     71  C   UNL A   1      33.129  26.435  21.987  1.00  0.00     0.255 C 
ATOM     72  H   UNL A   1      33.239  28.346  21.383  1.00  0.00     0.163 HD
ATOM     73  O   UNL A   1      33.255  25.977  20.853  1.00  0.00    -0.269 OA
BRANCH  71  74
ATOM     74  C   UNL A   1      33.120  25.511  23.140  1.00  0.00     0.087 A 
ATOM     75  C   UNL A   1      34.254  24.703  23.281  1.00  0.00     0.040 A 
ATOM     76  C   UNL A   1      32.122  25.507  24.115  1.00  0.00     0.174 A 
ATOM     77  C   UNL A   1      34.484  24.030  24.478  1.00  0.00     0.092 A 
ATOM     78  C   UNL A   1      32.311  24.746  25.275  1.00  0.00     0.163 A 
ATOM     79  O   UNL A   1      30.999  26.268  23.909  1.00  0.00    -0.485 OA
ATOM     80  C   UNL A   1      33.500  24.040  25.474  1.00  0.00     0.072 A 
ATOM     81  O   UNL A   1      31.398  24.699  26.298  1.00  0.00    -0.486 OA
ATOM     82  C   UNL A   1      30.330  26.552  25.142  1.00  0.00     0.271 C 
ATOM     83  C   UNL A   1      30.137  25.268  25.928  1.00  0.00     0.271 C 
BRANCH  77  84
ATOM     84  S   UNL A   1      36.049  23.283  24.890  1.00  0.00     0.262 S 
ATOM     85  O   UNL A   1      36.698  22.980  23.634  1.00  0.00    -0.201 OA
ATOM     86  O   UNL A   1      36.667  24.158  25.866  1.00  0.00    -0.201 OA
BRANCH  84  87
ATOM     87  N   UNL A   1      35.772  21.852  25.705  1.00  0.00    -0.277 N 
ATOM     88  H   UNL A   1      36.003  21.832  26.662  1.00  0.00     0.180 HD
BRANCH  87  89
ATOM     89  C   UNL A   1      35.231  20.657  25.144  1.00  0.00     0.087 A 
ATOM     90  C   UNL A   1      33.871  20.437  24.931  1.00  0.00     0.069 A 
ATOM     91  C   UNL A   1      36.138  19.616  24.888  1.00  0.00     0.147 A 
ATOM     92  C   UNL A   1      33.437  19.152  24.603  1.00  0.00     0.125 A 
ATOM     93  C   UNL A   1      35.702  18.341  24.539  1.00  0.00     0.044 A 
ATOM     94  F   UNL A   1      37.452  19.829  25.063  1.00  0.00    -0.205 F 
ATOM     95  F   UNL A   1      32.124  18.909  24.511  1.00  0.00    -0.207 F 
ATOM     96  C   UNL A   1      34.336  18.103  24.422  1.00  0.00     0.042 A 
ENDBRANCH  87  89
ENDBRANCH  84  87
ENDBRANCH  77  84
ENDBRANCH  71  74
ENDBRANCH  69  70
ENDBRANCH   1  69
TORSDOF 16
ENDMDL
MODEL 3
REMARK VINA RESULT:     -11.6      2.756      9.175
REMARK SMILES O=C(NCCCNC(=O)c1cc(S(=O)(=O)Nc2cc(F)ccc2F)cc2c1OCCO2)c1ccc(-c2c3nc(c(-c4ccc(S(=O)(=O)[O-])cc4)c4ccc([nH]4)c(-c4ccc(S(=O)(=O)[O-])cc4)c4nc(c(-c5ccc(S(=O)(=O)[O-])cc5)c5ccc2[nH]5)C=C4)C=C3)cc1
REMARK SMILES IDX 5 1 4 2 3 3 1 4 2 5 32 7 33 8 91 9 34 10 90 11 35 12 36 13
REMARK SMILES IDX 37 14 84 15 38 16 89 17 83 18 85 19 39 20 88 21 82 22 81 23
REMARK SMILES IDX 40 25 70 26 51 27 69 28 52 29 55 30 68 31 86 32 53 33 54 34
REMARK SMILES IDX 67 36 87 37 56 38 41 39 42 40 50 41 43 42 49 43 44 44 45 45
REMARK SMILES IDX 46 46 47 47 48 48 71 49 72 50 80 51 73 52 79 53 74 54 75 55
REMARK SMILES IDX 76 56 77 57 78 58 57 59 58 60 66 61 59 62 65 63 60 64 61 65
REMARK SMILES IDX 62 66 63 67 64 68 6 69 7 70 8 71 9 73 10 74 11 75 27 76
REMARK SMILES IDX 12 77 26 78 28 79 25 80 31 81 29 82 30 83 13 84 14 85 15 86
REMARK SMILES IDX 16 87 17 89 18 90 23 91 19 92 22 93 24 94 20 95 21 96
REMARK H PARENT 3 6 85 24 55 35 7 72 16 88
REMARK Flexibility Score: inf
ROOT
ATOM      1  C   UNL A   1      35.581  23.944  26.088  1.00  0.00     0.042 C 
ENDROOT
BRANCH   1   2
ATOM      2  C   UNL A   1      36.656  23.780  25.025  1.00  0.00     0.118 C 
BRANCH   2   3
ATOM      3  N   UNL A   1      37.656  22.776  25.362  1.00  0.00    -0.352 N 
ATOM      4  O   UNL A   1      39.593  21.888  26.060  1.00  0.00    -0.269 OA
ATOM      5  C   UNL A   1      38.852  22.869  26.035  1.00  0.00     0.251 C 
ATOM      6  H   UNL A   1      37.437  21.867  25.053  1.00  0.00     0.163 HD
BRANCH   5   7
ATOM      7  C   UNL A   1      39.276  24.125  26.701  1.00  0.00     0.039 A 
ATOM      8  C   UNL A   1      40.005  25.104  26.029  1.00  0.00     0.014 A 
ATOM      9  C   UNL A   1      38.884  24.351  28.027  1.00  0.00     0.014 A 
ATOM     10  C   UNL A   1      40.487  26.214  26.719  1.00  0.00     0.010 A 
ATOM     11  C   UNL A   1      39.286  25.516  28.693  1.00  0.00     0.010 A 
ATOM     12  C   UNL A   1      40.126  26.440  28.057  1.00  0.00    -0.014 A 
BRANCH  12  13
ATOM     13  C   UNL A   1      40.604  27.669  28.747  1.00  0.00     0.031 A 
ATOM     14  C   UNL A   1      42.024  27.788  29.230  1.00  0.00     0.074 A 
ATOM     15  C   UNL A   1      39.752  28.702  28.907  1.00  0.00     0.049 A 
ATOM     16  N   UNL A   1      42.609  28.802  29.819  1.00  0.00    -0.248 NA
ATOM     17  C   UNL A   1      42.901  26.623  29.035  1.00  0.00     0.031 C 
ATOM     18  C   UNL A   1      38.346  28.709  28.493  1.00  0.00     0.029 A 
ATOM     19  N   UNL A   1      39.947  29.952  29.437  1.00  0.00    -0.354 N 
ATOM     20  C   UNL A   1      43.911  28.391  30.084  1.00  0.00     0.074 A 
ATOM     21  C   UNL A   1      44.025  27.028  29.612  1.00  0.00     0.031 C 
ATOM     22  C   UNL A   1      37.823  29.920  28.732  1.00  0.00     0.029 A 
ATOM     23  C   UNL A   1      38.833  30.757  29.370  1.00  0.00     0.049 A 
ATOM     24  H   UNL A   1      40.802  30.246  29.826  1.00  0.00     0.167 HD
ATOM     25  C   UNL A   1      44.919  29.085  30.666  1.00  0.00     0.031 A 
ATOM     26  C   UNL A   1      38.637  32.023  29.783  1.00  0.00     0.031 A 
ATOM     27  C   UNL A   1      44.810  30.444  31.128  1.00  0.00     0.049 A 
ATOM     28  C   UNL A   1      39.767  32.768  30.430  1.00  0.00     0.074 A 
ATOM     29  C   UNL A   1      45.787  31.239  31.704  1.00  0.00     0.029 A 
ATOM     30  N   UNL A   1      43.656  31.212  31.068  1.00  0.00    -0.354 N 
ATOM     31  N   UNL A   1      40.995  32.365  30.651  1.00  0.00    -0.248 NA
ATOM     32  C   UNL A   1      39.485  34.135  30.883  1.00  0.00     0.031 C 
ATOM     33  C   UNL A   1      45.212  32.474  32.028  1.00  0.00     0.029 A 
ATOM     34  C   UNL A   1      43.891  32.463  31.614  1.00  0.00     0.049 A 
ATOM     35  H   UNL A   1      42.797  30.911  30.694  1.00  0.00     0.167 HD
ATOM     36  C   UNL A   1      41.637  33.434  31.264  1.00  0.00     0.074 A 
ATOM     37  C   UNL A   1      40.667  34.507  31.359  1.00  0.00     0.031 C 
ATOM     38  C   UNL A   1      42.913  33.516  31.711  1.00  0.00     0.031 A 
BRANCH  25  39
ATOM     39  C   UNL A   1      46.231  28.372  30.859  1.00  0.00    -0.014 A 
ATOM     40  C   UNL A   1      46.510  27.670  32.046  1.00  0.00     0.010 A 
ATOM     41  C   UNL A   1      47.184  28.375  29.824  1.00  0.00     0.010 A 
ATOM     42  C   UNL A   1      47.736  27.017  32.209  1.00  0.00     0.020 A 
ATOM     43  C   UNL A   1      48.402  27.705  29.977  1.00  0.00     0.020 A 
ATOM     44  C   UNL A   1      48.678  27.047  31.177  1.00  0.00     0.054 A 
BRANCH  44  45
ATOM     45  S   UNL A   1      50.259  26.187  31.409  1.00  0.00     0.124 S 
ATOM     46  O   UNL A   1      50.180  25.790  32.812  1.00  0.00    -0.237 OA
ATOM     47  O   UNL A   1      50.179  25.096  30.441  1.00  0.00    -0.237 OA
ATOM     48  O   UNL A   1      51.258  27.210  31.106  1.00  0.00    -0.744 OA
ENDBRANCH  44  45
ENDBRANCH  25  39
BRANCH  26  49
ATOM     49  C   UNL A   1      37.305  32.654  29.596  1.00  0.00    -0.014 A 
ATOM     50  C   UNL A   1      36.375  32.687  30.648  1.00  0.00     0.010 A 
ATOM     51  C   UNL A   1      36.982  33.272  28.374  1.00  0.00     0.010 A 
ATOM     52  C   UNL A   1      35.141  33.324  30.481  1.00  0.00     0.020 A 
ATOM     53  C   UNL A   1      35.761  33.931  28.211  1.00  0.00     0.020 A 
ATOM     54  C   UNL A   1      34.845  33.947  29.265  1.00  0.00     0.054 A 
BRANCH  54  55
ATOM     55  S   UNL A   1      33.276  34.841  29.092  1.00  0.00     0.124 S 
ATOM     56  O   UNL A   1      33.722  36.147  28.616  1.00  0.00    -0.237 OA
ATOM     57  O   UNL A   1      32.551  34.028  28.119  1.00  0.00    -0.237 OA
ATOM     58  O   UNL A   1      32.723  34.820  30.445  1.00  0.00    -0.744 OA
ENDBRANCH  54  55
ENDBRANCH  26  49
BRANCH  38  59
ATOM     59  C   UNL A   1      43.338  34.819  32.332  1.00  0.00    -0.014 A 
ATOM     60  C   UNL A   1      43.211  35.036  33.714  1.00  0.00     0.010 A 
ATOM     61  C   UNL A   1      43.906  35.821  31.526  1.00  0.00     0.010 A 
ATOM     62  C   UNL A   1      43.618  36.247  34.278  1.00  0.00     0.020 A 
ATOM     63  C   UNL A   1      44.335  37.026  32.089  1.00  0.00     0.020 A 
ATOM     64  C   UNL A   1      44.174  37.237  33.460  1.00  0.00     0.054 A 
BRANCH  64  65
ATOM     65  S   UNL A   1      44.732  38.789  34.217  1.00  0.00     0.124 S 
ATOM     66  O   UNL A   1      43.480  39.527  34.349  1.00  0.00    -0.237 OA
ATOM     67  O   UNL A   1      45.332  38.340  35.471  1.00  0.00    -0.237 OA
ATOM     68  O   UNL A   1      45.675  39.327  33.240  1.00  0.00    -0.744 OA
ENDBRANCH  64  65
ENDBRANCH  38  59
ENDBRANCH  12  13
ENDBRANCH   5   7
ENDBRANCH   2   3
ENDBRANCH   1   2
BRANCH   1  69
ATOM     69  C   UNL A   1      34.870  22.661  26.496  1.00  0.00     0.118 C 
BRANCH  69  70
ATOM     70  N   UNL A   1      33.667  22.871  27.291  1.00  0.00    -0.352 N 
ATOM     71  C   UNL A   1      32.384  23.140  26.870  1.00  0.00     0.255 C 
ATOM     72  H   UNL A   1      33.788  22.810  28.266  1.00  0.00     0.163 HD
ATOM     73  O   UNL A   1      31.482  23.301  27.690  1.00  0.00    -0.269 OA
BRANCH  71  74
ATOM     74  C   UNL A   1      32.109  23.388  25.440  1.00  0.00     0.087 A 
ATOM     75  C   UNL A   1      31.899  24.725  25.084  1.00  0.00     0.040 A 
ATOM     76  C   UNL A   1      32.174  22.396  24.461  1.00  0.00     0.174 A 
ATOM     77  C   UNL A   1      31.936  25.102  23.744  1.00  0.00     0.092 A 
ATOM     78  C   UNL A   1      32.108  22.769  23.113  1.00  0.00     0.163 A 
ATOM     79  O   UNL A   1      32.322  21.091  24.856  1.00  0.00    -0.485 OA
ATOM     80  C   UNL A   1      32.027  24.117  22.753  1.00  0.00     0.072 A 
ATOM     81  O   UNL A   1      32.188  21.869  22.081  1.00  0.00    -0.486 OA
ATOM     82  C   UNL A   1      32.854  20.285  23.800  1.00  0.00     0.271 C 
ATOM     83  C   UNL A   1      32.058  20.515  22.529  1.00  0.00     0.271 C 
BRANCH  77  84
ATOM     84  S   UNL A   1      32.044  26.801  23.213  1.00  0.00     0.262 S 
ATOM     85  O   UNL A   1      33.452  27.091  23.064  1.00  0.00    -0.201 OA
ATOM     86  O   UNL A   1      31.124  26.933  22.100  1.00  0.00    -0.201 OA
BRANCH  84  87
ATOM     87  N   UNL A   1      31.420  27.785  24.409  1.00  0.00    -0.277 N 
ATOM     88  H   UNL A   1      30.445  27.762  24.543  1.00  0.00     0.180 HD
BRANCH  87  89
ATOM     89  C   UNL A   1      32.169  28.656  25.255  1.00  0.00     0.087 A 
ATOM     90  C   UNL A   1      33.304  28.271  25.967  1.00  0.00     0.069 A 
ATOM     91  C   UNL A   1      31.655  29.949  25.440  1.00  0.00     0.147 A 
ATOM     92  C   UNL A   1      33.815  29.130  26.942  1.00  0.00     0.125 A 
ATOM     93  C   UNL A   1      32.181  30.811  26.398  1.00  0.00     0.044 A 
ATOM     94  F   UNL A   1      30.579  30.337  24.736  1.00  0.00    -0.205 F 
ATOM     95  F   UNL A   1      34.832  28.719  27.708  1.00  0.00    -0.207 F 
ATOM     96  C   UNL A   1      33.255  30.384  27.174  1.00  0.00     0.042 A 
ENDBRANCH  87  89
ENDBRANCH  84  87
ENDBRANCH  77  84
ENDBRANCH  71  74
ENDBRANCH  69  70
ENDBRANCH   1  69
TORSDOF 16
ENDMDL
