MODEL 1
REMARK VINA RESULT:     -11.0      0.000      0.000
REMARK SMILES O=C(C[C@H](NS(=O)(=O)c1cccs1)c1ccccc1Cl)NCCCNC(=O)c1ccc(-c2c3nc(c(-c4ccc(S(=O)(=O)[O-])cc4)c4ccc([nH]4)c(-c4ccc(S(=O)(=O)[O-])cc4)c4nc(c(-c5ccc(S(=O)(=O)[O-])cc5)c5ccc2[nH]5)C=C4)C=C3)cc1
REMARK SMILES IDX 22 1 21 2 1 3 2 4 3 6 4 7 14 8 15 9 19 10 16 11 18 12 20 13
REMARK SMILES IDX 17 14 5 15 6 17 7 18 8 19 9 20 10 21 13 22 11 23 12 24 23 25
REMARK SMILES IDX 24 26 25 27 26 28 27 30 28 31 29 32 87 33 30 34 86 35 31 36
REMARK SMILES IDX 32 37 33 38 80 39 34 40 85 41 79 42 81 43 35 44 84 45 78 46
REMARK SMILES IDX 77 47 36 49 66 50 47 51 65 52 48 53 51 54 64 55 82 56 49 57
REMARK SMILES IDX 50 58 63 60 83 61 52 62 37 63 38 64 46 65 39 66 45 67 40 68
REMARK SMILES IDX 41 69 42 70 43 71 44 72 67 73 68 74 76 75 69 76 75 77 70 78
REMARK SMILES IDX 71 79 72 80 73 81 74 82 53 83 54 84 62 85 55 86 61 87 56 88
REMARK SMILES IDX 57 89 58 90 59 91 60 92
REMARK H PARENT 21 5 5 16 25 29 81 48 51 59
REMARK Flexibility Score: inf
ROOT
ATOM      1  C   UNL A   1      31.358  27.250  26.486  1.00  0.00     0.117 C 
ENDROOT
BRANCH   1   2
ATOM      2  N   UNL A   1      31.569  25.816  26.469  1.00  0.00    -0.356 N 
ATOM      3  O   UNL A   1      29.415  25.320  25.852  1.00  0.00    -0.275 OA
ATOM      4  C   UNL A   1      30.556  24.953  26.113  1.00  0.00     0.221 C 
ATOM      5  H   UNL A   1      32.450  25.453  26.716  1.00  0.00     0.163 HD
BRANCH   4   6
ATOM      6  C   UNL A   1      30.986  23.510  25.992  1.00  0.00     0.125 C 
BRANCH   6   7
ATOM      7  C   UNL A   1      32.328  23.358  25.258  1.00  0.00     0.111 C 
BRANCH   7   8
ATOM      8  C   UNL A   1      32.583  21.901  24.860  1.00  0.00    -0.011 A 
ATOM      9  C   UNL A   1      32.157  21.412  23.608  1.00  0.00     0.007 A 
ATOM     10  C   UNL A   1      33.193  20.986  25.740  1.00  0.00     0.045 A 
ATOM     11  C   UNL A   1      32.337  20.074  23.248  1.00  0.00     0.000 A 
ATOM     12  C   UNL A   1      33.370  19.645  25.376  1.00  0.00     0.021 A 
ATOM     13  Cl  UNL A   1      33.747  21.448  27.313  1.00  0.00    -0.084 Cl
ATOM     14  C   UNL A   1      32.943  19.188  24.132  1.00  0.00     0.002 A 
ENDBRANCH   7   8
BRANCH   7  15
ATOM     15  N   UNL A   1      32.468  24.275  24.097  1.00  0.00    -0.202 NA
ATOM     16  H   UNL A   1      31.804  25.036  24.244  1.00  0.00     0.142 HD
BRANCH  15  17
ATOM     17  S   UNL A   1      33.947  24.985  23.755  1.00  0.00     0.250 S 
ATOM     18  O   UNL A   1      33.961  25.212  22.328  1.00  0.00    -0.206 OA
ATOM     19  O   UNL A   1      34.112  26.083  24.680  1.00  0.00    -0.206 OA
BRANCH  17  20
ATOM     20  C   UNL A   1      35.280  23.866  24.077  1.00  0.00     0.134 A 
ATOM     21  C   UNL A   1      35.849  22.863  23.313  1.00  0.00     0.033 A 
ATOM     22  S   UNL A   1      36.008  23.963  25.622  1.00  0.00    -0.131 S 
ATOM     23  C   UNL A   1      36.896  22.182  24.001  1.00  0.00     0.013 A 
ATOM     24  C   UNL A   1      37.091  22.687  25.267  1.00  0.00     0.066 A 
ENDBRANCH  17  20
ENDBRANCH  15  17
ENDBRANCH   7  15
ENDBRANCH   6   7
ENDBRANCH   4   6
ENDBRANCH   1   2
BRANCH   1  25
ATOM     25  C   UNL A   1      32.024  27.961  27.658  1.00  0.00     0.042 C 
BRANCH  25  26
ATOM     26  C   UNL A   1      33.405  28.549  27.376  1.00  0.00     0.118 C 
BRANCH  26  27
ATOM     27  N   UNL A   1      33.446  29.998  27.467  1.00  0.00    -0.352 N 
ATOM     28  C   UNL A   1      34.451  30.830  27.897  1.00  0.00     0.251 C 
ATOM     29  H   UNL A   1      32.625  30.456  27.173  1.00  0.00     0.163 HD
ATOM     30  O   UNL A   1      34.221  32.032  28.010  1.00  0.00    -0.269 OA
BRANCH  28  31
ATOM     31  C   UNL A   1      35.787  30.301  28.260  1.00  0.00     0.039 A 
ATOM     32  C   UNL A   1      36.815  30.405  27.316  1.00  0.00     0.014 A 
ATOM     33  C   UNL A   1      36.030  29.667  29.482  1.00  0.00     0.014 A 
ATOM     34  C   UNL A   1      38.095  29.934  27.617  1.00  0.00     0.010 A 
ATOM     35  C   UNL A   1      37.318  29.229  29.798  1.00  0.00     0.010 A 
ATOM     36  C   UNL A   1      38.362  29.364  28.871  1.00  0.00    -0.014 A 
BRANCH  36  37
ATOM     37  C   UNL A   1      39.734  28.926  29.222  1.00  0.00     0.031 A 
ATOM     38  C   UNL A   1      40.667  29.843  29.960  1.00  0.00     0.074 A 
ATOM     39  C   UNL A   1      40.157  27.707  28.838  1.00  0.00     0.049 A 
ATOM     40  N   UNL A   1      41.910  29.639  30.313  1.00  0.00    -0.248 NA
ATOM     41  C   UNL A   1      40.139  31.164  30.332  1.00  0.00     0.031 C 
ATOM     42  C   UNL A   1      39.367  26.735  28.081  1.00  0.00     0.029 A 
ATOM     43  N   UNL A   1      41.362  27.081  29.035  1.00  0.00    -0.354 N 
ATOM     44  C   UNL A   1      42.329  30.817  30.917  1.00  0.00     0.074 A 
ATOM     45  C   UNL A   1      41.204  31.729  30.886  1.00  0.00     0.031 C 
ATOM     46  C   UNL A   1      40.103  25.626  27.893  1.00  0.00     0.029 A 
ATOM     47  C   UNL A   1      41.414  25.815  28.506  1.00  0.00     0.049 A 
ATOM     48  H   UNL A   1      42.116  27.499  29.508  1.00  0.00     0.167 HD
ATOM     49  C   UNL A   1      43.540  31.117  31.446  1.00  0.00     0.031 A 
ATOM     50  C   UNL A   1      42.402  24.902  28.521  1.00  0.00     0.031 A 
ATOM     51  C   UNL A   1      44.653  30.210  31.511  1.00  0.00     0.049 A 
ATOM     52  C   UNL A   1      43.699  25.217  29.204  1.00  0.00     0.074 A 
ATOM     53  C   UNL A   1      45.912  30.423  32.048  1.00  0.00     0.029 A 
ATOM     54  N   UNL A   1      44.636  28.909  31.037  1.00  0.00    -0.354 N 
ATOM     55  N   UNL A   1      44.069  26.332  29.784  1.00  0.00    -0.248 NA
ATOM     56  C   UNL A   1      44.703  24.146  29.245  1.00  0.00     0.031 C 
ATOM     57  C   UNL A   1      46.656  29.243  31.903  1.00  0.00     0.029 A 
ATOM     58  C   UNL A   1      45.856  28.301  31.278  1.00  0.00     0.049 A 
ATOM     59  H   UNL A   1      43.869  28.479  30.594  1.00  0.00     0.167 HD
ATOM     60  C   UNL A   1      45.351  26.096  30.265  1.00  0.00     0.074 A 
ATOM     61  C   UNL A   1      45.689  24.731  29.915  1.00  0.00     0.031 C 
ATOM     62  C   UNL A   1      46.173  26.940  30.934  1.00  0.00     0.031 A 
BRANCH  49  63
ATOM     63  C   UNL A   1      43.711  32.509  31.977  1.00  0.00    -0.014 A 
ATOM     64  C   UNL A   1      43.474  32.794  33.333  1.00  0.00     0.010 A 
ATOM     65  C   UNL A   1      44.082  33.546  31.105  1.00  0.00     0.010 A 
ATOM     66  C   UNL A   1      43.562  34.108  33.800  1.00  0.00     0.020 A 
ATOM     67  C   UNL A   1      44.179  34.859  31.571  1.00  0.00     0.020 A 
ATOM     68  C   UNL A   1      43.895  35.135  32.911  1.00  0.00     0.054 A 
BRANCH  68  69
ATOM     69  S   UNL A   1      43.982  36.847  33.504  1.00  0.00     0.124 S 
ATOM     70  O   UNL A   1      42.652  37.030  34.082  1.00  0.00    -0.237 OA
ATOM     71  O   UNL A   1      45.082  36.816  34.466  1.00  0.00    -0.237 OA
ATOM     72  O   UNL A   1      44.246  37.610  32.288  1.00  0.00    -0.744 OA
ENDBRANCH  68  69
ENDBRANCH  49  63
BRANCH  50  73
ATOM     73  C   UNL A   1      42.178  23.579  27.891  1.00  0.00    -0.014 A 
ATOM     74  C   UNL A   1      42.444  23.400  26.523  1.00  0.00     0.010 A 
ATOM     75  C   UNL A   1      41.747  22.488  28.664  1.00  0.00     0.010 A 
ATOM     76  C   UNL A   1      42.288  22.142  25.934  1.00  0.00     0.020 A 
ATOM     77  C   UNL A   1      41.596  21.229  28.079  1.00  0.00     0.020 A 
ATOM     78  C   UNL A   1      41.864  21.064  26.716  1.00  0.00     0.054 A 
BRANCH  78  79
ATOM     79  S   UNL A   1      41.744  19.412  25.977  1.00  0.00     0.124 S 
ATOM     80  O   UNL A   1      40.329  19.338  25.628  1.00  0.00    -0.237 OA
ATOM     81  O   UNL A   1      42.670  19.486  24.848  1.00  0.00    -0.237 OA
ATOM     82  O   UNL A   1      42.173  18.534  27.064  1.00  0.00    -0.744 OA
ENDBRANCH  78  79
ENDBRANCH  50  73
BRANCH  62  83
ATOM     83  C   UNL A   1      47.509  26.396  31.343  1.00  0.00    -0.014 A 
ATOM     84  C   UNL A   1      47.721  25.940  32.656  1.00  0.00     0.010 A 
ATOM     85  C   UNL A   1      48.554  26.325  30.407  1.00  0.00     0.010 A 
ATOM     86  C   UNL A   1      48.969  25.439  33.033  1.00  0.00     0.020 A 
ATOM     87  C   UNL A   1      49.802  25.819  30.781  1.00  0.00     0.020 A 
ATOM     88  C   UNL A   1      50.005  25.391  32.096  1.00  0.00     0.054 A 
BRANCH  88  89
ATOM     89  S   UNL A   1      51.619  24.713  32.574  1.00  0.00     0.124 S 
ATOM     90  O   UNL A   1      51.493  23.317  32.165  1.00  0.00    -0.237 OA
ATOM     91  O   UNL A   1      52.563  25.511  31.796  1.00  0.00    -0.237 OA
ATOM     92  O   UNL A   1      51.665  24.941  34.016  1.00  0.00    -0.744 OA
ENDBRANCH  88  89
ENDBRANCH  62  83
ENDBRANCH  36  37
ENDBRANCH  28  31
ENDBRANCH  26  27
ENDBRANCH  25  26
ENDBRANCH   1  25
TORSDOF 18
ENDMDL
MODEL 2
REMARK VINA RESULT:     -10.4      3.653      4.906
REMARK SMILES O=C(C[C@H](NS(=O)(=O)c1cccs1)c1ccccc1Cl)NCCCNC(=O)c1ccc(-c2c3nc(c(-c4ccc(S(=O)(=O)[O-])cc4)c4ccc([nH]4)c(-c4ccc(S(=O)(=O)[O-])cc4)c4nc(c(-c5ccc(S(=O)(=O)[O-])cc5)c5ccc2[nH]5)C=C4)C=C3)cc1
REMARK SMILES IDX 22 1 21 2 1 3 2 4 3 6 4 7 14 8 15 9 19 10 16 11 18 12 20 13
REMARK SMILES IDX 17 14 5 15 6 17 7 18 8 19 9 20 10 21 13 22 11 23 12 24 23 25
REMARK SMILES IDX 24 26 25 27 26 28 27 30 28 31 29 32 87 33 30 34 86 35 31 36
REMARK SMILES IDX 32 37 33 38 80 39 34 40 85 41 79 42 81 43 35 44 84 45 78 46
REMARK SMILES IDX 77 47 36 49 66 50 47 51 65 52 48 53 51 54 64 55 82 56 49 57
REMARK SMILES IDX 50 58 63 60 83 61 52 62 37 63 38 64 46 65 39 66 45 67 40 68
REMARK SMILES IDX 41 69 42 70 43 71 44 72 67 73 68 74 76 75 69 76 75 77 70 78
REMARK SMILES IDX 71 79 72 80 73 81 74 82 53 83 54 84 62 85 55 86 61 87 56 88
REMARK SMILES IDX 57 89 58 90 59 91 60 92
REMARK H PARENT 21 5 5 16 25 29 81 48 51 59
REMARK Flexibility Score: inf
ROOT
ATOM      1  C   UNL A   1      33.603  29.072  26.962  1.00  0.00     0.117 C 
ENDROOT
BRANCH   1   2
ATOM      2  N   UNL A   1      33.464  28.763  25.553  1.00  0.00    -0.356 N 
ATOM      3  O   UNL A   1      31.331  29.593  25.390  1.00  0.00    -0.275 OA
ATOM      4  C   UNL A   1      32.317  29.088  24.863  1.00  0.00     0.221 C 
ATOM      5  H   UNL A   1      34.202  28.312  25.081  1.00  0.00     0.163 HD
BRANCH   4   6
ATOM      6  C   UNL A   1      32.399  28.843  23.375  1.00  0.00     0.125 C 
BRANCH   6   7
ATOM      7  C   UNL A   1      31.281  27.914  22.872  1.00  0.00     0.111 C 
BRANCH   7   8
ATOM      8  C   UNL A   1      29.978  28.685  22.643  1.00  0.00    -0.011 A 
ATOM      9  C   UNL A   1      29.989  29.949  22.017  1.00  0.00     0.007 A 
ATOM     10  C   UNL A   1      28.737  28.196  23.094  1.00  0.00     0.045 A 
ATOM     11  C   UNL A   1      28.816  30.688  21.844  1.00  0.00     0.000 A 
ATOM     12  C   UNL A   1      27.562  28.940  22.920  1.00  0.00     0.021 A 
ATOM     13  Cl  UNL A   1      28.581  26.668  23.892  1.00  0.00    -0.084 Cl
ATOM     14  C   UNL A   1      27.601  30.185  22.296  1.00  0.00     0.002 A 
ENDBRANCH   7   8
BRANCH   7  15
ATOM     15  N   UNL A   1      31.670  27.126  21.673  1.00  0.00    -0.202 NA
ATOM     16  H   UNL A   1      31.719  27.784  20.894  1.00  0.00     0.142 HD
BRANCH  15  17
ATOM     17  S   UNL A   1      33.103  26.258  21.662  1.00  0.00     0.250 S 
ATOM     18  O   UNL A   1      32.971  25.281  20.604  1.00  0.00    -0.206 OA
ATOM     19  O   UNL A   1      34.180  27.221  21.647  1.00  0.00    -0.206 OA
BRANCH  17  20
ATOM     20  C   UNL A   1      33.295  25.326  23.155  1.00  0.00     0.134 A 
ATOM     21  C   UNL A   1      34.231  25.391  24.171  1.00  0.00     0.033 A 
ATOM     22  S   UNL A   1      32.171  24.063  23.422  1.00  0.00    -0.131 S 
ATOM     23  C   UNL A   1      34.013  24.405  25.177  1.00  0.00     0.013 A 
ATOM     24  C   UNL A   1      32.917  23.619  24.895  1.00  0.00     0.066 A 
ENDBRANCH  17  20
ENDBRANCH  15  17
ENDBRANCH   7  15
ENDBRANCH   6   7
ENDBRANCH   4   6
ENDBRANCH   1   2
BRANCH   1  25
ATOM     25  C   UNL A   1      35.045  29.251  27.419  1.00  0.00     0.042 C 
BRANCH  25  26
ATOM     26  C   UNL A   1      35.427  30.660  27.868  1.00  0.00     0.118 C 
BRANCH  26  27
ATOM     27  N   UNL A   1      35.390  30.837  29.310  1.00  0.00    -0.352 N 
ATOM     28  C   UNL A   1      36.337  30.548  30.261  1.00  0.00     0.251 C 
ATOM     29  H   UNL A   1      34.556  31.226  29.659  1.00  0.00     0.163 HD
ATOM     30  O   UNL A   1      36.042  30.663  31.449  1.00  0.00    -0.269 OA
BRANCH  28  31
ATOM     31  C   UNL A   1      37.688  30.067  29.884  1.00  0.00     0.039 A 
ATOM     32  C   UNL A   1      38.049  30.114  28.532  1.00  0.00     0.014 A 
ATOM     33  C   UNL A   1      38.576  29.530  30.820  1.00  0.00     0.014 A 
ATOM     34  C   UNL A   1      39.316  29.685  28.129  1.00  0.00     0.010 A 
ATOM     35  C   UNL A   1      39.856  29.136  30.424  1.00  0.00     0.010 A 
ATOM     36  C   UNL A   1      40.238  29.215  29.076  1.00  0.00    -0.014 A 
BRANCH  36  37
ATOM     37  C   UNL A   1      41.607  28.825  28.664  1.00  0.00     0.031 A 
ATOM     38  C   UNL A   1      42.720  29.834  28.646  1.00  0.00     0.074 A 
ATOM     39  C   UNL A   1      41.842  27.561  28.265  1.00  0.00     0.049 A 
ATOM     40  N   UNL A   1      43.966  29.675  28.278  1.00  0.00    -0.248 NA
ATOM     41  C   UNL A   1      42.384  31.198  29.080  1.00  0.00     0.031 C 
ATOM     42  C   UNL A   1      40.843  26.494  28.196  1.00  0.00     0.029 A 
ATOM     43  N   UNL A   1      43.002  26.962  27.842  1.00  0.00    -0.354 N 
ATOM     44  C   UNL A   1      44.557  30.926  28.399  1.00  0.00     0.074 A 
ATOM     45  C   UNL A   1      43.533  31.830  28.881  1.00  0.00     0.031 C 
ATOM     46  C   UNL A   1      41.437  25.365  27.773  1.00  0.00     0.029 A 
ATOM     47  C   UNL A   1      42.852  25.633  27.534  1.00  0.00     0.049 A 
ATOM     48  H   UNL A   1      43.859  27.441  27.765  1.00  0.00     0.167 HD
ATOM     49  C   UNL A   1      45.833  31.292  28.132  1.00  0.00     0.031 A 
ATOM     50  C   UNL A   1      43.753  24.726  27.114  1.00  0.00     0.031 A 
ATOM     51  C   UNL A   1      46.866  30.398  27.685  1.00  0.00     0.049 A 
ATOM     52  C   UNL A   1      45.184  25.130  26.925  1.00  0.00     0.074 A 
ATOM     53  C   UNL A   1      48.194  30.679  27.408  1.00  0.00     0.029 A 
ATOM     54  N   UNL A   1      46.691  29.042  27.464  1.00  0.00    -0.354 N 
ATOM     55  N   UNL A   1      45.726  26.315  27.061  1.00  0.00    -0.248 NA
ATOM     56  C   UNL A   1      46.125  24.069  26.538  1.00  0.00     0.031 C 
ATOM     57  C   UNL A   1      48.824  29.486  27.024  1.00  0.00     0.029 A 
ATOM     58  C   UNL A   1      47.886  28.468  27.066  1.00  0.00     0.049 A 
ATOM     59  H   UNL A   1      45.841  28.557  27.574  1.00  0.00     0.167 HD
ATOM     60  C   UNL A   1      47.076  26.143  26.781  1.00  0.00     0.074 A 
ATOM     61  C   UNL A   1      47.269  24.740  26.475  1.00  0.00     0.031 C 
ATOM     62  C   UNL A   1      48.064  27.070  26.776  1.00  0.00     0.031 A 
BRANCH  49  63
ATOM     63  C   UNL A   1      46.162  32.745  28.304  1.00  0.00    -0.014 A 
ATOM     64  C   UNL A   1      46.052  33.639  27.225  1.00  0.00     0.010 A 
ATOM     65  C   UNL A   1      46.614  33.214  29.549  1.00  0.00     0.010 A 
ATOM     66  C   UNL A   1      46.434  34.975  27.377  1.00  0.00     0.020 A 
ATOM     67  C   UNL A   1      46.988  34.550  29.707  1.00  0.00     0.020 A 
ATOM     68  C   UNL A   1      46.918  35.417  28.612  1.00  0.00     0.054 A 
BRANCH  68  69
ATOM     69  S   UNL A   1      47.443  37.141  28.809  1.00  0.00     0.124 S 
ATOM     70  O   UNL A   1      47.643  37.553  27.421  1.00  0.00    -0.237 OA
ATOM     71  O   UNL A   1      46.310  37.764  29.489  1.00  0.00    -0.237 OA
ATOM     72  O   UNL A   1      48.660  37.032  29.610  1.00  0.00    -0.744 OA
ENDBRANCH  68  69
ENDBRANCH  49  63
BRANCH  50  73
ATOM     73  C   UNL A   1      43.321  23.327  26.882  1.00  0.00    -0.014 A 
ATOM     74  C   UNL A   1      43.188  22.843  25.570  1.00  0.00     0.010 A 
ATOM     75  C   UNL A   1      43.090  22.466  27.967  1.00  0.00     0.010 A 
ATOM     76  C   UNL A   1      42.835  21.511  25.343  1.00  0.00     0.020 A 
ATOM     77  C   UNL A   1      42.743  21.131  27.743  1.00  0.00     0.020 A 
ATOM     78  C   UNL A   1      42.614  20.663  26.431  1.00  0.00     0.054 A 
BRANCH  78  79
ATOM     79  S   UNL A   1      42.241  18.911  26.144  1.00  0.00     0.124 S 
ATOM     80  O   UNL A   1      40.847  18.964  25.716  1.00  0.00    -0.237 OA
ATOM     81  O   UNL A   1      43.205  18.533  25.111  1.00  0.00    -0.237 OA
ATOM     82  O   UNL A   1      42.479  18.306  27.452  1.00  0.00    -0.744 OA
ENDBRANCH  78  79
ENDBRANCH  50  73
BRANCH  62  83
ATOM     83  C   UNL A   1      49.444  26.583  26.445  1.00  0.00    -0.014 A 
ATOM     84  C   UNL A   1      49.941  26.689  25.134  1.00  0.00     0.010 A 
ATOM     85  C   UNL A   1      50.253  26.033  27.452  1.00  0.00     0.010 A 
ATOM     86  C   UNL A   1      51.225  26.230  24.830  1.00  0.00     0.020 A 
ATOM     87  C   UNL A   1      51.540  25.577  27.151  1.00  0.00     0.020 A 
ATOM     88  C   UNL A   1      52.012  25.667  25.837  1.00  0.00     0.054 A 
BRANCH  88  89
ATOM     89  S   UNL A   1      53.691  25.097  25.453  1.00  0.00     0.124 S 
ATOM     90  O   UNL A   1      54.455  25.623  26.580  1.00  0.00    -0.237 OA
ATOM     91  O   UNL A   1      53.552  23.643  25.416  1.00  0.00    -0.237 OA
ATOM     92  O   UNL A   1      53.969  25.720  24.161  1.00  0.00    -0.744 OA
ENDBRANCH  88  89
ENDBRANCH  62  83
ENDBRANCH  36  37
ENDBRANCH  28  31
ENDBRANCH  26  27
ENDBRANCH  25  26
ENDBRANCH   1  25
TORSDOF 18
ENDMDL
MODEL 3
REMARK VINA RESULT:     -10.3      4.242     10.156
REMARK SMILES O=C(C[C@H](NS(=O)(=O)c1cccs1)c1ccccc1Cl)NCCCNC(=O)c1ccc(-c2c3nc(c(-c4ccc(S(=O)(=O)[O-])cc4)c4ccc([nH]4)c(-c4ccc(S(=O)(=O)[O-])cc4)c4nc(c(-c5ccc(S(=O)(=O)[O-])cc5)c5ccc2[nH]5)C=C4)C=C3)cc1
REMARK SMILES IDX 22 1 21 2 1 3 2 4 3 6 4 7 14 8 15 9 19 10 16 11 18 12 20 13
REMARK SMILES IDX 17 14 5 15 6 17 7 18 8 19 9 20 10 21 13 22 11 23 12 24 23 25
REMARK SMILES IDX 24 26 25 27 26 28 27 30 28 31 29 32 87 33 30 34 86 35 31 36
REMARK SMILES IDX 32 37 33 38 80 39 34 40 85 41 79 42 81 43 35 44 84 45 78 46
REMARK SMILES IDX 77 47 36 49 66 50 47 51 65 52 48 53 51 54 64 55 82 56 49 57
REMARK SMILES IDX 50 58 63 60 83 61 52 62 37 63 38 64 46 65 39 66 45 67 40 68
REMARK SMILES IDX 41 69 42 70 43 71 44 72 67 73 68 74 76 75 69 76 75 77 70 78
REMARK SMILES IDX 71 79 72 80 73 81 74 82 53 83 54 84 62 85 55 86 61 87 56 88
REMARK SMILES IDX 57 89 58 90 59 91 60 92
REMARK H PARENT 21 5 5 16 25 29 81 48 51 59
REMARK Flexibility Score: inf
ROOT
ATOM      1  C   UNL A   1      36.911  22.955  26.045  1.00  0.00     0.117 C 
ENDROOT
BRANCH   1   2
ATOM      2  N   UNL A   1      35.592  23.493  26.316  1.00  0.00    -0.356 N 
ATOM      3  O   UNL A   1      34.475  21.725  25.370  1.00  0.00    -0.275 OA
ATOM      4  C   UNL A   1      34.455  22.794  25.971  1.00  0.00     0.221 C 
ATOM      5  H   UNL A   1      35.507  24.371  26.753  1.00  0.00     0.163 HD
BRANCH   4   6
ATOM      6  C   UNL A   1      33.172  23.417  26.466  1.00  0.00     0.125 C 
BRANCH   6   7
ATOM      7  C   UNL A   1      32.534  24.350  25.424  1.00  0.00     0.111 C 
BRANCH   7   8
ATOM      8  C   UNL A   1      32.497  25.798  25.921  1.00  0.00    -0.011 A 
ATOM      9  C   UNL A   1      33.689  26.536  26.081  1.00  0.00     0.007 A 
ATOM     10  C   UNL A   1      31.292  26.426  26.292  1.00  0.00     0.045 A 
ATOM     11  C   UNL A   1      33.679  27.840  26.580  1.00  0.00     0.000 A 
ATOM     12  C   UNL A   1      31.286  27.735  26.794  1.00  0.00     0.021 A 
ATOM     13  Cl  UNL A   1      29.760  25.632  26.164  1.00  0.00    -0.084 Cl
ATOM     14  C   UNL A   1      32.478  28.441  26.938  1.00  0.00     0.002 A 
ENDBRANCH   7   8
BRANCH   7  15
ATOM     15  N   UNL A   1      33.165  24.248  24.082  1.00  0.00    -0.202 NA
ATOM     16  H   UNL A   1      33.410  23.267  23.948  1.00  0.00     0.142 HD
BRANCH  15  17
ATOM     17  S   UNL A   1      32.324  24.727  22.714  1.00  0.00     0.250 S 
ATOM     18  O   UNL A   1      33.190  24.445  21.592  1.00  0.00    -0.206 OA
ATOM     19  O   UNL A   1      31.008  24.134  22.799  1.00  0.00    -0.206 OA
BRANCH  17  20
ATOM     20  C   UNL A   1      32.074  26.480  22.700  1.00  0.00     0.134 A 
ATOM     21  C   UNL A   1      30.930  27.251  22.790  1.00  0.00     0.033 A 
ATOM     22  S   UNL A   1      33.467  27.451  22.490  1.00  0.00    -0.131 S 
ATOM     23  C   UNL A   1      31.204  28.646  22.698  1.00  0.00     0.013 A 
ATOM     24  C   UNL A   1      32.550  28.894  22.540  1.00  0.00     0.066 A 
ENDBRANCH  17  20
ENDBRANCH  15  17
ENDBRANCH   7  15
ENDBRANCH   6   7
ENDBRANCH   4   6
ENDBRANCH   1   2
BRANCH   1  25
ATOM     25  C   UNL A   1      38.013  24.007  26.006  1.00  0.00     0.042 C 
BRANCH  25  26
ATOM     26  C   UNL A   1      39.281  23.664  26.785  1.00  0.00     0.118 C 
BRANCH  26  27
ATOM     27  N   UNL A   1      40.504  23.983  26.067  1.00  0.00    -0.352 N 
ATOM     28  C   UNL A   1      41.355  25.053  26.199  1.00  0.00     0.251 C 
ATOM     29  H   UNL A   1      40.763  23.329  25.378  1.00  0.00     0.163 HD
ATOM     30  O   UNL A   1      42.272  25.187  25.392  1.00  0.00    -0.269 OA
BRANCH  28  31
ATOM     31  C   UNL A   1      41.165  26.060  27.270  1.00  0.00     0.039 A 
ATOM     32  C   UNL A   1      40.276  25.759  28.308  1.00  0.00     0.014 A 
ATOM     33  C   UNL A   1      41.803  27.304  27.243  1.00  0.00     0.014 A 
ATOM     34  C   UNL A   1      40.075  26.671  29.347  1.00  0.00     0.010 A 
ATOM     35  C   UNL A   1      41.631  28.201  28.300  1.00  0.00     0.010 A 
ATOM     36  C   UNL A   1      40.770  27.889  29.363  1.00  0.00    -0.014 A 
BRANCH  36  37
ATOM     37  C   UNL A   1      40.614  28.829  30.498  1.00  0.00     0.031 A 
ATOM     38  C   UNL A   1      41.510  28.738  31.699  1.00  0.00     0.074 A 
ATOM     39  C   UNL A   1      39.631  29.748  30.464  1.00  0.00     0.049 A 
ATOM     40  N   UNL A   1      41.490  29.453  32.795  1.00  0.00    -0.248 NA
ATOM     41  C   UNL A   1      42.551  27.700  31.671  1.00  0.00     0.031 C 
ATOM     42  C   UNL A   1      38.665  29.918  29.377  1.00  0.00     0.029 A 
ATOM     43  N   UNL A   1      39.283  30.714  31.374  1.00  0.00    -0.354 N 
ATOM     44  C   UNL A   1      42.488  28.929  33.606  1.00  0.00     0.074 A 
ATOM     45  C   UNL A   1      43.099  27.840  32.871  1.00  0.00     0.031 C 
ATOM     46  C   UNL A   1      37.845  30.939  29.675  1.00  0.00     0.029 A 
ATOM     47  C   UNL A   1      38.221  31.488  30.975  1.00  0.00     0.049 A 
ATOM     48  H   UNL A   1      39.750  30.840  32.232  1.00  0.00     0.167 HD
ATOM     49  C   UNL A   1      42.862  29.315  34.849  1.00  0.00     0.031 A 
ATOM     50  C   UNL A   1      37.622  32.529  31.581  1.00  0.00     0.031 A 
ATOM     51  C   UNL A   1      42.287  30.413  35.575  1.00  0.00     0.049 A 
ATOM     52  C   UNL A   1      38.121  33.005  32.912  1.00  0.00     0.074 A 
ATOM     53  C   UNL A   1      42.618  30.888  36.834  1.00  0.00     0.029 A 
ATOM     54  N   UNL A   1      41.268  31.223  35.099  1.00  0.00    -0.354 N 
ATOM     55  N   UNL A   1      39.078  32.505  33.654  1.00  0.00    -0.248 NA
ATOM     56  C   UNL A   1      37.466  34.192  33.478  1.00  0.00     0.031 C 
ATOM     57  C   UNL A   1      41.800  31.991  37.116  1.00  0.00     0.029 A 
ATOM     58  C   UNL A   1      40.965  32.200  36.031  1.00  0.00     0.049 A 
ATOM     59  H   UNL A   1      40.825  31.117  34.227  1.00  0.00     0.167 HD
ATOM     60  C   UNL A   1      39.146  33.322  34.777  1.00  0.00     0.074 A 
ATOM     61  C   UNL A   1      38.138  34.351  34.612  1.00  0.00     0.031 C 
ATOM     62  C   UNL A   1      39.969  33.222  35.848  1.00  0.00     0.031 A 
BRANCH  49  63
ATOM     63  C   UNL A   1      43.945  28.507  35.502  1.00  0.00    -0.014 A 
ATOM     64  C   UNL A   1      45.300  28.813  35.285  1.00  0.00     0.010 A 
ATOM     65  C   UNL A   1      43.603  27.413  36.315  1.00  0.00     0.010 A 
ATOM     66  C   UNL A   1      46.299  28.008  35.836  1.00  0.00     0.020 A 
ATOM     67  C   UNL A   1      44.600  26.611  36.874  1.00  0.00     0.020 A 
ATOM     68  C   UNL A   1      45.942  26.900  36.612  1.00  0.00     0.054 A 
BRANCH  68  69
ATOM     69  S   UNL A   1      47.234  25.833  37.305  1.00  0.00     0.124 S 
ATOM     70  O   UNL A   1      46.651  25.457  38.592  1.00  0.00    -0.237 OA
ATOM     71  O   UNL A   1      47.340  24.752  36.327  1.00  0.00    -0.237 OA
ATOM     72  O   UNL A   1      48.395  26.716  37.378  1.00  0.00    -0.744 OA
ENDBRANCH  68  69
ENDBRANCH  49  63
BRANCH  50  73
ATOM     73  C   UNL A   1      36.497  33.214  30.902  1.00  0.00    -0.014 A 
ATOM     74  C   UNL A   1      35.244  33.300  31.533  1.00  0.00     0.010 A 
ATOM     75  C   UNL A   1      36.688  33.823  29.650  1.00  0.00     0.010 A 
ATOM     76  C   UNL A   1      34.195  33.992  30.923  1.00  0.00     0.020 A 
ATOM     77  C   UNL A   1      35.642  34.521  29.042  1.00  0.00     0.020 A 
ATOM     78  C   UNL A   1      34.400  34.598  29.681  1.00  0.00     0.054 A 
BRANCH  78  79
ATOM     79  S   UNL A   1      33.068  35.572  28.926  1.00  0.00     0.124 S 
ATOM     80  O   UNL A   1      32.315  36.012  30.096  1.00  0.00    -0.237 OA
ATOM     81  O   UNL A   1      33.791  36.621  28.209  1.00  0.00    -0.237 OA
ATOM     82  O   UNL A   1      32.394  34.598  28.070  1.00  0.00    -0.744 OA
ENDBRANCH  78  79
ENDBRANCH  50  73
BRANCH  62  83
ATOM     83  C   UNL A   1      39.819  34.268  36.913  1.00  0.00    -0.014 A 
ATOM     84  C   UNL A   1      39.012  34.027  38.039  1.00  0.00     0.010 A 
ATOM     85  C   UNL A   1      40.502  35.490  36.797  1.00  0.00     0.010 A 
ATOM     86  C   UNL A   1      38.872  35.006  39.025  1.00  0.00     0.020 A 
ATOM     87  C   UNL A   1      40.367  36.469  37.785  1.00  0.00     0.020 A 
ATOM     88  C   UNL A   1      39.542  36.225  38.888  1.00  0.00     0.054 A 
BRANCH  88  89
ATOM     89  S   UNL A   1      39.387  37.488  40.181  1.00  0.00     0.124 S 
ATOM     90  O   UNL A   1      40.769  37.933  40.337  1.00  0.00    -0.237 OA
ATOM     91  O   UNL A   1      38.477  38.466  39.589  1.00  0.00    -0.237 OA
ATOM     92  O   UNL A   1      38.837  36.744  41.311  1.00  0.00    -0.744 OA
ENDBRANCH  88  89
ENDBRANCH  62  83
ENDBRANCH  36  37
ENDBRANCH  28  31
ENDBRANCH  26  27
ENDBRANCH  25  26
ENDBRANCH   1  25
TORSDOF 18
ENDMDL
