MODEL 1
REMARK VINA RESULT:     -10.0      0.000      0.000
REMARK SMILES CC[C@@H]1CCCN1C(=O)N[C@H]1C=C[C@@H](C(=O)NCCCNC(=O)c2ccc(-c3c4nc(c(-c5ccc(S(=O)(=O)[O-])cc5)c5ccc([nH]5)c(-c5ccc(S(=O)(=O)[O-])cc5)c5nc(c(-c6ccc(S(=O)(=O)[O-])cc6)c6ccc3[nH]6)C=C5)C=C4)cc2)C1
REMARK SMILES IDX 19 1 18 2 17 3 15 4 16 5 14 7 11 8 12 9 84 10 13 11 10 12
REMARK SMILES IDX 8 13 9 14 7 16 3 17 4 18 5 19 6 20 2 21 1 22 20 23 21 24
REMARK SMILES IDX 22 25 23 27 24 28 25 29 83 30 26 31 82 32 27 33 28 34 29 35
REMARK SMILES IDX 76 36 30 37 81 38 75 39 77 40 31 41 80 42 74 43 73 44 32 46
REMARK SMILES IDX 62 47 43 48 61 49 44 50 47 51 60 52 78 53 45 54 46 55 59 57
REMARK SMILES IDX 79 58 48 59 33 60 34 61 42 62 35 63 41 64 36 65 37 66 38 67
REMARK SMILES IDX 39 68 40 69 63 70 64 71 72 72 65 73 71 74 66 75 67 76 68 77
REMARK SMILES IDX 69 78 70 79 49 80 50 81 58 82 51 83 57 84 52 85 53 86 54 87
REMARK SMILES IDX 55 88 56 89
REMARK H PARENT 17 6 10 15 21 26 77 45 47 56
REMARK Flexibility Score: inf
ROOT
ATOM      1  C   UNL A   1      33.812  33.834  28.745  1.00  0.00     0.042 C 
ENDROOT
BRANCH   1   2
ATOM      2  C   UNL A   1      34.352  34.515  29.989  1.00  0.00     0.117 C 
BRANCH   2   3
ATOM      3  N   UNL A   1      33.743  33.990  31.202  1.00  0.00    -0.356 N 
ATOM      4  C   UNL A   1      34.296  33.416  32.305  1.00  0.00     0.227 C 
ATOM      5  O   UNL A   1      33.532  33.038  33.198  1.00  0.00    -0.274 OA
ATOM      6  H   UNL A   1      32.762  34.062  31.229  1.00  0.00     0.163 HD
BRANCH   4   7
ATOM      7  C   UNL A   1      35.803  33.247  32.464  1.00  0.00     0.103 C 
ATOM      8  C   UNL A   1      37.465  32.123  33.823  1.00  0.00     0.107 C 
ATOM      9  C   UNL A   1      37.140  31.343  32.589  1.00  0.00    -0.006 C 
ATOM     10  C   UNL A   1      36.281  33.087  33.915  1.00  0.00     0.047 C 
ATOM     11  C   UNL A   1      36.298  32.003  31.791  1.00  0.00    -0.016 C 
BRANCH   8  12
ATOM     12  N   UNL A   1      37.624  31.216  34.898  1.00  0.00    -0.332 N 
ATOM     13  C   UNL A   1      38.582  31.099  35.826  1.00  0.00     0.318 C 
ATOM     14  O   UNL A   1      38.468  30.089  36.531  1.00  0.00    -0.249 OA
ATOM     15  H   UNL A   1      36.902  30.552  34.978  1.00  0.00     0.165 HD
BRANCH  13  16
ATOM     16  N   UNL A   1      39.610  31.986  36.015  1.00  0.00    -0.322 N 
ATOM     17  C   UNL A   1      39.811  33.360  36.579  1.00  0.00     0.086 C 
ATOM     18  C   UNL A   1      41.290  33.630  36.210  1.00  0.00     0.027 C 
ATOM     19  C   UNL A   1      41.965  32.299  36.394  1.00  0.00     0.024 C 
ATOM     20  C   UNL A   1      40.922  31.338  35.869  1.00  0.00     0.122 C 
BRANCH  17  21
ATOM     21  C   UNL A   1      39.060  34.621  36.081  1.00  0.00     0.022 C 
ATOM     22  C   UNL A   1      39.517  35.157  34.716  1.00  0.00     0.006 C 
ENDBRANCH  17  21
ENDBRANCH  13  16
ENDBRANCH   8  12
ENDBRANCH   4   7
ENDBRANCH   2   3
ENDBRANCH   1   2
BRANCH   1  23
ATOM     23  C   UNL A   1      34.754  32.766  28.229  1.00  0.00     0.118 C 
BRANCH  23  24
ATOM     24  N   UNL A   1      34.038  31.552  27.854  1.00  0.00    -0.352 N 
ATOM     25  C   UNL A   1      34.536  30.292  27.637  1.00  0.00     0.251 C 
ATOM     26  H   UNL A   1      33.065  31.651  27.740  1.00  0.00     0.163 HD
ATOM     27  O   UNL A   1      33.854  29.447  27.067  1.00  0.00    -0.269 OA
BRANCH  25  28
ATOM     28  C   UNL A   1      35.904  29.978  28.092  1.00  0.00     0.039 A 
ATOM     29  C   UNL A   1      36.109  29.434  29.361  1.00  0.00     0.014 A 
ATOM     30  C   UNL A   1      36.984  30.201  27.234  1.00  0.00     0.014 A 
ATOM     31  C   UNL A   1      37.398  29.060  29.745  1.00  0.00     0.010 A 
ATOM     32  C   UNL A   1      38.236  29.715  27.567  1.00  0.00     0.010 A 
ATOM     33  C   UNL A   1      38.465  29.170  28.838  1.00  0.00    -0.014 A 
BRANCH  33  34
ATOM     34  C   UNL A   1      39.853  28.789  29.195  1.00  0.00     0.031 A 
ATOM     35  C   UNL A   1      40.744  29.815  29.846  1.00  0.00     0.074 A 
ATOM     36  C   UNL A   1      40.334  27.579  28.852  1.00  0.00     0.049 A 
ATOM     37  N   UNL A   1      42.025  29.756  30.097  1.00  0.00    -0.248 NA
ATOM     38  C   UNL A   1      40.118  31.097  30.221  1.00  0.00     0.031 C 
ATOM     39  C   UNL A   1      39.578  26.519  28.180  1.00  0.00     0.029 A 
ATOM     40  N   UNL A   1      41.586  27.042  29.010  1.00  0.00    -0.354 N 
ATOM     41  C   UNL A   1      42.361  31.000  30.620  1.00  0.00     0.074 A 
ATOM     42  C   UNL A   1      41.167  31.813  30.592  1.00  0.00     0.031 C 
ATOM     43  C   UNL A   1      40.375  25.452  28.005  1.00  0.00     0.029 A 
ATOM     44  C   UNL A   1      41.708  25.768  28.508  1.00  0.00     0.049 A 
ATOM     45  H   UNL A   1      42.328  27.524  29.443  1.00  0.00     0.167 HD
ATOM     46  C   UNL A   1      43.552  31.420  31.108  1.00  0.00     0.031 A 
ATOM     47  C   UNL A   1      42.779  24.952  28.449  1.00  0.00     0.031 A 
ATOM     48  C   UNL A   1      44.723  30.589  31.166  1.00  0.00     0.049 A 
ATOM     49  C   UNL A   1      44.089  25.432  29.014  1.00  0.00     0.074 A 
ATOM     50  C   UNL A   1      45.964  30.890  31.696  1.00  0.00     0.029 A 
ATOM     51  N   UNL A   1      44.790  29.289  30.690  1.00  0.00    -0.354 N 
ATOM     52  N   UNL A   1      44.377  26.593  29.553  1.00  0.00    -0.248 NA
ATOM     53  C   UNL A   1      45.215  24.489  28.976  1.00  0.00     0.031 C 
ATOM     54  C   UNL A   1      46.796  29.784  31.500  1.00  0.00     0.029 A 
ATOM     55  C   UNL A   1      46.056  28.775  30.903  1.00  0.00     0.049 A 
ATOM     56  H   UNL A   1      44.047  28.803  30.263  1.00  0.00     0.167 HD
ATOM     57  C   UNL A   1      45.707  26.508  29.950  1.00  0.00     0.074 A 
ATOM     58  C   UNL A   1      46.163  25.180  29.595  1.00  0.00     0.031 C 
ATOM     59  C   UNL A   1      46.480  27.442  30.556  1.00  0.00     0.031 A 
BRANCH  46  60
ATOM     60  C   UNL A   1      43.635  32.834  31.618  1.00  0.00    -0.014 A 
ATOM     61  C   UNL A   1      43.929  33.904  30.752  1.00  0.00     0.010 A 
ATOM     62  C   UNL A   1      43.394  33.102  32.978  1.00  0.00     0.010 A 
ATOM     63  C   UNL A   1      44.030  35.207  31.244  1.00  0.00     0.020 A 
ATOM     64  C   UNL A   1      43.461  34.410  33.468  1.00  0.00     0.020 A 
ATOM     65  C   UNL A   1      43.798  35.451  32.601  1.00  0.00     0.054 A 
BRANCH  65  66
ATOM     66  S   UNL A   1      43.915  37.157  33.207  1.00  0.00     0.124 S 
ATOM     67  O   UNL A   1      43.924  37.919  31.960  1.00  0.00    -0.237 OA
ATOM     68  O   UNL A   1      42.707  37.293  34.017  1.00  0.00    -0.237 OA
ATOM     69  O   UNL A   1      45.170  37.174  33.956  1.00  0.00    -0.744 OA
ENDBRANCH  65  66
ENDBRANCH  46  60
BRANCH  47  70
ATOM     70  C   UNL A   1      42.648  23.595  27.853  1.00  0.00    -0.014 A 
ATOM     71  C   UNL A   1      42.061  22.547  28.586  1.00  0.00     0.010 A 
ATOM     72  C   UNL A   1      43.094  23.343  26.542  1.00  0.00     0.010 A 
ATOM     73  C   UNL A   1      41.945  21.270  28.028  1.00  0.00     0.020 A 
ATOM     74  C   UNL A   1      42.953  22.075  25.971  1.00  0.00     0.020 A 
ATOM     75  C   UNL A   1      42.391  21.042  26.724  1.00  0.00     0.054 A 
BRANCH  75  76
ATOM     76  S   UNL A   1      42.193  19.386  26.009  1.00  0.00     0.124 S 
ATOM     77  O   UNL A   1      42.707  18.532  27.075  1.00  0.00    -0.237 OA
ATOM     78  O   UNL A   1      40.753  19.312  25.778  1.00  0.00    -0.237 OA
ATOM     79  O   UNL A   1      43.009  19.435  24.798  1.00  0.00    -0.744 OA
ENDBRANCH  75  76
ENDBRANCH  47  70
BRANCH  59  80
ATOM     80  C   UNL A   1      47.884  27.051  30.928  1.00  0.00    -0.014 A 
ATOM     81  C   UNL A   1      48.162  26.387  32.134  1.00  0.00     0.010 A 
ATOM     82  C   UNL A   1      48.925  27.273  30.007  1.00  0.00     0.010 A 
ATOM     83  C   UNL A   1      49.464  25.969  32.423  1.00  0.00     0.020 A 
ATOM     84  C   UNL A   1      50.221  26.832  30.279  1.00  0.00     0.020 A 
ATOM     85  C   UNL A   1      50.484  26.189  31.490  1.00  0.00     0.054 A 
BRANCH  85  86
ATOM     86  S   UNL A   1      52.150  25.575  31.857  1.00  0.00     0.124 S 
ATOM     87  O   UNL A   1      51.911  24.149  32.060  1.00  0.00    -0.237 OA
ATOM     88  O   UNL A   1      52.892  25.922  30.648  1.00  0.00    -0.237 OA
ATOM     89  O   UNL A   1      52.538  26.318  33.053  1.00  0.00    -0.744 OA
ENDBRANCH  85  86
ENDBRANCH  59  80
ENDBRANCH  33  34
ENDBRANCH  25  28
ENDBRANCH  23  24
ENDBRANCH   1  23
TORSDOF 16
ENDMDL
MODEL 2
REMARK VINA RESULT:      -9.8      3.110     10.862
REMARK SMILES CC[C@@H]1CCCN1C(=O)N[C@H]1C=C[C@@H](C(=O)NCCCNC(=O)c2ccc(-c3c4nc(c(-c5ccc(S(=O)(=O)[O-])cc5)c5ccc([nH]5)c(-c5ccc(S(=O)(=O)[O-])cc5)c5nc(c(-c6ccc(S(=O)(=O)[O-])cc6)c6ccc3[nH]6)C=C5)C=C4)cc2)C1
REMARK SMILES IDX 19 1 18 2 17 3 15 4 16 5 14 7 11 8 12 9 84 10 13 11 10 12
REMARK SMILES IDX 8 13 9 14 7 16 3 17 4 18 5 19 6 20 2 21 1 22 20 23 21 24
REMARK SMILES IDX 22 25 23 27 24 28 25 29 83 30 26 31 82 32 27 33 28 34 29 35
REMARK SMILES IDX 76 36 30 37 81 38 75 39 77 40 31 41 80 42 74 43 73 44 32 46
REMARK SMILES IDX 62 47 43 48 61 49 44 50 47 51 60 52 78 53 45 54 46 55 59 57
REMARK SMILES IDX 79 58 48 59 33 60 34 61 42 62 35 63 41 64 36 65 37 66 38 67
REMARK SMILES IDX 39 68 40 69 63 70 64 71 72 72 65 73 71 74 66 75 67 76 68 77
REMARK SMILES IDX 69 78 70 79 49 80 50 81 58 82 51 83 57 84 52 85 53 86 54 87
REMARK SMILES IDX 55 88 56 89
REMARK H PARENT 17 6 10 15 21 26 77 45 47 56
REMARK Flexibility Score: inf
ROOT
ATOM      1  C   UNL A   1      42.076  21.854  26.421  1.00  0.00     0.042 C 
ENDROOT
BRANCH   1   2
ATOM      2  C   UNL A   1      43.208  21.796  27.430  1.00  0.00     0.117 C 
BRANCH   2   3
ATOM      3  N   UNL A   1      44.506  21.978  26.799  1.00  0.00    -0.356 N 
ATOM      4  C   UNL A   1      45.186  23.108  26.462  1.00  0.00     0.227 C 
ATOM      5  O   UNL A   1      46.283  22.974  25.912  1.00  0.00    -0.274 OA
ATOM      6  H   UNL A   1      44.972  21.141  26.577  1.00  0.00     0.163 HD
BRANCH   4   7
ATOM      7  C   UNL A   1      44.643  24.503  26.756  1.00  0.00     0.103 C 
ATOM      8  C   UNL A   1      45.046  26.845  26.289  1.00  0.00     0.107 C 
ATOM      9  C   UNL A   1      44.047  26.258  25.346  1.00  0.00    -0.006 C 
ATOM     10  C   UNL A   1      45.715  25.598  26.868  1.00  0.00     0.047 C 
ATOM     11  C   UNL A   1      43.749  24.994  25.660  1.00  0.00    -0.016 C 
BRANCH   8  12
ATOM     12  N   UNL A   1      45.882  27.729  25.565  1.00  0.00    -0.332 N 
ATOM     13  C   UNL A   1      46.167  29.025  25.740  1.00  0.00     0.318 C 
ATOM     14  O   UNL A   1      46.833  29.515  24.819  1.00  0.00    -0.249 OA
ATOM     15  H   UNL A   1      46.334  27.317  24.793  1.00  0.00     0.165 HD
BRANCH  13  16
ATOM     16  N   UNL A   1      45.782  29.779  26.818  1.00  0.00    -0.322 N 
ATOM     17  C   UNL A   1      44.551  30.001  27.643  1.00  0.00     0.086 C 
ATOM     18  C   UNL A   1      44.998  31.174  28.551  1.00  0.00     0.027 C 
ATOM     19  C   UNL A   1      46.439  30.876  28.856  1.00  0.00     0.024 C 
ATOM     20  C   UNL A   1      46.939  30.336  27.534  1.00  0.00     0.122 C 
BRANCH  17  21
ATOM     21  C   UNL A   1      43.190  30.465  27.066  1.00  0.00     0.022 C 
ATOM     22  C   UNL A   1      42.366  29.369  26.375  1.00  0.00     0.006 C 
ENDBRANCH  17  21
ENDBRANCH  13  16
ENDBRANCH   8  12
ENDBRANCH   4   7
ENDBRANCH   2   3
ENDBRANCH   1   2
BRANCH   1  23
ATOM     23  C   UNL A   1      40.724  21.659  27.075  1.00  0.00     0.118 C 
BRANCH  23  24
ATOM     24  N   UNL A   1      39.633  21.883  26.133  1.00  0.00    -0.352 N 
ATOM     25  C   UNL A   1      38.790  22.962  26.034  1.00  0.00     0.251 C 
ATOM     26  H   UNL A   1      39.481  21.162  25.480  1.00  0.00     0.163 HD
ATOM     27  O   UNL A   1      37.759  22.882  25.374  1.00  0.00    -0.269 OA
BRANCH  25  28
ATOM     28  C   UNL A   1      39.141  24.208  26.741  1.00  0.00     0.039 A 
ATOM     29  C   UNL A   1      38.703  24.414  28.050  1.00  0.00     0.014 A 
ATOM     30  C   UNL A   1      39.935  25.163  26.102  1.00  0.00     0.014 A 
ATOM     31  C   UNL A   1      39.115  25.557  28.737  1.00  0.00     0.010 A 
ATOM     32  C   UNL A   1      40.442  26.228  26.824  1.00  0.00     0.010 A 
ATOM     33  C   UNL A   1      40.013  26.456  28.139  1.00  0.00    -0.014 A 
BRANCH  33  34
ATOM     34  C   UNL A   1      40.480  27.686  28.823  1.00  0.00     0.031 A 
ATOM     35  C   UNL A   1      41.846  27.690  29.458  1.00  0.00     0.074 A 
ATOM     36  C   UNL A   1      39.656  28.743  28.957  1.00  0.00     0.049 A 
ATOM     37  N   UNL A   1      42.392  28.587  30.237  1.00  0.00    -0.248 NA
ATOM     38  C   UNL A   1      42.692  26.506  29.224  1.00  0.00     0.031 C 
ATOM     39  C   UNL A   1      38.295  28.837  28.422  1.00  0.00     0.029 A 
ATOM     40  N   UNL A   1      39.841  29.939  29.602  1.00  0.00    -0.354 N 
ATOM     41  C   UNL A   1      43.621  28.056  30.612  1.00  0.00     0.074 A 
ATOM     42  C   UNL A   1      43.715  26.738  30.030  1.00  0.00     0.031 C 
ATOM     43  C   UNL A   1      37.779  30.035  28.741  1.00  0.00     0.029 A 
ATOM     44  C   UNL A   1      38.750  30.773  29.542  1.00  0.00     0.049 A 
ATOM     45  H   UNL A   1      40.676  30.177  30.066  1.00  0.00     0.167 HD
ATOM     46  C   UNL A   1      44.600  28.628  31.353  1.00  0.00     0.031 A 
ATOM     47  C   UNL A   1      38.552  31.991  30.083  1.00  0.00     0.031 A 
ATOM     48  C   UNL A   1      44.512  29.956  31.895  1.00  0.00     0.049 A 
ATOM     49  C   UNL A   1      39.660  32.617  30.887  1.00  0.00     0.074 A 
ATOM     50  C   UNL A   1      45.466  30.659  32.607  1.00  0.00     0.029 A 
ATOM     51  N   UNL A   1      43.407  30.786  31.770  1.00  0.00    -0.354 N 
ATOM     52  N   UNL A   1      40.837  32.123  31.190  1.00  0.00    -0.248 NA
ATOM     53  C   UNL A   1      39.419  33.968  31.413  1.00  0.00     0.031 C 
ATOM     54  C   UNL A   1      44.921  31.899  32.951  1.00  0.00     0.029 A 
ATOM     55  C   UNL A   1      43.651  31.991  32.402  1.00  0.00     0.049 A 
ATOM     56  H   UNL A   1      42.574  30.551  31.301  1.00  0.00     0.167 HD
ATOM     57  C   UNL A   1      41.491  33.116  31.911  1.00  0.00     0.074 A 
ATOM     58  C   UNL A   1      40.581  34.239  31.992  1.00  0.00     0.031 C 
ATOM     59  C   UNL A   1      42.734  33.101  32.453  1.00  0.00     0.031 A 
BRANCH  46  60
ATOM     60  C   UNL A   1      45.843  27.818  31.609  1.00  0.00    -0.014 A 
ATOM     61  C   UNL A   1      46.924  27.842  30.708  1.00  0.00     0.010 A 
ATOM     62  C   UNL A   1      45.944  27.040  32.777  1.00  0.00     0.010 A 
ATOM     63  C   UNL A   1      48.060  27.064  30.944  1.00  0.00     0.020 A 
ATOM     64  C   UNL A   1      47.094  26.287  33.033  1.00  0.00     0.020 A 
ATOM     65  C   UNL A   1      48.136  26.290  32.104  1.00  0.00     0.054 A 
BRANCH  65  66
ATOM     66  S   UNL A   1      49.633  25.307  32.394  1.00  0.00     0.124 S 
ATOM     67  O   UNL A   1      49.129  24.235  33.250  1.00  0.00    -0.237 OA
ATOM     68  O   UNL A   1      50.018  24.903  31.044  1.00  0.00    -0.237 OA
ATOM     69  O   UNL A   1      50.545  26.246  33.045  1.00  0.00    -0.744 OA
ENDBRANCH  65  66
ENDBRANCH  46  60
BRANCH  47  70
ATOM     70  C   UNL A   1      37.264  32.703  29.862  1.00  0.00    -0.014 A 
ATOM     71  C   UNL A   1      36.203  32.557  30.774  1.00  0.00     0.010 A 
ATOM     72  C   UNL A   1      37.094  33.545  28.747  1.00  0.00     0.010 A 
ATOM     73  C   UNL A   1      34.990  33.221  30.563  1.00  0.00     0.020 A 
ATOM     74  C   UNL A   1      35.892  34.233  28.548  1.00  0.00     0.020 A 
ATOM     75  C   UNL A   1      34.843  34.055  29.452  1.00  0.00     0.054 A 
BRANCH  75  76
ATOM     76  S   UNL A   1      33.272  34.935  29.221  1.00  0.00     0.124 S 
ATOM     77  O   UNL A   1      32.730  34.946  30.576  1.00  0.00    -0.237 OA
ATOM     78  O   UNL A   1      33.709  36.228  28.703  1.00  0.00    -0.237 OA
ATOM     79  O   UNL A   1      32.549  34.100  28.264  1.00  0.00    -0.744 OA
ENDBRANCH  75  76
ENDBRANCH  47  70
BRANCH  59  80
ATOM     80  C   UNL A   1      43.211  34.354  33.137  1.00  0.00    -0.014 A 
ATOM     81  C   UNL A   1      43.077  34.526  34.525  1.00  0.00     0.010 A 
ATOM     82  C   UNL A   1      43.887  35.332  32.383  1.00  0.00     0.010 A 
ATOM     83  C   UNL A   1      43.594  35.666  35.145  1.00  0.00     0.020 A 
ATOM     84  C   UNL A   1      44.429  36.458  33.003  1.00  0.00     0.020 A 
ATOM     85  C   UNL A   1      44.272  36.622  34.380  1.00  0.00     0.054 A 
BRANCH  85  86
ATOM     86  S   UNL A   1      44.995  38.057  35.220  1.00  0.00     0.124 S 
ATOM     87  O   UNL A   1      46.349  37.592  35.508  1.00  0.00    -0.237 OA
ATOM     88  O   UNL A   1      44.893  39.105  34.206  1.00  0.00    -0.237 OA
ATOM     89  O   UNL A   1      44.138  38.244  36.388  1.00  0.00    -0.744 OA
ENDBRANCH  85  86
ENDBRANCH  59  80
ENDBRANCH  33  34
ENDBRANCH  25  28
ENDBRANCH  23  24
ENDBRANCH   1  23
TORSDOF 16
ENDMDL
MODEL 3
REMARK VINA RESULT:      -9.6      4.992     11.708
REMARK SMILES CC[C@@H]1CCCN1C(=O)N[C@H]1C=C[C@@H](C(=O)NCCCNC(=O)c2ccc(-c3c4nc(c(-c5ccc(S(=O)(=O)[O-])cc5)c5ccc([nH]5)c(-c5ccc(S(=O)(=O)[O-])cc5)c5nc(c(-c6ccc(S(=O)(=O)[O-])cc6)c6ccc3[nH]6)C=C5)C=C4)cc2)C1
REMARK SMILES IDX 19 1 18 2 17 3 15 4 16 5 14 7 11 8 12 9 84 10 13 11 10 12
REMARK SMILES IDX 8 13 9 14 7 16 3 17 4 18 5 19 6 20 2 21 1 22 20 23 21 24
REMARK SMILES IDX 22 25 23 27 24 28 25 29 83 30 26 31 82 32 27 33 28 34 29 35
REMARK SMILES IDX 76 36 30 37 81 38 75 39 77 40 31 41 80 42 74 43 73 44 32 46
REMARK SMILES IDX 62 47 43 48 61 49 44 50 47 51 60 52 78 53 45 54 46 55 59 57
REMARK SMILES IDX 79 58 48 59 33 60 34 61 42 62 35 63 41 64 36 65 37 66 38 67
REMARK SMILES IDX 39 68 40 69 63 70 64 71 72 72 65 73 71 74 66 75 67 76 68 77
REMARK SMILES IDX 69 78 70 79 49 80 50 81 58 82 51 83 57 84 52 85 53 86 54 87
REMARK SMILES IDX 55 88 56 89
REMARK H PARENT 17 6 10 15 21 26 77 45 47 56
REMARK Flexibility Score: inf
ROOT
ATOM      1  C   UNL A   1      39.389  22.810  26.507  1.00  0.00     0.042 C 
ENDROOT
BRANCH   1   2
ATOM      2  C   UNL A   1      38.119  23.621  26.333  1.00  0.00     0.117 C 
BRANCH   2   3
ATOM      3  N   UNL A   1      37.490  23.373  25.044  1.00  0.00    -0.356 N 
ATOM      4  C   UNL A   1      36.474  22.539  24.691  1.00  0.00     0.227 C 
ATOM      5  O   UNL A   1      36.142  22.512  23.502  1.00  0.00    -0.274 OA
ATOM      6  H   UNL A   1      37.863  23.898  24.301  1.00  0.00     0.163 HD
BRANCH   4   7
ATOM      7  C   UNL A   1      35.745  21.668  25.709  1.00  0.00     0.103 C 
ATOM      8  C   UNL A   1      33.708  21.559  27.015  1.00  0.00     0.107 C 
ATOM      9  C   UNL A   1      33.583  20.801  25.733  1.00  0.00    -0.006 C 
ATOM     10  C   UNL A   1      34.924  22.447  26.748  1.00  0.00     0.047 C 
ATOM     11  C   UNL A   1      34.733  20.778  25.055  1.00  0.00    -0.016 C 
BRANCH   8  12
ATOM     12  N   UNL A   1      32.484  22.226  27.264  1.00  0.00    -0.332 N 
ATOM     13  C   UNL A   1      31.952  23.332  26.732  1.00  0.00     0.318 C 
ATOM     14  O   UNL A   1      30.919  23.708  27.300  1.00  0.00    -0.249 OA
ATOM     15  H   UNL A   1      31.925  21.800  27.953  1.00  0.00     0.165 HD
BRANCH  13  16
ATOM     16  N   UNL A   1      32.465  24.019  25.663  1.00  0.00    -0.322 N 
ATOM     17  C   UNL A   1      32.227  24.130  24.187  1.00  0.00     0.086 C 
ATOM     18  C   UNL A   1      33.410  25.028  23.751  1.00  0.00     0.027 C 
ATOM     19  C   UNL A   1      33.561  26.012  24.877  1.00  0.00     0.024 C 
ATOM     20  C   UNL A   1      33.305  25.147  26.092  1.00  0.00     0.122 C 
BRANCH  17  21
ATOM     21  C   UNL A   1      32.279  22.931  23.207  1.00  0.00     0.022 C 
ATOM     22  C   UNL A   1      33.201  23.120  21.993  1.00  0.00     0.006 C 
ENDBRANCH  17  21
ENDBRANCH  13  16
ENDBRANCH   8  12
ENDBRANCH   4   7
ENDBRANCH   2   3
ENDBRANCH   1   2
BRANCH   1  23
ATOM     23  C   UNL A   1      40.518  23.641  27.080  1.00  0.00     0.118 C 
BRANCH  23  24
ATOM     24  N   UNL A   1      41.168  24.447  26.053  1.00  0.00    -0.352 N 
ATOM     25  C   UNL A   1      41.309  25.811  25.991  1.00  0.00     0.251 C 
ATOM     26  H   UNL A   1      41.559  23.944  25.303  1.00  0.00     0.163 HD
ATOM     27  O   UNL A   1      41.637  26.352  24.940  1.00  0.00    -0.269 OA
BRANCH  25  28
ATOM     28  C   UNL A   1      41.050  26.610  27.203  1.00  0.00     0.039 A 
ATOM     29  C   UNL A   1      40.091  26.188  28.125  1.00  0.00     0.014 A 
ATOM     30  C   UNL A   1      41.790  27.773  27.434  1.00  0.00     0.014 A 
ATOM     31  C   UNL A   1      39.918  26.906  29.310  1.00  0.00     0.010 A 
ATOM     32  C   UNL A   1      41.705  28.408  28.660  1.00  0.00     0.010 A 
ATOM     33  C   UNL A   1      40.746  28.003  29.599  1.00  0.00    -0.014 A 
BRANCH  33  34
ATOM     34  C   UNL A   1      40.604  28.801  30.840  1.00  0.00     0.031 A 
ATOM     35  C   UNL A   1      39.552  29.878  30.896  1.00  0.00     0.074 A 
ATOM     36  C   UNL A   1      41.466  28.628  31.861  1.00  0.00     0.049 A 
ATOM     37  N   UNL A   1      39.356  30.795  31.807  1.00  0.00    -0.248 NA
ATOM     38  C   UNL A   1      38.629  29.966  29.750  1.00  0.00     0.031 C 
ATOM     39  C   UNL A   1      42.551  27.645  31.903  1.00  0.00     0.029 A 
ATOM     40  N   UNL A   1      41.572  29.289  33.057  1.00  0.00    -0.354 N 
ATOM     41  C   UNL A   1      38.318  31.584  31.325  1.00  0.00     0.074 A 
ATOM     42  C   UNL A   1      37.969  31.081  30.017  1.00  0.00     0.031 C 
ATOM     43  C   UNL A   1      43.197  27.753  33.076  1.00  0.00     0.029 A 
ATOM     44  C   UNL A   1      42.604  28.841  33.846  1.00  0.00     0.049 A 
ATOM     45  H   UNL A   1      40.965  30.017  33.326  1.00  0.00     0.167 HD
ATOM     46  C   UNL A   1      37.690  32.620  31.931  1.00  0.00     0.031 A 
ATOM     47  C   UNL A   1      43.032  29.269  35.050  1.00  0.00     0.031 A 
ATOM     48  C   UNL A   1      38.020  33.087  33.249  1.00  0.00     0.049 A 
ATOM     49  C   UNL A   1      42.309  30.410  35.714  1.00  0.00     0.074 A 
ATOM     50  C   UNL A   1      37.411  34.086  33.984  1.00  0.00     0.029 A 
ATOM     51  N   UNL A   1      39.043  32.573  34.033  1.00  0.00    -0.354 N 
ATOM     52  N   UNL A   1      41.295  31.113  35.267  1.00  0.00    -0.248 NA
ATOM     53  C   UNL A   1      42.776  30.807  37.049  1.00  0.00     0.031 C 
ATOM     54  C   UNL A   1      38.094  34.207  35.197  1.00  0.00     0.029 A 
ATOM     55  C   UNL A   1      39.089  33.243  35.241  1.00  0.00     0.049 A 
ATOM     56  H   UNL A   1      39.646  31.842  33.768  1.00  0.00     0.167 HD
ATOM     57  C   UNL A   1      40.981  32.012  36.280  1.00  0.00     0.074 A 
ATOM     58  C   UNL A   1      41.908  31.759  37.364  1.00  0.00     0.031 C 
ATOM     59  C   UNL A   1      40.012  32.960  36.312  1.00  0.00     0.031 A 
BRANCH  46  60
ATOM     60  C   UNL A   1      36.585  33.304  31.171  1.00  0.00    -0.014 A 
ATOM     61  C   UNL A   1      36.803  33.826  29.882  1.00  0.00     0.010 A 
ATOM     62  C   UNL A   1      35.303  33.408  31.741  1.00  0.00     0.010 A 
ATOM     63  C   UNL A   1      35.777  34.482  29.200  1.00  0.00     0.020 A 
ATOM     64  C   UNL A   1      34.264  34.034  31.047  1.00  0.00     0.020 A 
ATOM     65  C   UNL A   1      34.513  34.584  29.789  1.00  0.00     0.054 A 
BRANCH  65  66
ATOM     66  S   UNL A   1      33.194  35.423  28.869  1.00  0.00     0.124 S 
ATOM     67  O   UNL A   1      32.378  35.974  29.949  1.00  0.00    -0.237 OA
ATOM     68  O   UNL A   1      33.930  36.405  28.076  1.00  0.00    -0.237 OA
ATOM     69  O   UNL A   1      32.567  34.349  28.102  1.00  0.00    -0.744 OA
ENDBRANCH  65  66
ENDBRANCH  46  60
BRANCH  47  70
ATOM     70  C   UNL A   1      44.188  28.601  35.710  1.00  0.00    -0.014 A 
ATOM     71  C   UNL A   1      45.494  29.085  35.520  1.00  0.00     0.010 A 
ATOM     72  C   UNL A   1      43.988  27.487  36.546  1.00  0.00     0.010 A 
ATOM     73  C   UNL A   1      46.581  28.455  36.134  1.00  0.00     0.020 A 
ATOM     74  C   UNL A   1      45.069  26.871  37.185  1.00  0.00     0.020 A 
ATOM     75  C   UNL A   1      46.361  27.352  36.963  1.00  0.00     0.054 A 
BRANCH  75  76
ATOM     76  S   UNL A   1      47.784  26.575  37.779  1.00  0.00     0.124 S 
ATOM     77  O   UNL A   1      47.605  26.995  39.165  1.00  0.00    -0.237 OA
ATOM     78  O   UNL A   1      47.563  25.156  37.514  1.00  0.00    -0.237 OA
ATOM     79  O   UNL A   1      48.934  27.158  37.092  1.00  0.00    -0.744 OA
ENDBRANCH  75  76
ENDBRANCH  47  70
BRANCH  59  80
ATOM     80  C   UNL A   1      39.861  33.760  37.577  1.00  0.00    -0.014 A 
ATOM     81  C   UNL A   1      40.499  35.001  37.737  1.00  0.00     0.010 A 
ATOM     82  C   UNL A   1      38.990  33.297  38.581  1.00  0.00     0.010 A 
ATOM     83  C   UNL A   1      40.284  35.758  38.892  1.00  0.00     0.020 A 
ATOM     84  C   UNL A   1      38.750  34.064  39.722  1.00  0.00     0.020 A 
ATOM     85  C   UNL A   1      39.406  35.287  39.874  1.00  0.00     0.054 A 
BRANCH  85  86
ATOM     86  S   UNL A   1      39.089  36.320  41.330  1.00  0.00     0.124 S 
ATOM     87  O   UNL A   1      37.932  35.660  41.927  1.00  0.00    -0.237 OA
ATOM     88  O   UNL A   1      40.336  36.204  42.082  1.00  0.00    -0.237 OA
ATOM     89  O   UNL A   1      38.831  37.643  40.767  1.00  0.00    -0.744 OA
ENDBRANCH  85  86
ENDBRANCH  59  80
ENDBRANCH  33  34
ENDBRANCH  25  28
ENDBRANCH  23  24
ENDBRANCH   1  23
TORSDOF 16
ENDMDL
