MODEL 1
REMARK VINA RESULT:     -11.1      0.000      0.000
REMARK SMILES COc1ccc(-c2ccc(S(=O)(=O)NC(C)(C)C)cc2)c(C(=O)NCCCNC(=O)c2ccc(-c3c4nc(c(-c5ccc(S(=O)(=O)[O-])cc5)c5ccc([nH]5)c(-c5ccc(S(=O)(=O)[O-])cc5)c5nc(c(-c6ccc(S(=O)(=O)[O-])cc6)c6ccc3[nH]6)C=C5)C=C4)cc2)c1
REMARK SMILES IDX 25 1 24 2 22 3 23 4 21 6 3 7 4 8 91 9 5 10 6 11 2 12 1 13
REMARK SMILES IDX 7 14 8 15 20 16 9 17 19 18 10 19 11 20 12 21 13 22 14 23
REMARK SMILES IDX 15 25 16 26 17 27 18 28 26 29 27 30 28 31 29 32 30 34 31 35
REMARK SMILES IDX 32 36 90 37 33 38 89 39 34 40 35 41 36 42 83 43 37 44 88 45
REMARK SMILES IDX 82 46 84 47 38 48 87 49 81 50 80 51 39 53 69 54 50 55 68 56
REMARK SMILES IDX 51 57 54 58 67 59 85 60 52 61 53 62 66 64 86 65 55 66 40 67
REMARK SMILES IDX 41 68 49 69 42 70 48 71 43 72 44 73 45 74 46 75 47 76 70 77
REMARK SMILES IDX 71 78 79 79 72 80 78 81 73 82 74 83 75 84 76 85 77 86 56 87
REMARK SMILES IDX 57 88 65 89 58 90 64 91 59 92 60 93 61 94 62 95 63 96
REMARK H PARENT 24 5 14 24 28 33 84 52 54 63
REMARK Flexibility Score: inf
ROOT
ATOM      1  C   UNL A   1      32.444  27.443  27.012  1.00  0.00     0.118 C 
ENDROOT
BRANCH   1   2
ATOM      2  N   UNL A   1      31.145  26.777  27.002  1.00  0.00    -0.352 N 
ATOM      3  C   UNL A   1      30.360  26.281  25.979  1.00  0.00     0.252 C 
ATOM      4  O   UNL A   1      29.387  25.597  26.286  1.00  0.00    -0.269 OA
ATOM      5  H   UNL A   1      30.753  26.658  27.897  1.00  0.00     0.163 HD
BRANCH   3   6
ATOM      6  C   UNL A   1      30.659  26.575  24.548  1.00  0.00     0.051 A 
ATOM      7  C   UNL A   1      30.290  28.072  22.655  1.00  0.00     0.119 A 
ATOM      8  C   UNL A   1      30.959  27.184  21.827  1.00  0.00     0.047 A 
ATOM      9  C   UNL A   1      30.192  27.793  24.016  1.00  0.00     0.060 A 
ATOM     10  C   UNL A   1      31.533  26.030  22.363  1.00  0.00     0.013 A 
ATOM     11  C   UNL A   1      31.429  25.708  23.737  1.00  0.00    -0.005 A 
BRANCH   7  12
ATOM     12  O   UNL A   1      29.787  29.186  22.044  1.00  0.00    -0.497 OA
ATOM     13  C   UNL A   1      29.289  30.196  22.919  1.00  0.00     0.278 C 
ENDBRANCH   7  12
BRANCH  11  14
ATOM     14  C   UNL A   1      32.203  24.536  24.212  1.00  0.00    -0.018 A 
ATOM     15  C   UNL A   1      31.508  23.411  24.706  1.00  0.00     0.010 A 
ATOM     16  C   UNL A   1      33.606  24.491  24.228  1.00  0.00     0.010 A 
ATOM     17  C   UNL A   1      32.177  22.309  25.239  1.00  0.00     0.022 A 
ATOM     18  C   UNL A   1      34.288  23.366  24.716  1.00  0.00     0.022 A 
ATOM     19  C   UNL A   1      33.570  22.295  25.251  1.00  0.00     0.082 A 
BRANCH  19  20
ATOM     20  S   UNL A   1      34.382  20.918  26.012  1.00  0.00     0.241 S 
ATOM     21  O   UNL A   1      35.528  20.570  25.203  1.00  0.00    -0.207 OA
ATOM     22  O   UNL A   1      34.532  21.250  27.413  1.00  0.00    -0.207 OA
BRANCH  20  23
ATOM     23  N   UNL A   1      33.289  19.652  25.975  1.00  0.00    -0.206 NA
ATOM     24  H   UNL A   1      32.372  20.098  25.974  1.00  0.00     0.141 HD
BRANCH  23  25
ATOM     25  C   UNL A   1      33.192  18.580  24.961  1.00  0.00     0.025 C 
ATOM     26  C   UNL A   1      32.464  19.039  23.695  1.00  0.00     0.028 C 
ATOM     27  C   UNL A   1      34.643  18.225  24.581  1.00  0.00     0.028 C 
ATOM     28  C   UNL A   1      32.522  17.330  25.532  1.00  0.00     0.028 C 
ENDBRANCH  23  25
ENDBRANCH  20  23
ENDBRANCH  19  20
ENDBRANCH  11  14
ENDBRANCH   3   6
ENDBRANCH   1   2
BRANCH   1  29
ATOM     29  C   UNL A   1      32.412  28.932  27.334  1.00  0.00     0.042 C 
BRANCH  29  30
ATOM     30  C   UNL A   1      33.601  29.748  26.850  1.00  0.00     0.118 C 
BRANCH  30  31
ATOM     31  N   UNL A   1      33.588  31.132  27.305  1.00  0.00    -0.352 N 
ATOM     32  C   UNL A   1      34.417  31.836  28.145  1.00  0.00     0.251 C 
ATOM     33  H   UNL A   1      32.843  31.663  26.941  1.00  0.00     0.163 HD
ATOM     34  O   UNL A   1      34.091  32.977  28.466  1.00  0.00    -0.269 OA
BRANCH  32  35
ATOM     35  C   UNL A   1      35.661  31.253  28.702  1.00  0.00     0.039 A 
ATOM     36  C   UNL A   1      36.881  31.877  28.408  1.00  0.00     0.014 A 
ATOM     37  C   UNL A   1      35.664  30.082  29.459  1.00  0.00     0.014 A 
ATOM     38  C   UNL A   1      38.076  31.381  28.943  1.00  0.00     0.010 A 
ATOM     39  C   UNL A   1      36.840  29.640  30.066  1.00  0.00     0.010 A 
ATOM     40  C   UNL A   1      38.061  30.286  29.818  1.00  0.00    -0.014 A 
BRANCH  40  41
ATOM     41  C   UNL A   1      39.295  29.802  30.495  1.00  0.00     0.031 A 
ATOM     42  C   UNL A   1      39.833  30.524  31.703  1.00  0.00     0.074 A 
ATOM     43  C   UNL A   1      39.988  28.773  29.968  1.00  0.00     0.049 A 
ATOM     44  N   UNL A   1      40.964  30.343  32.337  1.00  0.00    -0.248 NA
ATOM     45  C   UNL A   1      39.006  31.612  32.251  1.00  0.00     0.031 C 
ATOM     46  C   UNL A   1      39.602  28.008  28.779  1.00  0.00     0.029 A 
ATOM     47  N   UNL A   1      41.175  28.201  30.357  1.00  0.00    -0.354 N 
ATOM     48  C   UNL A   1      41.002  31.314  33.332  1.00  0.00     0.074 A 
ATOM     49  C   UNL A   1      39.796  32.102  33.196  1.00  0.00     0.031 C 
ATOM     50  C   UNL A   1      40.523  27.059  28.547  1.00  0.00     0.029 A 
ATOM     51  C   UNL A   1      41.588  27.174  29.540  1.00  0.00     0.049 A 
ATOM     52  H   UNL A   1      41.684  28.498  31.145  1.00  0.00     0.167 HD
ATOM     53  C   UNL A   1      41.946  31.524  34.280  1.00  0.00     0.031 A 
ATOM     54  C   UNL A   1      42.701  26.417  29.572  1.00  0.00     0.031 A 
ATOM     55  C   UNL A   1      43.129  30.721  34.439  1.00  0.00     0.049 A 
ATOM     56  C   UNL A   1      43.726  26.655  30.644  1.00  0.00     0.074 A 
ATOM     57  C   UNL A   1      44.109  30.816  35.412  1.00  0.00     0.029 A 
ATOM     58  N   UNL A   1      43.487  29.669  33.611  1.00  0.00    -0.354 N 
ATOM     59  N   UNL A   1      43.720  27.552  31.601  1.00  0.00    -0.248 NA
ATOM     60  C   UNL A   1      44.905  25.777  30.645  1.00  0.00     0.031 C 
ATOM     61  C   UNL A   1      45.080  29.843  35.150  1.00  0.00     0.029 A 
ATOM     62  C   UNL A   1      44.682  29.116  34.040  1.00  0.00     0.049 A 
ATOM     63  H   UNL A   1      42.969  29.361  32.832  1.00  0.00     0.167 HD
ATOM     64  C   UNL A   1      44.883  27.333  32.331  1.00  0.00     0.074 A 
ATOM     65  C   UNL A   1      45.562  26.212  31.712  1.00  0.00     0.031 C 
ATOM     66  C   UNL A   1      45.345  28.000  33.415  1.00  0.00     0.031 A 
BRANCH  53  67
ATOM     67  C   UNL A   1      41.737  32.682  35.221  1.00  0.00    -0.014 A 
ATOM     68  C   UNL A   1      42.424  33.896  35.042  1.00  0.00     0.010 A 
ATOM     69  C   UNL A   1      40.821  32.563  36.282  1.00  0.00     0.010 A 
ATOM     70  C   UNL A   1      42.237  34.953  35.936  1.00  0.00     0.020 A 
ATOM     71  C   UNL A   1      40.612  33.627  37.164  1.00  0.00     0.020 A 
ATOM     72  C   UNL A   1      41.338  34.809  36.997  1.00  0.00     0.054 A 
BRANCH  72  73
ATOM     73  S   UNL A   1      41.108  36.198  38.141  1.00  0.00     0.124 S 
ATOM     74  O   UNL A   1      41.142  35.525  39.437  1.00  0.00    -0.237 OA
ATOM     75  O   UNL A   1      42.256  37.052  37.848  1.00  0.00    -0.237 OA
ATOM     76  O   UNL A   1      39.811  36.750  37.759  1.00  0.00    -0.744 OA
ENDBRANCH  72  73
ENDBRANCH  53  67
BRANCH  54  77
ATOM     77  C   UNL A   1      42.899  25.351  28.553  1.00  0.00    -0.014 A 
ATOM     78  C   UNL A   1      42.539  24.023  28.840  1.00  0.00     0.010 A 
ATOM     79  C   UNL A   1      43.420  25.663  27.284  1.00  0.00     0.010 A 
ATOM     80  C   UNL A   1      42.706  23.021  27.879  1.00  0.00     0.020 A 
ATOM     81  C   UNL A   1      43.567  24.667  26.313  1.00  0.00     0.020 A 
ATOM     82  C   UNL A   1      43.217  23.351  26.620  1.00  0.00     0.054 A 
BRANCH  82  83
ATOM     83  S   UNL A   1      43.361  22.051  25.363  1.00  0.00     0.124 S 
ATOM     84  O   UNL A   1      42.171  21.246  25.620  1.00  0.00    -0.237 OA
ATOM     85  O   UNL A   1      43.353  22.813  24.116  1.00  0.00    -0.237 OA
ATOM     86  O   UNL A   1      44.635  21.410  25.683  1.00  0.00    -0.744 OA
ENDBRANCH  82  83
ENDBRANCH  54  77
BRANCH  66  87
ATOM     87  C   UNL A   1      46.635  27.523  34.024  1.00  0.00    -0.014 A 
ATOM     88  C   UNL A   1      47.868  28.064  33.625  1.00  0.00     0.010 A 
ATOM     89  C   UNL A   1      46.603  26.564  35.053  1.00  0.00     0.010 A 
ATOM     90  C   UNL A   1      49.054  27.639  34.230  1.00  0.00     0.020 A 
ATOM     91  C   UNL A   1      47.785  26.151  35.674  1.00  0.00     0.020 A 
ATOM     92  C   UNL A   1      49.004  26.685  35.251  1.00  0.00     0.054 A 
BRANCH  92  93
ATOM     93  S   UNL A   1      50.549  26.188  36.061  1.00  0.00     0.124 S 
ATOM     94  O   UNL A   1      50.244  26.428  37.468  1.00  0.00    -0.237 OA
ATOM     95  O   UNL A   1      50.680  24.786  35.675  1.00  0.00    -0.237 OA
ATOM     96  O   UNL A   1      51.548  27.083  35.478  1.00  0.00    -0.744 OA
ENDBRANCH  92  93
ENDBRANCH  66  87
ENDBRANCH  40  41
ENDBRANCH  32  35
ENDBRANCH  30  31
ENDBRANCH  29  30
ENDBRANCH   1  29
TORSDOF 18
ENDMDL
MODEL 2
REMARK VINA RESULT:     -10.2      5.914     11.499
REMARK SMILES COc1ccc(-c2ccc(S(=O)(=O)NC(C)(C)C)cc2)c(C(=O)NCCCNC(=O)c2ccc(-c3c4nc(c(-c5ccc(S(=O)(=O)[O-])cc5)c5ccc([nH]5)c(-c5ccc(S(=O)(=O)[O-])cc5)c5nc(c(-c6ccc(S(=O)(=O)[O-])cc6)c6ccc3[nH]6)C=C5)C=C4)cc2)c1
REMARK SMILES IDX 25 1 24 2 22 3 23 4 21 6 3 7 4 8 91 9 5 10 6 11 2 12 1 13
REMARK SMILES IDX 7 14 8 15 20 16 9 17 19 18 10 19 11 20 12 21 13 22 14 23
REMARK SMILES IDX 15 25 16 26 17 27 18 28 26 29 27 30 28 31 29 32 30 34 31 35
REMARK SMILES IDX 32 36 90 37 33 38 89 39 34 40 35 41 36 42 83 43 37 44 88 45
REMARK SMILES IDX 82 46 84 47 38 48 87 49 81 50 80 51 39 53 69 54 50 55 68 56
REMARK SMILES IDX 51 57 54 58 67 59 85 60 52 61 53 62 66 64 86 65 55 66 40 67
REMARK SMILES IDX 41 68 49 69 42 70 48 71 43 72 44 73 45 74 46 75 47 76 70 77
REMARK SMILES IDX 71 78 79 79 72 80 78 81 73 82 74 83 75 84 76 85 77 86 56 87
REMARK SMILES IDX 57 88 65 89 58 90 64 91 59 92 60 93 61 94 62 95 63 96
REMARK H PARENT 24 5 14 24 28 33 84 52 54 63
REMARK Flexibility Score: inf
ROOT
ATOM      1  C   UNL A   1      45.484  24.321  25.607  1.00  0.00     0.118 C 
ENDROOT
BRANCH   1   2
ATOM      2  N   UNL A   1      44.354  25.109  25.125  1.00  0.00    -0.352 N 
ATOM      3  C   UNL A   1      42.998  25.051  25.388  1.00  0.00     0.252 C 
ATOM      4  O   UNL A   1      42.297  25.971  24.976  1.00  0.00    -0.269 OA
ATOM      5  H   UNL A   1      44.605  25.819  24.492  1.00  0.00     0.163 HD
BRANCH   3   6
ATOM      6  C   UNL A   1      42.389  23.906  26.124  1.00  0.00     0.051 A 
ATOM      7  C   UNL A   1      42.039  21.492  26.208  1.00  0.00     0.119 A 
ATOM      8  C   UNL A   1      41.165  21.660  27.271  1.00  0.00     0.047 A 
ATOM      9  C   UNL A   1      42.687  22.604  25.678  1.00  0.00     0.060 A 
ATOM     10  C   UNL A   1      40.953  22.932  27.805  1.00  0.00     0.013 A 
ATOM     11  C   UNL A   1      41.579  24.083  27.271  1.00  0.00    -0.005 A 
BRANCH   7  12
ATOM     12  O   UNL A   1      42.203  20.206  25.774  1.00  0.00    -0.497 OA
ATOM     13  C   UNL A   1      43.526  19.855  25.379  1.00  0.00     0.278 C 
ENDBRANCH   7  12
BRANCH  11  14
ATOM     14  C   UNL A   1      41.391  25.353  28.013  1.00  0.00    -0.018 A 
ATOM     15  C   UNL A   1      40.110  25.947  28.040  1.00  0.00     0.010 A 
ATOM     16  C   UNL A   1      42.432  26.024  28.673  1.00  0.00     0.010 A 
ATOM     17  C   UNL A   1      39.884  27.179  28.654  1.00  0.00     0.022 A 
ATOM     18  C   UNL A   1      42.203  27.240  29.336  1.00  0.00     0.022 A 
ATOM     19  C   UNL A   1      40.938  27.827  29.293  1.00  0.00     0.082 A 
BRANCH  19  20
ATOM     20  S   UNL A   1      40.632  29.429  29.987  1.00  0.00     0.241 S 
ATOM     21  O   UNL A   1      41.811  30.239  29.783  1.00  0.00    -0.207 OA
ATOM     22  O   UNL A   1      39.341  29.853  29.489  1.00  0.00    -0.207 OA
BRANCH  20  23
ATOM     23  N   UNL A   1      40.414  29.192  31.629  1.00  0.00    -0.206 NA
ATOM     24  H   UNL A   1      41.354  29.217  32.024  1.00  0.00     0.141 HD
BRANCH  23  25
ATOM     25  C   UNL A   1      39.592  30.005  32.550  1.00  0.00     0.025 C 
ATOM     26  C   UNL A   1      39.926  29.738  34.019  1.00  0.00     0.028 C 
ATOM     27  C   UNL A   1      39.935  31.475  32.237  1.00  0.00     0.028 C 
ATOM     28  C   UNL A   1      38.099  29.794  32.300  1.00  0.00     0.028 C 
ENDBRANCH  23  25
ENDBRANCH  20  23
ENDBRANCH  19  20
ENDBRANCH  11  14
ENDBRANCH   3   6
ENDBRANCH   1   2
BRANCH   1  29
ATOM     29  C   UNL A   1      46.651  24.192  24.638  1.00  0.00     0.042 C 
BRANCH  29  30
ATOM     30  C   UNL A   1      47.772  25.207  24.798  1.00  0.00     0.118 C 
BRANCH  30  31
ATOM     31  N   UNL A   1      47.698  26.318  23.860  1.00  0.00    -0.352 N 
ATOM     32  C   UNL A   1      47.215  27.600  23.980  1.00  0.00     0.251 C 
ATOM     33  H   UNL A   1      48.063  26.112  22.969  1.00  0.00     0.163 HD
ATOM     34  O   UNL A   1      47.155  28.298  22.970  1.00  0.00    -0.269 OA
BRANCH  32  35
ATOM     35  C   UNL A   1      46.732  28.146  25.271  1.00  0.00     0.039 A 
ATOM     36  C   UNL A   1      47.664  28.734  26.137  1.00  0.00     0.014 A 
ATOM     37  C   UNL A   1      45.400  28.047  25.673  1.00  0.00     0.014 A 
ATOM     38  C   UNL A   1      47.245  29.295  27.350  1.00  0.00     0.010 A 
ATOM     39  C   UNL A   1      44.968  28.684  26.837  1.00  0.00     0.010 A 
ATOM     40  C   UNL A   1      45.884  29.319  27.688  1.00  0.00    -0.014 A 
BRANCH  40  41
ATOM     41  C   UNL A   1      45.391  30.006  28.913  1.00  0.00     0.031 A 
ATOM     42  C   UNL A   1      45.293  29.259  30.218  1.00  0.00     0.074 A 
ATOM     43  C   UNL A   1      44.940  31.274  28.834  1.00  0.00     0.049 A 
ATOM     44  N   UNL A   1      44.756  29.641  31.349  1.00  0.00    -0.248 NA
ATOM     45  C   UNL A   1      45.841  27.893  30.245  1.00  0.00     0.031 C 
ATOM     46  C   UNL A   1      44.941  32.103  27.625  1.00  0.00     0.029 A 
ATOM     47  N   UNL A   1      44.376  32.085  29.789  1.00  0.00    -0.354 N 
ATOM     48  C   UNL A   1      44.868  28.553  32.208  1.00  0.00     0.074 A 
ATOM     49  C   UNL A   1      45.494  27.486  31.458  1.00  0.00     0.031 C 
ATOM     50  C   UNL A   1      44.422  33.307  27.916  1.00  0.00     0.029 A 
ATOM     51  C   UNL A   1      44.009  33.323  29.316  1.00  0.00     0.049 A 
ATOM     52  H   UNL A   1      44.246  31.807  30.723  1.00  0.00     0.167 HD
ATOM     53  C   UNL A   1      44.497  28.454  33.508  1.00  0.00     0.031 A 
ATOM     54  C   UNL A   1      43.396  34.353  29.930  1.00  0.00     0.031 A 
ATOM     55  C   UNL A   1      43.907  29.524  34.267  1.00  0.00     0.049 A 
ATOM     56  C   UNL A   1      43.011  34.228  31.376  1.00  0.00     0.074 A 
ATOM     57  C   UNL A   1      43.558  29.538  35.606  1.00  0.00     0.029 A 
ATOM     58  N   UNL A   1      43.586  30.772  33.756  1.00  0.00    -0.354 N 
ATOM     59  N   UNL A   1      43.165  33.204  32.181  1.00  0.00    -0.248 NA
ATOM     60  C   UNL A   1      42.373  35.397  31.998  1.00  0.00     0.031 C 
ATOM     61  C   UNL A   1      42.993  30.785  35.897  1.00  0.00     0.029 A 
ATOM     62  C   UNL A   1      43.029  31.560  34.749  1.00  0.00     0.049 A 
ATOM     63  H   UNL A   1      43.732  31.056  32.824  1.00  0.00     0.167 HD
ATOM     64  C   UNL A   1      42.663  33.614  33.412  1.00  0.00     0.074 A 
ATOM     65  C   UNL A   1      42.211  34.980  33.248  1.00  0.00     0.031 C 
ATOM     66  C   UNL A   1      42.585  32.918  34.571  1.00  0.00     0.031 A 
BRANCH  53  67
ATOM     67  C   UNL A   1      44.716  27.129  34.191  1.00  0.00    -0.014 A 
ATOM     68  C   UNL A   1      45.955  26.809  34.774  1.00  0.00     0.010 A 
ATOM     69  C   UNL A   1      43.660  26.204  34.275  1.00  0.00     0.010 A 
ATOM     70  C   UNL A   1      46.149  25.568  35.386  1.00  0.00     0.020 A 
ATOM     71  C   UNL A   1      43.842  24.971  34.908  1.00  0.00     0.020 A 
ATOM     72  C   UNL A   1      45.094  24.653  35.441  1.00  0.00     0.054 A 
BRANCH  72  73
ATOM     73  S   UNL A   1      45.369  23.050  36.244  1.00  0.00     0.124 S 
ATOM     74  O   UNL A   1      44.944  23.325  37.613  1.00  0.00    -0.237 OA
ATOM     75  O   UNL A   1      44.500  22.155  35.485  1.00  0.00    -0.237 OA
ATOM     76  O   UNL A   1      46.801  22.817  36.070  1.00  0.00    -0.744 OA
ENDBRANCH  72  73
ENDBRANCH  53  67
BRANCH  54  77
ATOM     77  C   UNL A   1      43.117  35.604  29.173  1.00  0.00    -0.014 A 
ATOM     78  C   UNL A   1      41.923  35.737  28.442  1.00  0.00     0.010 A 
ATOM     79  C   UNL A   1      44.027  36.676  29.203  1.00  0.00     0.010 A 
ATOM     80  C   UNL A   1      41.648  36.918  27.746  1.00  0.00     0.020 A 
ATOM     81  C   UNL A   1      43.744  37.866  28.525  1.00  0.00     0.020 A 
ATOM     82  C   UNL A   1      42.560  37.976  27.794  1.00  0.00     0.054 A 
BRANCH  82  83
ATOM     83  S   UNL A   1      42.154  39.524  26.941  1.00  0.00     0.124 S 
ATOM     84  O   UNL A   1      41.878  40.423  28.057  1.00  0.00    -0.237 OA
ATOM     85  O   UNL A   1      43.376  39.803  26.190  1.00  0.00    -0.237 OA
ATOM     86  O   UNL A   1      40.998  39.167  26.120  1.00  0.00    -0.744 OA
ENDBRANCH  82  83
ENDBRANCH  54  77
BRANCH  66  87
ATOM     87  C   UNL A   1      42.012  33.629  35.767  1.00  0.00    -0.014 A 
ATOM     88  C   UNL A   1      40.639  33.568  36.057  1.00  0.00     0.010 A 
ATOM     89  C   UNL A   1      42.872  34.314  36.644  1.00  0.00     0.010 A 
ATOM     90  C   UNL A   1      40.129  34.200  37.194  1.00  0.00     0.020 A 
ATOM     91  C   UNL A   1      42.370  34.929  37.794  1.00  0.00     0.020 A 
ATOM     92  C   UNL A   1      40.998  34.877  38.056  1.00  0.00     0.054 A 
BRANCH  92  93
ATOM     93  S   UNL A   1      40.325  35.642  39.556  1.00  0.00     0.124 S 
ATOM     94  O   UNL A   1      40.467  34.568  40.534  1.00  0.00    -0.237 OA
ATOM     95  O   UNL A   1      41.202  36.793  39.754  1.00  0.00    -0.237 OA
ATOM     96  O   UNL A   1      38.949  35.972  39.187  1.00  0.00    -0.744 OA
ENDBRANCH  92  93
ENDBRANCH  66  87
ENDBRANCH  40  41
ENDBRANCH  32  35
ENDBRANCH  30  31
ENDBRANCH  29  30
ENDBRANCH   1  29
TORSDOF 18
ENDMDL
MODEL 3
REMARK VINA RESULT:     -10.1      6.305     12.469
REMARK SMILES COc1ccc(-c2ccc(S(=O)(=O)NC(C)(C)C)cc2)c(C(=O)NCCCNC(=O)c2ccc(-c3c4nc(c(-c5ccc(S(=O)(=O)[O-])cc5)c5ccc([nH]5)c(-c5ccc(S(=O)(=O)[O-])cc5)c5nc(c(-c6ccc(S(=O)(=O)[O-])cc6)c6ccc3[nH]6)C=C5)C=C4)cc2)c1
REMARK SMILES IDX 25 1 24 2 22 3 23 4 21 6 3 7 4 8 91 9 5 10 6 11 2 12 1 13
REMARK SMILES IDX 7 14 8 15 20 16 9 17 19 18 10 19 11 20 12 21 13 22 14 23
REMARK SMILES IDX 15 25 16 26 17 27 18 28 26 29 27 30 28 31 29 32 30 34 31 35
REMARK SMILES IDX 32 36 90 37 33 38 89 39 34 40 35 41 36 42 83 43 37 44 88 45
REMARK SMILES IDX 82 46 84 47 38 48 87 49 81 50 80 51 39 53 69 54 50 55 68 56
REMARK SMILES IDX 51 57 54 58 67 59 85 60 52 61 53 62 66 64 86 65 55 66 40 67
REMARK SMILES IDX 41 68 49 69 42 70 48 71 43 72 44 73 45 74 46 75 47 76 70 77
REMARK SMILES IDX 71 78 79 79 72 80 78 81 73 82 74 83 75 84 76 85 77 86 56 87
REMARK SMILES IDX 57 88 65 89 58 90 64 91 59 92 60 93 61 94 62 95 63 96
REMARK H PARENT 24 5 14 24 28 33 84 52 54 63
REMARK Flexibility Score: inf
ROOT
ATOM      1  C   UNL A   1      47.449  24.171  36.224  1.00  0.00     0.118 C 
ENDROOT
BRANCH   1   2
ATOM      2  N   UNL A   1      46.898  23.146  35.343  1.00  0.00    -0.352 N 
ATOM      3  C   UNL A   1      45.735  23.085  34.598  1.00  0.00     0.252 C 
ATOM      4  O   UNL A   1      45.620  22.162  33.795  1.00  0.00    -0.269 OA
ATOM      5  H   UNL A   1      47.463  22.344  35.265  1.00  0.00     0.163 HD
BRANCH   3   6
ATOM      6  C   UNL A   1      44.641  24.083  34.768  1.00  0.00     0.051 A 
ATOM      7  C   UNL A   1      42.830  24.901  36.186  1.00  0.00     0.119 A 
ATOM      8  C   UNL A   1      42.430  25.758  35.172  1.00  0.00     0.047 A 
ATOM      9  C   UNL A   1      43.962  24.111  36.001  1.00  0.00     0.060 A 
ATOM     10  C   UNL A   1      43.166  25.830  33.989  1.00  0.00     0.013 A 
ATOM     11  C   UNL A   1      44.306  25.023  33.764  1.00  0.00    -0.005 A 
BRANCH   7  12
ATOM     12  O   UNL A   1      42.063  24.922  37.317  1.00  0.00    -0.497 OA
ATOM     13  C   UNL A   1      41.009  25.881  37.326  1.00  0.00     0.278 C 
ENDBRANCH   7  12
BRANCH  11  14
ATOM     14  C   UNL A   1      45.088  25.293  32.534  1.00  0.00    -0.018 A 
ATOM     15  C   UNL A   1      44.553  24.908  31.284  1.00  0.00     0.010 A 
ATOM     16  C   UNL A   1      46.357  25.891  32.540  1.00  0.00     0.010 A 
ATOM     17  C   UNL A   1      45.271  25.065  30.098  1.00  0.00     0.022 A 
ATOM     18  C   UNL A   1      47.066  26.097  31.347  1.00  0.00     0.022 A 
ATOM     19  C   UNL A   1      46.533  25.652  30.136  1.00  0.00     0.082 A 
BRANCH  19  20
ATOM     20  S   UNL A   1      47.448  25.756  28.623  1.00  0.00     0.241 S 
ATOM     21  O   UNL A   1      48.660  24.984  28.777  1.00  0.00    -0.207 OA
ATOM     22  O   UNL A   1      46.513  25.470  27.555  1.00  0.00    -0.207 OA
BRANCH  20  23
ATOM     23  N   UNL A   1      47.853  27.368  28.431  1.00  0.00    -0.206 NA
ATOM     24  H   UNL A   1      48.668  27.362  27.818  1.00  0.00     0.141 HD
BRANCH  23  25
ATOM     25  C   UNL A   1      46.993  28.452  27.912  1.00  0.00     0.025 C 
ATOM     26  C   UNL A   1      45.733  28.653  28.756  1.00  0.00     0.028 C 
ATOM     27  C   UNL A   1      47.839  29.739  27.995  1.00  0.00     0.028 C 
ATOM     28  C   UNL A   1      46.618  28.215  26.449  1.00  0.00     0.028 C 
ENDBRANCH  23  25
ENDBRANCH  20  23
ENDBRANCH  19  20
ENDBRANCH  11  14
ENDBRANCH   3   6
ENDBRANCH   1   2
BRANCH   1  29
ATOM     29  C   UNL A   1      47.894  25.454  35.535  1.00  0.00     0.042 C 
BRANCH  29  30
ATOM     30  C   UNL A   1      49.122  26.137  36.116  1.00  0.00     0.118 C 
BRANCH  30  31
ATOM     31  N   UNL A   1      48.921  26.666  37.458  1.00  0.00    -0.352 N 
ATOM     32  C   UNL A   1      48.034  27.585  37.966  1.00  0.00     0.251 C 
ATOM     33  H   UNL A   1      49.538  26.293  38.129  1.00  0.00     0.163 HD
ATOM     34  O   UNL A   1      48.176  27.950  39.132  1.00  0.00    -0.269 OA
BRANCH  32  35
ATOM     35  C   UNL A   1      46.948  28.173  37.147  1.00  0.00     0.039 A 
ATOM     36  C   UNL A   1      45.679  27.579  37.195  1.00  0.00     0.014 A 
ATOM     37  C   UNL A   1      47.157  29.259  36.297  1.00  0.00     0.014 A 
ATOM     38  C   UNL A   1      44.616  28.124  36.466  1.00  0.00     0.010 A 
ATOM     39  C   UNL A   1      46.079  29.856  35.642  1.00  0.00     0.010 A 
ATOM     40  C   UNL A   1      44.795  29.299  35.720  1.00  0.00    -0.014 A 
BRANCH  40  41
ATOM     41  C   UNL A   1      43.662  29.969  35.026  1.00  0.00     0.031 A 
ATOM     42  C   UNL A   1      42.748  30.898  35.782  1.00  0.00     0.074 A 
ATOM     43  C   UNL A   1      43.395  29.671  33.738  1.00  0.00     0.049 A 
ATOM     44  N   UNL A   1      41.631  31.458  35.390  1.00  0.00    -0.248 NA
ATOM     45  C   UNL A   1      43.121  31.212  37.171  1.00  0.00     0.031 C 
ATOM     46  C   UNL A   1      44.175  28.760  32.897  1.00  0.00     0.029 A 
ATOM     47  N   UNL A   1      42.379  30.092  32.914  1.00  0.00    -0.354 N 
ATOM     48  C   UNL A   1      41.151  32.158  36.491  1.00  0.00     0.074 A 
ATOM     49  C   UNL A   1      42.079  31.926  37.576  1.00  0.00     0.031 C 
ATOM     50  C   UNL A   1      43.621  28.704  31.675  1.00  0.00     0.029 A 
ATOM     51  C   UNL A   1      42.423  29.538  31.656  1.00  0.00     0.049 A 
ATOM     52  H   UNL A   1      41.685  30.729  33.197  1.00  0.00     0.167 HD
ATOM     53  C   UNL A   1      40.045  32.935  36.589  1.00  0.00     0.031 A 
ATOM     54  C   UNL A   1      41.589  29.670  30.607  1.00  0.00     0.031 A 
ATOM     55  C   UNL A   1      39.138  33.196  35.502  1.00  0.00     0.049 A 
ATOM     56  C   UNL A   1      40.379  30.552  30.732  1.00  0.00     0.074 A 
ATOM     57  C   UNL A   1      38.028  34.022  35.488  1.00  0.00     0.029 A 
ATOM     58  N   UNL A   1      39.242  32.642  34.236  1.00  0.00    -0.354 N 
ATOM     59  N   UNL A   1      39.967  31.239  31.770  1.00  0.00    -0.248 NA
ATOM     60  C   UNL A   1      39.524  30.679  29.543  1.00  0.00     0.031 C 
ATOM     61  C   UNL A   1      37.440  33.940  34.220  1.00  0.00     0.029 A 
ATOM     62  C   UNL A   1      38.208  33.096  33.435  1.00  0.00     0.049 A 
ATOM     63  H   UNL A   1      39.947  32.017  33.948  1.00  0.00     0.167 HD
ATOM     64  C   UNL A   1      38.816  31.898  31.353  1.00  0.00     0.074 A 
ATOM     65  C   UNL A   1      38.604  31.537  29.966  1.00  0.00     0.031 C 
ATOM     66  C   UNL A   1      38.010  32.728  32.057  1.00  0.00     0.031 A 
BRANCH  53  67
ATOM     67  C   UNL A   1      39.751  33.557  37.929  1.00  0.00    -0.014 A 
ATOM     68  C   UNL A   1      38.906  32.920  38.855  1.00  0.00     0.010 A 
ATOM     69  C   UNL A   1      40.349  34.782  38.277  1.00  0.00     0.010 A 
ATOM     70  C   UNL A   1      38.626  33.519  40.085  1.00  0.00     0.020 A 
ATOM     71  C   UNL A   1      40.091  35.373  39.517  1.00  0.00     0.020 A 
ATOM     72  C   UNL A   1      39.213  34.747  40.405  1.00  0.00     0.054 A 
BRANCH  72  73
ATOM     73  S   UNL A   1      38.837  35.503  42.010  1.00  0.00     0.124 S 
ATOM     74  O   UNL A   1      37.402  35.256  42.128  1.00  0.00    -0.237 OA
ATOM     75  O   UNL A   1      39.681  34.746  42.930  1.00  0.00    -0.237 OA
ATOM     76  O   UNL A   1      39.216  36.902  41.831  1.00  0.00    -0.744 OA
ENDBRANCH  72  73
ENDBRANCH  53  67
BRANCH  54  77
ATOM     77  C   UNL A   1      41.879  28.950  29.338  1.00  0.00    -0.014 A 
ATOM     78  C   UNL A   1      41.717  27.556  29.261  1.00  0.00     0.010 A 
ATOM     79  C   UNL A   1      42.290  29.657  28.193  1.00  0.00     0.010 A 
ATOM     80  C   UNL A   1      41.970  26.879  28.065  1.00  0.00     0.020 A 
ATOM     81  C   UNL A   1      42.522  28.985  26.989  1.00  0.00     0.020 A 
ATOM     82  C   UNL A   1      42.369  27.598  26.936  1.00  0.00     0.054 A 
BRANCH  82  83
ATOM     83  S   UNL A   1      42.626  26.711  25.374  1.00  0.00     0.124 S 
ATOM     84  O   UNL A   1      43.795  25.892  25.679  1.00  0.00    -0.237 OA
ATOM     85  O   UNL A   1      41.369  25.984  25.211  1.00  0.00    -0.237 OA
ATOM     86  O   UNL A   1      42.844  27.784  24.406  1.00  0.00    -0.744 OA
ENDBRANCH  82  83
ENDBRANCH  54  77
BRANCH  66  87
ATOM     87  C   UNL A   1      36.834  33.328  31.335  1.00  0.00    -0.014 A 
ATOM     88  C   UNL A   1      37.013  34.103  30.177  1.00  0.00     0.010 A 
ATOM     89  C   UNL A   1      35.530  33.058  31.789  1.00  0.00     0.010 A 
ATOM     90  C   UNL A   1      35.908  34.618  29.495  1.00  0.00     0.020 A 
ATOM     91  C   UNL A   1      34.422  33.555  31.098  1.00  0.00     0.020 A 
ATOM     92  C   UNL A   1      34.619  34.341  29.961  1.00  0.00     0.054 A 
BRANCH  92  93
ATOM     93  S   UNL A   1      33.197  34.973  29.029  1.00  0.00     0.124 S 
ATOM     94  O   UNL A   1      32.220  35.207  30.088  1.00  0.00    -0.237 OA
ATOM     95  O   UNL A   1      33.735  36.172  28.392  1.00  0.00    -0.237 OA
ATOM     96  O   UNL A   1      32.872  33.881  28.112  1.00  0.00    -0.744 OA
ENDBRANCH  92  93
ENDBRANCH  66  87
ENDBRANCH  40  41
ENDBRANCH  32  35
ENDBRANCH  30  31
ENDBRANCH  29  30
ENDBRANCH   1  29
TORSDOF 18
ENDMDL
