MODEL 1
REMARK VINA RESULT:     -11.1      0.000      0.000
REMARK SMILES CSc1nc(O)nc(C)c1C(=O)N1C[C@@H](O)C[C@@H]1C(=O)NCCCNC(=O)c1ccc(-c2c3nc(c(-c4ccc(S(=O)(=O)[O-])cc4)c4ccc([nH]4)c(-c4ccc(S(=O)(=O)[O-])cc4)c4nc(c(-c5ccc(S(=O)(=O)[O-])cc5)c5ccc2[nH]5)C=C4)C=C3)cc1
REMARK SMILES IDX 23 1 22 2 21 3 19 4 20 5 18 7 13 8 14 9 15 10 17 11 11 12
REMARK SMILES IDX 12 13 10 14 3 15 4 16 5 17 8 18 7 19 9 20 2 21 1 22 6 23
REMARK SMILES IDX 16 25 24 27 25 28 26 29 27 31 28 32 29 33 87 34 30 35 86 36
REMARK SMILES IDX 31 37 32 38 33 39 80 40 34 41 85 42 79 43 81 44 35 45 84 46
REMARK SMILES IDX 78 47 77 48 36 50 66 51 47 52 65 53 48 54 51 55 64 56 82 57
REMARK SMILES IDX 49 58 50 59 63 61 83 62 52 63 37 64 38 65 46 66 39 67 45 68
REMARK SMILES IDX 40 69 41 70 42 71 43 72 44 73 67 74 68 75 76 76 69 77 75 78
REMARK SMILES IDX 70 79 71 80 72 81 73 82 74 83 53 84 54 85 62 86 55 87 61 88
REMARK SMILES IDX 56 89 57 90 58 91 59 92 60 93
REMARK H PARENT 21 6 6 24 16 26 25 30 81 49 51 60
REMARK Flexibility Score: inf
ROOT
ATOM      1  C   UNL A   1      33.132  27.875  25.409  1.00  0.00     0.042 C 
ENDROOT
BRANCH   1   2
ATOM      2  C   UNL A   1      33.662  26.756  24.516  1.00  0.00     0.117 C 
BRANCH   2   3
ATOM      3  N   UNL A   1      32.631  26.095  23.728  1.00  0.00    -0.354 N 
ATOM      4  C   UNL A   1      31.891  24.980  23.999  1.00  0.00     0.242 C 
ATOM      5  O   UNL A   1      31.000  24.682  23.198  1.00  0.00    -0.273 OA
ATOM      6  H   UNL A   1      32.436  26.522  22.864  1.00  0.00     0.163 HD
BRANCH   4   7
ATOM      7  C   UNL A   1      32.233  24.084  25.207  1.00  0.00     0.177 C 
ATOM      8  N   UNL A   1      32.074  22.670  24.849  1.00  0.00    -0.324 N 
ATOM      9  C   UNL A   1      31.346  21.966  25.887  1.00  0.00     0.152 C 
ATOM     10  C   UNL A   1      30.409  23.033  26.447  1.00  0.00     0.136 C 
ATOM     11  C   UNL A   1      31.242  24.316  26.362  1.00  0.00     0.069 C 
BRANCH   8  12
ATOM     12  C   UNL A   1      32.923  22.094  23.926  1.00  0.00     0.259 C 
ATOM     13  O   UNL A   1      32.506  21.925  22.784  1.00  0.00    -0.269 OA
BRANCH  12  14
ATOM     14  C   UNL A   1      34.292  21.615  24.303  1.00  0.00     0.093 A 
ATOM     15  C   UNL A   1      34.602  20.318  24.738  1.00  0.00     0.116 A 
ATOM     16  N   UNL A   1      35.850  19.925  25.087  1.00  0.00    -0.188 NA
ATOM     17  C   UNL A   1      36.809  20.816  24.918  1.00  0.00     0.315 A 
ATOM     18  C   UNL A   1      35.416  22.439  24.116  1.00  0.00     0.058 A 
ATOM     19  N   UNL A   1      36.677  22.040  24.434  1.00  0.00    -0.200 NA
ATOM     20  C   UNL A   1      35.417  23.769  23.411  1.00  0.00     0.068 C 
BRANCH  15  21
ATOM     21  S   UNL A   1      33.481  18.920  24.698  1.00  0.00    -0.109 SA
ATOM     22  C   UNL A   1      34.649  17.578  24.359  1.00  0.00     0.092 C 
ENDBRANCH  15  21
BRANCH  17  23
ATOM     23  O   UNL A   1      38.083  20.441  25.195  1.00  0.00    -0.479 OA
ATOM     24  H   UNL A   1      38.614  20.968  25.759  1.00  0.00     0.297 HD
ENDBRANCH  17  23
ENDBRANCH  12  14
ENDBRANCH   8  12
BRANCH  10  25
ATOM     25  O   UNL A   1      29.997  22.764  27.778  1.00  0.00    -0.391 OA
ATOM     26  H   UNL A   1      29.861  21.810  27.888  1.00  0.00     0.211 HD
ENDBRANCH  10  25
ENDBRANCH   4   7
ENDBRANCH   2   3
ENDBRANCH   1   2
BRANCH   1  27
ATOM     27  C   UNL A   1      34.045  28.258  26.560  1.00  0.00     0.118 C 
BRANCH  27  28
ATOM     28  N   UNL A   1      33.796  29.608  27.039  1.00  0.00    -0.352 N 
ATOM     29  C   UNL A   1      34.570  30.401  27.848  1.00  0.00     0.251 C 
ATOM     30  H   UNL A   1      32.951  30.012  26.739  1.00  0.00     0.163 HD
ATOM     31  O   UNL A   1      34.095  31.431  28.324  1.00  0.00    -0.269 OA
BRANCH  29  32
ATOM     32  C   UNL A   1      35.962  30.013  28.163  1.00  0.00     0.039 A 
ATOM     33  C   UNL A   1      36.255  29.505  29.431  1.00  0.00     0.014 A 
ATOM     34  C   UNL A   1      36.981  30.180  27.221  1.00  0.00     0.014 A 
ATOM     35  C   UNL A   1      37.561  29.114  29.738  1.00  0.00     0.010 A 
ATOM     36  C   UNL A   1      38.269  29.733  27.505  1.00  0.00     0.010 A 
ATOM     37  C   UNL A   1      38.572  29.208  28.770  1.00  0.00    -0.014 A 
BRANCH  37  38
ATOM     38  C   UNL A   1      39.970  28.818  29.072  1.00  0.00     0.031 A 
ATOM     39  C   UNL A   1      40.878  29.802  29.759  1.00  0.00     0.074 A 
ATOM     40  C   UNL A   1      40.433  27.607  28.706  1.00  0.00     0.049 A 
ATOM     41  N   UNL A   1      42.150  29.687  30.043  1.00  0.00    -0.248 NA
ATOM     42  C   UNL A   1      40.283  31.085  30.174  1.00  0.00     0.031 C 
ATOM     43  C   UNL A   1      39.647  26.561  28.048  1.00  0.00     0.029 A 
ATOM     44  N   UNL A   1      41.680  27.050  28.841  1.00  0.00    -0.354 N 
ATOM     45  C   UNL A   1      42.506  30.878  30.663  1.00  0.00     0.074 A 
ATOM     46  C   UNL A   1      41.331  31.720  30.681  1.00  0.00     0.031 C 
ATOM     47  C   UNL A   1      40.424  25.479  27.866  1.00  0.00     0.029 A 
ATOM     48  C   UNL A   1      41.769  25.766  28.355  1.00  0.00     0.049 A 
ATOM     49  H   UNL A   1      42.440  27.524  29.249  1.00  0.00     0.167 HD
ATOM     50  C   UNL A   1      43.699  31.229  31.191  1.00  0.00     0.031 A 
ATOM     51  C   UNL A   1      42.817  24.920  28.306  1.00  0.00     0.031 A 
ATOM     52  C   UNL A   1      44.864  30.387  31.192  1.00  0.00     0.049 A 
ATOM     53  C   UNL A   1      44.151  25.366  28.842  1.00  0.00     0.074 A 
ATOM     54  C   UNL A   1      46.112  30.655  31.726  1.00  0.00     0.029 A 
ATOM     55  N   UNL A   1      44.924  29.116  30.645  1.00  0.00    -0.354 N 
ATOM     56  N   UNL A   1      44.468  26.498  29.422  1.00  0.00    -0.248 NA
ATOM     57  C   UNL A   1      45.268  24.419  28.714  1.00  0.00     0.031 C 
ATOM     58  C   UNL A   1      46.941  29.562  31.464  1.00  0.00     0.029 A 
ATOM     59  C   UNL A   1      46.194  28.595  30.813  1.00  0.00     0.049 A 
ATOM     60  H   UNL A   1      44.175  28.654  30.203  1.00  0.00     0.167 HD
ATOM     61  C   UNL A   1      45.814  26.388  29.753  1.00  0.00     0.074 A 
ATOM     62  C   UNL A   1      46.250  25.079  29.315  1.00  0.00     0.031 C 
ATOM     63  C   UNL A   1      46.614  27.290  30.371  1.00  0.00     0.031 A 
BRANCH  50  64
ATOM     64  C   UNL A   1      43.821  32.580  31.837  1.00  0.00    -0.014 A 
ATOM     65  C   UNL A   1      44.225  33.695  31.083  1.00  0.00     0.010 A 
ATOM     66  C   UNL A   1      43.405  32.759  33.168  1.00  0.00     0.010 A 
ATOM     67  C   UNL A   1      44.201  34.972  31.648  1.00  0.00     0.020 A 
ATOM     68  C   UNL A   1      43.361  34.037  33.731  1.00  0.00     0.020 A 
ATOM     69  C   UNL A   1      43.752  35.137  32.962  1.00  0.00     0.054 A 
BRANCH  69  70
ATOM     70  S   UNL A   1      43.651  36.818  33.635  1.00  0.00     0.124 S 
ATOM     71  O   UNL A   1      43.656  37.634  32.423  1.00  0.00    -0.237 OA
ATOM     72  O   UNL A   1      42.389  36.786  34.366  1.00  0.00    -0.237 OA
ATOM     73  O   UNL A   1      44.850  36.935  34.462  1.00  0.00    -0.744 OA
ENDBRANCH  69  70
ENDBRANCH  50  64
BRANCH  51  74
ATOM     74  C   UNL A   1      42.646  23.552  27.750  1.00  0.00    -0.014 A 
ATOM     75  C   UNL A   1      43.066  23.268  26.438  1.00  0.00     0.010 A 
ATOM     76  C   UNL A   1      42.069  22.527  28.522  1.00  0.00     0.010 A 
ATOM     77  C   UNL A   1      42.901  21.987  25.904  1.00  0.00     0.020 A 
ATOM     78  C   UNL A   1      41.923  21.239  27.998  1.00  0.00     0.020 A 
ATOM     79  C   UNL A   1      42.337  20.978  26.690  1.00  0.00     0.054 A 
BRANCH  79  80
ATOM     80  S   UNL A   1      42.165  19.319  25.979  1.00  0.00     0.124 S 
ATOM     81  O   UNL A   1      42.679  18.469  27.049  1.00  0.00    -0.237 OA
ATOM     82  O   UNL A   1      40.726  19.236  25.740  1.00  0.00    -0.237 OA
ATOM     83  O   UNL A   1      42.990  19.373  24.774  1.00  0.00    -0.744 OA
ENDBRANCH  79  80
ENDBRANCH  51  74
BRANCH  63  84
ATOM     84  C   UNL A   1      48.040  26.898  30.641  1.00  0.00    -0.014 A 
ATOM     85  C   UNL A   1      49.082  27.344  29.810  1.00  0.00     0.010 A 
ATOM     86  C   UNL A   1      48.348  26.152  31.793  1.00  0.00     0.010 A 
ATOM     87  C   UNL A   1      50.408  27.034  30.119  1.00  0.00     0.020 A 
ATOM     88  C   UNL A   1      49.675  25.861  32.118  1.00  0.00     0.020 A 
ATOM     89  C   UNL A   1      50.697  26.301  31.275  1.00  0.00     0.054 A 
BRANCH  89  90
ATOM     90  S   UNL A   1      52.432  25.949  31.665  1.00  0.00     0.124 S 
ATOM     91  O   UNL A   1      53.076  26.093  30.362  1.00  0.00    -0.237 OA
ATOM     92  O   UNL A   1      52.751  26.987  32.641  1.00  0.00    -0.237 OA
ATOM     93  O   UNL A   1      52.402  24.586  32.193  1.00  0.00    -0.744 OA
ENDBRANCH  89  90
ENDBRANCH  63  84
ENDBRANCH  37  38
ENDBRANCH  29  32
ENDBRANCH  27  28
ENDBRANCH   1  27
TORSDOF 18
ENDMDL
MODEL 2
REMARK VINA RESULT:     -10.7      0.494      8.141
REMARK SMILES CSc1nc(O)nc(C)c1C(=O)N1C[C@@H](O)C[C@@H]1C(=O)NCCCNC(=O)c1ccc(-c2c3nc(c(-c4ccc(S(=O)(=O)[O-])cc4)c4ccc([nH]4)c(-c4ccc(S(=O)(=O)[O-])cc4)c4nc(c(-c5ccc(S(=O)(=O)[O-])cc5)c5ccc2[nH]5)C=C4)C=C3)cc1
REMARK SMILES IDX 23 1 22 2 21 3 19 4 20 5 18 7 13 8 14 9 15 10 17 11 11 12
REMARK SMILES IDX 12 13 10 14 3 15 4 16 5 17 8 18 7 19 9 20 2 21 1 22 6 23
REMARK SMILES IDX 16 25 24 27 25 28 26 29 27 31 28 32 29 33 87 34 30 35 86 36
REMARK SMILES IDX 31 37 32 38 33 39 80 40 34 41 85 42 79 43 81 44 35 45 84 46
REMARK SMILES IDX 78 47 77 48 36 50 66 51 47 52 65 53 48 54 51 55 64 56 82 57
REMARK SMILES IDX 49 58 50 59 63 61 83 62 52 63 37 64 38 65 46 66 39 67 45 68
REMARK SMILES IDX 40 69 41 70 42 71 43 72 44 73 67 74 68 75 76 76 69 77 75 78
REMARK SMILES IDX 70 79 71 80 72 81 73 82 74 83 53 84 54 85 62 86 55 87 61 88
REMARK SMILES IDX 56 89 57 90 58 91 59 92 60 93
REMARK H PARENT 21 6 6 24 16 26 25 30 81 49 51 60
REMARK Flexibility Score: inf
ROOT
ATOM      1  C   UNL A   1      33.706  27.976  25.092  1.00  0.00     0.042 C 
ENDROOT
BRANCH   1   2
ATOM      2  C   UNL A   1      33.898  26.543  24.600  1.00  0.00     0.117 C 
BRANCH   2   3
ATOM      3  N   UNL A   1      32.772  26.029  23.835  1.00  0.00    -0.354 N 
ATOM      4  C   UNL A   1      31.923  24.992  24.099  1.00  0.00     0.242 C 
ATOM      5  O   UNL A   1      30.976  24.823  23.326  1.00  0.00    -0.273 OA
ATOM      6  H   UNL A   1      32.592  26.507  22.994  1.00  0.00     0.163 HD
BRANCH   4   7
ATOM      7  C   UNL A   1      32.210  24.019  25.260  1.00  0.00     0.177 C 
ATOM      8  N   UNL A   1      32.031  22.632  24.815  1.00  0.00    -0.324 N 
ATOM      9  C   UNL A   1      31.257  21.886  25.789  1.00  0.00     0.152 C 
ATOM     10  C   UNL A   1      30.328  22.940  26.384  1.00  0.00     0.136 C 
ATOM     11  C   UNL A   1      31.190  24.205  26.400  1.00  0.00     0.069 C 
BRANCH   8  12
ATOM     12  C   UNL A   1      32.894  22.091  23.884  1.00  0.00     0.259 C 
ATOM     13  O   UNL A   1      32.491  21.953  22.733  1.00  0.00    -0.269 OA
BRANCH  12  14
ATOM     14  C   UNL A   1      34.264  21.614  24.260  1.00  0.00     0.093 A 
ATOM     15  C   UNL A   1      34.571  20.327  24.723  1.00  0.00     0.116 A 
ATOM     16  N   UNL A   1      35.820  19.934  25.070  1.00  0.00    -0.188 NA
ATOM     17  C   UNL A   1      36.782  20.816  24.872  1.00  0.00     0.315 A 
ATOM     18  C   UNL A   1      35.391  22.427  24.044  1.00  0.00     0.058 A 
ATOM     19  N   UNL A   1      36.653  22.029  24.359  1.00  0.00    -0.200 NA
ATOM     20  C   UNL A   1      35.392  23.739  23.306  1.00  0.00     0.068 C 
BRANCH  15  21
ATOM     21  S   UNL A   1      33.443  18.934  24.727  1.00  0.00    -0.109 SA
ATOM     22  C   UNL A   1      34.592  17.584  24.358  1.00  0.00     0.092 C 
ENDBRANCH  15  21
BRANCH  17  23
ATOM     23  O   UNL A   1      38.057  20.441  25.146  1.00  0.00    -0.479 OA
ATOM     24  H   UNL A   1      38.626  20.174  24.452  1.00  0.00     0.297 HD
ENDBRANCH  17  23
ENDBRANCH  12  14
ENDBRANCH   8  12
BRANCH  10  25
ATOM     25  O   UNL A   1      29.871  22.603  27.685  1.00  0.00    -0.391 OA
ATOM     26  H   UNL A   1      29.355  21.782  27.644  1.00  0.00     0.211 HD
ENDBRANCH  10  25
ENDBRANCH   4   7
ENDBRANCH   2   3
ENDBRANCH   1   2
BRANCH   1  27
ATOM     27  C   UNL A   1      34.024  28.194  26.560  1.00  0.00     0.118 C 
BRANCH  27  28
ATOM     28  N   UNL A   1      33.722  29.547  26.998  1.00  0.00    -0.352 N 
ATOM     29  C   UNL A   1      34.451  30.386  27.802  1.00  0.00     0.251 C 
ATOM     30  H   UNL A   1      32.870  29.915  26.669  1.00  0.00     0.163 HD
ATOM     31  O   UNL A   1      33.933  31.412  28.240  1.00  0.00    -0.269 OA
BRANCH  29  32
ATOM     32  C   UNL A   1      35.848  30.052  28.156  1.00  0.00     0.039 A 
ATOM     33  C   UNL A   1      36.130  29.593  29.445  1.00  0.00     0.014 A 
ATOM     34  C   UNL A   1      36.881  30.223  27.229  1.00  0.00     0.014 A 
ATOM     35  C   UNL A   1      37.442  29.253  29.788  1.00  0.00     0.010 A 
ATOM     36  C   UNL A   1      38.176  29.826  27.552  1.00  0.00     0.010 A 
ATOM     37  C   UNL A   1      38.469  29.350  28.838  1.00  0.00    -0.014 A 
BRANCH  37  38
ATOM     38  C   UNL A   1      39.872  29.014  29.180  1.00  0.00     0.031 A 
ATOM     39  C   UNL A   1      40.409  27.650  28.840  1.00  0.00     0.074 A 
ATOM     40  C   UNL A   1      40.649  29.911  29.818  1.00  0.00     0.049 A 
ATOM     41  N   UNL A   1      41.577  27.134  29.120  1.00  0.00    -0.248 NA
ATOM     42  C   UNL A   1      39.515  26.746  28.096  1.00  0.00     0.031 C 
ATOM     43  C   UNL A   1      40.249  31.270  30.189  1.00  0.00     0.029 A 
ATOM     44  N   UNL A   1      41.943  29.812  30.265  1.00  0.00    -0.354 N 
ATOM     45  C   UNL A   1      41.557  25.849  28.592  1.00  0.00     0.074 A 
ATOM     46  C   UNL A   1      40.250  25.646  28.009  1.00  0.00     0.031 C 
ATOM     47  C   UNL A   1      41.287  31.887  30.779  1.00  0.00     0.029 A 
ATOM     48  C   UNL A   1      42.411  30.959  30.865  1.00  0.00     0.049 A 
ATOM     49  H   UNL A   1      42.486  28.998  30.166  1.00  0.00     0.167 HD
ATOM     50  C   UNL A   1      42.548  24.930  28.575  1.00  0.00     0.031 A 
ATOM     51  C   UNL A   1      43.607  31.227  31.424  1.00  0.00     0.031 A 
ATOM     52  C   UNL A   1      43.854  25.136  29.136  1.00  0.00     0.049 A 
ATOM     53  C   UNL A   1      44.667  30.160  31.448  1.00  0.00     0.074 A 
ATOM     54  C   UNL A   1      44.929  24.264  29.144  1.00  0.00     0.029 A 
ATOM     55  N   UNL A   1      44.268  26.291  29.777  1.00  0.00    -0.354 N 
ATOM     56  N   UNL A   1      44.627  28.949  30.946  1.00  0.00    -0.248 NA
ATOM     57  C   UNL A   1      45.933  30.495  32.116  1.00  0.00     0.031 C 
ATOM     58  C   UNL A   1      45.981  24.876  29.828  1.00  0.00     0.029 A 
ATOM     59  C   UNL A   1      45.577  26.147  30.201  1.00  0.00     0.049 A 
ATOM     60  H   UNL A   1      43.714  27.094  29.912  1.00  0.00     0.167 HD
ATOM     61  C   UNL A   1      45.872  28.389  31.214  1.00  0.00     0.074 A 
ATOM     62  C   UNL A   1      46.643  29.391  31.916  1.00  0.00     0.031 C 
ATOM     63  C   UNL A   1      46.333  27.154  30.899  1.00  0.00     0.031 A 
BRANCH  50  64
ATOM     64  C   UNL A   1      42.279  23.609  27.911  1.00  0.00    -0.014 A 
ATOM     65  C   UNL A   1      42.636  23.403  26.568  1.00  0.00     0.010 A 
ATOM     66  C   UNL A   1      41.788  22.532  28.670  1.00  0.00     0.010 A 
ATOM     67  C   UNL A   1      42.516  22.134  25.996  1.00  0.00     0.020 A 
ATOM     68  C   UNL A   1      41.684  21.257  28.107  1.00  0.00     0.020 A 
ATOM     69  C   UNL A   1      42.058  21.066  26.774  1.00  0.00     0.054 A 
BRANCH  69  70
ATOM     70  S   UNL A   1      41.996  19.416  26.024  1.00  0.00     0.124 S 
ATOM     71  O   UNL A   1      40.577  19.275  25.708  1.00  0.00    -0.237 OA
ATOM     72  O   UNL A   1      42.884  19.564  24.874  1.00  0.00    -0.237 OA
ATOM     73  O   UNL A   1      42.485  18.534  27.080  1.00  0.00    -0.744 OA
ENDBRANCH  69  70
ENDBRANCH  50  64
BRANCH  51  74
ATOM     74  C   UNL A   1      43.882  32.576  31.987  1.00  0.00    -0.014 A 
ATOM     75  C   UNL A   1      43.594  32.847  33.336  1.00  0.00     0.010 A 
ATOM     76  C   UNL A   1      44.432  33.593  31.186  1.00  0.00     0.010 A 
ATOM     77  C   UNL A   1      43.840  34.114  33.872  1.00  0.00     0.020 A 
ATOM     78  C   UNL A   1      44.700  34.856  31.725  1.00  0.00     0.020 A 
ATOM     79  C   UNL A   1      44.399  35.108  33.065  1.00  0.00     0.054 A 
BRANCH  79  80
ATOM     80  S   UNL A   1      44.734  36.734  33.797  1.00  0.00     0.124 S 
ATOM     81  O   UNL A   1      46.055  37.048  33.259  1.00  0.00    -0.237 OA
ATOM     82  O   UNL A   1      43.631  37.538  33.279  1.00  0.00    -0.237 OA
ATOM     83  O   UNL A   1      44.692  36.478  35.235  1.00  0.00    -0.744 OA
ENDBRANCH  79  80
ENDBRANCH  51  74
BRANCH  63  84
ATOM     84  C   UNL A   1      47.747  26.812  31.282  1.00  0.00    -0.014 A 
ATOM     85  C   UNL A   1      48.036  26.226  32.526  1.00  0.00     0.010 A 
ATOM     86  C   UNL A   1      48.782  26.997  30.348  1.00  0.00     0.010 A 
ATOM     87  C   UNL A   1      49.343  25.844  32.835  1.00  0.00     0.020 A 
ATOM     88  C   UNL A   1      50.087  26.594  30.645  1.00  0.00     0.020 A 
ATOM     89  C   UNL A   1      50.359  26.024  31.890  1.00  0.00     0.054 A 
BRANCH  89  90
ATOM     90  S   UNL A   1      52.038  25.482  32.310  1.00  0.00     0.124 S 
ATOM     91  O   UNL A   1      51.967  24.044  32.063  1.00  0.00    -0.237 OA
ATOM     92  O   UNL A   1      52.857  26.241  31.369  1.00  0.00    -0.237 OA
ATOM     93  O   UNL A   1      52.187  25.863  33.712  1.00  0.00    -0.744 OA
ENDBRANCH  89  90
ENDBRANCH  63  84
ENDBRANCH  37  38
ENDBRANCH  29  32
ENDBRANCH  27  28
ENDBRANCH   1  27
TORSDOF 18
ENDMDL
MODEL 3
REMARK VINA RESULT:     -10.6      2.945      9.522
REMARK SMILES CSc1nc(O)nc(C)c1C(=O)N1C[C@@H](O)C[C@@H]1C(=O)NCCCNC(=O)c1ccc(-c2c3nc(c(-c4ccc(S(=O)(=O)[O-])cc4)c4ccc([nH]4)c(-c4ccc(S(=O)(=O)[O-])cc4)c4nc(c(-c5ccc(S(=O)(=O)[O-])cc5)c5ccc2[nH]5)C=C4)C=C3)cc1
REMARK SMILES IDX 23 1 22 2 21 3 19 4 20 5 18 7 13 8 14 9 15 10 17 11 11 12
REMARK SMILES IDX 12 13 10 14 3 15 4 16 5 17 8 18 7 19 9 20 2 21 1 22 6 23
REMARK SMILES IDX 16 25 24 27 25 28 26 29 27 31 28 32 29 33 87 34 30 35 86 36
REMARK SMILES IDX 31 37 32 38 33 39 80 40 34 41 85 42 79 43 81 44 35 45 84 46
REMARK SMILES IDX 78 47 77 48 36 50 66 51 47 52 65 53 48 54 51 55 64 56 82 57
REMARK SMILES IDX 49 58 50 59 63 61 83 62 52 63 37 64 38 65 46 66 39 67 45 68
REMARK SMILES IDX 40 69 41 70 42 71 43 72 44 73 67 74 68 75 76 76 69 77 75 78
REMARK SMILES IDX 70 79 71 80 72 81 73 82 74 83 53 84 54 85 62 86 55 87 61 88
REMARK SMILES IDX 56 89 57 90 58 91 59 92 60 93
REMARK H PARENT 21 6 6 24 16 26 25 30 81 49 51 60
REMARK Flexibility Score: inf
ROOT
ATOM      1  C   UNL A   1      35.097  23.072  25.686  1.00  0.00     0.042 C 
ENDROOT
BRANCH   1   2
ATOM      2  C   UNL A   1      33.908  24.001  25.922  1.00  0.00     0.117 C 
BRANCH   2   3
ATOM      3  N   UNL A   1      32.678  23.553  25.286  1.00  0.00    -0.354 N 
ATOM      4  C   UNL A   1      32.062  23.989  24.147  1.00  0.00     0.242 C 
ATOM      5  O   UNL A   1      31.067  23.365  23.767  1.00  0.00    -0.273 OA
ATOM      6  H   UNL A   1      32.218  22.817  25.749  1.00  0.00     0.163 HD
BRANCH   4   7
ATOM      7  C   UNL A   1      32.541  25.270  23.436  1.00  0.00     0.177 C 
ATOM      8  N   UNL A   1      31.389  26.074  23.012  1.00  0.00    -0.324 N 
ATOM      9  C   UNL A   1      31.566  26.525  21.645  1.00  0.00     0.152 C 
ATOM     10  C   UNL A   1      32.371  25.399  21.003  1.00  0.00     0.136 C 
ATOM     11  C   UNL A   1      33.290  24.930  22.134  1.00  0.00     0.069 C 
BRANCH   8  12
ATOM     12  C   UNL A   1      30.575  26.664  23.958  1.00  0.00     0.259 C 
ATOM     13  O   UNL A   1      29.492  26.139  24.196  1.00  0.00    -0.269 OA
BRANCH  12  14
ATOM     14  C   UNL A   1      30.952  27.947  24.635  1.00  0.00     0.093 A 
ATOM     15  C   UNL A   1      30.732  29.229  24.112  1.00  0.00     0.116 A 
ATOM     16  N   UNL A   1      31.101  30.369  24.746  1.00  0.00    -0.188 NA
ATOM     17  C   UNL A   1      31.620  30.222  25.951  1.00  0.00     0.315 A 
ATOM     18  C   UNL A   1      31.458  27.943  25.946  1.00  0.00     0.058 A 
ATOM     19  N   UNL A   1      31.801  29.085  26.602  1.00  0.00    -0.200 NA
ATOM     20  C   UNL A   1      31.537  26.741  26.849  1.00  0.00     0.068 C 
BRANCH  15  21
ATOM     21  S   UNL A   1      29.749  29.599  22.660  1.00  0.00    -0.109 SA
ATOM     22  C   UNL A   1      28.111  29.086  23.238  1.00  0.00     0.092 C 
ENDBRANCH  15  21
BRANCH  17  23
ATOM     23  O   UNL A   1      31.944  31.341  26.645  1.00  0.00    -0.479 OA
ATOM     24  H   UNL A   1      31.934  31.330  27.582  1.00  0.00     0.297 HD
ENDBRANCH  17  23
ENDBRANCH  12  14
ENDBRANCH   8  12
BRANCH  10  25
ATOM     25  O   UNL A   1      33.112  25.825  19.869  1.00  0.00    -0.391 OA
ATOM     26  H   UNL A   1      33.949  26.220  20.160  1.00  0.00     0.211 HD
ENDBRANCH  10  25
ENDBRANCH   4   7
ENDBRANCH   2   3
ENDBRANCH   1   2
BRANCH   1  27
ATOM     27  C   UNL A   1      36.458  23.723  25.854  1.00  0.00     0.118 C 
BRANCH  27  28
ATOM     28  N   UNL A   1      37.539  22.751  25.875  1.00  0.00    -0.352 N 
ATOM     29  C   UNL A   1      38.849  22.914  26.248  1.00  0.00     0.251 C 
ATOM     30  H   UNL A   1      37.295  21.845  25.580  1.00  0.00     0.163 HD
ATOM     31  O   UNL A   1      39.668  22.033  25.992  1.00  0.00    -0.269 OA
BRANCH  29  32
ATOM     32  C   UNL A   1      39.281  24.149  26.938  1.00  0.00     0.039 A 
ATOM     33  C   UNL A   1      40.032  25.093  26.234  1.00  0.00     0.014 A 
ATOM     34  C   UNL A   1      38.973  24.359  28.286  1.00  0.00     0.014 A 
ATOM     35  C   UNL A   1      40.429  26.274  26.865  1.00  0.00     0.010 A 
ATOM     36  C   UNL A   1      39.316  25.563  28.896  1.00  0.00     0.010 A 
ATOM     37  C   UNL A   1      40.057  26.525  28.195  1.00  0.00    -0.014 A 
BRANCH  37  38
ATOM     38  C   UNL A   1      40.481  27.761  28.896  1.00  0.00     0.031 A 
ATOM     39  C   UNL A   1      41.867  27.842  29.477  1.00  0.00     0.074 A 
ATOM     40  C   UNL A   1      39.622  28.789  29.041  1.00  0.00     0.049 A 
ATOM     41  N   UNL A   1      42.404  28.797  30.190  1.00  0.00    -0.248 NA
ATOM     42  C   UNL A   1      42.763  26.698  29.231  1.00  0.00     0.031 C 
ATOM     43  C   UNL A   1      38.257  28.837  28.511  1.00  0.00     0.029 A 
ATOM     44  N   UNL A   1      39.774  29.996  29.676  1.00  0.00    -0.354 N 
ATOM     45  C   UNL A   1      43.694  28.370  30.480  1.00  0.00     0.074 A 
ATOM     46  C   UNL A   1      43.850  27.055  29.902  1.00  0.00     0.031 C 
ATOM     47  C   UNL A   1      37.710  30.025  28.817  1.00  0.00     0.029 A 
ATOM     48  C   UNL A   1      38.665  30.806  29.597  1.00  0.00     0.049 A 
ATOM     49  H   UNL A   1      40.599  30.258  30.144  1.00  0.00     0.167 HD
ATOM     50  C   UNL A   1      44.668  29.026  31.149  1.00  0.00     0.031 A 
ATOM     51  C   UNL A   1      38.445  32.037  30.100  1.00  0.00     0.031 A 
ATOM     52  C   UNL A   1      44.523  30.341  31.708  1.00  0.00     0.049 A 
ATOM     53  C   UNL A   1      39.526  32.714  30.898  1.00  0.00     0.074 A 
ATOM     54  C   UNL A   1      45.468  31.092  32.385  1.00  0.00     0.029 A 
ATOM     55  N   UNL A   1      43.369  31.105  31.649  1.00  0.00    -0.354 N 
ATOM     56  N   UNL A   1      40.739  32.291  31.165  1.00  0.00    -0.248 NA
ATOM     57  C   UNL A   1      39.209  34.033  31.465  1.00  0.00     0.031 C 
ATOM     58  C   UNL A   1      44.872  32.295  32.773  1.00  0.00     0.029 A 
ATOM     59  C   UNL A   1      43.573  32.312  32.293  1.00  0.00     0.049 A 
ATOM     60  H   UNL A   1      42.530  30.830  31.214  1.00  0.00     0.167 HD
ATOM     61  C   UNL A   1      41.337  33.305  31.905  1.00  0.00     0.074 A 
ATOM     62  C   UNL A   1      40.358  34.362  32.041  1.00  0.00     0.031 C 
ATOM     63  C   UNL A   1      42.589  33.355  32.421  1.00  0.00     0.031 A 
BRANCH  50  64
ATOM     64  C   UNL A   1      46.000  28.349  31.307  1.00  0.00    -0.014 A 
ATOM     65  C   UNL A   1      46.193  27.385  32.312  1.00  0.00     0.010 A 
ATOM     66  C   UNL A   1      47.020  28.583  30.369  1.00  0.00     0.010 A 
ATOM     67  C   UNL A   1      47.383  26.657  32.368  1.00  0.00     0.020 A 
ATOM     68  C   UNL A   1      48.205  27.843  30.410  1.00  0.00     0.020 A 
ATOM     69  C   UNL A   1      48.374  26.878  31.406  1.00  0.00     0.054 A 
BRANCH  69  70
ATOM     70  S   UNL A   1      49.869  25.854  31.458  1.00  0.00     0.124 S 
ATOM     71  O   UNL A   1      50.898  26.830  31.807  1.00  0.00    -0.237 OA
ATOM     72  O   UNL A   1      49.546  24.882  32.498  1.00  0.00    -0.237 OA
ATOM     73  O   UNL A   1      49.967  25.311  30.105  1.00  0.00    -0.744 OA
ENDBRANCH  69  70
ENDBRANCH  50  64
BRANCH  51  74
ATOM     74  C   UNL A   1      37.152  32.727  29.846  1.00  0.00    -0.014 A 
ATOM     75  C   UNL A   1      37.038  33.635  28.778  1.00  0.00     0.010 A 
ATOM     76  C   UNL A   1      36.032  32.484  30.662  1.00  0.00     0.010 A 
ATOM     77  C   UNL A   1      35.830  34.296  28.537  1.00  0.00     0.020 A 
ATOM     78  C   UNL A   1      34.816  33.126  30.409  1.00  0.00     0.020 A 
ATOM     79  C   UNL A   1      34.724  34.031  29.350  1.00  0.00     0.054 A 
BRANCH  79  80
ATOM     80  S   UNL A   1      33.162  34.881  28.992  1.00  0.00     0.124 S 
ATOM     81  O   UNL A   1      33.621  36.154  28.446  1.00  0.00    -0.237 OA
ATOM     82  O   UNL A   1      32.530  33.973  28.038  1.00  0.00    -0.237 OA
ATOM     83  O   UNL A   1      32.508  34.961  30.296  1.00  0.00    -0.744 OA
ENDBRANCH  79  80
ENDBRANCH  51  74
BRANCH  63  84
ATOM     84  C   UNL A   1      42.996  34.599  33.161  1.00  0.00    -0.014 A 
ATOM     85  C   UNL A   1      42.863  34.684  34.557  1.00  0.00     0.010 A 
ATOM     86  C   UNL A   1      43.603  35.656  32.459  1.00  0.00     0.010 A 
ATOM     87  C   UNL A   1      43.317  35.817  35.238  1.00  0.00     0.020 A 
ATOM     88  C   UNL A   1      44.080  36.779  33.139  1.00  0.00     0.020 A 
ATOM     89  C   UNL A   1      43.930  36.854  34.525  1.00  0.00     0.054 A 
BRANCH  89  90
ATOM     90  S   UNL A   1      44.541  38.292  35.445  1.00  0.00     0.124 S 
ATOM     91  O   UNL A   1      44.045  38.028  36.793  1.00  0.00    -0.237 OA
ATOM     92  O   UNL A   1      45.987  38.181  35.275  1.00  0.00    -0.237 OA
ATOM     93  O   UNL A   1      43.920  39.428  34.768  1.00  0.00    -0.744 OA
ENDBRANCH  89  90
ENDBRANCH  63  84
ENDBRANCH  37  38
ENDBRANCH  29  32
ENDBRANCH  27  28
ENDBRANCH   1  27
TORSDOF 18
ENDMDL
