MODEL 1
REMARK VINA RESULT:     -11.2      0.000      0.000
REMARK SMILES CC[NH2+][C@@]1(C(=O)NCCCNC(=O)c2ccc(-c3c4nc(c(-c5ccc(S(=O)(=O)[O-])cc5)c5ccc([nH]5)c(-c5ccc(S(=O)(=O)[O-])cc5)c5nc(c(-c6ccc(S(=O)(=O)[O-])cc6)c6ccc3[nH]6)C=C5)C=C4)cc2)CCC[C@@H](Sc2ncc(C)cn2)C1
REMARK SMILES IDX 9 1 8 2 7 3 5 4 6 5 4 7 74 8 86 9 75 10 77 11 76 12 3 13
REMARK SMILES IDX 2 16 1 17 78 18 79 19 80 20 85 21 81 22 84 23 82 24 83 25
REMARK SMILES IDX 10 26 11 27 12 28 13 30 14 31 15 32 73 33 16 34 72 35 17 36
REMARK SMILES IDX 18 37 19 38 66 39 20 40 71 41 65 42 67 43 21 44 70 45 64 46
REMARK SMILES IDX 63 47 22 49 52 50 33 51 51 52 34 53 37 54 50 55 68 56 35 57
REMARK SMILES IDX 36 58 49 60 69 61 38 62 23 63 24 64 32 65 25 66 31 67 26 68
REMARK SMILES IDX 27 69 28 70 29 71 30 72 53 73 54 74 62 75 55 76 61 77 56 78
REMARK SMILES IDX 57 79 58 80 59 81 60 82 39 83 40 84 48 85 41 86 47 87 42 88
REMARK SMILES IDX 43 89 44 90 45 91 46 92
REMARK H PARENT 7 6 3 14 3 15 11 29 67 48 37 59
REMARK Flexibility Score: inf
ROOT
ATOM      1  C   UNL A   1      31.928  27.724  27.297  1.00  0.00     0.042 C 
ENDROOT
BRANCH   1   2
ATOM      2  C   UNL A   1      31.714  26.648  26.237  1.00  0.00     0.118 C 
BRANCH   2   3
ATOM      3  N   UNL A   1      31.055  25.473  26.763  1.00  0.00    -0.351 N 
ATOM      4  C   UNL A   1      31.226  24.137  26.650  1.00  0.00     0.281 C 
ATOM      5  O   UNL A   1      30.439  23.486  27.365  1.00  0.00    -0.268 OA
ATOM      6  H   UNL A   1      30.296  25.703  27.346  1.00  0.00     0.163 HD
BRANCH   4   7
ATOM      7  C   UNL A   1      32.272  23.335  25.742  1.00  0.00     0.176 C 
ATOM      8  C   UNL A   1      33.725  23.324  26.269  1.00  0.00     0.079 C 
ATOM      9  C   UNL A   1      32.191  23.768  24.263  1.00  0.00     0.094 C 
ATOM     10  C   UNL A   1      34.709  24.373  25.748  1.00  0.00     0.008 C 
ATOM     11  C   UNL A   1      33.035  24.985  23.918  1.00  0.00     0.061 C 
ATOM     12  C   UNL A   1      34.503  24.817  24.301  1.00  0.00     0.015 C 
BRANCH   7  13
ATOM     13  N   UNL A   1      31.855  21.880  25.956  1.00  0.00    -0.334 N 
ATOM     14  H   UNL A   1      32.282  21.566  26.827  1.00  0.00     0.347 HD
ATOM     15  H   UNL A   1      30.835  21.901  25.948  1.00  0.00     0.347 HD
BRANCH  13  16
ATOM     16  C   UNL A   1      32.211  20.912  24.922  1.00  0.00     0.257 C 
ATOM     17  C   UNL A   1      32.901  19.708  25.549  1.00  0.00     0.071 C 
ENDBRANCH  13  16
ENDBRANCH   7  13
BRANCH  11  18
ATOM     18  S   UNL A   1      32.758  25.569  22.200  1.00  0.00    -0.083 SA
BRANCH  18  19
ATOM     19  C   UNL A   1      31.739  26.982  22.490  1.00  0.00     0.187 A 
ATOM     20  N   UNL A   1      32.311  28.194  22.431  1.00  0.00    -0.231 NA
ATOM     21  N   UNL A   1      30.460  26.747  22.818  1.00  0.00    -0.231 NA
ATOM     22  C   UNL A   1      31.521  29.239  22.734  1.00  0.00     0.119 A 
ATOM     23  C   UNL A   1      29.710  27.827  23.093  1.00  0.00     0.119 A 
ATOM     24  C   UNL A   1      30.195  29.117  23.090  1.00  0.00    -0.014 A 
ATOM     25  C   UNL A   1      29.339  30.285  23.430  1.00  0.00     0.048 C 
ENDBRANCH  18  19
ENDBRANCH  11  18
ENDBRANCH   4   7
ENDBRANCH   2   3
ENDBRANCH   1   2
BRANCH   1  26
ATOM     26  C   UNL A   1      33.328  28.308  27.300  1.00  0.00     0.118 C 
BRANCH  26  27
ATOM     27  N   UNL A   1      33.316  29.753  27.506  1.00  0.00    -0.352 N 
ATOM     28  C   UNL A   1      34.263  30.586  28.046  1.00  0.00     0.251 C 
ATOM     29  H   UNL A   1      32.492  30.203  27.209  1.00  0.00     0.163 HD
ATOM     30  O   UNL A   1      33.944  31.742  28.336  1.00  0.00    -0.269 OA
BRANCH  28  31
ATOM     31  C   UNL A   1      35.645  30.119  28.293  1.00  0.00     0.039 A 
ATOM     32  C   UNL A   1      36.574  30.142  27.249  1.00  0.00     0.014 A 
ATOM     33  C   UNL A   1      36.027  29.629  29.543  1.00  0.00     0.014 A 
ATOM     34  C   UNL A   1      37.895  29.747  27.480  1.00  0.00     0.010 A 
ATOM     35  C   UNL A   1      37.363  29.349  29.803  1.00  0.00     0.010 A 
ATOM     36  C   UNL A   1      38.310  29.388  28.772  1.00  0.00    -0.014 A 
BRANCH  36  37
ATOM     37  C   UNL A   1      39.720  29.029  29.076  1.00  0.00     0.031 A 
ATOM     38  C   UNL A   1      40.650  30.064  29.656  1.00  0.00     0.074 A 
ATOM     39  C   UNL A   1      40.183  27.805  28.754  1.00  0.00     0.049 A 
ATOM     40  N   UNL A   1      41.935  29.983  29.888  1.00  0.00    -0.248 NA
ATOM     41  C   UNL A   1      40.065  31.376  29.987  1.00  0.00     0.031 C 
ATOM     42  C   UNL A   1      39.392  26.730  28.147  1.00  0.00     0.029 A 
ATOM     43  N   UNL A   1      41.435  27.258  28.881  1.00  0.00    -0.354 N 
ATOM     44  C   UNL A   1      42.314  31.234  30.361  1.00  0.00     0.074 A 
ATOM     45  C   UNL A   1      41.137  32.073  30.332  1.00  0.00     0.031 C 
ATOM     46  C   UNL A   1      40.169  25.648  27.984  1.00  0.00     0.029 A 
ATOM     47  C   UNL A   1      41.524  25.965  28.424  1.00  0.00     0.049 A 
ATOM     48  H   UNL A   1      42.199  27.748  29.265  1.00  0.00     0.167 HD
ATOM     49  C   UNL A   1      43.527  31.644  30.803  1.00  0.00     0.031 A 
ATOM     50  C   UNL A   1      42.580  25.131  28.351  1.00  0.00     0.031 A 
ATOM     51  C   UNL A   1      44.688  30.796  30.849  1.00  0.00     0.049 A 
ATOM     52  C   UNL A   1      43.920  25.612  28.837  1.00  0.00     0.074 A 
ATOM     53  C   UNL A   1      45.948  31.090  31.339  1.00  0.00     0.029 A 
ATOM     54  N   UNL A   1      44.731  29.488  30.388  1.00  0.00    -0.354 N 
ATOM     55  N   UNL A   1      44.242  26.777  29.347  1.00  0.00    -0.248 NA
ATOM     56  C   UNL A   1      45.037  24.662  28.745  1.00  0.00     0.031 C 
ATOM     57  C   UNL A   1      46.770  29.980  31.120  1.00  0.00     0.029 A 
ATOM     58  C   UNL A   1      46.005  28.971  30.552  1.00  0.00     0.049 A 
ATOM     59  H   UNL A   1      43.969  29.001  30.000  1.00  0.00     0.167 HD
ATOM     60  C   UNL A   1      45.595  26.694  29.655  1.00  0.00     0.074 A 
ATOM     61  C   UNL A   1      46.024  25.357  29.295  1.00  0.00     0.031 C 
ATOM     62  C   UNL A   1      46.412  27.639  30.182  1.00  0.00     0.031 A 
BRANCH  49  63
ATOM     63  C   UNL A   1      43.657  33.071  31.269  1.00  0.00    -0.014 A 
ATOM     64  C   UNL A   1      43.490  33.416  32.623  1.00  0.00     0.010 A 
ATOM     65  C   UNL A   1      43.987  34.080  30.345  1.00  0.00     0.010 A 
ATOM     66  C   UNL A   1      43.607  34.744  33.037  1.00  0.00     0.020 A 
ATOM     67  C   UNL A   1      44.137  35.407  30.761  1.00  0.00     0.020 A 
ATOM     68  C   UNL A   1      43.930  35.733  32.103  1.00  0.00     0.054 A 
BRANCH  68  69
ATOM     69  S   UNL A   1      44.101  37.445  32.676  1.00  0.00     0.124 S 
ATOM     70  O   UNL A   1      45.458  37.448  33.214  1.00  0.00    -0.237 OA
ATOM     71  O   UNL A   1      43.910  38.213  31.449  1.00  0.00    -0.237 OA
ATOM     72  O   UNL A   1      43.038  37.588  33.667  1.00  0.00    -0.744 OA
ENDBRANCH  68  69
ENDBRANCH  49  63
BRANCH  50  73
ATOM     73  C   UNL A   1      42.409  23.756  27.802  1.00  0.00    -0.014 A 
ATOM     74  C   UNL A   1      42.379  23.542  26.412  1.00  0.00     0.010 A 
ATOM     75  C   UNL A   1      42.291  22.650  28.663  1.00  0.00     0.010 A 
ATOM     76  C   UNL A   1      42.216  22.254  25.896  1.00  0.00     0.020 A 
ATOM     77  C   UNL A   1      42.159  21.357  28.151  1.00  0.00     0.020 A 
ATOM     78  C   UNL A   1      42.110  21.167  26.768  1.00  0.00     0.054 A 
BRANCH  78  79
ATOM     79  S   UNL A   1      41.947  19.500  26.072  1.00  0.00     0.124 S 
ATOM     80  O   UNL A   1      42.853  19.556  24.929  1.00  0.00    -0.237 OA
ATOM     81  O   UNL A   1      42.378  18.652  27.181  1.00  0.00    -0.237 OA
ATOM     82  O   UNL A   1      40.526  19.403  25.741  1.00  0.00    -0.744 OA
ENDBRANCH  78  79
ENDBRANCH  50  73
BRANCH  62  83
ATOM     83  C   UNL A   1      47.847  27.256  30.424  1.00  0.00    -0.014 A 
ATOM     84  C   UNL A   1      48.845  27.540  29.475  1.00  0.00     0.010 A 
ATOM     85  C   UNL A   1      48.211  26.654  31.643  1.00  0.00     0.010 A 
ATOM     86  C   UNL A   1      50.176  27.200  29.727  1.00  0.00     0.020 A 
ATOM     87  C   UNL A   1      49.545  26.341  31.913  1.00  0.00     0.020 A 
ATOM     88  C   UNL A   1      50.518  26.605  30.946  1.00  0.00     0.054 A 
BRANCH  88  89
ATOM     89  S   UNL A   1      52.260  26.218  31.268  1.00  0.00     0.124 S 
ATOM     90  O   UNL A   1      52.826  26.221  29.922  1.00  0.00    -0.237 OA
ATOM     91  O   UNL A   1      52.679  27.321  32.128  1.00  0.00    -0.237 OA
ATOM     92  O   UNL A   1      52.210  24.912  31.921  1.00  0.00    -0.744 OA
ENDBRANCH  88  89
ENDBRANCH  62  83
ENDBRANCH  36  37
ENDBRANCH  28  31
ENDBRANCH  26  27
ENDBRANCH   1  26
TORSDOF 17
ENDMDL
MODEL 2
REMARK VINA RESULT:     -11.0      2.900      3.793
REMARK SMILES CC[NH2+][C@@]1(C(=O)NCCCNC(=O)c2ccc(-c3c4nc(c(-c5ccc(S(=O)(=O)[O-])cc5)c5ccc([nH]5)c(-c5ccc(S(=O)(=O)[O-])cc5)c5nc(c(-c6ccc(S(=O)(=O)[O-])cc6)c6ccc3[nH]6)C=C5)C=C4)cc2)CCC[C@@H](Sc2ncc(C)cn2)C1
REMARK SMILES IDX 9 1 8 2 7 3 5 4 6 5 4 7 74 8 86 9 75 10 77 11 76 12 3 13
REMARK SMILES IDX 2 16 1 17 78 18 79 19 80 20 85 21 81 22 84 23 82 24 83 25
REMARK SMILES IDX 10 26 11 27 12 28 13 30 14 31 15 32 73 33 16 34 72 35 17 36
REMARK SMILES IDX 18 37 19 38 66 39 20 40 71 41 65 42 67 43 21 44 70 45 64 46
REMARK SMILES IDX 63 47 22 49 52 50 33 51 51 52 34 53 37 54 50 55 68 56 35 57
REMARK SMILES IDX 36 58 49 60 69 61 38 62 23 63 24 64 32 65 25 66 31 67 26 68
REMARK SMILES IDX 27 69 28 70 29 71 30 72 53 73 54 74 62 75 55 76 61 77 56 78
REMARK SMILES IDX 57 79 58 80 59 81 60 82 39 83 40 84 48 85 41 86 47 87 42 88
REMARK SMILES IDX 43 89 44 90 45 91 46 92
REMARK H PARENT 7 6 3 14 3 15 11 29 67 48 37 59
REMARK Flexibility Score: inf
ROOT
ATOM      1  C   UNL A   1      33.732  28.874  27.334  1.00  0.00     0.042 C 
ENDROOT
BRANCH   1   2
ATOM      2  C   UNL A   1      33.010  29.523  26.157  1.00  0.00     0.118 C 
BRANCH   2   3
ATOM      3  N   UNL A   1      33.724  29.362  24.910  1.00  0.00    -0.351 N 
ATOM      4  C   UNL A   1      33.864  28.376  23.996  1.00  0.00     0.281 C 
ATOM      5  O   UNL A   1      34.542  28.723  23.009  1.00  0.00    -0.268 OA
ATOM      6  H   UNL A   1      34.233  30.169  24.667  1.00  0.00     0.163 HD
BRANCH   4   7
ATOM      7  C   UNL A   1      33.289  26.883  24.040  1.00  0.00     0.176 C 
ATOM      8  C   UNL A   1      33.677  25.995  22.836  1.00  0.00     0.079 C 
ATOM      9  C   UNL A   1      31.771  26.865  24.312  1.00  0.00     0.094 C 
ATOM     10  C   UNL A   1      32.713  25.888  21.653  1.00  0.00     0.008 C 
ATOM     11  C   UNL A   1      30.908  27.013  23.069  1.00  0.00     0.061 C 
ATOM     12  C   UNL A   1      31.227  25.973  21.998  1.00  0.00     0.015 C 
BRANCH   7  13
ATOM     13  N   UNL A   1      34.100  26.245  25.168  1.00  0.00    -0.334 N 
ATOM     14  H   UNL A   1      34.923  25.815  24.745  1.00  0.00     0.347 HD
ATOM     15  H   UNL A   1      34.287  27.011  25.815  1.00  0.00     0.347 HD
BRANCH  13  16
ATOM     16  C   UNL A   1      33.445  25.226  25.983  1.00  0.00     0.257 C 
ATOM     17  C   UNL A   1      34.279  23.952  25.997  1.00  0.00     0.071 C 
ENDBRANCH  13  16
ENDBRANCH   7  13
BRANCH  11  18
ATOM     18  S   UNL A   1      29.123  27.174  23.466  1.00  0.00    -0.083 SA
BRANCH  18  19
ATOM     19  C   UNL A   1      28.779  28.775  22.805  1.00  0.00     0.187 A 
ATOM     20  N   UNL A   1      29.575  29.238  21.829  1.00  0.00    -0.231 NA
ATOM     21  N   UNL A   1      27.774  29.458  23.370  1.00  0.00    -0.231 NA
ATOM     22  C   UNL A   1      29.330  30.491  21.406  1.00  0.00     0.119 A 
ATOM     23  C   UNL A   1      27.560  30.698  22.898  1.00  0.00     0.119 A 
ATOM     24  C   UNL A   1      28.329  31.287  21.918  1.00  0.00    -0.014 A 
ATOM     25  C   UNL A   1      28.078  32.674  21.442  1.00  0.00     0.048 C 
ENDBRANCH  18  19
ENDBRANCH  11  18
ENDBRANCH   4   7
ENDBRANCH   2   3
ENDBRANCH   1   2
BRANCH   1  26
ATOM     26  C   UNL A   1      35.143  29.390  27.544  1.00  0.00     0.118 C 
BRANCH  26  27
ATOM     27  N   UNL A   1      35.248  30.223  28.736  1.00  0.00    -0.352 N 
ATOM     28  C   UNL A   1      36.283  30.390  29.622  1.00  0.00     0.251 C 
ATOM     29  H   UNL A   1      34.443  30.752  28.940  1.00  0.00     0.163 HD
ATOM     30  O   UNL A   1      36.066  30.966  30.691  1.00  0.00    -0.269 OA
BRANCH  28  31
ATOM     31  C   UNL A   1      37.640  29.881  29.321  1.00  0.00     0.039 A 
ATOM     32  C   UNL A   1      38.096  29.885  27.999  1.00  0.00     0.014 A 
ATOM     33  C   UNL A   1      38.458  29.372  30.331  1.00  0.00     0.014 A 
ATOM     34  C   UNL A   1      39.392  29.450  27.707  1.00  0.00     0.010 A 
ATOM     35  C   UNL A   1      39.783  29.051  30.058  1.00  0.00     0.010 A 
ATOM     36  C   UNL A   1      40.261  29.071  28.741  1.00  0.00    -0.014 A 
BRANCH  36  37
ATOM     37  C   UNL A   1      41.668  28.668  28.481  1.00  0.00     0.031 A 
ATOM     38  C   UNL A   1      42.760  29.709  28.490  1.00  0.00     0.074 A 
ATOM     39  C   UNL A   1      41.950  27.392  28.155  1.00  0.00     0.049 A 
ATOM     40  N   UNL A   1      44.025  29.582  28.181  1.00  0.00    -0.248 NA
ATOM     41  C   UNL A   1      42.371  31.080  28.864  1.00  0.00     0.031 C 
ATOM     42  C   UNL A   1      40.974  26.302  28.069  1.00  0.00     0.029 A 
ATOM     43  N   UNL A   1      43.140  26.793  27.824  1.00  0.00    -0.354 N 
ATOM     44  C   UNL A   1      44.571  30.855  28.294  1.00  0.00     0.074 A 
ATOM     45  C   UNL A   1      43.492  31.750  28.645  1.00  0.00     0.031 C 
ATOM     46  C   UNL A   1      41.608  25.166  27.739  1.00  0.00     0.029 A 
ATOM     47  C   UNL A   1      43.024  25.453  27.539  1.00  0.00     0.049 A 
ATOM     48  H   UNL A   1      43.996  27.279  27.794  1.00  0.00     0.167 HD
ATOM     49  C   UNL A   1      45.861  31.242  28.142  1.00  0.00     0.031 A 
ATOM     50  C   UNL A   1      43.951  24.557  27.144  1.00  0.00     0.031 A 
ATOM     51  C   UNL A   1      46.931  30.341  27.813  1.00  0.00     0.049 A 
ATOM     52  C   UNL A   1      45.374  25.014  26.970  1.00  0.00     0.074 A 
ATOM     53  C   UNL A   1      48.283  30.617  27.699  1.00  0.00     0.029 A 
ATOM     54  N   UNL A   1      46.774  28.989  27.545  1.00  0.00    -0.354 N 
ATOM     55  N   UNL A   1      45.884  26.209  27.151  1.00  0.00    -0.248 NA
ATOM     56  C   UNL A   1      46.348  23.998  26.548  1.00  0.00     0.031 C 
ATOM     57  C   UNL A   1      48.934  29.444  27.304  1.00  0.00     0.029 A 
ATOM     58  C   UNL A   1      47.998  28.423  27.235  1.00  0.00     0.049 A 
ATOM     59  H   UNL A   1      45.918  28.505  27.570  1.00  0.00     0.167 HD
ATOM     60  C   UNL A   1      47.242  26.085  26.882  1.00  0.00     0.074 A 
ATOM     61  C   UNL A   1      47.477  24.694  26.550  1.00  0.00     0.031 C 
ATOM     62  C   UNL A   1      48.209  27.036  26.902  1.00  0.00     0.031 A 
BRANCH  49  63
ATOM     63  C   UNL A   1      46.179  32.704  28.327  1.00  0.00    -0.014 A 
ATOM     64  C   UNL A   1      46.135  33.604  27.246  1.00  0.00     0.010 A 
ATOM     65  C   UNL A   1      46.491  33.194  29.609  1.00  0.00     0.010 A 
ATOM     66  C   UNL A   1      46.439  34.954  27.434  1.00  0.00     0.020 A 
ATOM     67  C   UNL A   1      46.764  34.551  29.807  1.00  0.00     0.020 A 
ATOM     68  C   UNL A   1      46.753  35.420  28.714  1.00  0.00     0.054 A 
BRANCH  68  69
ATOM     69  S   UNL A   1      47.117  37.183  28.930  1.00  0.00     0.124 S 
ATOM     70  O   UNL A   1      45.851  37.801  28.548  1.00  0.00    -0.237 OA
ATOM     71  O   UNL A   1      47.454  37.268  30.348  1.00  0.00    -0.237 OA
ATOM     72  O   UNL A   1      48.229  37.423  28.014  1.00  0.00    -0.744 OA
ENDBRANCH  68  69
ENDBRANCH  49  63
BRANCH  50  73
ATOM     73  C   UNL A   1      43.561  23.142  26.893  1.00  0.00    -0.014 A 
ATOM     74  C   UNL A   1      43.723  22.573  25.616  1.00  0.00     0.010 A 
ATOM     75  C   UNL A   1      43.041  22.347  27.931  1.00  0.00     0.010 A 
ATOM     76  C   UNL A   1      43.355  21.246  25.380  1.00  0.00     0.020 A 
ATOM     77  C   UNL A   1      42.700  21.010  27.705  1.00  0.00     0.020 A 
ATOM     78  C   UNL A   1      42.849  20.470  26.426  1.00  0.00     0.054 A 
BRANCH  78  79
ATOM     79  S   UNL A   1      42.423  18.737  26.103  1.00  0.00     0.124 S 
ATOM     80  O   UNL A   1      43.391  18.371  25.074  1.00  0.00    -0.237 OA
ATOM     81  O   UNL A   1      42.622  18.115  27.410  1.00  0.00    -0.237 OA
ATOM     82  O   UNL A   1      41.032  18.801  25.659  1.00  0.00    -0.744 OA
ENDBRANCH  78  79
ENDBRANCH  50  73
BRANCH  62  83
ATOM     83  C   UNL A   1      49.613  26.602  26.578  1.00  0.00    -0.014 A 
ATOM     84  C   UNL A   1      50.462  26.084  27.572  1.00  0.00     0.010 A 
ATOM     85  C   UNL A   1      50.070  26.660  25.248  1.00  0.00     0.010 A 
ATOM     86  C   UNL A   1      51.753  25.662  27.248  1.00  0.00     0.020 A 
ATOM     87  C   UNL A   1      51.349  26.210  24.914  1.00  0.00     0.020 A 
ATOM     88  C   UNL A   1      52.188  25.726  25.920  1.00  0.00     0.054 A 
BRANCH  88  89
ATOM     89  S   UNL A   1      53.852  25.128  25.519  1.00  0.00     0.124 S 
ATOM     90  O   UNL A   1      54.380  26.219  24.707  1.00  0.00    -0.237 OA
ATOM     91  O   UNL A   1      54.462  24.973  26.837  1.00  0.00    -0.237 OA
ATOM     92  O   UNL A   1      53.608  23.878  24.803  1.00  0.00    -0.744 OA
ENDBRANCH  88  89
ENDBRANCH  62  83
ENDBRANCH  36  37
ENDBRANCH  28  31
ENDBRANCH  26  27
ENDBRANCH   1  26
TORSDOF 17
ENDMDL
MODEL 3
REMARK VINA RESULT:     -10.9      2.801      4.573
REMARK SMILES CC[NH2+][C@@]1(C(=O)NCCCNC(=O)c2ccc(-c3c4nc(c(-c5ccc(S(=O)(=O)[O-])cc5)c5ccc([nH]5)c(-c5ccc(S(=O)(=O)[O-])cc5)c5nc(c(-c6ccc(S(=O)(=O)[O-])cc6)c6ccc3[nH]6)C=C5)C=C4)cc2)CCC[C@@H](Sc2ncc(C)cn2)C1
REMARK SMILES IDX 9 1 8 2 7 3 5 4 6 5 4 7 74 8 86 9 75 10 77 11 76 12 3 13
REMARK SMILES IDX 2 16 1 17 78 18 79 19 80 20 85 21 81 22 84 23 82 24 83 25
REMARK SMILES IDX 10 26 11 27 12 28 13 30 14 31 15 32 73 33 16 34 72 35 17 36
REMARK SMILES IDX 18 37 19 38 66 39 20 40 71 41 65 42 67 43 21 44 70 45 64 46
REMARK SMILES IDX 63 47 22 49 52 50 33 51 51 52 34 53 37 54 50 55 68 56 35 57
REMARK SMILES IDX 36 58 49 60 69 61 38 62 23 63 24 64 32 65 25 66 31 67 26 68
REMARK SMILES IDX 27 69 28 70 29 71 30 72 53 73 54 74 62 75 55 76 61 77 56 78
REMARK SMILES IDX 57 79 58 80 59 81 60 82 39 83 40 84 48 85 41 86 47 87 42 88
REMARK SMILES IDX 43 89 44 90 45 91 46 92
REMARK H PARENT 7 6 3 14 3 15 11 29 67 48 37 59
REMARK Flexibility Score: inf
ROOT
ATOM      1  C   UNL A   1      33.647  28.957  27.262  1.00  0.00     0.042 C 
ENDROOT
BRANCH   1   2
ATOM      2  C   UNL A   1      32.967  29.814  26.200  1.00  0.00     0.118 C 
BRANCH   2   3
ATOM      3  N   UNL A   1      33.583  29.677  24.898  1.00  0.00    -0.351 N 
ATOM      4  C   UNL A   1      33.231  29.126  23.715  1.00  0.00     0.281 C 
ATOM      5  O   UNL A   1      34.077  29.319  22.820  1.00  0.00    -0.268 OA
ATOM      6  H   UNL A   1      34.477  30.087  24.866  1.00  0.00     0.163 HD
BRANCH   4   7
ATOM      7  C   UNL A   1      31.916  28.288  23.354  1.00  0.00     0.176 C 
ATOM      8  C   UNL A   1      30.941  28.057  24.531  1.00  0.00     0.079 C 
ATOM      9  C   UNL A   1      32.260  26.978  22.616  1.00  0.00     0.094 C 
ATOM     10  C   UNL A   1      31.044  26.759  25.334  1.00  0.00     0.008 C 
ATOM     11  C   UNL A   1      32.586  25.808  23.532  1.00  0.00     0.061 C 
ATOM     12  C   UNL A   1      31.482  25.525  24.547  1.00  0.00     0.015 C 
BRANCH   7  13
ATOM     13  N   UNL A   1      31.124  29.266  22.485  1.00  0.00    -0.334 N 
ATOM     14  H   UNL A   1      31.236  30.194  22.892  1.00  0.00     0.347 HD
ATOM     15  H   UNL A   1      31.510  29.147  21.548  1.00  0.00     0.347 HD
BRANCH  13  16
ATOM     16  C   UNL A   1      29.692  29.028  22.327  1.00  0.00     0.257 C 
ATOM     17  C   UNL A   1      29.038  30.218  21.637  1.00  0.00     0.071 C 
ENDBRANCH  13  16
ENDBRANCH   7  13
BRANCH  11  18
ATOM     18  S   UNL A   1      33.169  24.333  22.608  1.00  0.00    -0.083 SA
BRANCH  18  19
ATOM     19  C   UNL A   1      34.644  23.946  23.499  1.00  0.00     0.187 A 
ATOM     20  N   UNL A   1      35.557  23.168  22.898  1.00  0.00    -0.231 NA
ATOM     21  N   UNL A   1      34.729  24.405  24.755  1.00  0.00    -0.231 NA
ATOM     22  C   UNL A   1      36.629  22.831  23.636  1.00  0.00     0.119 A 
ATOM     23  C   UNL A   1      35.828  24.054  25.442  1.00  0.00     0.119 A 
ATOM     24  C   UNL A   1      36.819  23.240  24.938  1.00  0.00    -0.014 A 
ATOM     25  C   UNL A   1      38.008  22.850  25.742  1.00  0.00     0.048 C 
ENDBRANCH  18  19
ENDBRANCH  11  18
ENDBRANCH   4   7
ENDBRANCH   2   3
ENDBRANCH   1   2
BRANCH   1  26
ATOM     26  C   UNL A   1      35.080  29.366  27.552  1.00  0.00     0.118 C 
BRANCH  26  27
ATOM     27  N   UNL A   1      35.181  30.188  28.752  1.00  0.00    -0.352 N 
ATOM     28  C   UNL A   1      36.212  30.343  29.645  1.00  0.00     0.251 C 
ATOM     29  H   UNL A   1      34.377  30.718  28.956  1.00  0.00     0.163 HD
ATOM     30  O   UNL A   1      35.991  30.911  30.718  1.00  0.00    -0.269 OA
BRANCH  28  31
ATOM     31  C   UNL A   1      37.568  29.832  29.348  1.00  0.00     0.039 A 
ATOM     32  C   UNL A   1      38.034  29.853  28.030  1.00  0.00     0.014 A 
ATOM     33  C   UNL A   1      38.376  29.304  30.356  1.00  0.00     0.014 A 
ATOM     34  C   UNL A   1      39.330  29.415  27.741  1.00  0.00     0.010 A 
ATOM     35  C   UNL A   1      39.701  28.981  30.089  1.00  0.00     0.010 A 
ATOM     36  C   UNL A   1      40.190  29.017  28.776  1.00  0.00    -0.014 A 
BRANCH  36  37
ATOM     37  C   UNL A   1      41.597  28.611  28.521  1.00  0.00     0.031 A 
ATOM     38  C   UNL A   1      42.692  29.647  28.544  1.00  0.00     0.074 A 
ATOM     39  C   UNL A   1      41.876  27.336  28.188  1.00  0.00     0.049 A 
ATOM     40  N   UNL A   1      43.958  29.518  28.241  1.00  0.00    -0.248 NA
ATOM     41  C   UNL A   1      42.307  31.018  28.925  1.00  0.00     0.031 C 
ATOM     42  C   UNL A   1      40.896  26.250  28.088  1.00  0.00     0.029 A 
ATOM     43  N   UNL A   1      43.066  26.735  27.859  1.00  0.00    -0.354 N 
ATOM     44  C   UNL A   1      44.509  30.788  28.366  1.00  0.00     0.074 A 
ATOM     45  C   UNL A   1      43.431  31.685  28.717  1.00  0.00     0.031 C 
ATOM     46  C   UNL A   1      41.529  25.114  27.754  1.00  0.00     0.029 A 
ATOM     47  C   UNL A   1      42.947  25.398  27.564  1.00  0.00     0.049 A 
ATOM     48  H   UNL A   1      43.924  27.218  27.837  1.00  0.00     0.167 HD
ATOM     49  C   UNL A   1      45.801  31.172  28.223  1.00  0.00     0.031 A 
ATOM     50  C   UNL A   1      43.872  24.501  27.168  1.00  0.00     0.031 A 
ATOM     51  C   UNL A   1      46.870  30.269  27.894  1.00  0.00     0.049 A 
ATOM     52  C   UNL A   1      45.298  24.954  27.006  1.00  0.00     0.074 A 
ATOM     53  C   UNL A   1      48.223  30.541  27.790  1.00  0.00     0.029 A 
ATOM     54  N   UNL A   1      46.709  28.920  27.616  1.00  0.00    -0.354 N 
ATOM     55  N   UNL A   1      45.812  26.146  27.197  1.00  0.00    -0.248 NA
ATOM     56  C   UNL A   1      46.271  23.938  26.581  1.00  0.00     0.031 C 
ATOM     57  C   UNL A   1      48.872  29.369  27.390  1.00  0.00     0.029 A 
ATOM     58  C   UNL A   1      47.933  28.352  27.309  1.00  0.00     0.049 A 
ATOM     59  H   UNL A   1      45.851  28.439  27.633  1.00  0.00     0.167 HD
ATOM     60  C   UNL A   1      47.171  26.019  26.935  1.00  0.00     0.074 A 
ATOM     61  C   UNL A   1      47.403  24.629  26.595  1.00  0.00     0.031 C 
ATOM     62  C   UNL A   1      48.141  26.966  26.967  1.00  0.00     0.031 A 
BRANCH  49  63
ATOM     63  C   UNL A   1      46.123  32.631  28.421  1.00  0.00    -0.014 A 
ATOM     64  C   UNL A   1      46.249  33.506  27.326  1.00  0.00     0.010 A 
ATOM     65  C   UNL A   1      46.265  33.145  29.723  1.00  0.00     0.010 A 
ATOM     66  C   UNL A   1      46.555  34.854  27.526  1.00  0.00     0.020 A 
ATOM     67  C   UNL A   1      46.539  34.501  29.930  1.00  0.00     0.020 A 
ATOM     68  C   UNL A   1      46.699  35.344  28.828  1.00  0.00     0.054 A 
BRANCH  68  69
ATOM     69  S   UNL A   1      47.069  37.104  29.056  1.00  0.00     0.124 S 
ATOM     70  O   UNL A   1      48.038  37.069  30.148  1.00  0.00    -0.237 OA
ATOM     71  O   UNL A   1      47.605  37.490  27.754  1.00  0.00    -0.237 OA
ATOM     72  O   UNL A   1      45.774  37.692  29.391  1.00  0.00    -0.744 OA
ENDBRANCH  68  69
ENDBRANCH  49  63
BRANCH  50  73
ATOM     73  C   UNL A   1      43.479  23.089  26.905  1.00  0.00    -0.014 A 
ATOM     74  C   UNL A   1      43.674  22.520  25.633  1.00  0.00     0.010 A 
ATOM     75  C   UNL A   1      42.923  22.298  27.927  1.00  0.00     0.010 A 
ATOM     76  C   UNL A   1      43.302  21.195  25.385  1.00  0.00     0.020 A 
ATOM     77  C   UNL A   1      42.579  20.964  27.690  1.00  0.00     0.020 A 
ATOM     78  C   UNL A   1      42.760  20.423  26.416  1.00  0.00     0.054 A 
BRANCH  78  79
ATOM     79  S   UNL A   1      42.330  18.694  26.079  1.00  0.00     0.124 S 
ATOM     80  O   UNL A   1      42.601  18.056  27.364  1.00  0.00    -0.237 OA
ATOM     81  O   UNL A   1      40.921  18.786  25.704  1.00  0.00    -0.237 OA
ATOM     82  O   UNL A   1      43.233  18.319  24.992  1.00  0.00    -0.744 OA
ENDBRANCH  78  79
ENDBRANCH  50  73
BRANCH  62  83
ATOM     83  C   UNL A   1      49.545  26.530  26.648  1.00  0.00    -0.014 A 
ATOM     84  C   UNL A   1      50.391  26.016  27.646  1.00  0.00     0.010 A 
ATOM     85  C   UNL A   1      50.004  26.581  25.319  1.00  0.00     0.010 A 
ATOM     86  C   UNL A   1      51.683  25.592  27.327  1.00  0.00     0.020 A 
ATOM     87  C   UNL A   1      51.284  26.128  24.990  1.00  0.00     0.020 A 
ATOM     88  C   UNL A   1      52.120  25.648  26.000  1.00  0.00     0.054 A 
BRANCH  88  89
ATOM     89  S   UNL A   1      53.784  25.047  25.605  1.00  0.00     0.124 S 
ATOM     90  O   UNL A   1      54.499  25.285  26.855  1.00  0.00    -0.237 OA
ATOM     91  O   UNL A   1      53.547  23.644  25.274  1.00  0.00    -0.237 OA
ATOM     92  O   UNL A   1      54.198  25.883  24.481  1.00  0.00    -0.744 OA
ENDBRANCH  88  89
ENDBRANCH  62  83
ENDBRANCH  36  37
ENDBRANCH  28  31
ENDBRANCH  26  27
ENDBRANCH   1  26
TORSDOF 17
ENDMDL
