MODEL 1
REMARK VINA RESULT:     -12.4      0.000      0.000
REMARK SMILES CC1(C)CCC[C@@H]1NC(=O)NC1(CC(=O)NCCCNC(=O)c2ccc(-c3c4nc(c(-c5ccc(S(=O)(=O)[O-])cc5)c5ccc([nH]5)c(-c5ccc(S(=O)(=O)[O-])cc5)c5nc(c(-c6ccc(S(=O)(=O)[O-])cc6)c6ccc3[nH]6)C=C5)C=C4)cc2)CCCCC1
REMARK SMILES IDX 18 1 17 2 16 3 14 4 15 5 13 7 12 8 83 9 87 10 84 11 86 12
REMARK SMILES IDX 85 13 11 14 8 15 9 16 10 18 7 20 1 21 2 22 3 23 4 24 5 25
REMARK SMILES IDX 6 26 19 27 20 28 21 29 22 31 23 32 24 33 82 34 25 35 81 36
REMARK SMILES IDX 26 37 27 38 28 39 75 40 29 41 80 42 74 43 76 44 30 45 79 46
REMARK SMILES IDX 73 47 72 48 31 50 61 51 42 52 60 53 43 54 46 55 59 56 77 57
REMARK SMILES IDX 44 58 45 59 58 61 78 62 47 63 32 64 33 65 41 66 34 67 40 68
REMARK SMILES IDX 35 69 36 70 37 71 38 72 39 73 62 74 63 75 71 76 64 77 70 78
REMARK SMILES IDX 65 79 66 80 67 81 68 82 69 83 48 84 49 85 57 86 50 87 56 88
REMARK SMILES IDX 51 89 52 90 53 91 54 92 55 93
REMARK H PARENT 16 6 8 17 11 19 20 30 76 49 46 60
REMARK Flexibility Score: inf
ROOT
ATOM      1  C   UNL A   1      33.895  28.938  27.266  1.00  0.00     0.042 C 
ENDROOT
BRANCH   1   2
ATOM      2  C   UNL A   1      33.087  29.826  26.317  1.00  0.00     0.117 C 
BRANCH   2   3
ATOM      3  N   UNL A   1      33.563  29.679  24.951  1.00  0.00    -0.356 N 
ATOM      4  C   UNL A   1      33.223  28.791  23.974  1.00  0.00     0.222 C 
ATOM      5  O   UNL A   1      33.939  28.750  22.969  1.00  0.00    -0.275 OA
ATOM      6  H   UNL A   1      34.250  30.333  24.686  1.00  0.00     0.163 HD
BRANCH   4   7
ATOM      7  C   UNL A   1      31.971  27.928  24.044  1.00  0.00     0.128 C 
BRANCH   7   8
ATOM      8  C   UNL A   1      31.144  27.691  22.723  1.00  0.00     0.051 C 
ATOM      9  C   UNL A   1      30.714  29.093  22.220  1.00  0.00     0.029 C 
ATOM     10  C   UNL A   1      29.961  26.782  23.075  1.00  0.00     0.029 C 
ATOM     11  C   UNL A   1      29.496  29.697  22.913  1.00  0.00     0.002 C 
ATOM     12  C   UNL A   1      28.789  27.453  23.776  1.00  0.00     0.002 C 
ATOM     13  C   UNL A   1      28.341  28.719  23.073  1.00  0.00     0.000 C 
BRANCH   8  14
ATOM     14  N   UNL A   1      31.986  27.055  21.675  1.00  0.00    -0.332 N 
ATOM     15  N   UNL A   1      32.726  24.862  22.318  1.00  0.00    -0.335 N 
ATOM     16  C   UNL A   1      32.634  25.899  21.475  1.00  0.00     0.315 C 
ATOM     17  H   UNL A   1      33.256  24.130  21.928  1.00  0.00     0.165 HD
ATOM     18  O   UNL A   1      33.211  25.773  20.388  1.00  0.00    -0.249 OA
ATOM     19  H   UNL A   1      32.098  27.658  20.905  1.00  0.00     0.165 HD
BRANCH  15  20
ATOM     20  C   UNL A   1      32.256  24.525  23.648  1.00  0.00     0.089 C 
ATOM     21  C   UNL A   1      34.300  25.213  25.072  1.00  0.00     0.013 C 
ATOM     22  C   UNL A   1      33.344  24.086  24.666  1.00  0.00    -0.015 C 
ATOM     23  C   UNL A   1      34.191  22.882  24.204  1.00  0.00     0.013 C 
ATOM     24  C   UNL A   1      32.446  23.661  25.846  1.00  0.00     0.008 C 
ATOM     25  C   UNL A   1      31.199  23.031  25.207  1.00  0.00     0.003 C 
ATOM     26  C   UNL A   1      31.256  23.369  23.713  1.00  0.00     0.025 C 
ENDBRANCH  15  20
ENDBRANCH   8  14
ENDBRANCH   7   8
ENDBRANCH   4   7
ENDBRANCH   2   3
ENDBRANCH   1   2
BRANCH   1  27
ATOM     27  C   UNL A   1      35.252  29.489  27.642  1.00  0.00     0.118 C 
BRANCH  27  28
ATOM     28  N   UNL A   1      35.288  29.950  29.017  1.00  0.00    -0.352 N 
ATOM     29  C   UNL A   1      36.310  29.884  29.935  1.00  0.00     0.251 C 
ATOM     30  H   UNL A   1      34.460  30.373  29.340  1.00  0.00     0.163 HD
ATOM     31  O   UNL A   1      36.065  30.125  31.113  1.00  0.00    -0.269 OA
BRANCH  29  32
ATOM     32  C   UNL A   1      37.689  29.510  29.523  1.00  0.00     0.039 A 
ATOM     33  C   UNL A   1      38.547  28.947  30.473  1.00  0.00     0.014 A 
ATOM     34  C   UNL A   1      38.159  29.742  28.228  1.00  0.00     0.014 A 
ATOM     35  C   UNL A   1      39.851  28.594  30.115  1.00  0.00     0.010 A 
ATOM     36  C   UNL A   1      39.414  29.281  27.842  1.00  0.00     0.010 A 
ATOM     37  C   UNL A   1      40.290  28.739  28.789  1.00  0.00    -0.014 A 
BRANCH  37  38
ATOM     38  C   UNL A   1      41.680  28.397  28.390  1.00  0.00     0.031 A 
ATOM     39  C   UNL A   1      42.737  29.474  28.358  1.00  0.00     0.074 A 
ATOM     40  C   UNL A   1      41.984  27.137  28.017  1.00  0.00     0.049 A 
ATOM     41  N   UNL A   1      43.993  29.388  28.002  1.00  0.00    -0.248 NA
ATOM     42  C   UNL A   1      42.321  30.833  28.747  1.00  0.00     0.031 C 
ATOM     43  C   UNL A   1      41.039  26.018  27.960  1.00  0.00     0.029 A 
ATOM     44  N   UNL A   1      43.173  26.586  27.615  1.00  0.00    -0.354 N 
ATOM     45  C   UNL A   1      44.505  30.678  28.102  1.00  0.00     0.074 A 
ATOM     46  C   UNL A   1      43.411  31.538  28.491  1.00  0.00     0.031 C 
ATOM     47  C   UNL A   1      41.695  24.908  27.587  1.00  0.00     0.029 A 
ATOM     48  C   UNL A   1      43.093  25.242  27.336  1.00  0.00     0.049 A 
ATOM     49  H   UNL A   1      44.007  27.104  27.533  1.00  0.00     0.167 HD
ATOM     50  C   UNL A   1      45.776  31.107  27.915  1.00  0.00     0.031 A 
ATOM     51  C   UNL A   1      44.039  24.375  26.924  1.00  0.00     0.031 A 
ATOM     52  C   UNL A   1      46.865  30.241  27.553  1.00  0.00     0.049 A 
ATOM     53  C   UNL A   1      45.447  24.872  26.730  1.00  0.00     0.074 A 
ATOM     54  C   UNL A   1      48.203  30.560  27.397  1.00  0.00     0.029 A 
ATOM     55  N   UNL A   1      46.743  28.884  27.293  1.00  0.00    -0.354 N 
ATOM     56  N   UNL A   1      45.923  26.083  26.894  1.00  0.00    -0.248 NA
ATOM     57  C   UNL A   1      46.447  23.881  26.311  1.00  0.00     0.031 C 
ATOM     58  C   UNL A   1      48.881  29.406  26.993  1.00  0.00     0.029 A 
ATOM     59  C   UNL A   1      47.977  28.355  26.959  1.00  0.00     0.049 A 
ATOM     60  H   UNL A   1      45.903  28.374  27.341  1.00  0.00     0.167 HD
ATOM     61  C   UNL A   1      47.284  25.994  26.625  1.00  0.00     0.074 A 
ATOM     62  C   UNL A   1      47.556  24.608  26.305  1.00  0.00     0.031 C 
ATOM     63  C   UNL A   1      48.225  26.971  26.643  1.00  0.00     0.031 A 
BRANCH  50  64
ATOM     64  C   UNL A   1      46.051  32.577  28.101  1.00  0.00    -0.014 A 
ATOM     65  C   UNL A   1      45.907  33.486  27.037  1.00  0.00     0.010 A 
ATOM     66  C   UNL A   1      46.430  33.064  29.365  1.00  0.00     0.010 A 
ATOM     67  C   UNL A   1      46.181  34.844  27.220  1.00  0.00     0.020 A 
ATOM     68  C   UNL A   1      46.674  34.427  29.562  1.00  0.00     0.020 A 
ATOM     69  C   UNL A   1      46.566  35.306  28.482  1.00  0.00     0.054 A 
BRANCH  69  70
ATOM     70  S   UNL A   1      46.893  37.077  28.695  1.00  0.00     0.124 S 
ATOM     71  O   UNL A   1      48.137  37.245  27.947  1.00  0.00    -0.237 OA
ATOM     72  O   UNL A   1      45.713  37.695  28.096  1.00  0.00    -0.237 OA
ATOM     73  O   UNL A   1      47.010  37.237  30.142  1.00  0.00    -0.744 OA
ENDBRANCH  69  70
ENDBRANCH  50  64
BRANCH  51  74
ATOM     74  C   UNL A   1      43.690  22.946  26.695  1.00  0.00    -0.014 A 
ATOM     75  C   UNL A   1      44.063  22.300  25.503  1.00  0.00     0.010 A 
ATOM     76  C   UNL A   1      42.997  22.216  27.678  1.00  0.00     0.010 A 
ATOM     77  C   UNL A   1      43.735  20.958  25.290  1.00  0.00     0.020 A 
ATOM     78  C   UNL A   1      42.692  20.866  27.481  1.00  0.00     0.020 A 
ATOM     79  C   UNL A   1      43.053  20.248  26.282  1.00  0.00     0.054 A 
BRANCH  79  80
ATOM     80  S   UNL A   1      42.684  18.493  26.006  1.00  0.00     0.124 S 
ATOM     81  O   UNL A   1      41.258  18.526  25.699  1.00  0.00    -0.237 OA
ATOM     82  O   UNL A   1      43.565  18.157  24.889  1.00  0.00    -0.237 OA
ATOM     83  O   UNL A   1      43.039  17.865  27.277  1.00  0.00    -0.744 OA
ENDBRANCH  79  80
ENDBRANCH  51  74
BRANCH  63  84
ATOM     84  C   UNL A   1      49.644  26.568  26.343  1.00  0.00    -0.014 A 
ATOM     85  C   UNL A   1      50.449  25.948  27.314  1.00  0.00     0.010 A 
ATOM     86  C   UNL A   1      50.161  26.770  25.049  1.00  0.00     0.010 A 
ATOM     87  C   UNL A   1      51.758  25.568  27.007  1.00  0.00     0.020 A 
ATOM     88  C   UNL A   1      51.458  26.364  24.730  1.00  0.00     0.020 A 
ATOM     89  C   UNL A   1      52.254  25.779  25.717  1.00  0.00     0.054 A 
BRANCH  89  90
ATOM     90  S   UNL A   1      53.944  25.244  25.332  1.00  0.00     0.124 S 
ATOM     91  O   UNL A   1      54.146  25.811  24.002  1.00  0.00    -0.237 OA
ATOM     92  O   UNL A   1      54.725  25.857  26.404  1.00  0.00    -0.237 OA
ATOM     93  O   UNL A   1      53.864  23.785  25.384  1.00  0.00    -0.744 OA
ENDBRANCH  89  90
ENDBRANCH  63  84
ENDBRANCH  37  38
ENDBRANCH  29  32
ENDBRANCH  27  28
ENDBRANCH   1  27
TORSDOF 16
ENDMDL
MODEL 2
REMARK VINA RESULT:     -12.4      2.177      8.837
REMARK SMILES CC1(C)CCC[C@@H]1NC(=O)NC1(CC(=O)NCCCNC(=O)c2ccc(-c3c4nc(c(-c5ccc(S(=O)(=O)[O-])cc5)c5ccc([nH]5)c(-c5ccc(S(=O)(=O)[O-])cc5)c5nc(c(-c6ccc(S(=O)(=O)[O-])cc6)c6ccc3[nH]6)C=C5)C=C4)cc2)CCCCC1
REMARK SMILES IDX 18 1 17 2 16 3 14 4 15 5 13 7 12 8 83 9 87 10 84 11 86 12
REMARK SMILES IDX 85 13 11 14 8 15 9 16 10 18 7 20 1 21 2 22 3 23 4 24 5 25
REMARK SMILES IDX 6 26 19 27 20 28 21 29 22 31 23 32 24 33 82 34 25 35 81 36
REMARK SMILES IDX 26 37 27 38 28 39 75 40 29 41 80 42 74 43 76 44 30 45 79 46
REMARK SMILES IDX 73 47 72 48 31 50 61 51 42 52 60 53 43 54 46 55 59 56 77 57
REMARK SMILES IDX 44 58 45 59 58 61 78 62 47 63 32 64 33 65 41 66 34 67 40 68
REMARK SMILES IDX 35 69 36 70 37 71 38 72 39 73 62 74 63 75 71 76 64 77 70 78
REMARK SMILES IDX 65 79 66 80 67 81 68 82 69 83 48 84 49 85 57 86 50 87 56 88
REMARK SMILES IDX 51 89 52 90 53 91 54 92 55 93
REMARK H PARENT 16 6 8 17 11 19 20 30 76 49 46 60
REMARK Flexibility Score: inf
ROOT
ATOM      1  C   UNL A   1      38.111  19.803  24.999  1.00  0.00     0.042 C 
ENDROOT
BRANCH   1   2
ATOM      2  C   UNL A   1      36.827  20.635  25.026  1.00  0.00     0.117 C 
BRANCH   2   3
ATOM      3  N   UNL A   1      36.984  21.841  24.229  1.00  0.00    -0.356 N 
ATOM      4  C   UNL A   1      36.082  22.557  23.501  1.00  0.00     0.222 C 
ATOM      5  O   UNL A   1      36.524  23.422  22.739  1.00  0.00    -0.275 OA
ATOM      6  H   UNL A   1      37.899  22.202  24.212  1.00  0.00     0.163 HD
BRANCH   4   7
ATOM      7  C   UNL A   1      34.576  22.386  23.654  1.00  0.00     0.128 C 
BRANCH   7   8
ATOM      8  C   UNL A   1      33.696  23.664  23.929  1.00  0.00     0.051 C 
ATOM      9  C   UNL A   1      34.349  24.392  25.132  1.00  0.00     0.029 C 
ATOM     10  C   UNL A   1      32.266  23.190  24.208  1.00  0.00     0.029 C 
ATOM     11  C   UNL A   1      34.012  23.824  26.508  1.00  0.00     0.002 C 
ATOM     12  C   UNL A   1      32.009  22.623  25.597  1.00  0.00     0.002 C 
ATOM     13  C   UNL A   1      32.532  23.528  26.696  1.00  0.00     0.000 C 
BRANCH   8  14
ATOM     14  N   UNL A   1      33.713  24.584  22.760  1.00  0.00    -0.332 N 
ATOM     15  N   UNL A   1      33.081  26.821  23.362  1.00  0.00    -0.335 N 
ATOM     16  C   UNL A   1      33.479  25.878  22.499  1.00  0.00     0.315 C 
ATOM     17  H   UNL A   1      32.987  27.695  22.919  1.00  0.00     0.165 HD
ATOM     18  O   UNL A   1      33.653  26.244  21.331  1.00  0.00    -0.249 OA
ATOM     19  H   UNL A   1      33.969  24.102  21.941  1.00  0.00     0.165 HD
BRANCH  15  20
ATOM     20  C   UNL A   1      32.753  26.907  24.772  1.00  0.00     0.089 C 
ATOM     21  C   UNL A   1      30.253  26.252  24.727  1.00  0.00     0.013 C 
ATOM     22  C   UNL A   1      31.292  27.312  25.110  1.00  0.00    -0.015 C 
ATOM     23  C   UNL A   1      30.853  28.657  24.497  1.00  0.00     0.013 C 
ATOM     24  C   UNL A   1      31.404  27.457  26.642  1.00  0.00     0.008 C 
ATOM     25  C   UNL A   1      32.807  28.029  26.898  1.00  0.00     0.003 C 
ATOM     26  C   UNL A   1      33.571  27.921  25.573  1.00  0.00     0.025 C 
ENDBRANCH  15  20
ENDBRANCH   8  14
ENDBRANCH   7   8
ENDBRANCH   4   7
ENDBRANCH   2   3
ENDBRANCH   1   2
BRANCH   1  27
ATOM     27  C   UNL A   1      39.255  20.382  25.800  1.00  0.00     0.118 C 
BRANCH  27  28
ATOM     28  N   UNL A   1      40.330  19.426  25.980  1.00  0.00    -0.352 N 
ATOM     29  C   UNL A   1      41.678  19.647  26.144  1.00  0.00     0.251 C 
ATOM     30  H   UNL A   1      40.055  18.481  25.987  1.00  0.00     0.163 HD
ATOM     31  O   UNL A   1      42.449  18.696  26.052  1.00  0.00    -0.269 OA
BRANCH  29  32
ATOM     32  C   UNL A   1      42.206  21.011  26.408  1.00  0.00     0.039 A 
ATOM     33  C   UNL A   1      42.417  21.406  27.733  1.00  0.00     0.014 A 
ATOM     34  C   UNL A   1      42.457  21.917  25.375  1.00  0.00     0.014 A 
ATOM     35  C   UNL A   1      42.904  22.687  28.011  1.00  0.00     0.010 A 
ATOM     36  C   UNL A   1      43.053  23.145  25.645  1.00  0.00     0.010 A 
ATOM     37  C   UNL A   1      43.246  23.561  26.967  1.00  0.00    -0.014 A 
BRANCH  37  38
ATOM     38  C   UNL A   1      43.740  24.937  27.236  1.00  0.00     0.031 A 
ATOM     39  C   UNL A   1      45.196  25.267  27.014  1.00  0.00     0.074 A 
ATOM     40  C   UNL A   1      42.898  25.873  27.716  1.00  0.00     0.049 A 
ATOM     41  N   UNL A   1      45.829  26.393  27.225  1.00  0.00    -0.248 NA
ATOM     42  C   UNL A   1      46.062  24.183  26.518  1.00  0.00     0.031 C 
ATOM     43  C   UNL A   1      41.479  25.665  28.017  1.00  0.00     0.029 A 
ATOM     44  N   UNL A   1      43.113  27.190  28.036  1.00  0.00    -0.354 N 
ATOM     45  C   UNL A   1      47.161  26.143  26.912  1.00  0.00     0.074 A 
ATOM     46  C   UNL A   1      47.258  24.746  26.558  1.00  0.00     0.031 C 
ATOM     47  C   UNL A   1      40.944  26.821  28.439  1.00  0.00     0.029 A 
ATOM     48  C   UNL A   1      41.986  27.841  28.480  1.00  0.00     0.049 A 
ATOM     49  H   UNL A   1      43.991  27.627  27.956  1.00  0.00     0.167 HD
ATOM     50  C   UNL A   1      48.207  27.003  26.894  1.00  0.00     0.031 A 
ATOM     51  C   UNL A   1      41.812  29.118  28.875  1.00  0.00     0.031 A 
ATOM     52  C   UNL A   1      48.100  28.398  27.223  1.00  0.00     0.049 A 
ATOM     53  C   UNL A   1      42.986  30.058  28.840  1.00  0.00     0.074 A 
ATOM     54  C   UNL A   1      49.083  29.371  27.180  1.00  0.00     0.029 A 
ATOM     55  N   UNL A   1      46.938  29.020  27.654  1.00  0.00    -0.354 N 
ATOM     56  N   UNL A   1      44.224  29.817  28.478  1.00  0.00    -0.248 NA
ATOM     57  C   UNL A   1      42.736  31.446  29.251  1.00  0.00     0.031 C 
ATOM     58  C   UNL A   1      48.527  30.572  27.634  1.00  0.00     0.029 A 
ATOM     59  C   UNL A   1      47.183  30.359  27.900  1.00  0.00     0.049 A 
ATOM     60  H   UNL A   1      46.067  28.574  27.768  1.00  0.00     0.167 HD
ATOM     61  C   UNL A   1      44.894  31.030  28.591  1.00  0.00     0.074 A 
ATOM     62  C   UNL A   1      43.920  32.004  29.038  1.00  0.00     0.031 C 
ATOM     63  C   UNL A   1      46.198  31.313  28.346  1.00  0.00     0.031 A 
BRANCH  50  64
ATOM     64  C   UNL A   1      49.556  26.454  26.503  1.00  0.00    -0.014 A 
ATOM     65  C   UNL A   1      50.020  26.535  25.177  1.00  0.00     0.010 A 
ATOM     66  C   UNL A   1      50.386  25.875  27.480  1.00  0.00     0.010 A 
ATOM     67  C   UNL A   1      51.266  26.007  24.827  1.00  0.00     0.020 A 
ATOM     68  C   UNL A   1      51.647  25.375  27.141  1.00  0.00     0.020 A 
ATOM     69  C   UNL A   1      52.071  25.428  25.811  1.00  0.00     0.054 A 
BRANCH  69  70
ATOM     70  S   UNL A   1      53.693  24.772  25.331  1.00  0.00     0.124 S 
ATOM     71  O   UNL A   1      54.471  24.973  26.551  1.00  0.00    -0.237 OA
ATOM     72  O   UNL A   1      53.391  23.382  25.002  1.00  0.00    -0.237 OA
ATOM     73  O   UNL A   1      54.084  25.608  24.199  1.00  0.00    -0.744 OA
ENDBRANCH  69  70
ENDBRANCH  50  64
BRANCH  51  74
ATOM     74  C   UNL A   1      40.467  29.585  29.312  1.00  0.00    -0.014 A 
ATOM     75  C   UNL A   1      40.136  29.638  30.678  1.00  0.00     0.010 A 
ATOM     76  C   UNL A   1      39.513  29.997  28.363  1.00  0.00     0.010 A 
ATOM     77  C   UNL A   1      38.872  30.076  31.085  1.00  0.00     0.020 A 
ATOM     78  C   UNL A   1      38.259  30.462  28.768  1.00  0.00     0.020 A 
ATOM     79  C   UNL A   1      37.942  30.489  30.127  1.00  0.00     0.054 A 
BRANCH  79  80
ATOM     80  S   UNL A   1      36.328  31.104  30.682  1.00  0.00     0.124 S 
ATOM     81  O   UNL A   1      35.551  31.079  29.447  1.00  0.00    -0.237 OA
ATOM     82  O   UNL A   1      35.945  30.118  31.692  1.00  0.00    -0.237 OA
ATOM     83  O   UNL A   1      36.631  32.433  31.208  1.00  0.00    -0.744 OA
ENDBRANCH  79  80
ENDBRANCH  51  74
BRANCH  63  84
ATOM     84  C   UNL A   1      46.639  32.742  28.519  1.00  0.00    -0.014 A 
ATOM     85  C   UNL A   1      46.550  33.667  27.466  1.00  0.00     0.010 A 
ATOM     86  C   UNL A   1      47.103  33.173  29.776  1.00  0.00     0.010 A 
ATOM     87  C   UNL A   1      46.950  34.992  27.656  1.00  0.00     0.020 A 
ATOM     88  C   UNL A   1      47.475  34.503  29.978  1.00  0.00     0.020 A 
ATOM     89  C   UNL A   1      47.411  35.402  28.912  1.00  0.00     0.054 A 
BRANCH  89  90
ATOM     90  S   UNL A   1      47.890  37.135  29.144  1.00  0.00     0.124 S 
ATOM     91  O   UNL A   1      46.790  37.647  29.957  1.00  0.00    -0.237 OA
ATOM     92  O   UNL A   1      49.177  37.024  29.824  1.00  0.00    -0.237 OA
ATOM     93  O   UNL A   1      47.955  37.661  27.781  1.00  0.00    -0.744 OA
ENDBRANCH  89  90
ENDBRANCH  63  84
ENDBRANCH  37  38
ENDBRANCH  29  32
ENDBRANCH  27  28
ENDBRANCH   1  27
TORSDOF 16
ENDMDL
MODEL 3
REMARK VINA RESULT:     -12.4      3.127      4.234
REMARK SMILES CC1(C)CCC[C@@H]1NC(=O)NC1(CC(=O)NCCCNC(=O)c2ccc(-c3c4nc(c(-c5ccc(S(=O)(=O)[O-])cc5)c5ccc([nH]5)c(-c5ccc(S(=O)(=O)[O-])cc5)c5nc(c(-c6ccc(S(=O)(=O)[O-])cc6)c6ccc3[nH]6)C=C5)C=C4)cc2)CCCCC1
REMARK SMILES IDX 18 1 17 2 16 3 14 4 15 5 13 7 12 8 83 9 87 10 84 11 86 12
REMARK SMILES IDX 85 13 11 14 8 15 9 16 10 18 7 20 1 21 2 22 3 23 4 24 5 25
REMARK SMILES IDX 6 26 19 27 20 28 21 29 22 31 23 32 24 33 82 34 25 35 81 36
REMARK SMILES IDX 26 37 27 38 28 39 75 40 29 41 80 42 74 43 76 44 30 45 79 46
REMARK SMILES IDX 73 47 72 48 31 50 61 51 42 52 60 53 43 54 46 55 59 56 77 57
REMARK SMILES IDX 44 58 45 59 58 61 78 62 47 63 32 64 33 65 41 66 34 67 40 68
REMARK SMILES IDX 35 69 36 70 37 71 38 72 39 73 62 74 63 75 71 76 64 77 70 78
REMARK SMILES IDX 65 79 66 80 67 81 68 82 69 83 48 84 49 85 57 86 50 87 56 88
REMARK SMILES IDX 51 89 52 90 53 91 54 92 55 93
REMARK H PARENT 16 6 8 17 11 19 20 30 76 49 46 60
REMARK Flexibility Score: inf
ROOT
ATOM      1  C   UNL A   1      33.662  28.181  25.377  1.00  0.00     0.042 C 
ENDROOT
BRANCH   1   2
ATOM      2  C   UNL A   1      32.303  28.585  24.802  1.00  0.00     0.117 C 
BRANCH   2   3
ATOM      3  N   UNL A   1      31.241  27.788  25.395  1.00  0.00    -0.356 N 
ATOM      4  C   UNL A   1      30.651  26.632  24.981  1.00  0.00     0.222 C 
ATOM      5  O   UNL A   1      29.620  26.280  25.562  1.00  0.00    -0.275 OA
ATOM      6  H   UNL A   1      30.886  28.147  26.240  1.00  0.00     0.163 HD
BRANCH   4   7
ATOM      7  C   UNL A   1      31.254  25.736  23.907  1.00  0.00     0.128 C 
BRANCH   7   8
ATOM      8  C   UNL A   1      31.773  24.307  24.321  1.00  0.00     0.051 C 
ATOM      9  C   UNL A   1      33.087  24.531  25.112  1.00  0.00     0.029 C 
ATOM     10  C   UNL A   1      31.968  23.495  23.035  1.00  0.00     0.029 C 
ATOM     11  C   UNL A   1      34.333  24.774  24.265  1.00  0.00     0.002 C 
ATOM     12  C   UNL A   1      33.226  23.802  22.237  1.00  0.00     0.002 C 
ATOM     13  C   UNL A   1      34.473  23.805  23.100  1.00  0.00     0.000 C 
BRANCH   8  14
ATOM     14  N   UNL A   1      30.799  23.625  25.215  1.00  0.00    -0.332 N 
ATOM     15  N   UNL A   1      31.641  21.533  26.040  1.00  0.00    -0.335 N 
ATOM     16  C   UNL A   1      30.721  22.500  25.940  1.00  0.00     0.315 C 
ATOM     17  H   UNL A   1      31.341  20.815  26.642  1.00  0.00     0.165 HD
ATOM     18  O   UNL A   1      29.684  22.338  26.594  1.00  0.00    -0.249 OA
ATOM     19  H   UNL A   1      29.973  24.154  25.298  1.00  0.00     0.165 HD
BRANCH  15  20
ATOM     20  C   UNL A   1      32.959  21.255  25.503  1.00  0.00     0.089 C 
ATOM     21  C   UNL A   1      32.361  19.683  23.541  1.00  0.00     0.013 C 
ATOM     22  C   UNL A   1      33.149  19.862  24.843  1.00  0.00    -0.015 C 
ATOM     23  C   UNL A   1      32.818  18.675  25.770  1.00  0.00     0.013 C 
ATOM     24  C   UNL A   1      34.669  19.900  24.577  1.00  0.00     0.008 C 
ATOM     25  C   UNL A   1      35.274  20.662  25.766  1.00  0.00     0.003 C 
ATOM     26  C   UNL A   1      34.101  21.299  26.520  1.00  0.00     0.025 C 
ENDBRANCH  15  20
ENDBRANCH   8  14
ENDBRANCH   7   8
ENDBRANCH   4   7
ENDBRANCH   2   3
ENDBRANCH   1   2
BRANCH   1  27
ATOM     27  C   UNL A   1      33.773  28.304  26.880  1.00  0.00     0.118 C 
BRANCH  27  28
ATOM     28  N   UNL A   1      33.580  29.670  27.327  1.00  0.00    -0.352 N 
ATOM     29  C   UNL A   1      34.419  30.478  28.059  1.00  0.00     0.251 C 
ATOM     30  H   UNL A   1      32.722  30.079  27.070  1.00  0.00     0.163 HD
ATOM     31  O   UNL A   1      33.976  31.522  28.528  1.00  0.00    -0.269 OA
BRANCH  29  32
ATOM     32  C   UNL A   1      35.835  30.095  28.298  1.00  0.00     0.039 A 
ATOM     33  C   UNL A   1      36.200  29.624  29.564  1.00  0.00     0.014 A 
ATOM     34  C   UNL A   1      36.813  30.231  27.310  1.00  0.00     0.014 A 
ATOM     35  C   UNL A   1      37.528  29.265  29.820  1.00  0.00     0.010 A 
ATOM     36  C   UNL A   1      38.105  29.763  27.528  1.00  0.00     0.010 A 
ATOM     37  C   UNL A   1      38.488  29.312  28.797  1.00  0.00    -0.014 A 
BRANCH  37  38
ATOM     38  C   UNL A   1      39.910  28.962  29.050  1.00  0.00     0.031 A 
ATOM     39  C   UNL A   1      40.836  29.986  29.660  1.00  0.00     0.074 A 
ATOM     40  C   UNL A   1      40.379  27.749  28.697  1.00  0.00     0.049 A 
ATOM     41  N   UNL A   1      42.114  29.891  29.924  1.00  0.00    -0.248 NA
ATOM     42  C   UNL A   1      40.258  31.301  29.990  1.00  0.00     0.031 C 
ATOM     43  C   UNL A   1      39.595  26.690  28.056  1.00  0.00     0.029 A 
ATOM     44  N   UNL A   1      41.630  27.202  28.827  1.00  0.00    -0.354 N 
ATOM     45  C   UNL A   1      42.492  31.133  30.424  1.00  0.00     0.074 A 
ATOM     46  C   UNL A   1      41.326  31.984  30.368  1.00  0.00     0.031 C 
ATOM     47  C   UNL A   1      40.373  25.609  27.887  1.00  0.00     0.029 A 
ATOM     48  C   UNL A   1      41.718  25.909  28.365  1.00  0.00     0.049 A 
ATOM     49  H   UNL A   1      42.394  27.688  29.214  1.00  0.00     0.167 HD
ATOM     50  C   UNL A   1      43.693  31.525  30.912  1.00  0.00     0.031 A 
ATOM     51  C   UNL A   1      42.765  25.061  28.330  1.00  0.00     0.031 A 
ATOM     52  C   UNL A   1      44.843  30.666  30.987  1.00  0.00     0.049 A 
ATOM     53  C   UNL A   1      44.089  25.515  28.884  1.00  0.00     0.074 A 
ATOM     54  C   UNL A   1      46.091  30.942  31.518  1.00  0.00     0.029 A 
ATOM     55  N   UNL A   1      44.885  29.360  30.521  1.00  0.00    -0.354 N 
ATOM     56  N   UNL A   1      44.406  26.673  29.413  1.00  0.00    -0.248 NA
ATOM     57  C   UNL A   1      45.189  24.543  28.852  1.00  0.00     0.031 C 
ATOM     58  C   UNL A   1      46.903  29.820  31.326  1.00  0.00     0.029 A 
ATOM     59  C   UNL A   1      46.143  28.824  30.733  1.00  0.00     0.049 A 
ATOM     60  H   UNL A   1      44.131  28.886  30.102  1.00  0.00     0.167 HD
ATOM     61  C   UNL A   1      45.737  26.559  29.801  1.00  0.00     0.074 A 
ATOM     62  C   UNL A   1      46.156  25.214  29.462  1.00  0.00     0.031 C 
ATOM     63  C   UNL A   1      46.539  27.482  30.387  1.00  0.00     0.031 A 
BRANCH  50  64
ATOM     64  C   UNL A   1      43.818  32.946  31.400  1.00  0.00    -0.014 A 
ATOM     65  C   UNL A   1      43.521  33.287  32.733  1.00  0.00     0.010 A 
ATOM     66  C   UNL A   1      44.268  33.951  30.525  1.00  0.00     0.010 A 
ATOM     67  C   UNL A   1      43.627  34.611  33.167  1.00  0.00     0.020 A 
ATOM     68  C   UNL A   1      44.407  35.271  30.964  1.00  0.00     0.020 A 
ATOM     69  C   UNL A   1      44.067  35.596  32.279  1.00  0.00     0.054 A 
BRANCH  69  70
ATOM     70  S   UNL A   1      44.216  37.302  32.878  1.00  0.00     0.124 S 
ATOM     71  O   UNL A   1      45.563  37.304  33.444  1.00  0.00    -0.237 OA
ATOM     72  O   UNL A   1      44.047  38.085  31.658  1.00  0.00    -0.237 OA
ATOM     73  O   UNL A   1      43.132  37.424  33.850  1.00  0.00    -0.744 OA
ENDBRANCH  69  70
ENDBRANCH  50  64
BRANCH  51  74
ATOM     74  C   UNL A   1      42.594  23.690  27.775  1.00  0.00    -0.014 A 
ATOM     75  C   UNL A   1      42.318  22.603  28.625  1.00  0.00     0.010 A 
ATOM     76  C   UNL A   1      42.688  23.465  26.390  1.00  0.00     0.010 A 
ATOM     77  C   UNL A   1      42.158  21.317  28.102  1.00  0.00     0.020 A 
ATOM     78  C   UNL A   1      42.501  22.185  25.860  1.00  0.00     0.020 A 
ATOM     79  C   UNL A   1      42.247  21.116  26.722  1.00  0.00     0.054 A 
BRANCH  79  80
ATOM     80  S   UNL A   1      41.984  19.447  26.061  1.00  0.00     0.124 S 
ATOM     81  O   UNL A   1      42.438  18.607  27.164  1.00  0.00    -0.237 OA
ATOM     82  O   UNL A   1      40.545  19.434  25.804  1.00  0.00    -0.237 OA
ATOM     83  O   UNL A   1      42.820  19.417  24.863  1.00  0.00    -0.744 OA
ENDBRANCH  79  80
ENDBRANCH  51  74
BRANCH  63  84
ATOM     84  C   UNL A   1      47.942  27.059  30.733  1.00  0.00    -0.014 A 
ATOM     85  C   UNL A   1      49.011  27.278  29.849  1.00  0.00     0.010 A 
ATOM     86  C   UNL A   1      48.197  26.478  31.990  1.00  0.00     0.010 A 
ATOM     87  C   UNL A   1      50.307  26.892  30.200  1.00  0.00     0.020 A 
ATOM     88  C   UNL A   1      49.495  26.118  32.356  1.00  0.00     0.020 A 
ATOM     89  C   UNL A   1      50.541  26.313  31.451  1.00  0.00     0.054 A 
BRANCH  89  90
ATOM     90  S   UNL A   1      52.237  25.854  31.898  1.00  0.00     0.124 S 
ATOM     91  O   UNL A   1      52.961  26.125  30.659  1.00  0.00    -0.237 OA
ATOM     92  O   UNL A   1      52.531  26.757  33.008  1.00  0.00    -0.237 OA
ATOM     93  O   UNL A   1      52.130  24.443  32.262  1.00  0.00    -0.744 OA
ENDBRANCH  89  90
ENDBRANCH  63  84
ENDBRANCH  37  38
ENDBRANCH  29  32
ENDBRANCH  27  28
ENDBRANCH   1  27
TORSDOF 16
ENDMDL
