MODEL 1
REMARK VINA RESULT:     -11.4      0.000      0.000
REMARK SMILES N#C[C@H]1CN(C(=O)N2CCNC(=O)[C@@H]2CC(=O)NCCCNC(=O)c2ccc(-c3c4nc(c(-c5ccc(S(=O)(=O)[O-])cc5)c5ccc([nH]5)c(-c5ccc(S(=O)(=O)[O-])cc5)c5nc(c(-c6ccc(S(=O)(=O)[O-])cc6)c6ccc3[nH]6)C=C5)C=C4)cc2)CCO1
REMARK SMILES IDX 19 1 18 2 16 3 17 4 15 6 14 7 8 8 9 9 10 10 12 11 11 12
REMARK SMILES IDX 13 13 6 15 7 16 5 17 3 18 4 19 87 20 86 21 85 22 2 23 1 24
REMARK SMILES IDX 20 25 21 26 22 27 23 28 24 30 25 31 26 32 84 33 27 34 83 35
REMARK SMILES IDX 28 36 29 37 30 38 77 39 31 40 82 41 76 42 78 43 32 44 81 45
REMARK SMILES IDX 75 46 74 47 33 49 63 50 44 51 62 52 45 53 48 54 61 55 79 56
REMARK SMILES IDX 46 57 47 58 60 60 80 61 49 62 34 63 35 64 43 65 36 66 42 67
REMARK SMILES IDX 37 68 38 69 39 70 40 71 41 72 64 73 65 74 73 75 66 76 72 77
REMARK SMILES IDX 67 78 68 79 69 80 70 81 71 82 50 83 51 84 59 85 52 86 58 87
REMARK SMILES IDX 53 88 54 89 55 90 56 91 57 92
REMARK H PARENT 18 5 11 14 22 29 78 48 48 59
REMARK Flexibility Score: inf
ROOT
ATOM      1  C   UNL A   1      33.231  29.658  26.662  1.00  0.00     0.117 C 
ENDROOT
BRANCH   1   2
ATOM      2  N   UNL A   1      33.412  29.721  25.222  1.00  0.00    -0.356 N 
ATOM      3  C   UNL A   1      32.841  28.977  24.237  1.00  0.00     0.222 C 
ATOM      4  O   UNL A   1      33.183  29.180  23.072  1.00  0.00    -0.275 OA
ATOM      5  H   UNL A   1      34.045  30.407  24.911  1.00  0.00     0.163 HD
BRANCH   3   6
ATOM      6  C   UNL A   1      31.743  28.002  24.568  1.00  0.00     0.135 C 
BRANCH   6   7
ATOM      7  C   UNL A   1      32.198  26.540  24.702  1.00  0.00     0.185 C 
ATOM      8  N   UNL A   1      32.316  25.809  23.424  1.00  0.00    -0.310 N 
ATOM      9  C   UNL A   1      31.062  25.581  22.716  1.00  0.00     0.143 C 
ATOM     10  C   UNL A   1      30.111  24.795  23.624  1.00  0.00     0.137 C 
ATOM     11  C   UNL A   1      31.162  25.866  25.617  1.00  0.00     0.243 C 
ATOM     12  N   UNL A   1      30.103  25.241  25.009  1.00  0.00    -0.353 N 
ATOM     13  O   UNL A   1      31.157  26.034  26.836  1.00  0.00    -0.273 OA
ATOM     14  H   UNL A   1      29.289  25.085  25.541  1.00  0.00     0.163 HD
BRANCH   8  15
ATOM     15  C   UNL A   1      33.488  25.373  22.849  1.00  0.00     0.320 C 
ATOM     16  O   UNL A   1      34.058  26.047  21.992  1.00  0.00    -0.248 OA
BRANCH  15  17
ATOM     17  N   UNL A   1      33.960  24.123  23.199  1.00  0.00    -0.319 N 
ATOM     18  C   UNL A   1      33.205  22.830  25.184  1.00  0.00     0.240 C 
ATOM     19  C   UNL A   1      34.304  23.727  24.574  1.00  0.00     0.169 C 
ATOM     20  O   UNL A   1      32.970  21.688  24.335  1.00  0.00    -0.360 OA
ATOM     21  C   UNL A   1      32.547  22.102  23.024  1.00  0.00     0.183 C 
ATOM     22  C   UNL A   1      33.621  22.971  22.351  1.00  0.00     0.150 C 
BRANCH  18  23
ATOM     23  C   UNL A   1      33.623  22.419  26.535  1.00  0.00     0.096 C 
ATOM     24  N   UNL A   1      33.998  22.018  27.558  1.00  0.00    -0.195 NA
ENDBRANCH  18  23
ENDBRANCH  15  17
ENDBRANCH   8  15
ENDBRANCH   6   7
ENDBRANCH   3   6
ENDBRANCH   1   2
BRANCH   1  25
ATOM     25  C   UNL A   1      34.522  29.244  27.360  1.00  0.00     0.042 C 
BRANCH  25  26
ATOM     26  C   UNL A   1      35.393  30.423  27.776  1.00  0.00     0.118 C 
BRANCH  26  27
ATOM     27  N   UNL A   1      35.369  30.645  29.213  1.00  0.00    -0.352 N 
ATOM     28  C   UNL A   1      36.273  30.265  30.173  1.00  0.00     0.251 C 
ATOM     29  H   UNL A   1      34.588  31.144  29.546  1.00  0.00     0.163 HD
ATOM     30  O   UNL A   1      35.966  30.350  31.359  1.00  0.00    -0.269 OA
BRANCH  28  31
ATOM     31  C   UNL A   1      37.597  29.740  29.780  1.00  0.00     0.039 A 
ATOM     32  C   UNL A   1      38.051  29.963  28.479  1.00  0.00     0.014 A 
ATOM     33  C   UNL A   1      38.387  29.023  30.686  1.00  0.00     0.014 A 
ATOM     34  C   UNL A   1      39.325  29.528  28.109  1.00  0.00     0.010 A 
ATOM     35  C   UNL A   1      39.688  28.670  30.342  1.00  0.00     0.010 A 
ATOM     36  C   UNL A   1      40.172  28.918  29.049  1.00  0.00    -0.014 A 
BRANCH  36  37
ATOM     37  C   UNL A   1      41.569  28.552  28.701  1.00  0.00     0.031 A 
ATOM     38  C   UNL A   1      42.652  29.598  28.696  1.00  0.00     0.074 A 
ATOM     39  C   UNL A   1      41.851  27.283  28.340  1.00  0.00     0.049 A 
ATOM     40  N   UNL A   1      43.912  29.474  28.371  1.00  0.00    -0.248 NA
ATOM     41  C   UNL A   1      42.267  30.965  29.087  1.00  0.00     0.031 C 
ATOM     42  C   UNL A   1      40.882  26.185  28.274  1.00  0.00     0.029 A 
ATOM     43  N   UNL A   1      43.033  26.700  27.957  1.00  0.00    -0.354 N 
ATOM     44  C   UNL A   1      44.469  30.739  28.514  1.00  0.00     0.074 A 
ATOM     45  C   UNL A   1      43.396  31.631  28.899  1.00  0.00     0.031 C 
ATOM     46  C   UNL A   1      41.515  25.059  27.909  1.00  0.00     0.029 A 
ATOM     47  C   UNL A   1      42.919  25.361  27.659  1.00  0.00     0.049 A 
ATOM     48  H   UNL A   1      43.884  27.194  27.900  1.00  0.00     0.167 HD
ATOM     49  C   UNL A   1      45.759  31.121  28.360  1.00  0.00     0.031 A 
ATOM     50  C   UNL A   1      43.837  24.478  27.219  1.00  0.00     0.031 A 
ATOM     51  C   UNL A   1      46.822  30.230  27.976  1.00  0.00     0.049 A 
ATOM     52  C   UNL A   1      45.253  24.943  27.006  1.00  0.00     0.074 A 
ATOM     53  C   UNL A   1      48.170  30.514  27.832  1.00  0.00     0.029 A 
ATOM     54  N   UNL A   1      46.663  28.887  27.670  1.00  0.00    -0.354 N 
ATOM     55  N   UNL A   1      45.771  26.131  27.213  1.00  0.00    -0.248 NA
ATOM     56  C   UNL A   1      46.212  23.948  26.509  1.00  0.00     0.031 C 
ATOM     57  C   UNL A   1      48.812  29.363  27.370  1.00  0.00     0.029 A 
ATOM     58  C   UNL A   1      47.881  28.338  27.306  1.00  0.00     0.049 A 
ATOM     59  H   UNL A   1      45.810  28.396  27.708  1.00  0.00     0.167 HD
ATOM     60  C   UNL A   1      47.122  26.014  26.902  1.00  0.00     0.074 A 
ATOM     61  C   UNL A   1      47.344  24.636  26.518  1.00  0.00     0.031 C 
ATOM     62  C   UNL A   1      48.091  26.962  26.930  1.00  0.00     0.031 A 
BRANCH  49  63
ATOM     63  C   UNL A   1      46.101  32.569  28.605  1.00  0.00    -0.014 A 
ATOM     64  C   UNL A   1      46.524  33.011  29.871  1.00  0.00     0.010 A 
ATOM     65  C   UNL A   1      46.079  33.484  27.535  1.00  0.00     0.010 A 
ATOM     66  C   UNL A   1      46.895  34.344  30.069  1.00  0.00     0.020 A 
ATOM     67  C   UNL A   1      46.480  34.810  27.721  1.00  0.00     0.020 A 
ATOM     68  C   UNL A   1      46.877  35.233  28.991  1.00  0.00     0.054 A 
BRANCH  68  69
ATOM     69  S   UNL A   1      47.419  36.942  29.268  1.00  0.00     0.124 S 
ATOM     70  O   UNL A   1      47.081  37.141  30.676  1.00  0.00    -0.237 OA
ATOM     71  O   UNL A   1      48.847  36.874  28.968  1.00  0.00    -0.237 OA
ATOM     72  O   UNL A   1      46.622  37.718  28.323  1.00  0.00    -0.744 OA
ENDBRANCH  68  69
ENDBRANCH  49  63
BRANCH  50  73
ATOM     73  C   UNL A   1      43.451  23.066  26.937  1.00  0.00    -0.014 A 
ATOM     74  C   UNL A   1      42.893  22.257  27.943  1.00  0.00     0.010 A 
ATOM     75  C   UNL A   1      43.665  22.510  25.662  1.00  0.00     0.010 A 
ATOM     76  C   UNL A   1      42.600  20.913  27.695  1.00  0.00     0.020 A 
ATOM     77  C   UNL A   1      43.336  21.178  25.396  1.00  0.00     0.020 A 
ATOM     78  C   UNL A   1      42.825  20.383  26.422  1.00  0.00     0.054 A 
BRANCH  78  79
ATOM     79  S   UNL A   1      42.432  18.636  26.124  1.00  0.00     0.124 S 
ATOM     80  O   UNL A   1      43.369  18.292  25.058  1.00  0.00    -0.237 OA
ATOM     81  O   UNL A   1      42.705  18.028  27.424  1.00  0.00    -0.237 OA
ATOM     82  O   UNL A   1      41.025  18.661  25.735  1.00  0.00    -0.744 OA
ENDBRANCH  78  79
ENDBRANCH  50  73
BRANCH  62  83
ATOM     83  C   UNL A   1      49.493  26.538  26.574  1.00  0.00    -0.014 A 
ATOM     84  C   UNL A   1      50.347  25.953  27.526  1.00  0.00     0.010 A 
ATOM     85  C   UNL A   1      49.941  26.674  25.246  1.00  0.00     0.010 A 
ATOM     86  C   UNL A   1      51.633  25.543  27.164  1.00  0.00     0.020 A 
ATOM     87  C   UNL A   1      51.212  26.232  24.872  1.00  0.00     0.020 A 
ATOM     88  C   UNL A   1      52.055  25.680  25.838  1.00  0.00     0.054 A 
BRANCH  88  89
ATOM     89  S   UNL A   1      53.709  25.091  25.386  1.00  0.00     0.124 S 
ATOM     90  O   UNL A   1      54.508  25.509  26.536  1.00  0.00    -0.237 OA
ATOM     91  O   UNL A   1      53.507  23.650  25.253  1.00  0.00    -0.237 OA
ATOM     92  O   UNL A   1      54.000  25.792  24.138  1.00  0.00    -0.744 OA
ENDBRANCH  88  89
ENDBRANCH  62  83
ENDBRANCH  36  37
ENDBRANCH  28  31
ENDBRANCH  26  27
ENDBRANCH  25  26
ENDBRANCH   1  25
TORSDOF 17
ENDMDL
MODEL 2
REMARK VINA RESULT:     -11.3      2.106      8.371
REMARK SMILES N#C[C@H]1CN(C(=O)N2CCNC(=O)[C@@H]2CC(=O)NCCCNC(=O)c2ccc(-c3c4nc(c(-c5ccc(S(=O)(=O)[O-])cc5)c5ccc([nH]5)c(-c5ccc(S(=O)(=O)[O-])cc5)c5nc(c(-c6ccc(S(=O)(=O)[O-])cc6)c6ccc3[nH]6)C=C5)C=C4)cc2)CCO1
REMARK SMILES IDX 19 1 18 2 16 3 17 4 15 6 14 7 8 8 9 9 10 10 12 11 11 12
REMARK SMILES IDX 13 13 6 15 7 16 5 17 3 18 4 19 87 20 86 21 85 22 2 23 1 24
REMARK SMILES IDX 20 25 21 26 22 27 23 28 24 30 25 31 26 32 84 33 27 34 83 35
REMARK SMILES IDX 28 36 29 37 30 38 77 39 31 40 82 41 76 42 78 43 32 44 81 45
REMARK SMILES IDX 75 46 74 47 33 49 63 50 44 51 62 52 45 53 48 54 61 55 79 56
REMARK SMILES IDX 46 57 47 58 60 60 80 61 49 62 34 63 35 64 43 65 36 66 42 67
REMARK SMILES IDX 37 68 38 69 39 70 40 71 41 72 64 73 65 74 73 75 66 76 72 77
REMARK SMILES IDX 67 78 68 79 69 80 70 81 71 82 50 83 51 84 59 85 52 86 58 87
REMARK SMILES IDX 53 88 54 89 55 90 56 91 57 92
REMARK H PARENT 18 5 11 14 22 29 78 48 48 59
REMARK Flexibility Score: inf
ROOT
ATOM      1  C   UNL A   1      36.735  21.657  25.026  1.00  0.00     0.117 C 
ENDROOT
BRANCH   1   2
ATOM      2  N   UNL A   1      35.886  21.675  26.205  1.00  0.00    -0.356 N 
ATOM      3  C   UNL A   1      34.545  21.879  26.312  1.00  0.00     0.222 C 
ATOM      4  O   UNL A   1      34.039  21.894  27.434  1.00  0.00    -0.275 OA
ATOM      5  H   UNL A   1      36.352  21.516  27.057  1.00  0.00     0.163 HD
BRANCH   3   6
ATOM      6  C   UNL A   1      33.696  21.979  25.073  1.00  0.00     0.135 C 
BRANCH   6   7
ATOM      7  C   UNL A   1      33.439  23.413  24.583  1.00  0.00     0.185 C 
ATOM      8  N   UNL A   1      32.204  24.033  25.106  1.00  0.00    -0.310 N 
ATOM      9  C   UNL A   1      30.958  23.422  24.656  1.00  0.00     0.143 C 
ATOM     10  C   UNL A   1      30.901  23.474  23.126  1.00  0.00     0.137 C 
ATOM     11  C   UNL A   1      33.390  23.324  23.049  1.00  0.00     0.243 C 
ATOM     12  N   UNL A   1      32.158  23.149  22.470  1.00  0.00    -0.353 N 
ATOM     13  O   UNL A   1      34.408  23.215  22.367  1.00  0.00    -0.273 OA
ATOM     14  H   UNL A   1      32.123  22.780  21.558  1.00  0.00     0.163 HD
BRANCH   8  15
ATOM     15  C   UNL A   1      32.142  25.086  25.990  1.00  0.00     0.320 C 
ATOM     16  O   UNL A   1      31.728  24.924  27.137  1.00  0.00    -0.248 OA
BRANCH  15  17
ATOM     17  N   UNL A   1      32.478  26.344  25.528  1.00  0.00    -0.319 N 
ATOM     18  C   UNL A   1      30.892  27.926  24.450  1.00  0.00     0.240 C 
ATOM     19  C   UNL A   1      32.026  26.899  24.242  1.00  0.00     0.169 C 
ATOM     20  O   UNL A   1      31.320  28.958  25.363  1.00  0.00    -0.360 OA
ATOM     21  C   UNL A   1      31.669  28.398  26.641  1.00  0.00     0.183 C 
ATOM     22  C   UNL A   1      32.821  27.391  26.502  1.00  0.00     0.150 C 
BRANCH  18  23
ATOM     23  C   UNL A   1      30.515  28.489  23.142  1.00  0.00     0.096 C 
ATOM     24  N   UNL A   1      30.255  28.851  22.070  1.00  0.00    -0.195 NA
ENDBRANCH  18  23
ENDBRANCH  15  17
ENDBRANCH   8  15
ENDBRANCH   6   7
ENDBRANCH   3   6
ENDBRANCH   1   2
BRANCH   1  25
ATOM     25  C   UNL A   1      37.748  20.519  25.096  1.00  0.00     0.042 C 
BRANCH  25  26
ATOM     26  C   UNL A   1      39.059  20.913  25.764  1.00  0.00     0.118 C 
BRANCH  26  27
ATOM     27  N   UNL A   1      39.953  19.779  25.935  1.00  0.00    -0.352 N 
ATOM     28  C   UNL A   1      41.313  19.754  26.117  1.00  0.00     0.251 C 
ATOM     29  H   UNL A   1      39.516  18.896  25.919  1.00  0.00     0.163 HD
ATOM     30  O   UNL A   1      41.916  18.690  26.017  1.00  0.00    -0.269 OA
BRANCH  28  31
ATOM     31  C   UNL A   1      42.045  21.004  26.411  1.00  0.00     0.039 A 
ATOM     32  C   UNL A   1      42.439  21.819  25.348  1.00  0.00     0.014 A 
ATOM     33  C   UNL A   1      42.350  21.370  27.726  1.00  0.00     0.014 A 
ATOM     34  C   UNL A   1      43.077  23.032  25.609  1.00  0.00     0.010 A 
ATOM     35  C   UNL A   1      42.905  22.619  27.987  1.00  0.00     0.010 A 
ATOM     36  C   UNL A   1      43.276  23.464  26.931  1.00  0.00    -0.014 A 
BRANCH  36  37
ATOM     37  C   UNL A   1      43.850  24.803  27.224  1.00  0.00     0.031 A 
ATOM     38  C   UNL A   1      42.972  25.913  27.739  1.00  0.00     0.074 A 
ATOM     39  C   UNL A   1      45.156  25.031  26.977  1.00  0.00     0.049 A 
ATOM     40  N   UNL A   1      43.287  27.154  28.001  1.00  0.00    -0.248 NA
ATOM     41  C   UNL A   1      41.553  25.593  27.971  1.00  0.00     0.031 C 
ATOM     42  C   UNL A   1      46.104  24.047  26.447  1.00  0.00     0.029 A 
ATOM     43  N   UNL A   1      45.915  26.164  27.135  1.00  0.00    -0.354 N 
ATOM     44  C   UNL A   1      42.112  27.764  28.424  1.00  0.00     0.074 A 
ATOM     45  C   UNL A   1      41.064  26.772  28.328  1.00  0.00     0.031 C 
ATOM     46  C   UNL A   1      47.320  24.608  26.358  1.00  0.00     0.029 A 
ATOM     47  C   UNL A   1      47.232  26.005  26.767  1.00  0.00     0.049 A 
ATOM     48  H   UNL A   1      45.551  27.013  27.480  1.00  0.00     0.167 HD
ATOM     49  C   UNL A   1      41.925  29.029  28.872  1.00  0.00     0.031 A 
ATOM     50  C   UNL A   1      48.251  26.886  26.745  1.00  0.00     0.031 A 
ATOM     51  C   UNL A   1      42.971  30.012  28.964  1.00  0.00     0.049 A 
ATOM     52  C   UNL A   1      48.002  28.300  27.199  1.00  0.00     0.074 A 
ATOM     53  C   UNL A   1      42.890  31.309  29.442  1.00  0.00     0.029 A 
ATOM     54  N   UNL A   1      44.286  29.815  28.568  1.00  0.00    -0.354 N 
ATOM     55  N   UNL A   1      46.896  28.836  27.659  1.00  0.00    -0.248 NA
ATOM     56  C   UNL A   1      49.140  29.226  27.140  1.00  0.00     0.031 C 
ATOM     57  C   UNL A   1      44.135  31.918  29.269  1.00  0.00     0.029 A 
ATOM     58  C   UNL A   1      45.016  30.977  28.760  1.00  0.00     0.049 A 
ATOM     59  H   UNL A   1      44.647  28.974  28.206  1.00  0.00     0.167 HD
ATOM     60  C   UNL A   1      47.216  30.152  27.974  1.00  0.00     0.074 A 
ATOM     61  C   UNL A   1      48.623  30.323  27.676  1.00  0.00     0.031 C 
ATOM     62  C   UNL A   1      46.418  31.133  28.464  1.00  0.00     0.031 A 
BRANCH  49  63
ATOM     63  C   UNL A   1      40.535  29.429  29.297  1.00  0.00    -0.014 A 
ATOM     64  C   UNL A   1      40.221  29.629  30.653  1.00  0.00     0.010 A 
ATOM     65  C   UNL A   1      39.553  29.690  28.323  1.00  0.00     0.010 A 
ATOM     66  C   UNL A   1      38.945  30.059  31.029  1.00  0.00     0.020 A 
ATOM     67  C   UNL A   1      38.286  30.151  28.693  1.00  0.00     0.020 A 
ATOM     68  C   UNL A   1      37.988  30.323  30.046  1.00  0.00     0.054 A 
BRANCH  68  69
ATOM     69  S   UNL A   1      36.360  30.933  30.563  1.00  0.00     0.124 S 
ATOM     70  O   UNL A   1      35.587  30.817  29.329  1.00  0.00    -0.237 OA
ATOM     71  O   UNL A   1      35.994  29.998  31.624  1.00  0.00    -0.237 OA
ATOM     72  O   UNL A   1      36.624  32.300  31.004  1.00  0.00    -0.744 OA
ENDBRANCH  68  69
ENDBRANCH  49  63
BRANCH  50  73
ATOM     73  C   UNL A   1      49.600  26.468  26.268  1.00  0.00    -0.014 A 
ATOM     74  C   UNL A   1      50.509  25.840  27.138  1.00  0.00     0.010 A 
ATOM     75  C   UNL A   1      49.996  26.722  24.941  1.00  0.00     0.010 A 
ATOM     76  C   UNL A   1      51.798  25.515  26.706  1.00  0.00     0.020 A 
ATOM     77  C   UNL A   1      51.270  26.362  24.493  1.00  0.00     0.020 A 
ATOM     78  C   UNL A   1      52.170  25.780  25.385  1.00  0.00     0.054 A 
BRANCH  78  79
ATOM     79  S   UNL A   1      53.849  25.345  24.849  1.00  0.00     0.124 S 
ATOM     80  O   UNL A   1      54.669  25.984  25.873  1.00  0.00    -0.237 OA
ATOM     81  O   UNL A   1      53.819  23.885  24.883  1.00  0.00    -0.237 OA
ATOM     82  O   UNL A   1      53.946  25.932  23.515  1.00  0.00    -0.744 OA
ENDBRANCH  78  79
ENDBRANCH  50  73
BRANCH  62  83
ATOM     83  C   UNL A   1      47.052  32.471  28.750  1.00  0.00    -0.014 A 
ATOM     84  C   UNL A   1      47.067  33.495  27.788  1.00  0.00     0.010 A 
ATOM     85  C   UNL A   1      47.588  32.723  30.027  1.00  0.00     0.010 A 
ATOM     86  C   UNL A   1      47.637  34.736  28.086  1.00  0.00     0.020 A 
ATOM     87  C   UNL A   1      48.126  33.974  30.341  1.00  0.00     0.020 A 
ATOM     88  C   UNL A   1      48.157  34.969  29.363  1.00  0.00     0.054 A 
BRANCH  88  89
ATOM     89  S   UNL A   1      48.842  36.605  29.738  1.00  0.00     0.124 S 
ATOM     90  O   UNL A   1      47.846  37.150  30.657  1.00  0.00    -0.237 OA
ATOM     91  O   UNL A   1      50.135  36.279  30.335  1.00  0.00    -0.237 OA
ATOM     92  O   UNL A   1      48.912  37.262  28.435  1.00  0.00    -0.744 OA
ENDBRANCH  88  89
ENDBRANCH  62  83
ENDBRANCH  36  37
ENDBRANCH  28  31
ENDBRANCH  26  27
ENDBRANCH  25  26
ENDBRANCH   1  25
TORSDOF 17
ENDMDL
MODEL 3
REMARK VINA RESULT:     -11.3      3.333      4.419
REMARK SMILES N#C[C@H]1CN(C(=O)N2CCNC(=O)[C@@H]2CC(=O)NCCCNC(=O)c2ccc(-c3c4nc(c(-c5ccc(S(=O)(=O)[O-])cc5)c5ccc([nH]5)c(-c5ccc(S(=O)(=O)[O-])cc5)c5nc(c(-c6ccc(S(=O)(=O)[O-])cc6)c6ccc3[nH]6)C=C5)C=C4)cc2)CCO1
REMARK SMILES IDX 19 1 18 2 16 3 17 4 15 6 14 7 8 8 9 9 10 10 12 11 11 12
REMARK SMILES IDX 13 13 6 15 7 16 5 17 3 18 4 19 87 20 86 21 85 22 2 23 1 24
REMARK SMILES IDX 20 25 21 26 22 27 23 28 24 30 25 31 26 32 84 33 27 34 83 35
REMARK SMILES IDX 28 36 29 37 30 38 77 39 31 40 82 41 76 42 78 43 32 44 81 45
REMARK SMILES IDX 75 46 74 47 33 49 63 50 44 51 62 52 45 53 48 54 61 55 79 56
REMARK SMILES IDX 46 57 47 58 60 60 80 61 49 62 34 63 35 64 43 65 36 66 42 67
REMARK SMILES IDX 37 68 38 69 39 70 40 71 41 72 64 73 65 74 73 75 66 76 72 77
REMARK SMILES IDX 67 78 68 79 69 80 70 81 71 82 50 83 51 84 59 85 52 86 58 87
REMARK SMILES IDX 53 88 54 89 55 90 56 91 57 92
REMARK H PARENT 18 5 11 14 22 29 78 48 48 59
REMARK Flexibility Score: inf
ROOT
ATOM      1  C   UNL A   1      33.544  27.028  24.471  1.00  0.00     0.117 C 
ENDROOT
BRANCH   1   2
ATOM      2  N   UNL A   1      32.231  26.408  24.449  1.00  0.00    -0.356 N 
ATOM      3  C   UNL A   1      31.870  25.120  24.693  1.00  0.00     0.222 C 
ATOM      4  O   UNL A   1      30.686  24.807  24.570  1.00  0.00    -0.275 OA
ATOM      5  H   UNL A   1      31.488  27.013  24.222  1.00  0.00     0.163 HD
BRANCH   3   6
ATOM      6  C   UNL A   1      32.888  24.134  25.199  1.00  0.00     0.135 C 
BRANCH   6   7
ATOM      7  C   UNL A   1      33.286  23.044  24.191  1.00  0.00     0.185 C 
ATOM      8  N   UNL A   1      33.688  21.758  24.797  1.00  0.00    -0.310 N 
ATOM      9  C   UNL A   1      34.920  21.792  25.577  1.00  0.00     0.143 C 
ATOM     10  C   UNL A   1      36.066  22.271  24.681  1.00  0.00     0.137 C 
ATOM     11  C   UNL A   1      34.443  23.640  23.371  1.00  0.00     0.243 C 
ATOM     12  N   UNL A   1      35.718  23.381  23.808  1.00  0.00    -0.353 N 
ATOM     13  O   UNL A   1      34.256  24.470  22.484  1.00  0.00    -0.273 OA
ATOM     14  H   UNL A   1      36.440  23.983  23.513  1.00  0.00     0.163 HD
BRANCH   8  15
ATOM     15  C   UNL A   1      32.990  20.574  24.716  1.00  0.00     0.320 C 
ATOM     16  O   UNL A   1      31.986  20.386  25.402  1.00  0.00    -0.248 OA
BRANCH  15  17
ATOM     17  N   UNL A   1      33.494  19.575  23.906  1.00  0.00    -0.319 N 
ATOM     18  C   UNL A   1      33.572  17.166  24.513  1.00  0.00     0.240 C 
ATOM     19  C   UNL A   1      34.362  18.486  24.383  1.00  0.00     0.169 C 
ATOM     20  O   UNL A   1      32.938  16.842  23.259  1.00  0.00    -0.360 OA
ATOM     21  C   UNL A   1      32.026  17.882  22.862  1.00  0.00     0.183 C 
ATOM     22  C   UNL A   1      32.765  19.217  22.680  1.00  0.00     0.150 C 
BRANCH  18  23
ATOM     23  C   UNL A   1      34.495  16.101  24.940  1.00  0.00     0.096 C 
ATOM     24  N   UNL A   1      35.262  15.325  25.339  1.00  0.00    -0.195 NA
ENDBRANCH  18  23
ENDBRANCH  15  17
ENDBRANCH   8  15
ENDBRANCH   6   7
ENDBRANCH   3   6
ENDBRANCH   1   2
BRANCH   1  25
ATOM     25  C   UNL A   1      33.468  28.459  24.993  1.00  0.00     0.042 C 
BRANCH  25  26
ATOM     26  C   UNL A   1      33.730  28.576  26.489  1.00  0.00     0.118 C 
BRANCH  26  27
ATOM     27  N   UNL A   1      33.652  29.950  26.957  1.00  0.00    -0.352 N 
ATOM     28  C   UNL A   1      34.503  30.647  27.777  1.00  0.00     0.251 C 
ATOM     29  H   UNL A   1      32.871  30.458  26.635  1.00  0.00     0.163 HD
ATOM     30  O   UNL A   1      34.149  31.728  28.237  1.00  0.00    -0.269 OA
BRANCH  28  31
ATOM     31  C   UNL A   1      35.828  30.087  28.119  1.00  0.00     0.039 A 
ATOM     32  C   UNL A   1      36.847  30.139  27.167  1.00  0.00     0.014 A 
ATOM     33  C   UNL A   1      36.065  29.507  29.370  1.00  0.00     0.014 A 
ATOM     34  C   UNL A   1      38.121  29.672  27.494  1.00  0.00     0.010 A 
ATOM     35  C   UNL A   1      37.356  29.125  29.723  1.00  0.00     0.010 A 
ATOM     36  C   UNL A   1      38.399  29.202  28.788  1.00  0.00    -0.014 A 
BRANCH  36  37
ATOM     37  C   UNL A   1      39.776  28.808  29.184  1.00  0.00     0.031 A 
ATOM     38  C   UNL A   1      40.668  29.780  29.908  1.00  0.00     0.074 A 
ATOM     39  C   UNL A   1      40.238  27.587  28.844  1.00  0.00     0.049 A 
ATOM     40  N   UNL A   1      41.911  29.629  30.287  1.00  0.00    -0.248 NA
ATOM     41  C   UNL A   1      40.099  31.099  30.233  1.00  0.00     0.031 C 
ATOM     42  C   UNL A   1      39.481  26.567  28.113  1.00  0.00     0.029 A 
ATOM     43  N   UNL A   1      41.457  26.995  29.064  1.00  0.00    -0.354 N 
ATOM     44  C   UNL A   1      42.273  30.828  30.888  1.00  0.00     0.074 A 
ATOM     45  C   UNL A   1      41.139  31.718  30.773  1.00  0.00     0.031 C 
ATOM     46  C   UNL A   1      40.239  25.467  27.977  1.00  0.00     0.029 A 
ATOM     47  C   UNL A   1      41.553  25.720  28.557  1.00  0.00     0.049 A 
ATOM     48  H   UNL A   1      42.195  27.442  29.541  1.00  0.00     0.167 HD
ATOM     49  C   UNL A   1      43.438  31.153  31.500  1.00  0.00     0.031 A 
ATOM     50  C   UNL A   1      42.586  24.854  28.545  1.00  0.00     0.031 A 
ATOM     51  C   UNL A   1      44.564  30.264  31.610  1.00  0.00     0.049 A 
ATOM     52  C   UNL A   1      43.886  25.262  29.186  1.00  0.00     0.074 A 
ATOM     53  C   UNL A   1      45.774  30.486  32.246  1.00  0.00     0.029 A 
ATOM     54  N   UNL A   1      44.626  28.987  31.072  1.00  0.00    -0.354 N 
ATOM     55  N   UNL A   1      44.184  26.378  29.810  1.00  0.00    -0.248 NA
ATOM     56  C   UNL A   1      44.987  24.291  29.132  1.00  0.00     0.031 C 
ATOM     57  C   UNL A   1      46.591  29.375  32.030  1.00  0.00     0.029 A 
ATOM     58  C   UNL A   1      45.864  28.425  31.332  1.00  0.00     0.049 A 
ATOM     59  H   UNL A   1      43.897  28.546  30.579  1.00  0.00     0.167 HD
ATOM     60  C   UNL A   1      45.495  26.227  30.249  1.00  0.00     0.074 A 
ATOM     61  C   UNL A   1      45.923  24.905  29.841  1.00  0.00     0.031 C 
ATOM     62  C   UNL A   1      46.277  27.104  30.926  1.00  0.00     0.031 A 
BRANCH  49  63
ATOM     63  C   UNL A   1      43.560  32.531  32.099  1.00  0.00    -0.014 A 
ATOM     64  C   UNL A   1      44.021  33.617  31.334  1.00  0.00     0.010 A 
ATOM     65  C   UNL A   1      43.130  32.760  33.420  1.00  0.00     0.010 A 
ATOM     66  C   UNL A   1      44.073  34.901  31.884  1.00  0.00     0.020 A 
ATOM     67  C   UNL A   1      43.150  34.048  33.963  1.00  0.00     0.020 A 
ATOM     68  C   UNL A   1      43.630  35.109  33.194  1.00  0.00     0.054 A 
BRANCH  68  69
ATOM     69  S   UNL A   1      43.657  36.796  33.859  1.00  0.00     0.124 S 
ATOM     70  O   UNL A   1      44.820  36.754  34.743  1.00  0.00    -0.237 OA
ATOM     71  O   UNL A   1      43.812  37.608  32.655  1.00  0.00    -0.237 OA
ATOM     72  O   UNL A   1      42.369  36.926  34.533  1.00  0.00    -0.744 OA
ENDBRANCH  68  69
ENDBRANCH  49  63
BRANCH  50  73
ATOM     73  C   UNL A   1      42.445  23.519  27.896  1.00  0.00    -0.014 A 
ATOM     74  C   UNL A   1      41.717  22.490  28.518  1.00  0.00     0.010 A 
ATOM     75  C   UNL A   1      43.065  23.260  26.659  1.00  0.00     0.010 A 
ATOM     76  C   UNL A   1      41.648  21.218  27.940  1.00  0.00     0.020 A 
ATOM     77  C   UNL A   1      42.965  22.003  26.057  1.00  0.00     0.020 A 
ATOM     78  C   UNL A   1      42.274  20.984  26.713  1.00  0.00     0.054 A 
BRANCH  78  79
ATOM     79  S   UNL A   1      42.167  19.326  25.983  1.00  0.00     0.124 S 
ATOM     80  O   UNL A   1      42.705  18.489  27.052  1.00  0.00    -0.237 OA
ATOM     81  O   UNL A   1      40.734  19.187  25.733  1.00  0.00    -0.237 OA
ATOM     82  O   UNL A   1      42.998  19.422  24.786  1.00  0.00    -0.744 OA
ENDBRANCH  78  79
ENDBRANCH  50  73
BRANCH  62  83
ATOM     83  C   UNL A   1      47.663  26.653  31.309  1.00  0.00    -0.014 A 
ATOM     84  C   UNL A   1      47.950  26.179  32.600  1.00  0.00     0.010 A 
ATOM     85  C   UNL A   1      48.682  26.650  30.337  1.00  0.00     0.010 A 
ATOM     86  C   UNL A   1      49.237  25.740  32.923  1.00  0.00     0.020 A 
ATOM     87  C   UNL A   1      49.961  26.178  30.645  1.00  0.00     0.020 A 
ATOM     88  C   UNL A   1      50.233  25.738  31.941  1.00  0.00     0.054 A 
BRANCH  88  89
ATOM     89  S   UNL A   1      51.879  25.114  32.373  1.00  0.00     0.124 S 
ATOM     90  O   UNL A   1      51.729  23.677  32.157  1.00  0.00    -0.237 OA
ATOM     91  O   UNL A   1      52.742  25.806  31.418  1.00  0.00    -0.237 OA
ATOM     92  O   UNL A   1      52.051  25.519  33.766  1.00  0.00    -0.744 OA
ENDBRANCH  88  89
ENDBRANCH  62  83
ENDBRANCH  36  37
ENDBRANCH  28  31
ENDBRANCH  26  27
ENDBRANCH  25  26
ENDBRANCH   1  25
TORSDOF 17
ENDMDL
