MODEL 1
REMARK VINA RESULT:      -9.2      0.000      0.000
REMARK SMILES NS(=O)(=O)c1ccc(-n2nc(C(=O)NCCCC(=O)NCCCNC(=O)c3ccc(-c4c5nc(c(-c6ccc(S(=O)(=O)[O-])cc6)c6ccc([nH]6)c(-c6ccc(S(=O)(=O)[O-])cc6)c6nc(c(-c7ccc(S(=O)(=O)[O-])cc7)c7ccc4[nH]7)C=C6)C=C5)cc3)cc2-c2ccccc2)cc1
REMARK SMILES IDX 18 1 19 2 20 3 17 5 16 6 15 7 14 8 12 9 13 10 11 12 9 13
REMARK SMILES IDX 10 14 88 15 87 16 8 17 5 18 6 19 96 20 7 21 95 22 2 23 3 24
REMARK SMILES IDX 4 25 1 26 89 29 90 30 94 31 91 32 93 33 92 34 21 35 22 36
REMARK SMILES IDX 23 37 24 38 25 39 26 41 27 42 28 43 86 44 29 45 85 46 30 47
REMARK SMILES IDX 31 48 32 49 79 50 33 51 84 52 78 53 80 54 34 55 83 56 77 57
REMARK SMILES IDX 76 58 35 60 65 61 46 62 64 63 47 64 50 65 63 66 81 67 48 68
REMARK SMILES IDX 49 69 62 71 82 72 51 73 36 74 37 75 45 76 38 77 44 78 39 79
REMARK SMILES IDX 40 80 41 81 42 82 43 83 66 84 67 85 75 86 68 87 74 88 69 89
REMARK SMILES IDX 70 90 71 91 72 92 73 93 52 94 53 95 61 96 54 97 60 98 55 99
REMARK SMILES IDX 56 100 57 101 58 102 59 103
REMARK H PARENT 20 4 14 11 1 27 1 28 24 40 80 59 50 70
REMARK Flexibility Score: inf
ROOT
ATOM      1  C   UNL A   1      36.882  34.221  33.125  1.00  0.00     0.220 C 
ATOM      2  O   UNL A   1      37.491  34.890  33.960  1.00  0.00    -0.275 OA
ATOM      3  N   UNL A   1      35.536  34.391  33.017  1.00  0.00    -0.356 N 
ATOM      4  H   UNL A   1      35.161  35.078  33.614  1.00  0.00     0.163 HD
ENDROOT
BRANCH   1   5
ATOM      5  C   UNL A   1      37.621  33.240  32.240  1.00  0.00     0.102 C 
BRANCH   5   6
ATOM      6  C   UNL A   1      37.395  31.775  32.617  1.00  0.00     0.031 C 
BRANCH   6   7
ATOM      7  C   UNL A   1      38.305  31.224  33.709  1.00  0.00     0.116 C 
BRANCH   7   8
ATOM      8  N   UNL A   1      37.762  31.352  35.049  1.00  0.00    -0.351 N 
ATOM      9  C   UNL A   1      38.356  31.765  36.224  1.00  0.00     0.271 C 
ATOM     10  O   UNL A   1      37.649  31.755  37.233  1.00  0.00    -0.267 OA
ATOM     11  H   UNL A   1      36.813  31.104  35.135  1.00  0.00     0.163 HD
BRANCH   9  12
ATOM     12  C   UNL A   1      39.771  32.186  36.244  1.00  0.00     0.151 A 
ATOM     13  N   UNL A   1      41.464  33.498  36.106  1.00  0.00    -0.232 N 
ATOM     14  N   UNL A   1      40.109  33.487  36.119  1.00  0.00    -0.162 NA
ATOM     15  C   UNL A   1      41.984  32.275  36.500  1.00  0.00     0.075 A 
ATOM     16  C   UNL A   1      40.933  31.392  36.405  1.00  0.00     0.065 A 
BRANCH  13  17
ATOM     17  C   UNL A   1      42.195  34.665  35.751  1.00  0.00     0.065 A 
ATOM     18  C   UNL A   1      43.422  37.066  35.060  1.00  0.00     0.082 A 
ATOM     19  C   UNL A   1      43.116  36.814  36.397  1.00  0.00     0.024 A 
ATOM     20  C   UNL A   1      43.165  36.108  34.072  1.00  0.00     0.024 A 
ATOM     21  C   UNL A   1      42.498  35.615  36.741  1.00  0.00     0.030 A 
ATOM     22  C   UNL A   1      42.576  34.887  34.423  1.00  0.00     0.030 A 
BRANCH  18  23
ATOM     23  S   UNL A   1      44.085  38.644  34.617  1.00  0.00     0.238 S 
ATOM     24  O   UNL A   1      45.166  38.447  33.664  1.00  0.00    -0.207 OA
ATOM     25  O   UNL A   1      44.225  39.441  35.800  1.00  0.00    -0.207 OA
BRANCH  23  26
ATOM     26  N   UNL A   1      42.845  39.340  33.716  1.00  0.00    -0.225 NA
ATOM     27  H   UNL A   1      42.002  39.400  34.288  1.00  0.00     0.137 HD
ATOM     28  H   UNL A   1      42.658  38.764  32.895  1.00  0.00     0.137 HD
ENDBRANCH  23  26
ENDBRANCH  18  23
ENDBRANCH  13  17
BRANCH  15  29
ATOM     29  C   UNL A   1      43.325  32.050  37.035  1.00  0.00     0.000 A 
ATOM     30  C   UNL A   1      43.603  32.385  38.370  1.00  0.00     0.010 A 
ATOM     31  C   UNL A   1      44.327  31.474  36.251  1.00  0.00     0.010 A 
ATOM     32  C   UNL A   1      44.873  32.175  38.903  1.00  0.00     0.001 A 
ATOM     33  C   UNL A   1      45.599  31.266  36.787  1.00  0.00     0.001 A 
ATOM     34  C   UNL A   1      45.872  31.619  38.109  1.00  0.00     0.000 A 
ENDBRANCH  15  29
ENDBRANCH   9  12
ENDBRANCH   7   8
ENDBRANCH   6   7
ENDBRANCH   5   6
ENDBRANCH   1   5
BRANCH   3  35
ATOM     35  C   UNL A   1      34.554  33.728  32.168  1.00  0.00     0.117 C 
BRANCH  35  36
ATOM     36  C   UNL A   1      34.352  34.462  30.838  1.00  0.00     0.042 C 
BRANCH  36  37
ATOM     37  C   UNL A   1      35.146  33.866  29.693  1.00  0.00     0.118 C 
BRANCH  37  38
ATOM     38  N   UNL A   1      34.350  32.976  28.852  1.00  0.00    -0.352 N 
ATOM     39  C   UNL A   1      34.780  31.838  28.194  1.00  0.00     0.251 C 
ATOM     40  H   UNL A   1      33.401  33.213  28.740  1.00  0.00     0.163 HD
ATOM     41  O   UNL A   1      34.156  31.402  27.233  1.00  0.00    -0.269 OA
BRANCH  39  42
ATOM     42  C   UNL A   1      36.012  31.173  28.661  1.00  0.00     0.039 A 
ATOM     43  C   UNL A   1      36.073  29.791  28.839  1.00  0.00     0.014 A 
ATOM     44  C   UNL A   1      37.137  31.965  28.873  1.00  0.00     0.014 A 
ATOM     45  C   UNL A   1      37.302  29.208  29.147  1.00  0.00     0.010 A 
ATOM     46  C   UNL A   1      38.370  31.378  28.991  1.00  0.00     0.010 A 
ATOM     47  C   UNL A   1      38.455  30.008  29.195  1.00  0.00    -0.014 A 
BRANCH  47  48
ATOM     48  C   UNL A   1      39.776  29.420  29.376  1.00  0.00     0.031 A 
ATOM     49  C   UNL A   1      40.139  29.119  30.784  1.00  0.00     0.074 A 
ATOM     50  C   UNL A   1      40.542  28.975  28.356  1.00  0.00     0.049 A 
ATOM     51  N   UNL A   1      40.953  29.773  31.541  1.00  0.00    -0.248 NA
ATOM     52  C   UNL A   1      39.397  28.058  31.484  1.00  0.00     0.031 C 
ATOM     53  C   UNL A   1      40.204  28.884  26.929  1.00  0.00     0.029 A 
ATOM     54  N   UNL A   1      41.772  28.400  28.406  1.00  0.00    -0.354 N 
ATOM     55  C   UNL A   1      41.014  29.068  32.738  1.00  0.00     0.074 A 
ATOM     56  C   UNL A   1      39.893  28.162  32.719  1.00  0.00     0.031 C 
ATOM     57  C   UNL A   1      41.094  28.082  26.302  1.00  0.00     0.029 A 
ATOM     58  C   UNL A   1      42.163  27.770  27.231  1.00  0.00     0.049 A 
ATOM     59  H   UNL A   1      42.339  28.427  29.209  1.00  0.00     0.167 HD
ATOM     60  C   UNL A   1      42.126  29.104  33.528  1.00  0.00     0.031 A 
ATOM     61  C   UNL A   1      43.286  27.035  27.038  1.00  0.00     0.031 A 
ATOM     62  C   UNL A   1      43.042  30.133  33.098  1.00  0.00     0.049 A 
ATOM     63  C   UNL A   1      44.247  27.439  28.091  1.00  0.00     0.074 A 
ATOM     64  C   UNL A   1      42.974  31.505  32.956  1.00  0.00     0.029 A 
ATOM     65  N   UNL A   1      44.113  29.722  32.338  1.00  0.00    -0.354 N 
ATOM     66  N   UNL A   1      44.771  28.631  28.164  1.00  0.00    -0.248 NA
ATOM     67  C   UNL A   1      44.293  26.663  29.319  1.00  0.00     0.031 C 
ATOM     68  C   UNL A   1      43.705  31.787  31.764  1.00  0.00     0.029 A 
ATOM     69  C   UNL A   1      44.243  30.589  31.286  1.00  0.00     0.049 A 
ATOM     70  H   UNL A   1      44.686  28.942  32.521  1.00  0.00     0.167 HD
ATOM     71  C   UNL A   1      44.810  28.920  29.520  1.00  0.00     0.074 A 
ATOM     72  C   UNL A   1      44.612  27.632  30.183  1.00  0.00     0.031 C 
ATOM     73  C   UNL A   1      44.721  30.207  29.970  1.00  0.00     0.031 A 
BRANCH  60  74
ATOM     74  C   UNL A   1      42.586  27.964  34.408  1.00  0.00    -0.014 A 
ATOM     75  C   UNL A   1      42.948  28.246  35.744  1.00  0.00     0.010 A 
ATOM     76  C   UNL A   1      42.933  26.691  33.914  1.00  0.00     0.010 A 
ATOM     77  C   UNL A   1      43.692  27.337  36.508  1.00  0.00     0.020 A 
ATOM     78  C   UNL A   1      43.635  25.758  34.683  1.00  0.00     0.020 A 
ATOM     79  C   UNL A   1      44.043  26.103  35.964  1.00  0.00     0.054 A 
BRANCH  79  80
ATOM     80  S   UNL A   1      45.089  24.977  36.916  1.00  0.00     0.124 S 
ATOM     81  O   UNL A   1      45.183  23.828  36.023  1.00  0.00    -0.237 OA
ATOM     82  O   UNL A   1      46.312  25.757  37.080  1.00  0.00    -0.237 OA
ATOM     83  O   UNL A   1      44.326  24.760  38.143  1.00  0.00    -0.744 OA
ENDBRANCH  79  80
ENDBRANCH  60  74
BRANCH  61  84
ATOM     84  C   UNL A   1      43.476  25.833  26.191  1.00  0.00    -0.014 A 
ATOM     85  C   UNL A   1      44.700  25.604  25.534  1.00  0.00     0.010 A 
ATOM     86  C   UNL A   1      42.561  24.763  26.269  1.00  0.00     0.010 A 
ATOM     87  C   UNL A   1      45.030  24.328  25.047  1.00  0.00     0.020 A 
ATOM     88  C   UNL A   1      42.882  23.491  25.779  1.00  0.00     0.020 A 
ATOM     89  C   UNL A   1      44.128  23.272  25.196  1.00  0.00     0.054 A 
BRANCH  89  90
ATOM     90  S   UNL A   1      44.647  21.586  24.753  1.00  0.00     0.124 S 
ATOM     91  O   UNL A   1      44.656  21.638  23.294  1.00  0.00    -0.237 OA
ATOM     92  O   UNL A   1      45.957  21.479  25.389  1.00  0.00    -0.237 OA
ATOM     93  O   UNL A   1      43.607  20.741  25.338  1.00  0.00    -0.744 OA
ENDBRANCH  89  90
ENDBRANCH  61  84
BRANCH  73  94
ATOM     94  C   UNL A   1      44.919  31.335  28.980  1.00  0.00    -0.014 A 
ATOM     95  C   UNL A   1      46.146  31.993  28.763  1.00  0.00     0.010 A 
ATOM     96  C   UNL A   1      43.841  31.630  28.125  1.00  0.00     0.010 A 
ATOM     97  C   UNL A   1      46.279  32.939  27.733  1.00  0.00     0.020 A 
ATOM     98  C   UNL A   1      43.973  32.555  27.087  1.00  0.00     0.020 A 
ATOM     99  C   UNL A   1      45.189  33.213  26.900  1.00  0.00     0.054 A 
BRANCH  99 100
ATOM    100  S   UNL A   1      45.374  34.398  25.538  1.00  0.00     0.124 S 
ATOM    101  O   UNL A   1      46.821  34.435  25.345  1.00  0.00    -0.237 OA
ATOM    102  O   UNL A   1      44.609  33.777  24.459  1.00  0.00    -0.237 OA
ATOM    103  O   UNL A   1      44.789  35.631  26.067  1.00  0.00    -0.744 OA
ENDBRANCH  99 100
ENDBRANCH  73  94
ENDBRANCH  47  48
ENDBRANCH  39  42
ENDBRANCH  37  38
ENDBRANCH  36  37
ENDBRANCH  35  36
ENDBRANCH   3  35
TORSDOF 21
ENDMDL
MODEL 2
REMARK VINA RESULT:      -8.9      2.378      4.198
REMARK SMILES NS(=O)(=O)c1ccc(-n2nc(C(=O)NCCCC(=O)NCCCNC(=O)c3ccc(-c4c5nc(c(-c6ccc(S(=O)(=O)[O-])cc6)c6ccc([nH]6)c(-c6ccc(S(=O)(=O)[O-])cc6)c6nc(c(-c7ccc(S(=O)(=O)[O-])cc7)c7ccc4[nH]7)C=C6)C=C5)cc3)cc2-c2ccccc2)cc1
REMARK SMILES IDX 18 1 19 2 20 3 17 5 16 6 15 7 14 8 12 9 13 10 11 12 9 13
REMARK SMILES IDX 10 14 88 15 87 16 8 17 5 18 6 19 96 20 7 21 95 22 2 23 3 24
REMARK SMILES IDX 4 25 1 26 89 29 90 30 94 31 91 32 93 33 92 34 21 35 22 36
REMARK SMILES IDX 23 37 24 38 25 39 26 41 27 42 28 43 86 44 29 45 85 46 30 47
REMARK SMILES IDX 31 48 32 49 79 50 33 51 84 52 78 53 80 54 34 55 83 56 77 57
REMARK SMILES IDX 76 58 35 60 65 61 46 62 64 63 47 64 50 65 63 66 81 67 48 68
REMARK SMILES IDX 49 69 62 71 82 72 51 73 36 74 37 75 45 76 38 77 44 78 39 79
REMARK SMILES IDX 40 80 41 81 42 82 43 83 66 84 67 85 75 86 68 87 74 88 69 89
REMARK SMILES IDX 70 90 71 91 72 92 73 93 52 94 53 95 61 96 54 97 60 98 55 99
REMARK SMILES IDX 56 100 57 101 58 102 59 103
REMARK H PARENT 20 4 14 11 1 27 1 28 24 40 80 59 50 70
REMARK Flexibility Score: inf
ROOT
ATOM      1  C   UNL A   1      38.265  32.421  33.865  1.00  0.00     0.220 C 
ATOM      2  O   UNL A   1      38.295  31.340  34.453  1.00  0.00    -0.275 OA
ATOM      3  N   UNL A   1      37.325  32.604  32.897  1.00  0.00    -0.356 N 
ATOM      4  H   UNL A   1      36.714  31.843  32.771  1.00  0.00     0.163 HD
ENDROOT
BRANCH   1   5
ATOM      5  C   UNL A   1      39.248  33.515  34.219  1.00  0.00     0.102 C 
BRANCH   5   6
ATOM      6  C   UNL A   1      40.418  33.637  33.240  1.00  0.00     0.031 C 
BRANCH   6   7
ATOM      7  C   UNL A   1      41.276  34.888  33.387  1.00  0.00     0.116 C 
BRANCH   7   8
ATOM      8  N   UNL A   1      42.561  34.651  34.020  1.00  0.00    -0.351 N 
ATOM      9  C   UNL A   1      42.940  34.740  35.344  1.00  0.00     0.271 C 
ATOM     10  O   UNL A   1      44.122  34.498  35.597  1.00  0.00    -0.267 OA
ATOM     11  H   UNL A   1      43.280  34.381  33.405  1.00  0.00     0.163 HD
BRANCH   9  12
ATOM     12  C   UNL A   1      41.962  35.115  36.384  1.00  0.00     0.151 A 
ATOM     13  N   UNL A   1      40.395  34.869  37.830  1.00  0.00    -0.232 N 
ATOM     14  N   UNL A   1      41.220  34.176  37.008  1.00  0.00    -0.162 NA
ATOM     15  C   UNL A   1      40.791  36.193  37.945  1.00  0.00     0.075 A 
ATOM     16  C   UNL A   1      41.657  36.400  36.896  1.00  0.00     0.065 A 
BRANCH  13  17
ATOM     17  C   UNL A   1      39.298  34.244  38.483  1.00  0.00     0.065 A 
ATOM     18  C   UNL A   1      37.284  32.828  39.783  1.00  0.00     0.082 A 
ATOM     19  C   UNL A   1      38.293  33.430  40.536  1.00  0.00     0.024 A 
ATOM     20  C   UNL A   1      37.246  32.969  38.391  1.00  0.00     0.024 A 
ATOM     21  C   UNL A   1      39.302  34.133  39.883  1.00  0.00     0.030 A 
ATOM     22  C   UNL A   1      38.241  33.707  37.739  1.00  0.00     0.030 A 
BRANCH  18  23
ATOM     23  S   UNL A   1      36.084  31.828  40.610  1.00  0.00     0.238 S 
ATOM     24  O   UNL A   1      36.772  30.933  41.527  1.00  0.00    -0.207 OA
ATOM     25  O   UNL A   1      35.118  31.371  39.655  1.00  0.00    -0.207 OA
BRANCH  23  26
ATOM     26  N   UNL A   1      35.289  32.929  41.605  1.00  0.00    -0.225 NA
ATOM     27  H   UNL A   1      34.306  32.669  41.681  1.00  0.00     0.137 HD
ATOM     28  H   UNL A   1      35.364  33.864  41.204  1.00  0.00     0.137 HD
ENDBRANCH  23  26
ENDBRANCH  18  23
ENDBRANCH  13  17
BRANCH  15  29
ATOM     29  C   UNL A   1      40.452  37.092  39.046  1.00  0.00     0.000 A 
ATOM     30  C   UNL A   1      41.435  37.435  39.987  1.00  0.00     0.010 A 
ATOM     31  C   UNL A   1      39.175  37.646  39.156  1.00  0.00     0.010 A 
ATOM     32  C   UNL A   1      41.136  38.295  41.043  1.00  0.00     0.001 A 
ATOM     33  C   UNL A   1      38.877  38.506  40.215  1.00  0.00     0.001 A 
ATOM     34  C   UNL A   1      39.855  38.826  41.158  1.00  0.00     0.000 A 
ENDBRANCH  15  29
ENDBRANCH   9  12
ENDBRANCH   7   8
ENDBRANCH   6   7
ENDBRANCH   5   6
ENDBRANCH   1   5
BRANCH   3  35
ATOM     35  C   UNL A   1      37.070  33.736  32.016  1.00  0.00     0.117 C 
BRANCH  35  36
ATOM     36  C   UNL A   1      35.596  33.831  31.610  1.00  0.00     0.042 C 
BRANCH  36  37
ATOM     37  C   UNL A   1      34.917  32.482  31.478  1.00  0.00     0.118 C 
BRANCH  37  38
ATOM     38  N   UNL A   1      34.189  32.332  30.222  1.00  0.00    -0.352 N 
ATOM     39  C   UNL A   1      34.719  32.075  28.970  1.00  0.00     0.251 C 
ATOM     40  H   UNL A   1      33.210  32.424  30.271  1.00  0.00     0.163 HD
ATOM     41  O   UNL A   1      34.085  32.350  27.958  1.00  0.00    -0.269 OA
BRANCH  39  42
ATOM     42  C   UNL A   1      36.067  31.482  28.882  1.00  0.00     0.039 A 
ATOM     43  C   UNL A   1      37.215  32.275  28.887  1.00  0.00     0.014 A 
ATOM     44  C   UNL A   1      36.165  30.093  28.844  1.00  0.00     0.014 A 
ATOM     45  C   UNL A   1      38.461  31.650  28.942  1.00  0.00     0.010 A 
ATOM     46  C   UNL A   1      37.372  29.489  29.084  1.00  0.00     0.010 A 
ATOM     47  C   UNL A   1      38.530  30.253  29.068  1.00  0.00    -0.014 A 
BRANCH  47  48
ATOM     48  C   UNL A   1      39.805  29.575  29.267  1.00  0.00     0.031 A 
ATOM     49  C   UNL A   1      40.178  29.349  30.686  1.00  0.00     0.074 A 
ATOM     50  C   UNL A   1      40.508  28.998  28.268  1.00  0.00     0.049 A 
ATOM     51  N   UNL A   1      41.060  29.989  31.378  1.00  0.00    -0.248 NA
ATOM     52  C   UNL A   1      39.373  28.404  31.477  1.00  0.00     0.031 C 
ATOM     53  C   UNL A   1      40.129  28.830  26.859  1.00  0.00     0.029 A 
ATOM     54  N   UNL A   1      41.690  28.331  28.338  1.00  0.00    -0.354 N 
ATOM     55  C   UNL A   1      41.095  29.370  32.622  1.00  0.00     0.074 A 
ATOM     56  C   UNL A   1      39.906  28.557  32.691  1.00  0.00     0.031 C 
ATOM     57  C   UNL A   1      40.937  27.917  26.276  1.00  0.00     0.029 A 
ATOM     58  C   UNL A   1      42.001  27.588  27.205  1.00  0.00     0.049 A 
ATOM     59  H   UNL A   1      42.278  28.371  29.126  1.00  0.00     0.167 HD
ATOM     60  C   UNL A   1      42.226  29.374  33.385  1.00  0.00     0.031 A 
ATOM     61  C   UNL A   1      43.058  26.755  27.046  1.00  0.00     0.031 A 
ATOM     62  C   UNL A   1      43.208  30.293  32.863  1.00  0.00     0.049 A 
ATOM     63  C   UNL A   1      44.074  27.156  28.048  1.00  0.00     0.074 A 
ATOM     64  C   UNL A   1      43.244  31.651  32.621  1.00  0.00     0.029 A 
ATOM     65  N   UNL A   1      44.225  29.744  32.116  1.00  0.00    -0.354 N 
ATOM     66  N   UNL A   1      44.691  28.304  28.022  1.00  0.00    -0.248 NA
ATOM     67  C   UNL A   1      44.090  26.470  29.329  1.00  0.00     0.031 C 
ATOM     68  C   UNL A   1      43.965  31.787  31.398  1.00  0.00     0.029 A 
ATOM     69  C   UNL A   1      44.396  30.519  30.999  1.00  0.00     0.049 A 
ATOM     70  H   UNL A   1      44.740  28.936  32.344  1.00  0.00     0.167 HD
ATOM     71  C   UNL A   1      44.786  28.687  29.352  1.00  0.00     0.074 A 
ATOM     72  C   UNL A   1      44.504  27.470  30.112  1.00  0.00     0.031 C 
ATOM     73  C   UNL A   1      44.810  30.006  29.707  1.00  0.00     0.031 A 
BRANCH  60  74
ATOM     74  C   UNL A   1      42.616  28.267  34.339  1.00  0.00    -0.014 A 
ATOM     75  C   UNL A   1      43.431  28.588  35.447  1.00  0.00     0.010 A 
ATOM     76  C   UNL A   1      42.449  26.898  34.052  1.00  0.00     0.010 A 
ATOM     77  C   UNL A   1      44.107  27.595  36.170  1.00  0.00     0.020 A 
ATOM     78  C   UNL A   1      43.082  25.898  34.794  1.00  0.00     0.020 A 
ATOM     79  C   UNL A   1      43.938  26.256  35.826  1.00  0.00     0.054 A 
BRANCH  79  80
ATOM     80  S   UNL A   1      44.892  24.989  36.695  1.00  0.00     0.124 S 
ATOM     81  O   UNL A   1      44.604  23.800  35.900  1.00  0.00    -0.237 OA
ATOM     82  O   UNL A   1      46.253  25.506  36.597  1.00  0.00    -0.237 OA
ATOM     83  O   UNL A   1      44.323  24.998  38.041  1.00  0.00    -0.744 OA
ENDBRANCH  79  80
ENDBRANCH  60  74
BRANCH  61  84
ATOM     84  C   UNL A   1      43.133  25.483  26.287  1.00  0.00    -0.014 A 
ATOM     85  C   UNL A   1      44.123  25.290  25.305  1.00  0.00     0.010 A 
ATOM     86  C   UNL A   1      42.422  24.351  26.735  1.00  0.00     0.010 A 
ATOM     87  C   UNL A   1      44.447  24.001  24.849  1.00  0.00     0.020 A 
ATOM     88  C   UNL A   1      42.736  23.064  26.280  1.00  0.00     0.020 A 
ATOM     89  C   UNL A   1      43.767  22.892  25.360  1.00  0.00     0.054 A 
BRANCH  89  90
ATOM     90  S   UNL A   1      44.332  21.220  24.923  1.00  0.00     0.124 S 
ATOM     91  O   UNL A   1      45.601  21.124  25.639  1.00  0.00    -0.237 OA
ATOM     92  O   UNL A   1      43.255  20.377  25.433  1.00  0.00    -0.237 OA
ATOM     93  O   UNL A   1      44.443  21.263  23.466  1.00  0.00    -0.744 OA
ENDBRANCH  89  90
ENDBRANCH  61  84
BRANCH  73  94
ATOM     94  C   UNL A   1      45.071  31.039  28.632  1.00  0.00    -0.014 A 
ATOM     95  C   UNL A   1      44.070  31.605  27.817  1.00  0.00     0.010 A 
ATOM     96  C   UNL A   1      46.374  31.564  28.553  1.00  0.00     0.010 A 
ATOM     97  C   UNL A   1      44.375  32.654  26.933  1.00  0.00     0.020 A 
ATOM     98  C   UNL A   1      46.679  32.619  27.691  1.00  0.00     0.020 A 
ATOM     99  C   UNL A   1      45.680  33.154  26.877  1.00  0.00     0.054 A 
BRANCH  99 100
ATOM    100  S   UNL A   1      46.064  34.541  25.771  1.00  0.00     0.124 S 
ATOM    101  O   UNL A   1      45.740  35.703  26.594  1.00  0.00    -0.237 OA
ATOM    102  O   UNL A   1      47.483  34.347  25.484  1.00  0.00    -0.237 OA
ATOM    103  O   UNL A   1      45.177  34.329  24.626  1.00  0.00    -0.744 OA
ENDBRANCH  99 100
ENDBRANCH  73  94
ENDBRANCH  47  48
ENDBRANCH  39  42
ENDBRANCH  37  38
ENDBRANCH  36  37
ENDBRANCH  35  36
ENDBRANCH   3  35
TORSDOF 21
ENDMDL
MODEL 3
REMARK VINA RESULT:      -8.9      2.721      4.642
REMARK SMILES NS(=O)(=O)c1ccc(-n2nc(C(=O)NCCCC(=O)NCCCNC(=O)c3ccc(-c4c5nc(c(-c6ccc(S(=O)(=O)[O-])cc6)c6ccc([nH]6)c(-c6ccc(S(=O)(=O)[O-])cc6)c6nc(c(-c7ccc(S(=O)(=O)[O-])cc7)c7ccc4[nH]7)C=C6)C=C5)cc3)cc2-c2ccccc2)cc1
REMARK SMILES IDX 18 1 19 2 20 3 17 5 16 6 15 7 14 8 12 9 13 10 11 12 9 13
REMARK SMILES IDX 10 14 88 15 87 16 8 17 5 18 6 19 96 20 7 21 95 22 2 23 3 24
REMARK SMILES IDX 4 25 1 26 89 29 90 30 94 31 91 32 93 33 92 34 21 35 22 36
REMARK SMILES IDX 23 37 24 38 25 39 26 41 27 42 28 43 86 44 29 45 85 46 30 47
REMARK SMILES IDX 31 48 32 49 79 50 33 51 84 52 78 53 80 54 34 55 83 56 77 57
REMARK SMILES IDX 76 58 35 60 65 61 46 62 64 63 47 64 50 65 63 66 81 67 48 68
REMARK SMILES IDX 49 69 62 71 82 72 51 73 36 74 37 75 45 76 38 77 44 78 39 79
REMARK SMILES IDX 40 80 41 81 42 82 43 83 66 84 67 85 75 86 68 87 74 88 69 89
REMARK SMILES IDX 70 90 71 91 72 92 73 93 52 94 53 95 61 96 54 97 60 98 55 99
REMARK SMILES IDX 56 100 57 101 58 102 59 103
REMARK H PARENT 20 4 14 11 1 27 1 28 24 40 80 59 50 70
REMARK Flexibility Score: inf
ROOT
ATOM      1  C   UNL A   1      38.674  32.603  33.352  1.00  0.00     0.220 C 
ATOM      2  O   UNL A   1      38.935  31.454  33.709  1.00  0.00    -0.275 OA
ATOM      3  N   UNL A   1      37.598  32.800  32.541  1.00  0.00    -0.356 N 
ATOM      4  H   UNL A   1      37.090  31.984  32.331  1.00  0.00     0.163 HD
ENDROOT
BRANCH   1   5
ATOM      5  C   UNL A   1      39.532  33.762  33.811  1.00  0.00     0.102 C 
BRANCH   5   6
ATOM      6  C   UNL A   1      40.702  34.075  32.876  1.00  0.00     0.031 C 
BRANCH   6   7
ATOM      7  C   UNL A   1      41.635  35.191  33.333  1.00  0.00     0.116 C 
BRANCH   7   8
ATOM      8  N   UNL A   1      43.038  34.818  33.348  1.00  0.00    -0.351 N 
ATOM      9  C   UNL A   1      44.133  35.419  32.762  1.00  0.00     0.271 C 
ATOM     10  O   UNL A   1      45.221  34.863  32.926  1.00  0.00    -0.267 OA
ATOM     11  H   UNL A   1      43.242  34.004  33.862  1.00  0.00     0.163 HD
BRANCH   9  12
ATOM     12  C   UNL A   1      43.981  36.659  31.977  1.00  0.00     0.151 A 
ATOM     13  N   UNL A   1      43.926  38.765  31.565  1.00  0.00    -0.232 N 
ATOM     14  N   UNL A   1      44.233  37.865  32.530  1.00  0.00    -0.162 NA
ATOM     15  C   UNL A   1      43.757  38.150  30.335  1.00  0.00     0.075 A 
ATOM     16  C   UNL A   1      43.603  36.813  30.621  1.00  0.00     0.065 A 
BRANCH  13  17
ATOM     17  C   UNL A   1      43.835  40.156  31.847  1.00  0.00     0.065 A 
ATOM     18  C   UNL A   1      43.817  42.845  32.568  1.00  0.00     0.082 A 
ATOM     19  C   UNL A   1      44.826  42.367  31.731  1.00  0.00     0.024 A 
ATOM     20  C   UNL A   1      42.789  42.001  33.007  1.00  0.00     0.024 A 
ATOM     21  C   UNL A   1      44.836  41.021  31.377  1.00  0.00     0.030 A 
ATOM     22  C   UNL A   1      42.780  40.656  32.620  1.00  0.00     0.030 A 
BRANCH  18  23
ATOM     23  S   UNL A   1      43.887  44.523  33.119  1.00  0.00     0.238 S 
ATOM     24  O   UNL A   1      45.270  44.858  33.422  1.00  0.00    -0.207 OA
ATOM     25  O   UNL A   1      42.811  44.761  34.034  1.00  0.00    -0.207 OA
BRANCH  23  26
ATOM     26  N   UNL A   1      43.533  45.398  31.725  1.00  0.00    -0.225 NA
ATOM     27  H   UNL A   1      42.659  45.059  31.325  1.00  0.00     0.137 HD
ATOM     28  H   UNL A   1      44.287  45.277  31.048  1.00  0.00     0.137 HD
ENDBRANCH  23  26
ENDBRANCH  18  23
ENDBRANCH  13  17
BRANCH  15  29
ATOM     29  C   UNL A   1      43.874  38.802  29.032  1.00  0.00     0.000 A 
ATOM     30  C   UNL A   1      45.091  38.744  28.335  1.00  0.00     0.010 A 
ATOM     31  C   UNL A   1      42.782  39.451  28.450  1.00  0.00     0.010 A 
ATOM     32  C   UNL A   1      45.224  39.354  27.090  1.00  0.00     0.001 A 
ATOM     33  C   UNL A   1      42.919  40.063  27.203  1.00  0.00     0.001 A 
ATOM     34  C   UNL A   1      44.139  40.017  26.526  1.00  0.00     0.000 A 
ENDBRANCH  15  29
ENDBRANCH   9  12
ENDBRANCH   7   8
ENDBRANCH   6   7
ENDBRANCH   5   6
ENDBRANCH   1   5
BRANCH   3  35
ATOM     35  C   UNL A   1      37.071  34.014  31.931  1.00  0.00     0.117 C 
BRANCH  35  36
ATOM     36  C   UNL A   1      35.605  33.861  31.514  1.00  0.00     0.042 C 
BRANCH  36  37
ATOM     37  C   UNL A   1      35.147  32.418  31.435  1.00  0.00     0.118 C 
BRANCH  37  38
ATOM     38  N   UNL A   1      34.370  32.133  30.232  1.00  0.00    -0.352 N 
ATOM     39  C   UNL A   1      34.854  31.777  28.986  1.00  0.00     0.251 C 
ATOM     40  H   UNL A   1      33.392  32.202  30.317  1.00  0.00     0.163 HD
ATOM     41  O   UNL A   1      34.169  31.941  27.983  1.00  0.00    -0.269 OA
BRANCH  39  42
ATOM     42  C   UNL A   1      36.216  31.217  28.890  1.00  0.00     0.039 A 
ATOM     43  C   UNL A   1      37.345  32.036  28.898  1.00  0.00     0.014 A 
ATOM     44  C   UNL A   1      36.347  29.831  28.842  1.00  0.00     0.014 A 
ATOM     45  C   UNL A   1      38.605  31.441  28.945  1.00  0.00     0.010 A 
ATOM     46  C   UNL A   1      37.568  29.254  29.075  1.00  0.00     0.010 A 
ATOM     47  C   UNL A   1      38.708  30.045  29.062  1.00  0.00    -0.014 A 
BRANCH  47  48
ATOM     48  C   UNL A   1      39.999  29.396  29.253  1.00  0.00     0.031 A 
ATOM     49  C   UNL A   1      40.383  29.173  30.669  1.00  0.00     0.074 A 
ATOM     50  C   UNL A   1      40.710  28.839  28.249  1.00  0.00     0.049 A 
ATOM     51  N   UNL A   1      41.253  29.831  31.359  1.00  0.00    -0.248 NA
ATOM     52  C   UNL A   1      39.603  28.207  31.460  1.00  0.00     0.031 C 
ATOM     53  C   UNL A   1      40.329  28.668  26.841  1.00  0.00     0.029 A 
ATOM     54  N   UNL A   1      41.908  28.200  28.311  1.00  0.00    -0.354 N 
ATOM     55  C   UNL A   1      41.307  29.209  32.601  1.00  0.00     0.074 A 
ATOM     56  C   UNL A   1      40.138  28.368  32.673  1.00  0.00     0.031 C 
ATOM     57  C   UNL A   1      41.156  27.776  26.251  1.00  0.00     0.029 A 
ATOM     58  C   UNL A   1      42.232  27.468  27.174  1.00  0.00     0.049 A 
ATOM     59  H   UNL A   1      42.498  28.250  29.097  1.00  0.00     0.167 HD
ATOM     60  C   UNL A   1      42.441  29.236  33.360  1.00  0.00     0.031 A 
ATOM     61  C   UNL A   1      43.306  26.660  27.007  1.00  0.00     0.031 A 
ATOM     62  C   UNL A   1      43.400  30.179  32.837  1.00  0.00     0.049 A 
ATOM     63  C   UNL A   1      44.317  27.080  28.006  1.00  0.00     0.074 A 
ATOM     64  C   UNL A   1      43.403  31.539  32.600  1.00  0.00     0.029 A 
ATOM     65  N   UNL A   1      44.425  29.656  32.083  1.00  0.00    -0.354 N 
ATOM     66  N   UNL A   1      44.907  28.243  27.982  1.00  0.00    -0.248 NA
ATOM     67  C   UNL A   1      44.354  26.390  29.285  1.00  0.00     0.031 C 
ATOM     68  C   UNL A   1      44.116  31.696  31.374  1.00  0.00     0.029 A 
ATOM     69  C   UNL A   1      44.574  30.439  30.969  1.00  0.00     0.049 A 
ATOM     70  H   UNL A   1      44.960  28.859  32.307  1.00  0.00     0.167 HD
ATOM     71  C   UNL A   1      44.999  28.623  29.313  1.00  0.00     0.074 A 
ATOM     72  C   UNL A   1      44.749  27.397  30.070  1.00  0.00     0.031 C 
ATOM     73  C   UNL A   1      44.994  29.941  29.673  1.00  0.00     0.031 A 
BRANCH  60  74
ATOM     74  C   UNL A   1      42.861  28.135  34.308  1.00  0.00    -0.014 A 
ATOM     75  C   UNL A   1      43.283  28.488  35.608  1.00  0.00     0.010 A 
ATOM     76  C   UNL A   1      43.117  26.811  33.898  1.00  0.00     0.010 A 
ATOM     77  C   UNL A   1      43.996  27.592  36.416  1.00  0.00     0.020 A 
ATOM     78  C   UNL A   1      43.788  25.895  34.712  1.00  0.00     0.020 A 
ATOM     79  C   UNL A   1      44.257  26.304  35.953  1.00  0.00     0.054 A 
BRANCH  79  80
ATOM     80  S   UNL A   1      45.265  25.187  36.955  1.00  0.00     0.124 S 
ATOM     81  O   UNL A   1      44.337  24.819  38.019  1.00  0.00    -0.237 OA
ATOM     82  O   UNL A   1      45.595  24.131  36.003  1.00  0.00    -0.237 OA
ATOM     83  O   UNL A   1      46.392  26.023  37.366  1.00  0.00    -0.744 OA
ENDBRANCH  79  80
ENDBRANCH  60  74
BRANCH  61  84
ATOM     84  C   UNL A   1      43.407  25.393  26.243  1.00  0.00    -0.014 A 
ATOM     85  C   UNL A   1      44.444  25.197  25.312  1.00  0.00     0.010 A 
ATOM     86  C   UNL A   1      42.663  24.266  26.645  1.00  0.00     0.010 A 
ATOM     87  C   UNL A   1      44.778  23.908  24.863  1.00  0.00     0.020 A 
ATOM     88  C   UNL A   1      42.986  22.979  26.196  1.00  0.00     0.020 A 
ATOM     89  C   UNL A   1      44.062  22.803  25.330  1.00  0.00     0.054 A 
BRANCH  89  90
ATOM     90  S   UNL A   1      44.632  21.128  24.909  1.00  0.00     0.124 S 
ATOM     91  O   UNL A   1      43.670  20.286  25.614  1.00  0.00    -0.237 OA
ATOM     92  O   UNL A   1      44.533  21.115  23.452  1.00  0.00    -0.237 OA
ATOM     93  O   UNL A   1      45.996  21.086  25.433  1.00  0.00    -0.744 OA
ENDBRANCH  89  90
ENDBRANCH  61  84
BRANCH  73  94
ATOM     94  C   UNL A   1      45.227  30.984  28.601  1.00  0.00    -0.014 A 
ATOM     95  C   UNL A   1      44.212  31.519  27.783  1.00  0.00     0.010 A 
ATOM     96  C   UNL A   1      46.512  31.550  28.529  1.00  0.00     0.010 A 
ATOM     97  C   UNL A   1      44.487  32.579  26.902  1.00  0.00     0.020 A 
ATOM     98  C   UNL A   1      46.787  32.616  27.670  1.00  0.00     0.020 A 
ATOM     99  C   UNL A   1      45.776  33.120  26.853  1.00  0.00     0.054 A 
BRANCH  99 100
ATOM    100  S   UNL A   1      46.119  34.521  25.750  1.00  0.00     0.124 S 
ATOM    101  O   UNL A   1      47.541  34.355  25.460  1.00  0.00    -0.237 OA
ATOM    102  O   UNL A   1      45.214  34.282  24.628  1.00  0.00    -0.237 OA
ATOM    103  O   UNL A   1      45.786  35.692  26.562  1.00  0.00    -0.744 OA
ENDBRANCH  99 100
ENDBRANCH  73  94
ENDBRANCH  47  48
ENDBRANCH  39  42
ENDBRANCH  37  38
ENDBRANCH  36  37
ENDBRANCH  35  36
ENDBRANCH   3  35
TORSDOF 21
ENDMDL
