MODEL 1
REMARK VINA RESULT:     -11.5      0.000      0.000
REMARK SMILES O=C(NCCCNC(=O)c1ccc(CNC(=O)c2cccnc2)o1)c1ccc(-c2c3nc(c(-c4ccc(S(=O)(=O)[O-])cc4)c4ccc([nH]4)c(-c4ccc(S(=O)(=O)[O-])cc4)c4nc(c(-c5ccc(S(=O)(=O)[O-])cc5)c5ccc2[nH]5)C=C4)C=C3)cc1
REMARK SMILES IDX 5 1 4 2 3 3 1 4 2 5 25 7 26 8 84 9 27 10 83 11 28 12 29 13
REMARK SMILES IDX 30 14 77 15 31 16 82 17 76 18 78 19 32 20 81 21 75 22 74 23
REMARK SMILES IDX 33 25 63 26 44 27 62 28 45 29 48 30 61 31 79 32 46 33 47 34
REMARK SMILES IDX 60 36 80 37 49 38 34 39 35 40 43 41 36 42 42 43 37 44 38 45
REMARK SMILES IDX 39 46 40 47 41 48 64 49 65 50 73 51 66 52 72 53 67 54 68 55
REMARK SMILES IDX 69 56 70 57 71 58 50 59 51 60 59 61 52 62 58 63 53 64 54 65
REMARK SMILES IDX 55 66 56 67 57 68 6 69 7 70 8 71 9 73 10 74 11 75 24 76
REMARK SMILES IDX 12 77 13 78 14 79 15 80 16 81 17 83 18 84 19 85 23 86 20 87
REMARK SMILES IDX 22 88 21 89
REMARK H PARENT 3 6 78 24 48 35 7 72 15 82
REMARK Flexibility Score: inf
ROOT
ATOM      1  C   UNL A   1      33.944  28.702  27.035  1.00  0.00     0.042 C 
ENDROOT
BRANCH   1   2
ATOM      2  C   UNL A   1      35.206  29.452  27.445  1.00  0.00     0.118 C 
BRANCH   2   3
ATOM      3  N   UNL A   1      35.198  29.830  28.853  1.00  0.00    -0.352 N 
ATOM      4  O   UNL A   1      35.894  29.923  30.985  1.00  0.00    -0.269 OA
ATOM      5  C   UNL A   1      36.184  29.741  29.805  1.00  0.00     0.251 C 
ATOM      6  H   UNL A   1      34.348  30.211  29.172  1.00  0.00     0.163 HD
BRANCH   5   7
ATOM      7  C   UNL A   1      37.578  29.415  29.426  1.00  0.00     0.039 A 
ATOM      8  C   UNL A   1      38.050  29.667  28.139  1.00  0.00     0.014 A 
ATOM      9  C   UNL A   1      38.444  28.895  30.395  1.00  0.00     0.014 A 
ATOM     10  C   UNL A   1      39.332  29.268  27.777  1.00  0.00     0.010 A 
ATOM     11  C   UNL A   1      39.764  28.580  30.055  1.00  0.00     0.010 A 
ATOM     12  C   UNL A   1      40.212  28.737  28.735  1.00  0.00    -0.014 A 
BRANCH  12  13
ATOM     13  C   UNL A   1      41.611  28.430  28.342  1.00  0.00     0.031 A 
ATOM     14  C   UNL A   1      42.685  29.481  28.387  1.00  0.00     0.074 A 
ATOM     15  C   UNL A   1      41.914  27.168  27.975  1.00  0.00     0.049 A 
ATOM     16  N   UNL A   1      43.961  29.361  28.120  1.00  0.00    -0.248 NA
ATOM     17  C   UNL A   1      42.280  30.842  28.773  1.00  0.00     0.031 C 
ATOM     18  C   UNL A   1      40.953  26.065  27.881  1.00  0.00     0.029 A 
ATOM     19  N   UNL A   1      43.112  26.593  27.639  1.00  0.00    -0.354 N 
ATOM     20  C   UNL A   1      44.509  30.628  28.288  1.00  0.00     0.074 A 
ATOM     21  C   UNL A   1      43.422  31.509  28.657  1.00  0.00     0.031 C 
ATOM     22  C   UNL A   1      41.607  24.938  27.566  1.00  0.00     0.029 A 
ATOM     23  C   UNL A   1      43.019  25.247  27.375  1.00  0.00     0.049 A 
ATOM     24  H   UNL A   1      43.957  27.096  27.590  1.00  0.00     0.167 HD
ATOM     25  C   UNL A   1      45.799  31.018  28.150  1.00  0.00     0.031 A 
ATOM     26  C   UNL A   1      43.960  24.357  27.009  1.00  0.00     0.031 A 
ATOM     27  C   UNL A   1      46.878  30.137  27.783  1.00  0.00     0.049 A 
ATOM     28  C   UNL A   1      45.377  24.820  26.847  1.00  0.00     0.074 A 
ATOM     29  C   UNL A   1      48.223  30.434  27.647  1.00  0.00     0.029 A 
ATOM     30  N   UNL A   1      46.736  28.788  27.491  1.00  0.00    -0.354 N 
ATOM     31  N   UNL A   1      45.877  26.018  27.040  1.00  0.00    -0.248 NA
ATOM     32  C   UNL A   1      46.357  23.815  26.417  1.00  0.00     0.031 C 
ATOM     33  C   UNL A   1      48.888  29.275  27.227  1.00  0.00     0.029 A 
ATOM     34  C   UNL A   1      47.965  28.245  27.152  1.00  0.00     0.049 A 
ATOM     35  H   UNL A   1      45.888  28.290  27.520  1.00  0.00     0.167 HD
ATOM     36  C   UNL A   1      47.233  25.907  26.764  1.00  0.00     0.074 A 
ATOM     37  C   UNL A   1      47.479  24.522  26.414  1.00  0.00     0.031 C 
ATOM     38  C   UNL A   1      48.189  26.868  26.795  1.00  0.00     0.031 A 
BRANCH  25  39
ATOM     39  C   UNL A   1      46.118  32.473  28.377  1.00  0.00    -0.014 A 
ATOM     40  C   UNL A   1      46.495  32.947  29.646  1.00  0.00     0.010 A 
ATOM     41  C   UNL A   1      46.088  33.371  27.293  1.00  0.00     0.010 A 
ATOM     42  C   UNL A   1      46.802  34.297  29.835  1.00  0.00     0.020 A 
ATOM     43  C   UNL A   1      46.417  34.718  27.474  1.00  0.00     0.020 A 
ATOM     44  C   UNL A   1      46.756  35.176  28.748  1.00  0.00     0.054 A 
BRANCH  44  45
ATOM     45  S   UNL A   1      47.175  36.921  29.018  1.00  0.00     0.124 S 
ATOM     46  O   UNL A   1      48.326  36.817  29.913  1.00  0.00    -0.237 OA
ATOM     47  O   UNL A   1      47.472  37.394  27.669  1.00  0.00    -0.237 OA
ATOM     48  O   UNL A   1      45.967  37.479  29.619  1.00  0.00    -0.744 OA
ENDBRANCH  44  45
ENDBRANCH  25  39
BRANCH  26  49
ATOM     49  C   UNL A   1      43.576  22.942  26.760  1.00  0.00    -0.014 A 
ATOM     50  C   UNL A   1      43.918  22.307  25.554  1.00  0.00     0.010 A 
ATOM     51  C   UNL A   1      42.891  22.212  27.750  1.00  0.00     0.010 A 
ATOM     52  C   UNL A   1      43.575  20.969  25.339  1.00  0.00     0.020 A 
ATOM     53  C   UNL A   1      42.571  20.869  27.550  1.00  0.00     0.020 A 
ATOM     54  C   UNL A   1      42.905  20.258  26.340  1.00  0.00     0.054 A 
BRANCH  54  55
ATOM     55  S   UNL A   1      42.523  18.506  26.068  1.00  0.00     0.124 S 
ATOM     56  O   UNL A   1      41.097  18.552  25.759  1.00  0.00    -0.237 OA
ATOM     57  O   UNL A   1      43.402  18.157  24.954  1.00  0.00    -0.237 OA
ATOM     58  O   UNL A   1      42.869  17.880  27.342  1.00  0.00    -0.744 OA
ENDBRANCH  54  55
ENDBRANCH  26  49
BRANCH  38  59
ATOM     59  C   UNL A   1      49.592  26.446  26.452  1.00  0.00    -0.014 A 
ATOM     60  C   UNL A   1      50.086  26.572  25.142  1.00  0.00     0.010 A 
ATOM     61  C   UNL A   1      50.434  25.948  27.462  1.00  0.00     0.010 A 
ATOM     62  C   UNL A   1      51.391  26.175  24.839  1.00  0.00     0.020 A 
ATOM     63  C   UNL A   1      51.748  25.573  27.168  1.00  0.00     0.020 A 
ATOM     64  C   UNL A   1      52.213  25.674  25.855  1.00  0.00     0.054 A 
BRANCH  64  65
ATOM     65  S   UNL A   1      53.914  25.197  25.447  1.00  0.00     0.124 S 
ATOM     66  O   UNL A   1      54.679  25.890  26.481  1.00  0.00    -0.237 OA
ATOM     67  O   UNL A   1      53.877  23.741  25.563  1.00  0.00    -0.237 OA
ATOM     68  O   UNL A   1      54.099  25.704  24.089  1.00  0.00    -0.744 OA
ENDBRANCH  64  65
ENDBRANCH  38  59
ENDBRANCH  12  13
ENDBRANCH   5   7
ENDBRANCH   2   3
ENDBRANCH   1   2
BRANCH   1  69
ATOM     69  C   UNL A   1      32.981  29.530  26.192  1.00  0.00     0.118 C 
BRANCH  69  70
ATOM     70  N   UNL A   1      33.455  29.700  24.827  1.00  0.00    -0.349 N 
ATOM     71  C   UNL A   1      33.052  29.049  23.684  1.00  0.00     0.286 C 
ATOM     72  H   UNL A   1      34.162  30.374  24.706  1.00  0.00     0.163 HD
ATOM     73  O   UNL A   1      33.746  29.181  22.676  1.00  0.00    -0.266 OA
BRANCH  71  74
ATOM     74  C   UNL A   1      31.844  28.260  23.728  1.00  0.00     0.191 A 
ATOM     75  C   UNL A   1      30.507  28.607  23.794  1.00  0.00     0.056 A 
ATOM     76  O   UNL A   1      31.957  26.899  23.703  1.00  0.00    -0.454 OA
ATOM     77  C   UNL A   1      29.772  27.398  23.858  1.00  0.00     0.048 A 
ATOM     78  C   UNL A   1      30.702  26.382  23.812  1.00  0.00     0.124 A 
BRANCH  78  79
ATOM     79  C   UNL A   1      30.609  24.908  23.912  1.00  0.00     0.191 C 
BRANCH  79  80
ATOM     80  N   UNL A   1      30.311  24.530  25.277  1.00  0.00    -0.345 N 
ATOM     81  C   UNL A   1      31.134  23.939  26.200  1.00  0.00     0.253 C 
ATOM     82  H   UNL A   1      29.397  24.725  25.584  1.00  0.00     0.164 HD
ATOM     83  O   UNL A   1      30.688  23.570  27.283  1.00  0.00    -0.269 OA
BRANCH  81  84
ATOM     84  C   UNL A   1      32.559  23.723  25.897  1.00  0.00     0.058 A 
ATOM     85  C   UNL A   1      33.523  24.723  26.034  1.00  0.00     0.017 A 
ATOM     86  C   UNL A   1      32.968  22.466  25.480  1.00  0.00     0.124 A 
ATOM     87  C   UNL A   1      34.843  24.444  25.684  1.00  0.00     0.021 A 
ATOM     88  N   UNL A   1      34.247  22.166  25.145  1.00  0.00    -0.264 NA
ATOM     89  C   UNL A   1      35.151  23.167  25.241  1.00  0.00     0.111 A 
ENDBRANCH  81  84
ENDBRANCH  79  80
ENDBRANCH  78  79
ENDBRANCH  71  74
ENDBRANCH  69  70
ENDBRANCH   1  69
TORSDOF 16
ENDMDL
MODEL 2
REMARK VINA RESULT:     -11.4      4.364     11.454
REMARK SMILES O=C(NCCCNC(=O)c1ccc(CNC(=O)c2cccnc2)o1)c1ccc(-c2c3nc(c(-c4ccc(S(=O)(=O)[O-])cc4)c4ccc([nH]4)c(-c4ccc(S(=O)(=O)[O-])cc4)c4nc(c(-c5ccc(S(=O)(=O)[O-])cc5)c5ccc2[nH]5)C=C4)C=C3)cc1
REMARK SMILES IDX 5 1 4 2 3 3 1 4 2 5 25 7 26 8 84 9 27 10 83 11 28 12 29 13
REMARK SMILES IDX 30 14 77 15 31 16 82 17 76 18 78 19 32 20 81 21 75 22 74 23
REMARK SMILES IDX 33 25 63 26 44 27 62 28 45 29 48 30 61 31 79 32 46 33 47 34
REMARK SMILES IDX 60 36 80 37 49 38 34 39 35 40 43 41 36 42 42 43 37 44 38 45
REMARK SMILES IDX 39 46 40 47 41 48 64 49 65 50 73 51 66 52 72 53 67 54 68 55
REMARK SMILES IDX 69 56 70 57 71 58 50 59 51 60 59 61 52 62 58 63 53 64 54 65
REMARK SMILES IDX 55 66 56 67 57 68 6 69 7 70 8 71 9 73 10 74 11 75 24 76
REMARK SMILES IDX 12 77 13 78 14 79 15 80 16 81 17 83 18 84 19 85 23 86 20 87
REMARK SMILES IDX 22 88 21 89
REMARK H PARENT 3 6 78 24 48 35 7 72 15 82
REMARK Flexibility Score: inf
ROOT
ATOM      1  C   UNL A   1      41.381  21.380  26.625  1.00  0.00     0.042 C 
ENDROOT
BRANCH   1   2
ATOM      2  C   UNL A   1      40.084  21.700  27.359  1.00  0.00     0.118 C 
BRANCH   2   3
ATOM      3  N   UNL A   1      39.039  22.178  26.462  1.00  0.00    -0.352 N 
ATOM      4  O   UNL A   1      37.523  23.593  25.601  1.00  0.00    -0.269 OA
ATOM      5  C   UNL A   1      38.553  23.446  26.255  1.00  0.00     0.251 C 
ATOM      6  H   UNL A   1      38.613  21.479  25.916  1.00  0.00     0.163 HD
BRANCH   5   7
ATOM      7  C   UNL A   1      39.247  24.626  26.819  1.00  0.00     0.039 A 
ATOM      8  C   UNL A   1      39.891  25.545  25.990  1.00  0.00     0.014 A 
ATOM      9  C   UNL A   1      39.208  24.845  28.201  1.00  0.00     0.014 A 
ATOM     10  C   UNL A   1      40.617  26.594  26.546  1.00  0.00     0.010 A 
ATOM     11  C   UNL A   1      39.860  25.953  28.752  1.00  0.00     0.010 A 
ATOM     12  C   UNL A   1      40.594  26.823  27.931  1.00  0.00    -0.014 A 
BRANCH  12  13
ATOM     13  C   UNL A   1      41.284  28.019  28.479  1.00  0.00     0.031 A 
ATOM     14  C   UNL A   1      42.779  28.165  28.404  1.00  0.00     0.074 A 
ATOM     15  C   UNL A   1      40.535  29.003  29.018  1.00  0.00     0.049 A 
ATOM     16  N   UNL A   1      43.525  29.167  28.793  1.00  0.00    -0.248 NA
ATOM     17  C   UNL A   1      43.535  27.043  27.824  1.00  0.00     0.031 C 
ATOM     18  C   UNL A   1      39.076  28.969  29.158  1.00  0.00     0.029 A 
ATOM     19  N   UNL A   1      40.888  30.227  29.524  1.00  0.00    -0.354 N 
ATOM     20  C   UNL A   1      44.838  28.794  28.525  1.00  0.00     0.074 A 
ATOM     21  C   UNL A   1      44.787  27.463  27.960  1.00  0.00     0.031 C 
ATOM     22  C   UNL A   1      38.655  30.139  29.660  1.00  0.00     0.029 A 
ATOM     23  C   UNL A   1      39.814  30.979  29.936  1.00  0.00     0.049 A 
ATOM     24  H   UNL A   1      41.820  30.536  29.587  1.00  0.00     0.167 HD
ATOM     25  C   UNL A   1      45.977  29.499  28.727  1.00  0.00     0.031 A 
ATOM     26  C   UNL A   1      39.761  32.207  30.486  1.00  0.00     0.031 A 
ATOM     27  C   UNL A   1      46.021  30.825  29.289  1.00  0.00     0.049 A 
ATOM     28  C   UNL A   1      41.039  32.957  30.715  1.00  0.00     0.074 A 
ATOM     29  C   UNL A   1      47.125  31.631  29.507  1.00  0.00     0.029 A 
ATOM     30  N   UNL A   1      44.914  31.539  29.727  1.00  0.00    -0.354 N 
ATOM     31  N   UNL A   1      42.267  32.597  30.426  1.00  0.00    -0.248 NA
ATOM     32  C   UNL A   1      40.927  34.279  31.346  1.00  0.00     0.031 C 
ATOM     33  C   UNL A   1      46.691  32.814  30.118  1.00  0.00     0.029 A 
ATOM     34  C   UNL A   1      45.312  32.765  30.234  1.00  0.00     0.049 A 
ATOM     35  H   UNL A   1      43.984  31.220  29.683  1.00  0.00     0.167 HD
ATOM     36  C   UNL A   1      43.074  33.652  30.831  1.00  0.00     0.074 A 
ATOM     37  C   UNL A   1      42.193  34.673  31.363  1.00  0.00     0.031 C 
ATOM     38  C   UNL A   1      44.423  33.764  30.771  1.00  0.00     0.031 A 
BRANCH  25  39
ATOM     39  C   UNL A   1      47.281  28.841  28.359  1.00  0.00    -0.014 A 
ATOM     40  C   UNL A   1      47.892  29.084  27.116  1.00  0.00     0.010 A 
ATOM     41  C   UNL A   1      47.930  28.008  29.289  1.00  0.00     0.010 A 
ATOM     42  C   UNL A   1      49.111  28.478  26.796  1.00  0.00     0.020 A 
ATOM     43  C   UNL A   1      49.159  27.418  28.981  1.00  0.00     0.020 A 
ATOM     44  C   UNL A   1      49.734  27.643  27.729  1.00  0.00     0.054 A 
BRANCH  44  45
ATOM     45  S   UNL A   1      51.323  26.882  27.294  1.00  0.00     0.124 S 
ATOM     46  O   UNL A   1      51.700  27.637  26.101  1.00  0.00    -0.237 OA
ATOM     47  O   UNL A   1      52.138  27.137  28.479  1.00  0.00    -0.237 OA
ATOM     48  O   UNL A   1      50.985  25.480  27.064  1.00  0.00    -0.744 OA
ENDBRANCH  44  45
ENDBRANCH  25  39
BRANCH  26  49
ATOM     49  C   UNL A   1      38.446  32.786  30.868  1.00  0.00    -0.014 A 
ATOM     50  C   UNL A   1      37.647  33.440  29.916  1.00  0.00     0.010 A 
ATOM     51  C   UNL A   1      37.972  32.652  32.186  1.00  0.00     0.010 A 
ATOM     52  C   UNL A   1      36.400  33.960  30.277  1.00  0.00     0.020 A 
ATOM     53  C   UNL A   1      36.716  33.145  32.544  1.00  0.00     0.020 A 
ATOM     54  C   UNL A   1      35.942  33.806  31.590  1.00  0.00     0.054 A 
BRANCH  54  55
ATOM     55  S   UNL A   1      34.296  34.431  32.026  1.00  0.00     0.124 S 
ATOM     56  O   UNL A   1      33.802  33.386  32.918  1.00  0.00    -0.237 OA
ATOM     57  O   UNL A   1      34.599  35.713  32.658  1.00  0.00    -0.237 OA
ATOM     58  O   UNL A   1      33.616  34.528  30.736  1.00  0.00    -0.744 OA
ENDBRANCH  54  55
ENDBRANCH  26  49
BRANCH  38  59
ATOM     59  C   UNL A   1      45.026  35.044  31.283  1.00  0.00    -0.014 A 
ATOM     60  C   UNL A   1      45.189  36.155  30.439  1.00  0.00     0.010 A 
ATOM     61  C   UNL A   1      45.403  35.142  32.634  1.00  0.00     0.010 A 
ATOM     62  C   UNL A   1      45.752  37.337  30.929  1.00  0.00     0.020 A 
ATOM     63  C   UNL A   1      45.943  36.330  33.134  1.00  0.00     0.020 A 
ATOM     64  C   UNL A   1      46.128  37.415  32.274  1.00  0.00     0.054 A 
BRANCH  64  65
ATOM     65  S   UNL A   1      46.824  38.969  32.899  1.00  0.00     0.124 S 
ATOM     66  O   UNL A   1      47.498  38.531  34.117  1.00  0.00    -0.237 OA
ATOM     67  O   UNL A   1      47.704  39.389  31.811  1.00  0.00    -0.237 OA
ATOM     68  O   UNL A   1      45.650  39.815  33.104  1.00  0.00    -0.744 OA
ENDBRANCH  64  65
ENDBRANCH  38  59
ENDBRANCH  12  13
ENDBRANCH   5   7
ENDBRANCH   2   3
ENDBRANCH   1   2
BRANCH   1  69
ATOM     69  C   UNL A   1      42.353  20.529  27.434  1.00  0.00     0.118 C 
BRANCH  69  70
ATOM     70  N   UNL A   1      42.284  19.123  27.068  1.00  0.00    -0.349 N 
ATOM     71  C   UNL A   1      42.970  18.451  26.082  1.00  0.00     0.286 C 
ATOM     72  H   UNL A   1      41.661  18.577  27.600  1.00  0.00     0.163 HD
ATOM     73  O   UNL A   1      42.590  17.316  25.793  1.00  0.00    -0.266 OA
BRANCH  71  74
ATOM     74  C   UNL A   1      44.092  19.105  25.452  1.00  0.00     0.191 A 
ATOM     75  C   UNL A   1      45.445  18.821  25.433  1.00  0.00     0.056 A 
ATOM     76  O   UNL A   1      43.856  20.230  24.714  1.00  0.00    -0.454 OA
ATOM     77  C   UNL A   1      46.069  19.848  24.684  1.00  0.00     0.048 A 
ATOM     78  C   UNL A   1      45.060  20.692  24.276  1.00  0.00     0.124 A 
BRANCH  78  79
ATOM     79  C   UNL A   1      45.037  21.975  23.537  1.00  0.00     0.191 C 
BRANCH  79  80
ATOM     80  N   UNL A   1      43.922  22.779  23.992  1.00  0.00    -0.345 N 
ATOM     81  C   UNL A   1      43.911  23.764  24.944  1.00  0.00     0.253 C 
ATOM     82  H   UNL A   1      43.058  22.593  23.559  1.00  0.00     0.164 HD
ATOM     83  O   UNL A   1      42.850  24.268  25.301  1.00  0.00    -0.269 OA
BRANCH  81  84
ATOM     84  C   UNL A   1      45.168  24.218  25.561  1.00  0.00     0.058 A 
ATOM     85  C   UNL A   1      45.916  25.286  25.062  1.00  0.00     0.017 A 
ATOM     86  C   UNL A   1      45.621  23.573  26.702  1.00  0.00     0.124 A 
ATOM     87  C   UNL A   1      47.117  25.621  25.684  1.00  0.00     0.021 A 
ATOM     88  N   UNL A   1      46.779  23.888  27.332  1.00  0.00    -0.264 NA
ATOM     89  C   UNL A   1      47.506  24.895  26.799  1.00  0.00     0.111 A 
ENDBRANCH  81  84
ENDBRANCH  79  80
ENDBRANCH  78  79
ENDBRANCH  71  74
ENDBRANCH  69  70
ENDBRANCH   1  69
TORSDOF 16
ENDMDL
MODEL 3
REMARK VINA RESULT:     -11.4      3.640      4.704
REMARK SMILES O=C(NCCCNC(=O)c1ccc(CNC(=O)c2cccnc2)o1)c1ccc(-c2c3nc(c(-c4ccc(S(=O)(=O)[O-])cc4)c4ccc([nH]4)c(-c4ccc(S(=O)(=O)[O-])cc4)c4nc(c(-c5ccc(S(=O)(=O)[O-])cc5)c5ccc2[nH]5)C=C4)C=C3)cc1
REMARK SMILES IDX 5 1 4 2 3 3 1 4 2 5 25 7 26 8 84 9 27 10 83 11 28 12 29 13
REMARK SMILES IDX 30 14 77 15 31 16 82 17 76 18 78 19 32 20 81 21 75 22 74 23
REMARK SMILES IDX 33 25 63 26 44 27 62 28 45 29 48 30 61 31 79 32 46 33 47 34
REMARK SMILES IDX 60 36 80 37 49 38 34 39 35 40 43 41 36 42 42 43 37 44 38 45
REMARK SMILES IDX 39 46 40 47 41 48 64 49 65 50 73 51 66 52 72 53 67 54 68 55
REMARK SMILES IDX 69 56 70 57 71 58 50 59 51 60 59 61 52 62 58 63 53 64 54 65
REMARK SMILES IDX 55 66 56 67 57 68 6 69 7 70 8 71 9 73 10 74 11 75 24 76
REMARK SMILES IDX 12 77 13 78 14 79 15 80 16 81 17 83 18 84 19 85 23 86 20 87
REMARK SMILES IDX 22 88 21 89
REMARK H PARENT 3 6 78 24 48 35 7 72 15 82
REMARK Flexibility Score: inf
ROOT
ATOM      1  C   UNL A   1      32.880  27.404  25.726  1.00  0.00     0.042 C 
ENDROOT
BRANCH   1   2
ATOM      2  C   UNL A   1      33.878  27.932  26.751  1.00  0.00     0.118 C 
BRANCH   2   3
ATOM      3  N   UNL A   1      33.661  29.338  27.067  1.00  0.00    -0.352 N 
ATOM      4  O   UNL A   1      33.985  31.317  28.077  1.00  0.00    -0.269 OA
ATOM      5  C   UNL A   1      34.456  30.233  27.741  1.00  0.00     0.251 C 
ATOM      6  H   UNL A   1      32.807  29.706  26.745  1.00  0.00     0.163 HD
BRANCH   5   7
ATOM      7  C   UNL A   1      35.860  29.900  28.074  1.00  0.00     0.039 A 
ATOM      8  C   UNL A   1      36.200  29.393  29.328  1.00  0.00     0.014 A 
ATOM      9  C   UNL A   1      36.848  30.050  27.094  1.00  0.00     0.014 A 
ATOM     10  C   UNL A   1      37.535  29.176  29.652  1.00  0.00     0.010 A 
ATOM     11  C   UNL A   1      38.179  29.742  27.391  1.00  0.00     0.010 A 
ATOM     12  C   UNL A   1      38.539  29.329  28.683  1.00  0.00    -0.014 A 
BRANCH  12  13
ATOM     13  C   UNL A   1      39.940  28.976  29.030  1.00  0.00     0.031 A 
ATOM     14  C   UNL A   1      40.823  29.930  29.785  1.00  0.00     0.074 A 
ATOM     15  C   UNL A   1      40.401  27.757  28.684  1.00  0.00     0.049 A 
ATOM     16  N   UNL A   1      42.051  29.754  30.203  1.00  0.00    -0.248 NA
ATOM     17  C   UNL A   1      40.264  31.252  30.110  1.00  0.00     0.031 C 
ATOM     18  C   UNL A   1      39.641  26.750  27.938  1.00  0.00     0.029 A 
ATOM     19  N   UNL A   1      41.603  27.147  28.933  1.00  0.00    -0.354 N 
ATOM     20  C   UNL A   1      42.420  30.943  30.823  1.00  0.00     0.074 A 
ATOM     21  C   UNL A   1      41.292  31.843  30.706  1.00  0.00     0.031 C 
ATOM     22  C   UNL A   1      40.372  25.631  27.838  1.00  0.00     0.029 A 
ATOM     23  C   UNL A   1      41.673  25.859  28.456  1.00  0.00     0.049 A 
ATOM     24  H   UNL A   1      42.344  27.588  29.406  1.00  0.00     0.167 HD
ATOM     25  C   UNL A   1      43.588  31.253  31.435  1.00  0.00     0.031 A 
ATOM     26  C   UNL A   1      42.674  24.960  28.498  1.00  0.00     0.031 A 
ATOM     27  C   UNL A   1      44.707  30.353  31.549  1.00  0.00     0.049 A 
ATOM     28  C   UNL A   1      43.962  25.336  29.167  1.00  0.00     0.074 A 
ATOM     29  C   UNL A   1      45.922  30.566  32.176  1.00  0.00     0.029 A 
ATOM     30  N   UNL A   1      44.751  29.070  31.023  1.00  0.00    -0.354 N 
ATOM     31  N   UNL A   1      44.277  26.456  29.772  1.00  0.00    -0.248 NA
ATOM     32  C   UNL A   1      45.031  24.329  29.157  1.00  0.00     0.031 C 
ATOM     33  C   UNL A   1      46.718  29.429  31.990  1.00  0.00     0.029 A 
ATOM     34  C   UNL A   1      45.980  28.490  31.290  1.00  0.00     0.049 A 
ATOM     35  H   UNL A   1      44.016  28.636  30.531  1.00  0.00     0.167 HD
ATOM     36  C   UNL A   1      45.579  26.286  30.225  1.00  0.00     0.074 A 
ATOM     37  C   UNL A   1      45.983  24.946  29.845  1.00  0.00     0.031 C 
ATOM     38  C   UNL A   1      46.369  27.161  30.894  1.00  0.00     0.031 A 
BRANCH  25  39
ATOM     39  C   UNL A   1      43.729  32.636  32.014  1.00  0.00    -0.014 A 
ATOM     40  C   UNL A   1      44.248  33.696  31.249  1.00  0.00     0.010 A 
ATOM     41  C   UNL A   1      43.288  32.892  33.326  1.00  0.00     0.010 A 
ATOM     42  C   UNL A   1      44.357  34.977  31.797  1.00  0.00     0.020 A 
ATOM     43  C   UNL A   1      43.375  34.177  33.869  1.00  0.00     0.020 A 
ATOM     44  C   UNL A   1      43.925  35.209  33.107  1.00  0.00     0.054 A 
BRANCH  44  45
ATOM     45  S   UNL A   1      44.063  36.886  33.787  1.00  0.00     0.124 S 
ATOM     46  O   UNL A   1      43.241  36.788  34.991  1.00  0.00    -0.237 OA
ATOM     47  O   UNL A   1      45.499  37.021  34.019  1.00  0.00    -0.237 OA
ATOM     48  O   UNL A   1      43.523  37.735  32.730  1.00  0.00    -0.744 OA
ENDBRANCH  44  45
ENDBRANCH  25  39
BRANCH  26  49
ATOM     49  C   UNL A   1      42.489  23.624  27.872  1.00  0.00    -0.014 A 
ATOM     50  C   UNL A   1      42.869  23.397  26.539  1.00  0.00     0.010 A 
ATOM     51  C   UNL A   1      41.959  22.560  28.625  1.00  0.00     0.010 A 
ATOM     52  C   UNL A   1      42.715  22.132  25.966  1.00  0.00     0.020 A 
ATOM     53  C   UNL A   1      41.829  21.288  28.065  1.00  0.00     0.020 A 
ATOM     54  C   UNL A   1      42.197  21.084  26.734  1.00  0.00     0.054 A 
BRANCH  54  55
ATOM     55  S   UNL A   1      42.063  19.433  25.994  1.00  0.00     0.124 S 
ATOM     56  O   UNL A   1      42.579  18.581  27.061  1.00  0.00    -0.237 OA
ATOM     57  O   UNL A   1      40.631  19.319  25.729  1.00  0.00    -0.237 OA
ATOM     58  O   UNL A   1      42.902  19.526  24.802  1.00  0.00    -0.744 OA
ENDBRANCH  54  55
ENDBRANCH  26  49
BRANCH  38  59
ATOM     59  C   UNL A   1      47.748  26.688  31.267  1.00  0.00    -0.014 A 
ATOM     60  C   UNL A   1      47.960  25.910  32.418  1.00  0.00     0.010 A 
ATOM     61  C   UNL A   1      48.838  27.000  30.435  1.00  0.00     0.010 A 
ATOM     62  C   UNL A   1      49.247  25.479  32.751  1.00  0.00     0.020 A 
ATOM     63  C   UNL A   1      50.122  26.550  30.752  1.00  0.00     0.020 A 
ATOM     64  C   UNL A   1      50.321  25.805  31.917  1.00  0.00     0.054 A 
BRANCH  64  65
ATOM     65  S   UNL A   1      51.977  25.207  32.349  1.00  0.00     0.124 S 
ATOM     66  O   UNL A   1      51.768  23.764  32.424  1.00  0.00    -0.237 OA
ATOM     67  O   UNL A   1      52.790  25.667  31.226  1.00  0.00    -0.237 OA
ATOM     68  O   UNL A   1      52.260  25.864  33.624  1.00  0.00    -0.744 OA
ENDBRANCH  64  65
ENDBRANCH  38  59
ENDBRANCH  12  13
ENDBRANCH   5   7
ENDBRANCH   2   3
ENDBRANCH   1   2
BRANCH   1  69
ATOM     69  C   UNL A   1      33.207  26.007  25.210  1.00  0.00     0.118 C 
BRANCH  69  70
ATOM     70  N   UNL A   1      33.130  25.927  23.760  1.00  0.00    -0.349 N 
ATOM     71  C   UNL A   1      33.577  24.930  22.924  1.00  0.00     0.286 C 
ATOM     72  H   UNL A   1      32.700  26.693  23.316  1.00  0.00     0.163 HD
ATOM     73  O   UNL A   1      33.619  25.171  21.717  1.00  0.00    -0.266 OA
BRANCH  71  74
ATOM     74  C   UNL A   1      33.960  23.664  23.502  1.00  0.00     0.191 A 
ATOM     75  C   UNL A   1      35.184  23.148  23.889  1.00  0.00     0.056 A 
ATOM     76  O   UNL A   1      32.984  22.739  23.744  1.00  0.00    -0.454 OA
ATOM     77  C   UNL A   1      34.948  21.830  24.348  1.00  0.00     0.048 A 
ATOM     78  C   UNL A   1      33.591  21.621  24.228  1.00  0.00     0.124 A 
BRANCH  78  79
ATOM     79  C   UNL A   1      32.715  20.450  24.459  1.00  0.00     0.191 C 
BRANCH  79  80
ATOM     80  N   UNL A   1      32.354  19.854  23.189  1.00  0.00    -0.345 N 
ATOM     81  C   UNL A   1      32.486  18.550  22.787  1.00  0.00     0.253 C 
ATOM     82  H   UNL A   1      31.963  20.467  22.526  1.00  0.00     0.164 HD
ATOM     83  O   UNL A   1      32.244  18.232  21.627  1.00  0.00    -0.269 OA
BRANCH  81  84
ATOM     84  C   UNL A   1      32.934  17.520  23.739  1.00  0.00     0.058 A 
ATOM     85  C   UNL A   1      32.224  17.196  24.896  1.00  0.00     0.017 A 
ATOM     86  C   UNL A   1      34.101  16.823  23.464  1.00  0.00     0.124 A 
ATOM     87  C   UNL A   1      32.744  16.237  25.763  1.00  0.00     0.021 A 
ATOM     88  N   UNL A   1      34.621  15.878  24.286  1.00  0.00    -0.264 NA
ATOM     89  C   UNL A   1      33.937  15.618  25.423  1.00  0.00     0.111 A 
ENDBRANCH  81  84
ENDBRANCH  79  80
ENDBRANCH  78  79
ENDBRANCH  71  74
ENDBRANCH  69  70
ENDBRANCH   1  69
TORSDOF 16
ENDMDL
