MODEL 1
REMARK VINA RESULT:     -12.5      0.000      0.000
REMARK SMILES O=C(NCCCNC(=O)c1ccnc(S[C@@H]2CCO[C@]3(CCOC3)C2)c1)c1ccc(-c2c3nc(c(-c4ccc(S(=O)(=O)[O-])cc4)c4ccc([nH]4)c(-c4ccc(S(=O)(=O)[O-])cc4)c4nc(c(-c5ccc(S(=O)(=O)[O-])cc5)c5ccc2[nH]5)C=C4)C=C3)cc1
REMARK SMILES IDX 4 1 3 2 1 3 2 4 27 6 28 7 86 8 29 9 85 10 30 11 31 12 32 13
REMARK SMILES IDX 79 14 33 15 84 16 78 17 80 18 34 19 83 20 77 21 76 22 35 24
REMARK SMILES IDX 65 25 46 26 64 27 47 28 50 29 63 30 81 31 48 32 49 33 62 35
REMARK SMILES IDX 82 36 51 37 36 38 37 39 45 40 38 41 44 42 39 43 40 44 41 45
REMARK SMILES IDX 42 46 43 47 66 48 67 49 75 50 68 51 74 52 69 53 70 54 71 55
REMARK SMILES IDX 72 56 73 57 52 58 53 59 61 60 54 61 60 62 55 63 56 64 57 65
REMARK SMILES IDX 58 66 59 67 5 68 6 69 7 70 8 71 9 73 10 74 11 75 26 76 12 77
REMARK SMILES IDX 14 78 13 79 15 80 16 81 17 82 25 83 18 84 20 85 19 86 21 87
REMARK SMILES IDX 24 88 22 89 23 90
REMARK H PARENT 3 5 80 23 50 34 7 72
REMARK Flexibility Score: inf
ROOT
ATOM      1  C   UNL A   1      38.484  24.187  26.528  1.00  0.00     0.118 C 
ENDROOT
BRANCH   1   2
ATOM      2  N   UNL A   1      39.771  24.479  25.912  1.00  0.00    -0.352 N 
ATOM      3  O   UNL A   1      41.593  25.673  25.373  1.00  0.00    -0.269 OA
ATOM      4  C   UNL A   1      40.680  25.475  26.171  1.00  0.00     0.251 C 
ATOM      5  H   UNL A   1      40.031  23.861  25.191  1.00  0.00     0.163 HD
BRANCH   4   6
ATOM      6  C   UNL A   1      40.566  26.313  27.384  1.00  0.00     0.039 A 
ATOM      7  C   UNL A   1      41.232  27.536  27.479  1.00  0.00     0.014 A 
ATOM      8  C   UNL A   1      39.714  25.904  28.416  1.00  0.00     0.014 A 
ATOM      9  C   UNL A   1      41.154  28.280  28.653  1.00  0.00     0.010 A 
ATOM     10  C   UNL A   1      39.572  26.694  29.563  1.00  0.00     0.010 A 
ATOM     11  C   UNL A   1      40.310  27.877  29.701  1.00  0.00    -0.014 A 
BRANCH  11  12
ATOM     12  C   UNL A   1      40.171  28.761  30.887  1.00  0.00     0.031 A 
ATOM     13  C   UNL A   1      41.118  28.666  32.050  1.00  0.00     0.074 A 
ATOM     14  C   UNL A   1      39.210  29.707  30.873  1.00  0.00     0.049 A 
ATOM     15  N   UNL A   1      41.193  29.433  33.109  1.00  0.00    -0.248 NA
ATOM     16  C   UNL A   1      42.101  27.572  32.033  1.00  0.00     0.031 C 
ATOM     17  C   UNL A   1      38.212  29.878  29.812  1.00  0.00     0.029 A 
ATOM     18  N   UNL A   1      38.939  30.724  31.751  1.00  0.00    -0.354 N 
ATOM     19  C   UNL A   1      42.216  28.910  33.889  1.00  0.00     0.074 A 
ATOM     20  C   UNL A   1      42.723  27.748  33.192  1.00  0.00     0.031 C 
ATOM     21  C   UNL A   1      37.487  30.979  30.064  1.00  0.00     0.029 A 
ATOM     22  C   UNL A   1      37.938  31.564  31.322  1.00  0.00     0.049 A 
ATOM     23  H   UNL A   1      39.414  30.842  32.604  1.00  0.00     0.167 HD
ATOM     24  C   UNL A   1      42.692  29.359  35.076  1.00  0.00     0.031 A 
ATOM     25  C   UNL A   1      37.442  32.688  31.871  1.00  0.00     0.031 A 
ATOM     26  C   UNL A   1      42.192  30.519  35.767  1.00  0.00     0.049 A 
ATOM     27  C   UNL A   1      38.016  33.185  33.163  1.00  0.00     0.074 A 
ATOM     28  C   UNL A   1      42.611  31.050  36.977  1.00  0.00     0.029 A 
ATOM     29  N   UNL A   1      41.168  31.333  35.309  1.00  0.00    -0.354 N 
ATOM     30  N   UNL A   1      38.991  32.676  33.878  1.00  0.00    -0.248 NA
ATOM     31  C   UNL A   1      37.421  34.406  33.723  1.00  0.00     0.031 C 
ATOM     32  C   UNL A   1      41.824  32.172  37.259  1.00  0.00     0.029 A 
ATOM     33  C   UNL A   1      40.937  32.358  36.211  1.00  0.00     0.049 A 
ATOM     34  H   UNL A   1      40.676  31.201  34.466  1.00  0.00     0.167 HD
ATOM     35  C   UNL A   1      39.118  33.510  34.981  1.00  0.00     0.074 A 
ATOM     36  C   UNL A   1      38.148  34.575  34.819  1.00  0.00     0.031 C 
ATOM     37  C   UNL A   1      39.955  33.395  36.041  1.00  0.00     0.031 A 
BRANCH  24  38
ATOM     38  C   UNL A   1      43.811  28.584  35.713  1.00  0.00    -0.014 A 
ATOM     39  C   UNL A   1      45.153  28.892  35.429  1.00  0.00     0.010 A 
ATOM     40  C   UNL A   1      43.521  27.571  36.644  1.00  0.00     0.010 A 
ATOM     41  C   UNL A   1      46.187  28.183  36.047  1.00  0.00     0.020 A 
ATOM     42  C   UNL A   1      44.552  26.870  37.276  1.00  0.00     0.020 A 
ATOM     43  C   UNL A   1      45.880  27.172  36.963  1.00  0.00     0.054 A 
BRANCH  43  44
ATOM     44  S   UNL A   1      47.237  26.284  37.777  1.00  0.00     0.124 S 
ATOM     45  O   UNL A   1      48.304  26.395  36.786  1.00  0.00    -0.237 OA
ATOM     46  O   UNL A   1      47.437  27.051  39.003  1.00  0.00    -0.237 OA
ATOM     47  O   UNL A   1      46.701  24.938  37.970  1.00  0.00    -0.744 OA
ENDBRANCH  43  44
ENDBRANCH  24  38
BRANCH  25  48
ATOM     48  C   UNL A   1      36.344  33.418  31.187  1.00  0.00    -0.014 A 
ATOM     49  C   UNL A   1      35.104  33.599  31.824  1.00  0.00     0.010 A 
ATOM     50  C   UNL A   1      36.548  33.961  29.906  1.00  0.00     0.010 A 
ATOM     51  C   UNL A   1      34.081  34.307  31.187  1.00  0.00     0.020 A 
ATOM     52  C   UNL A   1      35.535  34.687  29.277  1.00  0.00     0.020 A 
ATOM     53  C   UNL A   1      34.304  34.846  29.916  1.00  0.00     0.054 A 
BRANCH  53  54
ATOM     54  S   UNL A   1      32.998  35.826  29.123  1.00  0.00     0.124 S 
ATOM     55  O   UNL A   1      32.192  36.235  30.268  1.00  0.00    -0.237 OA
ATOM     56  O   UNL A   1      33.746  36.894  28.464  1.00  0.00    -0.237 OA
ATOM     57  O   UNL A   1      32.367  34.870  28.217  1.00  0.00    -0.744 OA
ENDBRANCH  53  54
ENDBRANCH  25  48
BRANCH  37  58
ATOM     58  C   UNL A   1      39.836  34.446  37.107  1.00  0.00    -0.014 A 
ATOM     59  C   UNL A   1      38.983  34.252  38.208  1.00  0.00     0.010 A 
ATOM     60  C   UNL A   1      40.583  35.632  37.012  1.00  0.00     0.010 A 
ATOM     61  C   UNL A   1      38.848  35.247  39.178  1.00  0.00     0.020 A 
ATOM     62  C   UNL A   1      40.462  36.623  37.989  1.00  0.00     0.020 A 
ATOM     63  C   UNL A   1      39.580  36.431  39.056  1.00  0.00     0.054 A 
BRANCH  63  64
ATOM     64  S   UNL A   1      39.403  37.712  40.329  1.00  0.00     0.124 S 
ATOM     65  O   UNL A   1      38.175  38.383  39.912  1.00  0.00    -0.237 OA
ATOM     66  O   UNL A   1      39.306  36.937  41.564  1.00  0.00    -0.237 OA
ATOM     67  O   UNL A   1      40.625  38.501  40.192  1.00  0.00    -0.744 OA
ENDBRANCH  63  64
ENDBRANCH  37  58
ENDBRANCH  11  12
ENDBRANCH   4   6
ENDBRANCH   1   2
BRANCH   1  68
ATOM     68  C   UNL A   1      37.673  23.155  25.743  1.00  0.00     0.042 C 
BRANCH  68  69
ATOM     69  C   UNL A   1      36.535  23.753  24.920  1.00  0.00     0.118 C 
BRANCH  69  70
ATOM     70  N   UNL A   1      35.267  23.621  25.608  1.00  0.00    -0.352 N 
ATOM     71  C   UNL A   1      34.139  24.378  25.477  1.00  0.00     0.251 C 
ATOM     72  H   UNL A   1      35.211  22.885  26.260  1.00  0.00     0.163 HD
ATOM     73  O   UNL A   1      33.298  24.372  26.367  1.00  0.00    -0.269 OA
BRANCH  71  74
ATOM     74  C   UNL A   1      33.880  25.120  24.231  1.00  0.00     0.044 A 
ATOM     75  C   UNL A   1      33.752  24.398  23.051  1.00  0.00     0.034 A 
ATOM     76  C   UNL A   1      33.538  26.472  24.285  1.00  0.00     0.049 A 
ATOM     77  C   UNL A   1      33.249  25.071  21.960  1.00  0.00     0.113 A 
ATOM     78  C   UNL A   1      32.976  27.049  23.160  1.00  0.00     0.097 A 
ATOM     79  N   UNL A   1      32.849  26.360  21.998  1.00  0.00    -0.250 NA
BRANCH  78  80
ATOM     80  S   UNL A   1      32.402  28.725  23.055  1.00  0.00    -0.103 SA
BRANCH  80  81
ATOM     81  C   UNL A   1      30.793  28.827  23.968  1.00  0.00     0.058 C 
ATOM     82  C   UNL A   1      29.969  27.539  23.882  1.00  0.00     0.043 C 
ATOM     83  C   UNL A   1      29.966  30.116  23.834  1.00  0.00     0.053 C 
ATOM     84  C   UNL A   1      28.580  27.773  23.314  1.00  0.00     0.162 C 
ATOM     85  C   UNL A   1      28.869  30.073  22.751  1.00  0.00     0.095 C 
ATOM     86  O   UNL A   1      28.640  28.747  22.282  1.00  0.00    -0.372 OA
ATOM     87  C   UNL A   1      29.201  31.010  21.594  1.00  0.00     0.066 C 
ATOM     88  C   UNL A   1      27.544  30.699  23.203  1.00  0.00     0.195 C 
ATOM     89  C   UNL A   1      28.583  32.342  21.978  1.00  0.00     0.163 C 
ATOM     90  O   UNL A   1      27.696  32.115  23.079  1.00  0.00    -0.378 OA
ENDBRANCH  80  81
ENDBRANCH  78  80
ENDBRANCH  71  74
ENDBRANCH  69  70
ENDBRANCH  68  69
ENDBRANCH   1  68
TORSDOF 15
ENDMDL
MODEL 2
REMARK VINA RESULT:     -12.3      6.489      8.739
REMARK SMILES O=C(NCCCNC(=O)c1ccnc(S[C@@H]2CCO[C@]3(CCOC3)C2)c1)c1ccc(-c2c3nc(c(-c4ccc(S(=O)(=O)[O-])cc4)c4ccc([nH]4)c(-c4ccc(S(=O)(=O)[O-])cc4)c4nc(c(-c5ccc(S(=O)(=O)[O-])cc5)c5ccc2[nH]5)C=C4)C=C3)cc1
REMARK SMILES IDX 4 1 3 2 1 3 2 4 27 6 28 7 86 8 29 9 85 10 30 11 31 12 32 13
REMARK SMILES IDX 79 14 33 15 84 16 78 17 80 18 34 19 83 20 77 21 76 22 35 24
REMARK SMILES IDX 65 25 46 26 64 27 47 28 50 29 63 30 81 31 48 32 49 33 62 35
REMARK SMILES IDX 82 36 51 37 36 38 37 39 45 40 38 41 44 42 39 43 40 44 41 45
REMARK SMILES IDX 42 46 43 47 66 48 67 49 75 50 68 51 74 52 69 53 70 54 71 55
REMARK SMILES IDX 72 56 73 57 52 58 53 59 61 60 54 61 60 62 55 63 56 64 57 65
REMARK SMILES IDX 58 66 59 67 5 68 6 69 7 70 8 71 9 73 10 74 11 75 26 76 12 77
REMARK SMILES IDX 14 78 13 79 15 80 16 81 17 82 25 83 18 84 20 85 19 86 21 87
REMARK SMILES IDX 24 88 22 89 23 90
REMARK H PARENT 3 5 80 23 50 34 7 72
REMARK Flexibility Score: inf
ROOT
ATOM      1  C   UNL A   1      39.124  20.464  25.932  1.00  0.00     0.118 C 
ENDROOT
BRANCH   1   2
ATOM      2  N   UNL A   1      40.182  19.468  26.022  1.00  0.00    -0.352 N 
ATOM      3  O   UNL A   1      42.268  18.641  25.962  1.00  0.00    -0.269 OA
ATOM      4  C   UNL A   1      41.543  19.617  26.136  1.00  0.00     0.251 C 
ATOM      5  H   UNL A   1      39.871  18.534  25.998  1.00  0.00     0.163 HD
BRANCH   4   6
ATOM      6  C   UNL A   1      42.140  20.933  26.451  1.00  0.00     0.039 A 
ATOM      7  C   UNL A   1      42.400  21.865  25.445  1.00  0.00     0.014 A 
ATOM      8  C   UNL A   1      42.375  21.272  27.788  1.00  0.00     0.014 A 
ATOM      9  C   UNL A   1      43.014  23.073  25.759  1.00  0.00     0.010 A 
ATOM     10  C   UNL A   1      42.917  22.521  28.111  1.00  0.00     0.010 A 
ATOM     11  C   UNL A   1      43.263  23.423  27.097  1.00  0.00    -0.014 A 
BRANCH  11  12
ATOM     12  C   UNL A   1      43.815  24.770  27.392  1.00  0.00     0.031 A 
ATOM     13  C   UNL A   1      45.250  25.110  27.101  1.00  0.00     0.074 A 
ATOM     14  C   UNL A   1      42.980  25.715  27.869  1.00  0.00     0.049 A 
ATOM     15  N   UNL A   1      45.854  26.268  27.205  1.00  0.00    -0.248 NA
ATOM     16  C   UNL A   1      46.124  24.018  26.644  1.00  0.00     0.031 C 
ATOM     17  C   UNL A   1      41.573  25.497  28.219  1.00  0.00     0.029 A 
ATOM     18  N   UNL A   1      43.176  27.051  28.104  1.00  0.00    -0.354 N 
ATOM     19  C   UNL A   1      47.176  26.044  26.842  1.00  0.00     0.074 A 
ATOM     20  C   UNL A   1      47.293  24.635  26.532  1.00  0.00     0.031 C 
ATOM     21  C   UNL A   1      41.015  26.671  28.552  1.00  0.00     0.029 A 
ATOM     22  C   UNL A   1      42.033  27.714  28.482  1.00  0.00     0.049 A 
ATOM     23  H   UNL A   1      44.051  27.493  28.011  1.00  0.00     0.167 HD
ATOM     24  C   UNL A   1      48.197  26.931  26.770  1.00  0.00     0.031 A 
ATOM     25  C   UNL A   1      41.818  29.018  28.735  1.00  0.00     0.031 A 
ATOM     26  C   UNL A   1      48.080  28.334  27.072  1.00  0.00     0.049 A 
ATOM     27  C   UNL A   1      42.957  29.984  28.607  1.00  0.00     0.074 A 
ATOM     28  C   UNL A   1      49.062  29.311  27.029  1.00  0.00     0.029 A 
ATOM     29  N   UNL A   1      46.910  28.963  27.466  1.00  0.00    -0.354 N 
ATOM     30  N   UNL A   1      44.197  29.749  28.253  1.00  0.00    -0.248 NA
ATOM     31  C   UNL A   1      42.666  31.391  28.913  1.00  0.00     0.031 C 
ATOM     32  C   UNL A   1      48.488  30.527  27.419  1.00  0.00     0.029 A 
ATOM     33  C   UNL A   1      47.143  30.312  27.675  1.00  0.00     0.049 A 
ATOM     34  H   UNL A   1      46.040  28.516  27.583  1.00  0.00     0.167 HD
ATOM     35  C   UNL A   1      44.840  30.978  28.306  1.00  0.00     0.074 A 
ATOM     36  C   UNL A   1      43.844  31.959  28.690  1.00  0.00     0.031 C 
ATOM     37  C   UNL A   1      46.144  31.266  28.074  1.00  0.00     0.031 A 
BRANCH  24  38
ATOM     38  C   UNL A   1      49.544  26.407  26.354  1.00  0.00    -0.014 A 
ATOM     39  C   UNL A   1      50.006  26.574  25.037  1.00  0.00     0.010 A 
ATOM     40  C   UNL A   1      50.378  25.787  27.302  1.00  0.00     0.010 A 
ATOM     41  C   UNL A   1      51.271  26.107  24.668  1.00  0.00     0.020 A 
ATOM     42  C   UNL A   1      51.649  25.334  26.940  1.00  0.00     0.020 A 
ATOM     43  C   UNL A   1      52.082  25.484  25.621  1.00  0.00     0.054 A 
BRANCH  43  44
ATOM     44  S   UNL A   1      53.733  24.912  25.128  1.00  0.00     0.124 S 
ATOM     45  O   UNL A   1      53.525  23.471  25.003  1.00  0.00    -0.237 OA
ATOM     46  O   UNL A   1      53.962  25.623  23.874  1.00  0.00    -0.237 OA
ATOM     47  O   UNL A   1      54.587  25.326  26.239  1.00  0.00    -0.744 OA
ENDBRANCH  43  44
ENDBRANCH  24  38
BRANCH  25  48
ATOM     48  C   UNL A   1      40.462  29.477  29.130  1.00  0.00    -0.014 A 
ATOM     49  C   UNL A   1      40.176  29.787  30.470  1.00  0.00     0.010 A 
ATOM     50  C   UNL A   1      39.460  29.636  28.156  1.00  0.00     0.010 A 
ATOM     51  C   UNL A   1      38.906  30.242  30.833  1.00  0.00     0.020 A 
ATOM     52  C   UNL A   1      38.196  30.111  28.513  1.00  0.00     0.020 A 
ATOM     53  C   UNL A   1      37.923  30.401  29.851  1.00  0.00     0.054 A 
BRANCH  53  54
ATOM     54  S   UNL A   1      36.297  31.061  30.316  1.00  0.00     0.124 S 
ATOM     55  O   UNL A   1      35.899  30.152  31.385  1.00  0.00    -0.237 OA
ATOM     56  O   UNL A   1      36.606  32.427  30.729  1.00  0.00    -0.237 OA
ATOM     57  O   UNL A   1      35.528  30.953  29.078  1.00  0.00    -0.744 OA
ENDBRANCH  53  54
ENDBRANCH  25  48
BRANCH  37  58
ATOM     58  C   UNL A   1      46.556  32.700  28.245  1.00  0.00    -0.014 A 
ATOM     59  C   UNL A   1      46.489  33.596  27.163  1.00  0.00     0.010 A 
ATOM     60  C   UNL A   1      47.009  33.158  29.494  1.00  0.00     0.010 A 
ATOM     61  C   UNL A   1      46.908  34.919  27.316  1.00  0.00     0.020 A 
ATOM     62  C   UNL A   1      47.413  34.485  29.655  1.00  0.00     0.020 A 
ATOM     63  C   UNL A   1      47.378  35.352  28.560  1.00  0.00     0.054 A 
BRANCH  63  64
ATOM     64  S   UNL A   1      47.909  37.076  28.749  1.00  0.00     0.124 S 
ATOM     65  O   UNL A   1      47.401  37.405  30.078  1.00  0.00    -0.237 OA
ATOM     66  O   UNL A   1      49.364  36.985  28.639  1.00  0.00    -0.237 OA
ATOM     67  O   UNL A   1      47.250  37.760  27.640  1.00  0.00    -0.744 OA
ENDBRANCH  63  64
ENDBRANCH  37  58
ENDBRANCH  11  12
ENDBRANCH   4   6
ENDBRANCH   1   2
BRANCH   1  68
ATOM     68  C   UNL A   1      38.027  20.072  24.941  1.00  0.00     0.042 C 
BRANCH  68  69
ATOM     69  C   UNL A   1      36.880  21.078  24.852  1.00  0.00     0.118 C 
BRANCH  69  70
ATOM     70  N   UNL A   1      35.846  20.777  25.821  1.00  0.00    -0.352 N 
ATOM     71  C   UNL A   1      34.515  21.075  25.771  1.00  0.00     0.251 C 
ATOM     72  H   UNL A   1      36.143  20.293  26.625  1.00  0.00     0.163 HD
ATOM     73  O   UNL A   1      33.856  21.081  26.804  1.00  0.00    -0.269 OA
BRANCH  71  74
ATOM     74  C   UNL A   1      33.847  21.290  24.476  1.00  0.00     0.044 A 
ATOM     75  C   UNL A   1      32.964  20.317  24.023  1.00  0.00     0.034 A 
ATOM     76  C   UNL A   1      33.920  22.536  23.853  1.00  0.00     0.049 A 
ATOM     77  C   UNL A   1      32.157  20.654  22.960  1.00  0.00     0.113 A 
ATOM     78  C   UNL A   1      33.024  22.813  22.837  1.00  0.00     0.097 A 
ATOM     79  N   UNL A   1      32.159  21.872  22.379  1.00  0.00    -0.250 NA
BRANCH  78  80
ATOM     80  S   UNL A   1      32.903  24.362  21.979  1.00  0.00    -0.103 SA
BRANCH  80  81
ATOM     81  C   UNL A   1      31.396  25.238  22.608  1.00  0.00     0.058 C 
ATOM     82  C   UNL A   1      31.547  26.762  22.618  1.00  0.00     0.043 C 
ATOM     83  C   UNL A   1      30.691  24.665  23.848  1.00  0.00     0.053 C 
ATOM     84  C   UNL A   1      31.315  27.361  23.994  1.00  0.00     0.162 C 
ATOM     85  C   UNL A   1      31.110  25.306  25.187  1.00  0.00     0.095 C 
ATOM     86  O   UNL A   1      31.855  26.505  24.990  1.00  0.00    -0.372 OA
ATOM     87  C   UNL A   1      31.888  24.318  26.050  1.00  0.00     0.066 C 
ATOM     88  C   UNL A   1      29.929  25.578  26.126  1.00  0.00     0.195 C 
ATOM     89  C   UNL A   1      30.833  23.602  26.875  1.00  0.00     0.163 C 
ATOM     90  O   UNL A   1      29.608  24.334  26.752  1.00  0.00    -0.378 OA
ENDBRANCH  80  81
ENDBRANCH  78  80
ENDBRANCH  71  74
ENDBRANCH  69  70
ENDBRANCH  68  69
ENDBRANCH   1  68
TORSDOF 15
ENDMDL
MODEL 3
REMARK VINA RESULT:     -12.3      6.737     12.417
REMARK SMILES O=C(NCCCNC(=O)c1ccnc(S[C@@H]2CCO[C@]3(CCOC3)C2)c1)c1ccc(-c2c3nc(c(-c4ccc(S(=O)(=O)[O-])cc4)c4ccc([nH]4)c(-c4ccc(S(=O)(=O)[O-])cc4)c4nc(c(-c5ccc(S(=O)(=O)[O-])cc5)c5ccc2[nH]5)C=C4)C=C3)cc1
REMARK SMILES IDX 4 1 3 2 1 3 2 4 27 6 28 7 86 8 29 9 85 10 30 11 31 12 32 13
REMARK SMILES IDX 79 14 33 15 84 16 78 17 80 18 34 19 83 20 77 21 76 22 35 24
REMARK SMILES IDX 65 25 46 26 64 27 47 28 50 29 63 30 81 31 48 32 49 33 62 35
REMARK SMILES IDX 82 36 51 37 36 38 37 39 45 40 38 41 44 42 39 43 40 44 41 45
REMARK SMILES IDX 42 46 43 47 66 48 67 49 75 50 68 51 74 52 69 53 70 54 71 55
REMARK SMILES IDX 72 56 73 57 52 58 53 59 61 60 54 61 60 62 55 63 56 64 57 65
REMARK SMILES IDX 58 66 59 67 5 68 6 69 7 70 8 71 9 73 10 74 11 75 26 76 12 77
REMARK SMILES IDX 14 78 13 79 15 80 16 81 17 82 25 83 18 84 20 85 19 86 21 87
REMARK SMILES IDX 24 88 22 89 23 90
REMARK H PARENT 3 5 80 23 50 34 7 72
REMARK Flexibility Score: inf
ROOT
ATOM      1  C   UNL A   1      35.176  29.228  27.497  1.00  0.00     0.118 C 
ENDROOT
BRANCH   1   2
ATOM      2  N   UNL A   1      35.231  29.686  28.878  1.00  0.00    -0.352 N 
ATOM      3  O   UNL A   1      36.032  29.909  30.963  1.00  0.00    -0.269 OA
ATOM      4  C   UNL A   1      36.269  29.693  29.777  1.00  0.00     0.251 C 
ATOM      5  H   UNL A   1      34.384  30.050  29.224  1.00  0.00     0.163 HD
BRANCH   4   6
ATOM      6  C   UNL A   1      37.657  29.432  29.338  1.00  0.00     0.039 A 
ATOM      7  C   UNL A   1      38.593  28.868  30.207  1.00  0.00     0.014 A 
ATOM      8  C   UNL A   1      38.010  29.687  28.008  1.00  0.00     0.014 A 
ATOM      9  C   UNL A   1      39.907  28.685  29.788  1.00  0.00     0.010 A 
ATOM     10  C   UNL A   1      39.311  29.425  27.564  1.00  0.00     0.010 A 
ATOM     11  C   UNL A   1      40.277  28.944  28.458  1.00  0.00    -0.014 A 
BRANCH  11  12
ATOM     12  C   UNL A   1      41.663  28.625  28.026  1.00  0.00     0.031 A 
ATOM     13  C   UNL A   1      42.755  29.657  28.073  1.00  0.00     0.074 A 
ATOM     14  C   UNL A   1      41.943  27.361  27.650  1.00  0.00     0.049 A 
ATOM     15  N   UNL A   1      44.033  29.507  27.831  1.00  0.00    -0.248 NA
ATOM     16  C   UNL A   1      42.370  31.031  28.430  1.00  0.00     0.031 C 
ATOM     17  C   UNL A   1      40.960  26.279  27.535  1.00  0.00     0.029 A 
ATOM     18  N   UNL A   1      43.134  26.761  27.334  1.00  0.00    -0.354 N 
ATOM     19  C   UNL A   1      44.603  30.763  27.990  1.00  0.00     0.074 A 
ATOM     20  C   UNL A   1      43.529  31.671  28.332  1.00  0.00     0.031 C 
ATOM     21  C   UNL A   1      41.598  25.134  27.248  1.00  0.00     0.029 A 
ATOM     22  C   UNL A   1      43.025  25.409  27.116  1.00  0.00     0.049 A 
ATOM     23  H   UNL A   1      43.985  27.251  27.271  1.00  0.00     0.167 HD
ATOM     24  C   UNL A   1      45.902  31.127  27.865  1.00  0.00     0.031 A 
ATOM     25  C   UNL A   1      43.966  24.484  26.849  1.00  0.00     0.031 A 
ATOM     26  C   UNL A   1      46.973  30.224  27.530  1.00  0.00     0.049 A 
ATOM     27  C   UNL A   1      45.400  24.908  26.758  1.00  0.00     0.074 A 
ATOM     28  C   UNL A   1      48.321  30.502  27.380  1.00  0.00     0.029 A 
ATOM     29  N   UNL A   1      46.818  28.866  27.300  1.00  0.00    -0.354 N 
ATOM     30  N   UNL A   1      45.915  26.102  26.921  1.00  0.00    -0.248 NA
ATOM     31  C   UNL A   1      46.379  23.858  26.446  1.00  0.00     0.031 C 
ATOM     32  C   UNL A   1      48.979  29.314  27.037  1.00  0.00     0.029 A 
ATOM     33  C   UNL A   1      48.044  28.292  27.005  1.00  0.00     0.049 A 
ATOM     34  H   UNL A   1      45.962  28.380  27.340  1.00  0.00     0.167 HD
ATOM     35  C   UNL A   1      47.281  25.951  26.719  1.00  0.00     0.074 A 
ATOM     36  C   UNL A   1      47.515  24.544  26.459  1.00  0.00     0.031 C 
ATOM     37  C   UNL A   1      48.252  26.896  26.731  1.00  0.00     0.031 A 
BRANCH  24  38
ATOM     38  C   UNL A   1      46.242  32.575  28.084  1.00  0.00    -0.014 A 
ATOM     39  C   UNL A   1      46.227  33.488  27.014  1.00  0.00     0.010 A 
ATOM     40  C   UNL A   1      46.528  33.040  29.380  1.00  0.00     0.010 A 
ATOM     41  C   UNL A   1      46.518  34.837  27.233  1.00  0.00     0.020 A 
ATOM     42  C   UNL A   1      46.804  34.392  29.605  1.00  0.00     0.020 A 
ATOM     43  C   UNL A   1      46.812  35.280  28.527  1.00  0.00     0.054 A 
BRANCH  43  44
ATOM     44  S   UNL A   1      47.158  37.041  28.794  1.00  0.00     0.124 S 
ATOM     45  O   UNL A   1      45.862  37.534  29.254  1.00  0.00    -0.237 OA
ATOM     46  O   UNL A   1      48.213  37.015  29.803  1.00  0.00    -0.237 OA
ATOM     47  O   UNL A   1      47.575  37.514  27.476  1.00  0.00    -0.744 OA
ENDBRANCH  43  44
ENDBRANCH  24  38
BRANCH  25  48
ATOM     48  C   UNL A   1      43.569  23.066  26.655  1.00  0.00    -0.014 A 
ATOM     49  C   UNL A   1      43.871  22.400  25.456  1.00  0.00     0.010 A 
ATOM     50  C   UNL A   1      42.916  22.368  27.687  1.00  0.00     0.010 A 
ATOM     51  C   UNL A   1      43.518  21.058  25.287  1.00  0.00     0.020 A 
ATOM     52  C   UNL A   1      42.582  21.022  27.529  1.00  0.00     0.020 A 
ATOM     53  C   UNL A   1      42.875  20.378  26.326  1.00  0.00     0.054 A 
BRANCH  53  54
ATOM     54  S   UNL A   1      42.483  18.616  26.130  1.00  0.00     0.124 S 
ATOM     55  O   UNL A   1      42.765  18.095  27.462  1.00  0.00    -0.237 OA
ATOM     56  O   UNL A   1      41.074  18.637  25.744  1.00  0.00    -0.237 OA
ATOM     57  O   UNL A   1      43.400  18.186  25.077  1.00  0.00    -0.744 OA
ENDBRANCH  53  54
ENDBRANCH  25  48
BRANCH  37  58
ATOM     58  C   UNL A   1      49.649  26.427  26.441  1.00  0.00    -0.014 A 
ATOM     59  C   UNL A   1      50.152  26.455  25.128  1.00  0.00     0.010 A 
ATOM     60  C   UNL A   1      50.465  25.959  27.484  1.00  0.00     0.010 A 
ATOM     61  C   UNL A   1      51.438  25.984  24.856  1.00  0.00     0.020 A 
ATOM     62  C   UNL A   1      51.758  25.502  27.218  1.00  0.00     0.020 A 
ATOM     63  C   UNL A   1      52.229  25.500  25.903  1.00  0.00     0.054 A 
BRANCH  63  64
ATOM     64  S   UNL A   1      53.902  24.900  25.538  1.00  0.00     0.124 S 
ATOM     65  O   UNL A   1      54.590  25.135  26.804  1.00  0.00    -0.237 OA
ATOM     66  O   UNL A   1      53.680  23.497  25.196  1.00  0.00    -0.237 OA
ATOM     67  O   UNL A   1      54.332  25.744  24.426  1.00  0.00    -0.744 OA
ENDBRANCH  63  64
ENDBRANCH  37  58
ENDBRANCH  11  12
ENDBRANCH   4   6
ENDBRANCH   1   2
BRANCH   1  68
ATOM     68  C   UNL A   1      33.764  28.840  27.058  1.00  0.00     0.042 C 
BRANCH  68  69
ATOM     69  C   UNL A   1      33.492  29.056  25.570  1.00  0.00     0.118 C 
BRANCH  69  70
ATOM     70  N   UNL A   1      32.208  29.694  25.361  1.00  0.00    -0.352 N 
ATOM     71  C   UNL A   1      31.173  29.292  24.568  1.00  0.00     0.251 C 
ATOM     72  H   UNL A   1      32.063  30.531  25.858  1.00  0.00     0.163 HD
ATOM     73  O   UNL A   1      30.324  30.105  24.221  1.00  0.00    -0.269 OA
BRANCH  71  74
ATOM     74  C   UNL A   1      31.015  27.872  24.211  1.00  0.00     0.044 A 
ATOM     75  C   UNL A   1      31.348  27.477  22.922  1.00  0.00     0.034 A 
ATOM     76  C   UNL A   1      30.769  26.927  25.209  1.00  0.00     0.049 A 
ATOM     77  C   UNL A   1      31.450  26.124  22.690  1.00  0.00     0.113 A 
ATOM     78  C   UNL A   1      30.962  25.592  24.905  1.00  0.00     0.097 A 
ATOM     79  N   UNL A   1      31.283  25.189  23.650  1.00  0.00    -0.250 NA
BRANCH  78  80
ATOM     80  S   UNL A   1      30.783  24.251  26.054  1.00  0.00    -0.103 SA
BRANCH  80  81
ATOM     81  C   UNL A   1      32.480  23.634  26.469  1.00  0.00     0.058 C 
ATOM     82  C   UNL A   1      33.589  24.613  26.075  1.00  0.00     0.043 C 
ATOM     83  C   UNL A   1      32.805  22.160  26.178  1.00  0.00     0.053 C 
ATOM     84  C   UNL A   1      34.615  23.989  25.146  1.00  0.00     0.162 C 
ATOM     85  C   UNL A   1      33.498  21.905  24.823  1.00  0.00     0.095 C 
ATOM     86  O   UNL A   1      33.968  23.114  24.232  1.00  0.00    -0.372 OA
ATOM     87  C   UNL A   1      32.578  21.153  23.867  1.00  0.00     0.066 C 
ATOM     88  C   UNL A   1      34.646  20.892  24.910  1.00  0.00     0.195 C 
ATOM     89  C   UNL A   1      32.852  19.683  24.133  1.00  0.00     0.163 C 
ATOM     90  O   UNL A   1      34.047  19.594  24.916  1.00  0.00    -0.378 OA
ENDBRANCH  80  81
ENDBRANCH  78  80
ENDBRANCH  71  74
ENDBRANCH  69  70
ENDBRANCH  68  69
ENDBRANCH   1  68
TORSDOF 15
ENDMDL
