MODEL 1
REMARK VINA RESULT:     -12.5      0.000      0.000
REMARK SMILES O=C(NCCCNC(=O)c1ccc(F)cc1-c1ccc(F)c(Cl)c1)c1ccc(-c2c3nc(c(-c4ccc(S(=O)(=O)[O-])cc4)c4ccc([nH]4)c(-c4ccc(S(=O)(=O)[O-])cc4)c4nc(c(-c5ccc(S(=O)(=O)[O-])cc5)c5ccc2[nH]5)C=C4)C=C3)cc1
REMARK SMILES IDX 4 1 3 2 1 3 2 4 25 6 26 7 84 8 27 9 83 10 28 11 29 12 30 13
REMARK SMILES IDX 77 14 31 15 82 16 76 17 78 18 32 19 81 20 75 21 74 22 33 24
REMARK SMILES IDX 63 25 44 26 62 27 45 28 48 29 61 30 79 31 46 32 47 33 60 35
REMARK SMILES IDX 80 36 49 37 34 38 35 39 43 40 36 41 42 42 37 43 38 44 39 45
REMARK SMILES IDX 40 46 41 47 64 48 65 49 73 50 66 51 72 52 67 53 68 54 69 55
REMARK SMILES IDX 70 56 71 57 50 58 51 59 59 60 52 61 58 62 53 63 54 64 55 65
REMARK SMILES IDX 56 66 57 67 5 68 6 69 7 70 8 71 9 73 10 74 11 75 16 76 12 77
REMARK SMILES IDX 15 78 13 79 14 80 17 81 18 82 24 83 19 84 22 85 20 86 23 87
REMARK SMILES IDX 21 88
REMARK H PARENT 3 5 78 23 48 34 7 72
REMARK Flexibility Score: inf
ROOT
ATOM      1  C   UNL A   1      39.859  23.432  27.098  1.00  0.00     0.118 C 
ENDROOT
BRANCH   1   2
ATOM      2  N   UNL A   1      40.615  24.178  26.099  1.00  0.00    -0.352 N 
ATOM      3  O   UNL A   1      41.483  25.957  25.036  1.00  0.00    -0.269 OA
ATOM      4  C   UNL A   1      41.004  25.496  26.070  1.00  0.00     0.251 C 
ATOM      5  H   UNL A   1      40.893  23.650  25.316  1.00  0.00     0.163 HD
BRANCH   4   6
ATOM      6  C   UNL A   1      40.834  26.364  27.257  1.00  0.00     0.039 A 
ATOM      7  C   UNL A   1      41.631  27.493  27.440  1.00  0.00     0.014 A 
ATOM      8  C   UNL A   1      39.833  26.065  28.188  1.00  0.00     0.014 A 
ATOM      9  C   UNL A   1      41.549  28.218  28.622  1.00  0.00     0.010 A 
ATOM     10  C   UNL A   1      39.676  26.862  29.328  1.00  0.00     0.010 A 
ATOM     11  C   UNL A   1      40.554  27.928  29.571  1.00  0.00    -0.014 A 
BRANCH  11  12
ATOM     12  C   UNL A   1      40.415  28.814  30.756  1.00  0.00     0.031 A 
ATOM     13  C   UNL A   1      41.329  28.689  31.943  1.00  0.00     0.074 A 
ATOM     14  C   UNL A   1      39.470  29.777  30.727  1.00  0.00     0.049 A 
ATOM     15  N   UNL A   1      41.367  29.421  33.028  1.00  0.00    -0.248 NA
ATOM     16  C   UNL A   1      42.324  27.604  31.920  1.00  0.00     0.031 C 
ATOM     17  C   UNL A   1      38.516  29.987  29.632  1.00  0.00     0.029 A 
ATOM     18  N   UNL A   1      39.172  30.773  31.619  1.00  0.00    -0.354 N 
ATOM     19  C   UNL A   1      42.373  28.881  33.821  1.00  0.00     0.074 A 
ATOM     20  C   UNL A   1      42.906  27.743  33.104  1.00  0.00     0.031 C 
ATOM     21  C   UNL A   1      37.784  31.081  29.889  1.00  0.00     0.029 A 
ATOM     22  C   UNL A   1      38.164  31.606  31.194  1.00  0.00     0.049 A 
ATOM     23  H   UNL A   1      39.635  30.882  32.480  1.00  0.00     0.167 HD
ATOM     24  C   UNL A   1      42.813  29.300  35.033  1.00  0.00     0.031 A 
ATOM     25  C   UNL A   1      37.592  32.668  31.790  1.00  0.00     0.031 A 
ATOM     26  C   UNL A   1      42.277  30.434  35.742  1.00  0.00     0.049 A 
ATOM     27  C   UNL A   1      38.083  33.092  33.144  1.00  0.00     0.074 A 
ATOM     28  C   UNL A   1      42.674  30.951  36.964  1.00  0.00     0.029 A 
ATOM     29  N   UNL A   1      41.228  31.225  35.297  1.00  0.00    -0.354 N 
ATOM     30  N   UNL A   1      39.055  32.583  33.861  1.00  0.00    -0.248 NA
ATOM     31  C   UNL A   1      37.398  34.231  33.768  1.00  0.00     0.031 C 
ATOM     32  C   UNL A   1      41.832  32.022  37.281  1.00  0.00     0.029 A 
ATOM     33  C   UNL A   1      40.948  32.210  36.231  1.00  0.00     0.049 A 
ATOM     34  H   UNL A   1      40.752  31.105  34.444  1.00  0.00     0.167 HD
ATOM     35  C   UNL A   1      39.106  33.347  35.020  1.00  0.00     0.074 A 
ATOM     36  C   UNL A   1      38.086  34.368  34.893  1.00  0.00     0.031 C 
ATOM     37  C   UNL A   1      39.921  33.212  36.095  1.00  0.00     0.031 A 
BRANCH  24  38
ATOM     38  C   UNL A   1      43.920  28.515  35.689  1.00  0.00    -0.014 A 
ATOM     39  C   UNL A   1      45.271  28.851  35.486  1.00  0.00     0.010 A 
ATOM     40  C   UNL A   1      43.602  27.470  36.577  1.00  0.00     0.010 A 
ATOM     41  C   UNL A   1      46.283  28.138  36.134  1.00  0.00     0.020 A 
ATOM     42  C   UNL A   1      44.611  26.769  37.245  1.00  0.00     0.020 A 
ATOM     43  C   UNL A   1      45.947  27.099  37.009  1.00  0.00     0.054 A 
BRANCH  43  44
ATOM     44  S   UNL A   1      47.281  26.211  37.860  1.00  0.00     0.124 S 
ATOM     45  O   UNL A   1      47.028  26.556  39.257  1.00  0.00    -0.237 OA
ATOM     46  O   UNL A   1      47.020  24.820  37.501  1.00  0.00    -0.237 OA
ATOM     47  O   UNL A   1      48.498  26.782  37.289  1.00  0.00    -0.744 OA
ENDBRANCH  43  44
ENDBRANCH  24  38
BRANCH  25  48
ATOM     48  C   UNL A   1      36.473  33.381  31.118  1.00  0.00    -0.014 A 
ATOM     49  C   UNL A   1      35.258  33.608  31.787  1.00  0.00     0.010 A 
ATOM     50  C   UNL A   1      36.631  33.857  29.803  1.00  0.00     0.010 A 
ATOM     51  C   UNL A   1      34.213  34.279  31.144  1.00  0.00     0.020 A 
ATOM     52  C   UNL A   1      35.601  34.556  29.169  1.00  0.00     0.020 A 
ATOM     53  C   UNL A   1      34.392  34.749  29.840  1.00  0.00     0.054 A 
BRANCH  53  54
ATOM     54  S   UNL A   1      33.042  35.657  29.039  1.00  0.00     0.124 S 
ATOM     55  O   UNL A   1      32.223  36.048  30.181  1.00  0.00    -0.237 OA
ATOM     56  O   UNL A   1      33.748  36.744  28.364  1.00  0.00    -0.237 OA
ATOM     57  O   UNL A   1      32.446  34.665  28.147  1.00  0.00    -0.744 OA
ENDBRANCH  53  54
ENDBRANCH  25  48
BRANCH  37  58
ATOM     58  C   UNL A   1      39.749  34.207  37.209  1.00  0.00    -0.014 A 
ATOM     59  C   UNL A   1      39.033  33.878  38.373  1.00  0.00     0.010 A 
ATOM     60  C   UNL A   1      40.335  35.482  37.099  1.00  0.00     0.010 A 
ATOM     61  C   UNL A   1      38.871  34.820  39.392  1.00  0.00     0.020 A 
ATOM     62  C   UNL A   1      40.198  36.417  38.128  1.00  0.00     0.020 A 
ATOM     63  C   UNL A   1      39.453  36.085  39.261  1.00  0.00     0.054 A 
BRANCH  63  64
ATOM     64  S   UNL A   1      39.252  37.282  40.608  1.00  0.00     0.124 S 
ATOM     65  O   UNL A   1      38.700  36.451  41.674  1.00  0.00    -0.237 OA
ATOM     66  O   UNL A   1      40.617  37.756  40.823  1.00  0.00    -0.237 OA
ATOM     67  O   UNL A   1      38.335  38.275  40.054  1.00  0.00    -0.744 OA
ENDBRANCH  63  64
ENDBRANCH  37  58
ENDBRANCH  11  12
ENDBRANCH   4   6
ENDBRANCH   1   2
BRANCH   1  68
ATOM     68  C   UNL A   1      38.711  22.633  26.497  1.00  0.00     0.042 C 
BRANCH  68  69
ATOM     69  C   UNL A   1      37.551  23.486  26.007  1.00  0.00     0.118 C 
BRANCH  69  70
ATOM     70  N   UNL A   1      37.484  23.569  24.553  1.00  0.00    -0.352 N 
ATOM     71  C   UNL A   1      36.557  23.063  23.675  1.00  0.00     0.251 C 
ATOM     72  H   UNL A   1      38.221  24.068  24.132  1.00  0.00     0.163 HD
ATOM     73  O   UNL A   1      36.712  23.212  22.465  1.00  0.00    -0.269 OA
BRANCH  71  74
ATOM     74  C   UNL A   1      35.361  22.360  24.191  1.00  0.00     0.047 A 
ATOM     75  C   UNL A   1      35.512  21.017  24.583  1.00  0.00     0.017 A 
ATOM     76  C   UNL A   1      34.124  23.024  24.353  1.00  0.00    -0.003 A 
ATOM     77  C   UNL A   1      34.419  20.290  25.043  1.00  0.00     0.040 A 
ATOM     78  C   UNL A   1      33.035  22.263  24.821  1.00  0.00     0.048 A 
ATOM     79  C   UNL A   1      33.187  20.917  25.145  1.00  0.00     0.123 A 
ATOM     80  F   UNL A   1      32.130  20.223  25.584  1.00  0.00    -0.207 F 
BRANCH  76  81
ATOM     81  C   UNL A   1      33.927  24.463  24.105  1.00  0.00    -0.016 A 
ATOM     82  C   UNL A   1      33.604  24.964  22.832  1.00  0.00     0.012 A 
ATOM     83  C   UNL A   1      34.056  25.378  25.169  1.00  0.00     0.032 A 
ATOM     84  C   UNL A   1      33.423  26.336  22.629  1.00  0.00     0.041 A 
ATOM     85  C   UNL A   1      33.872  26.746  24.965  1.00  0.00     0.077 A 
ATOM     86  C   UNL A   1      33.558  27.218  23.695  1.00  0.00     0.141 A 
ATOM     87  Cl  UNL A   1      34.031  27.829  26.295  1.00  0.00    -0.081 Cl
ATOM     88  F   UNL A   1      33.374  28.530  23.478  1.00  0.00    -0.205 F 
ENDBRANCH  76  81
ENDBRANCH  71  74
ENDBRANCH  69  70
ENDBRANCH  68  69
ENDBRANCH   1  68
TORSDOF 14
ENDMDL
MODEL 2
REMARK VINA RESULT:     -12.5      6.709     12.356
REMARK SMILES O=C(NCCCNC(=O)c1ccc(F)cc1-c1ccc(F)c(Cl)c1)c1ccc(-c2c3nc(c(-c4ccc(S(=O)(=O)[O-])cc4)c4ccc([nH]4)c(-c4ccc(S(=O)(=O)[O-])cc4)c4nc(c(-c5ccc(S(=O)(=O)[O-])cc5)c5ccc2[nH]5)C=C4)C=C3)cc1
REMARK SMILES IDX 4 1 3 2 1 3 2 4 25 6 26 7 84 8 27 9 83 10 28 11 29 12 30 13
REMARK SMILES IDX 77 14 31 15 82 16 76 17 78 18 32 19 81 20 75 21 74 22 33 24
REMARK SMILES IDX 63 25 44 26 62 27 45 28 48 29 61 30 79 31 46 32 47 33 60 35
REMARK SMILES IDX 80 36 49 37 34 38 35 39 43 40 36 41 42 42 37 43 38 44 39 45
REMARK SMILES IDX 40 46 41 47 64 48 65 49 73 50 66 51 72 52 67 53 68 54 69 55
REMARK SMILES IDX 70 56 71 57 50 58 51 59 59 60 52 61 58 62 53 63 54 64 55 65
REMARK SMILES IDX 56 66 57 67 5 68 6 69 7 70 8 71 9 73 10 74 11 75 16 76 12 77
REMARK SMILES IDX 15 78 13 79 14 80 17 81 18 82 24 83 19 84 22 85 20 86 23 87
REMARK SMILES IDX 21 88
REMARK H PARENT 3 5 78 23 48 34 7 72
REMARK Flexibility Score: inf
ROOT
ATOM      1  C   UNL A   1      35.736  31.133  28.078  1.00  0.00     0.118 C 
ENDROOT
BRANCH   1   2
ATOM      2  N   UNL A   1      35.632  30.728  29.475  1.00  0.00    -0.352 N 
ATOM      3  O   UNL A   1      36.117  29.625  31.372  1.00  0.00    -0.269 OA
ATOM      4  C   UNL A   1      36.494  30.004  30.264  1.00  0.00     0.251 C 
ATOM      5  H   UNL A   1      34.809  31.022  29.928  1.00  0.00     0.163 HD
BRANCH   4   6
ATOM      6  C   UNL A   1      37.853  29.663  29.789  1.00  0.00     0.039 A 
ATOM      7  C   UNL A   1      38.861  29.316  30.688  1.00  0.00     0.014 A 
ATOM      8  C   UNL A   1      38.118  29.653  28.415  1.00  0.00     0.014 A 
ATOM      9  C   UNL A   1      40.161  29.130  30.236  1.00  0.00     0.010 A 
ATOM     10  C   UNL A   1      39.405  29.356  27.952  1.00  0.00     0.010 A 
ATOM     11  C   UNL A   1      40.447  29.123  28.862  1.00  0.00    -0.014 A 
BRANCH  11  12
ATOM     12  C   UNL A   1      41.824  28.784  28.417  1.00  0.00     0.031 A 
ATOM     13  C   UNL A   1      42.924  29.809  28.417  1.00  0.00     0.074 A 
ATOM     14  C   UNL A   1      42.083  27.511  28.053  1.00  0.00     0.049 A 
ATOM     15  N   UNL A   1      44.187  29.654  28.109  1.00  0.00    -0.248 NA
ATOM     16  C   UNL A   1      42.568  31.184  28.804  1.00  0.00     0.031 C 
ATOM     17  C   UNL A   1      41.092  26.431  28.002  1.00  0.00     0.029 A 
ATOM     18  N   UNL A   1      43.254  26.900  27.688  1.00  0.00    -0.354 N 
ATOM     19  C   UNL A   1      44.774  30.906  28.248  1.00  0.00     0.074 A 
ATOM     20  C   UNL A   1      43.723  31.819  28.647  1.00  0.00     0.031 C 
ATOM     21  C   UNL A   1      41.707  25.282  27.689  1.00  0.00     0.029 A 
ATOM     22  C   UNL A   1      43.118  25.553  27.447  1.00  0.00     0.049 A 
ATOM     23  H   UNL A   1      44.110  27.379  27.606  1.00  0.00     0.167 HD
ATOM     24  C   UNL A   1      46.070  31.260  28.065  1.00  0.00     0.031 A 
ATOM     25  C   UNL A   1      44.020  24.634  27.058  1.00  0.00     0.031 A 
ATOM     26  C   UNL A   1      47.111  30.347  27.668  1.00  0.00     0.049 A 
ATOM     27  C   UNL A   1      45.442  25.061  26.838  1.00  0.00     0.074 A 
ATOM     28  C   UNL A   1      48.458  30.607  27.482  1.00  0.00     0.029 A 
ATOM     29  N   UNL A   1      46.923  29.001  27.392  1.00  0.00    -0.354 N 
ATOM     30  N   UNL A   1      45.979  26.247  27.005  1.00  0.00    -0.248 NA
ATOM     31  C   UNL A   1      46.378  24.029  26.376  1.00  0.00     0.031 C 
ATOM     32  C   UNL A   1      49.075  29.429  27.044  1.00  0.00     0.029 A 
ATOM     33  C   UNL A   1      48.124  28.423  27.014  1.00  0.00     0.049 A 
ATOM     34  H   UNL A   1      46.063  28.525  27.456  1.00  0.00     0.167 HD
ATOM     35  C   UNL A   1      47.321  26.100  26.677  1.00  0.00     0.074 A 
ATOM     36  C   UNL A   1      47.517  24.707  26.331  1.00  0.00     0.031 C 
ATOM     37  C   UNL A   1      48.300  27.036  26.660  1.00  0.00     0.031 A 
BRANCH  24  38
ATOM     38  C   UNL A   1      46.439  32.707  28.271  1.00  0.00    -0.014 A 
ATOM     39  C   UNL A   1      47.044  33.142  29.464  1.00  0.00     0.010 A 
ATOM     40  C   UNL A   1      46.242  33.632  27.229  1.00  0.00     0.010 A 
ATOM     41  C   UNL A   1      47.417  34.480  29.623  1.00  0.00     0.020 A 
ATOM     42  C   UNL A   1      46.635  34.966  27.374  1.00  0.00     0.020 A 
ATOM     43  C   UNL A   1      47.208  35.385  28.577  1.00  0.00     0.054 A 
BRANCH  43  44
ATOM     44  S   UNL A   1      47.731  37.108  28.799  1.00  0.00     0.124 S 
ATOM     45  O   UNL A   1      47.465  37.675  27.479  1.00  0.00    -0.237 OA
ATOM     46  O   UNL A   1      46.854  37.574  29.870  1.00  0.00    -0.237 OA
ATOM     47  O   UNL A   1      49.143  37.000  29.157  1.00  0.00    -0.744 OA
ENDBRANCH  43  44
ENDBRANCH  24  38
BRANCH  25  48
ATOM     48  C   UNL A   1      43.593  23.228  26.827  1.00  0.00    -0.014 A 
ATOM     49  C   UNL A   1      43.737  22.631  25.564  1.00  0.00     0.010 A 
ATOM     50  C   UNL A   1      43.057  22.473  27.886  1.00  0.00     0.010 A 
ATOM     51  C   UNL A   1      43.332  21.308  25.358  1.00  0.00     0.020 A 
ATOM     52  C   UNL A   1      42.681  21.141  27.693  1.00  0.00     0.020 A 
ATOM     53  C   UNL A   1      42.807  20.572  26.424  1.00  0.00     0.054 A 
BRANCH  53  54
ATOM     54  S   UNL A   1      42.328  18.845  26.150  1.00  0.00     0.124 S 
ATOM     55  O   UNL A   1      43.280  18.428  25.126  1.00  0.00    -0.237 OA
ATOM     56  O   UNL A   1      42.519  18.250  27.471  1.00  0.00    -0.237 OA
ATOM     57  O   UNL A   1      40.937  18.941  25.715  1.00  0.00    -0.744 OA
ENDBRANCH  53  54
ENDBRANCH  25  48
BRANCH  37  58
ATOM     58  C   UNL A   1      49.677  26.574  26.268  1.00  0.00    -0.014 A 
ATOM     59  C   UNL A   1      50.159  26.756  24.960  1.00  0.00     0.010 A 
ATOM     60  C   UNL A   1      50.508  25.972  27.230  1.00  0.00     0.010 A 
ATOM     61  C   UNL A   1      51.435  26.307  24.610  1.00  0.00     0.020 A 
ATOM     62  C   UNL A   1      51.795  25.547  26.891  1.00  0.00     0.020 A 
ATOM     63  C   UNL A   1      52.244  25.703  25.578  1.00  0.00     0.054 A 
BRANCH  63  64
ATOM     64  S   UNL A   1      53.906  25.153  25.107  1.00  0.00     0.124 S 
ATOM     65  O   UNL A   1      54.688  25.500  26.290  1.00  0.00    -0.237 OA
ATOM     66  O   UNL A   1      53.718  23.722  24.875  1.00  0.00    -0.237 OA
ATOM     67  O   UNL A   1      54.204  25.936  23.911  1.00  0.00    -0.744 OA
ENDBRANCH  63  64
ENDBRANCH  37  58
ENDBRANCH  11  12
ENDBRANCH   4   6
ENDBRANCH   1   2
BRANCH   1  68
ATOM     68  C   UNL A   1      34.536  30.702  27.246  1.00  0.00     0.042 C 
BRANCH  68  69
ATOM     69  C   UNL A   1      34.410  29.197  27.070  1.00  0.00     0.118 C 
BRANCH  69  70
ATOM     70  N   UNL A   1      33.290  28.631  27.811  1.00  0.00    -0.352 N 
ATOM     71  C   UNL A   1      32.075  28.167  27.370  1.00  0.00     0.251 C 
ATOM     72  H   UNL A   1      33.426  28.572  28.784  1.00  0.00     0.163 HD
ATOM     73  O   UNL A   1      31.242  27.764  28.178  1.00  0.00    -0.269 OA
BRANCH  71  74
ATOM     74  C   UNL A   1      31.783  28.132  25.919  1.00  0.00     0.047 A 
ATOM     75  C   UNL A   1      31.356  29.327  25.311  1.00  0.00     0.017 A 
ATOM     76  C   UNL A   1      31.987  26.964  25.151  1.00  0.00    -0.003 A 
ATOM     77  C   UNL A   1      31.031  29.352  23.959  1.00  0.00     0.040 A 
ATOM     78  C   UNL A   1      31.650  27.019  23.784  1.00  0.00     0.048 A 
ATOM     79  C   UNL A   1      31.169  28.193  23.211  1.00  0.00     0.123 A 
ATOM     80  F   UNL A   1      30.856  28.209  21.909  1.00  0.00    -0.207 F 
BRANCH  76  81
ATOM     81  C   UNL A   1      32.569  25.721  25.687  1.00  0.00    -0.016 A 
ATOM     82  C   UNL A   1      31.793  24.763  26.361  1.00  0.00     0.012 A 
ATOM     83  C   UNL A   1      33.945  25.467  25.519  1.00  0.00     0.032 A 
ATOM     84  C   UNL A   1      32.376  23.593  26.858  1.00  0.00     0.041 A 
ATOM     85  C   UNL A   1      34.524  24.297  26.013  1.00  0.00     0.077 A 
ATOM     86  C   UNL A   1      33.736  23.366  26.681  1.00  0.00     0.141 A 
ATOM     87  Cl  UNL A   1      36.208  24.023  25.778  1.00  0.00    -0.081 Cl
ATOM     88  F   UNL A   1      34.273  22.234  27.161  1.00  0.00    -0.205 F 
ENDBRANCH  76  81
ENDBRANCH  71  74
ENDBRANCH  69  70
ENDBRANCH  68  69
ENDBRANCH   1  68
TORSDOF 14
ENDMDL
MODEL 3
REMARK VINA RESULT:     -12.4      4.629     10.201
REMARK SMILES O=C(NCCCNC(=O)c1ccc(F)cc1-c1ccc(F)c(Cl)c1)c1ccc(-c2c3nc(c(-c4ccc(S(=O)(=O)[O-])cc4)c4ccc([nH]4)c(-c4ccc(S(=O)(=O)[O-])cc4)c4nc(c(-c5ccc(S(=O)(=O)[O-])cc5)c5ccc2[nH]5)C=C4)C=C3)cc1
REMARK SMILES IDX 4 1 3 2 1 3 2 4 25 6 26 7 84 8 27 9 83 10 28 11 29 12 30 13
REMARK SMILES IDX 77 14 31 15 82 16 76 17 78 18 32 19 81 20 75 21 74 22 33 24
REMARK SMILES IDX 63 25 44 26 62 27 45 28 48 29 61 30 79 31 46 32 47 33 60 35
REMARK SMILES IDX 80 36 49 37 34 38 35 39 43 40 36 41 42 42 37 43 38 44 39 45
REMARK SMILES IDX 40 46 41 47 64 48 65 49 73 50 66 51 72 52 67 53 68 54 69 55
REMARK SMILES IDX 70 56 71 57 50 58 51 59 59 60 52 61 58 62 53 63 54 64 55 65
REMARK SMILES IDX 56 66 57 67 5 68 6 69 7 70 8 71 9 73 10 74 11 75 16 76 12 77
REMARK SMILES IDX 15 78 13 79 14 80 17 81 18 82 24 83 19 84 22 85 20 86 23 87
REMARK SMILES IDX 21 88
REMARK H PARENT 3 5 78 23 48 34 7 72
REMARK Flexibility Score: inf
ROOT
ATOM      1  C   UNL A   1      33.640  27.900  26.844  1.00  0.00     0.118 C 
ENDROOT
BRANCH   1   2
ATOM      2  N   UNL A   1      33.405  29.313  27.118  1.00  0.00    -0.352 N 
ATOM      3  O   UNL A   1      33.721  31.346  28.021  1.00  0.00    -0.269 OA
ATOM      4  C   UNL A   1      34.199  30.250  27.735  1.00  0.00     0.251 C 
ATOM      5  H   UNL A   1      32.533  29.651  26.811  1.00  0.00     0.163 HD
BRANCH   4   6
ATOM      6  C   UNL A   1      35.608  29.947  28.073  1.00  0.00     0.039 A 
ATOM      7  C   UNL A   1      36.624  30.124  27.135  1.00  0.00     0.014 A 
ATOM      8  C   UNL A   1      35.926  29.513  29.364  1.00  0.00     0.014 A 
ATOM      9  C   UNL A   1      37.917  29.709  27.425  1.00  0.00     0.010 A 
ATOM     10  C   UNL A   1      37.250  29.199  29.691  1.00  0.00     0.010 A 
ATOM     11  C   UNL A   1      38.254  29.265  28.714  1.00  0.00    -0.014 A 
BRANCH  11  12
ATOM     12  C   UNL A   1      39.676  28.961  29.019  1.00  0.00     0.031 A 
ATOM     13  C   UNL A   1      40.556  29.948  29.734  1.00  0.00     0.074 A 
ATOM     14  C   UNL A   1      40.157  27.747  28.679  1.00  0.00     0.049 A 
ATOM     15  N   UNL A   1      41.800  29.809  30.118  1.00  0.00    -0.248 NA
ATOM     16  C   UNL A   1      39.975  31.262  30.056  1.00  0.00     0.031 C 
ATOM     17  C   UNL A   1      39.400  26.709  27.971  1.00  0.00     0.029 A 
ATOM     18  N   UNL A   1      41.378  27.166  28.906  1.00  0.00    -0.354 N 
ATOM     19  C   UNL A   1      42.157  31.014  30.711  1.00  0.00     0.074 A 
ATOM     20  C   UNL A   1      41.004  31.885  30.616  1.00  0.00     0.031 C 
ATOM     21  C   UNL A   1      40.150  25.601  27.877  1.00  0.00     0.029 A 
ATOM     22  C   UNL A   1      41.462  25.871  28.451  1.00  0.00     0.049 A 
ATOM     23  H   UNL A   1      42.122  27.631  29.350  1.00  0.00     0.167 HD
ATOM     24  C   UNL A   1      43.335  31.360  31.285  1.00  0.00     0.031 A 
ATOM     25  C   UNL A   1      42.484  24.996  28.476  1.00  0.00     0.031 A 
ATOM     26  C   UNL A   1      44.478  30.488  31.377  1.00  0.00     0.049 A 
ATOM     27  C   UNL A   1      43.784  25.416  29.096  1.00  0.00     0.074 A 
ATOM     28  C   UNL A   1      45.707  30.740  31.963  1.00  0.00     0.029 A 
ATOM     29  N   UNL A   1      44.537  29.200  30.866  1.00  0.00    -0.354 N 
ATOM     30  N   UNL A   1      44.088  26.553  29.677  1.00  0.00    -0.248 NA
ATOM     31  C   UNL A   1      44.879  24.439  29.061  1.00  0.00     0.031 C 
ATOM     32  C   UNL A   1      46.525  29.623  31.762  1.00  0.00     0.029 A 
ATOM     33  C   UNL A   1      45.788  28.653  31.102  1.00  0.00     0.049 A 
ATOM     34  H   UNL A   1      43.799  28.741  30.405  1.00  0.00     0.167 HD
ATOM     35  C   UNL A   1      45.409  26.423  30.087  1.00  0.00     0.074 A 
ATOM     36  C   UNL A   1      45.834  25.089  29.712  1.00  0.00     0.031 C 
ATOM     37  C   UNL A   1      46.200  27.328  30.712  1.00  0.00     0.031 A 
BRANCH  24  38
ATOM     38  C   UNL A   1      43.461  32.754  31.847  1.00  0.00    -0.014 A 
ATOM     39  C   UNL A   1      43.885  33.827  31.043  1.00  0.00     0.010 A 
ATOM     40  C   UNL A   1      43.084  33.005  33.179  1.00  0.00     0.010 A 
ATOM     41  C   UNL A   1      43.958  35.120  31.569  1.00  0.00     0.020 A 
ATOM     42  C   UNL A   1      43.133  34.301  33.703  1.00  0.00     0.020 A 
ATOM     43  C   UNL A   1      43.583  35.349  32.897  1.00  0.00     0.054 A 
BRANCH  43  44
ATOM     44  S   UNL A   1      43.657  37.042  33.544  1.00  0.00     0.124 S 
ATOM     45  O   UNL A   1      43.717  37.831  32.315  1.00  0.00    -0.237 OA
ATOM     46  O   UNL A   1      42.412  37.153  34.299  1.00  0.00    -0.237 OA
ATOM     47  O   UNL A   1      44.875  37.054  34.350  1.00  0.00    -0.744 OA
ENDBRANCH  43  44
ENDBRANCH  24  38
BRANCH  25  48
ATOM     48  C   UNL A   1      42.319  23.648  27.870  1.00  0.00    -0.014 A 
ATOM     49  C   UNL A   1      42.676  23.412  26.531  1.00  0.00     0.010 A 
ATOM     50  C   UNL A   1      41.819  22.584  28.644  1.00  0.00     0.010 A 
ATOM     51  C   UNL A   1      42.516  22.140  25.972  1.00  0.00     0.020 A 
ATOM     52  C   UNL A   1      41.688  21.305  28.098  1.00  0.00     0.020 A 
ATOM     53  C   UNL A   1      42.024  21.095  26.759  1.00  0.00     0.054 A 
BRANCH  53  54
ATOM     54  S   UNL A   1      41.866  19.443  26.029  1.00  0.00     0.124 S 
ATOM     55  O   UNL A   1      42.305  18.586  27.126  1.00  0.00    -0.237 OA
ATOM     56  O   UNL A   1      40.443  19.375  25.704  1.00  0.00    -0.237 OA
ATOM     57  O   UNL A   1      42.759  19.494  24.874  1.00  0.00    -0.744 OA
ENDBRANCH  53  54
ENDBRANCH  25  48
BRANCH  37  58
ATOM     58  C   UNL A   1      47.600  26.894  31.045  1.00  0.00    -0.014 A 
ATOM     59  C   UNL A   1      47.883  26.203  32.237  1.00  0.00     0.010 A 
ATOM     60  C   UNL A   1      48.645  27.159  30.140  1.00  0.00     0.010 A 
ATOM     61  C   UNL A   1      49.193  25.821  32.537  1.00  0.00     0.020 A 
ATOM     62  C   UNL A   1      49.950  26.753  30.424  1.00  0.00     0.020 A 
ATOM     63  C   UNL A   1      50.219  26.101  31.629  1.00  0.00     0.054 A 
BRANCH  63  64
ATOM     64  S   UNL A   1      51.906  25.571  32.027  1.00  0.00     0.124 S 
ATOM     65  O   UNL A   1      52.188  26.337  33.238  1.00  0.00    -0.237 OA
ATOM     66  O   UNL A   1      51.755  24.129  32.216  1.00  0.00    -0.237 OA
ATOM     67  O   UNL A   1      52.678  25.959  30.850  1.00  0.00    -0.744 OA
ENDBRANCH  63  64
ENDBRANCH  37  58
ENDBRANCH  11  12
ENDBRANCH   4   6
ENDBRANCH   1   2
BRANCH   1  68
ATOM     68  C   UNL A   1      34.282  27.659  25.486  1.00  0.00     0.042 C 
BRANCH  68  69
ATOM     69  C   UNL A   1      33.292  27.324  24.381  1.00  0.00     0.118 C 
BRANCH  69  70
ATOM     70  N   UNL A   1      33.796  26.319  23.453  1.00  0.00    -0.352 N 
ATOM     71  C   UNL A   1      33.682  24.951  23.477  1.00  0.00     0.251 C 
ATOM     72  H   UNL A   1      34.297  26.678  22.687  1.00  0.00     0.163 HD
ATOM     73  O   UNL A   1      34.227  24.275  22.607  1.00  0.00    -0.269 OA
BRANCH  71  74
ATOM     74  C   UNL A   1      32.884  24.296  24.538  1.00  0.00     0.047 A 
ATOM     75  C   UNL A   1      31.486  24.451  24.492  1.00  0.00     0.017 A 
ATOM     76  C   UNL A   1      33.488  23.486  25.525  1.00  0.00    -0.003 A 
ATOM     77  C   UNL A   1      30.683  23.890  25.479  1.00  0.00     0.040 A 
ATOM     78  C   UNL A   1      32.650  22.930  26.512  1.00  0.00     0.048 A 
ATOM     79  C   UNL A   1      31.274  23.145  26.488  1.00  0.00     0.123 A 
ATOM     80  F   UNL A   1      30.507  22.605  27.442  1.00  0.00    -0.207 F 
BRANCH  76  81
ATOM     81  C   UNL A   1      34.925  23.158  25.551  1.00  0.00    -0.016 A 
ATOM     82  C   UNL A   1      35.901  24.109  25.890  1.00  0.00     0.012 A 
ATOM     83  C   UNL A   1      35.347  21.851  25.236  1.00  0.00     0.032 A 
ATOM     84  C   UNL A   1      37.258  23.767  25.906  1.00  0.00     0.041 A 
ATOM     85  C   UNL A   1      36.700  21.510  25.255  1.00  0.00     0.077 A 
ATOM     86  C   UNL A   1      37.649  22.471  25.589  1.00  0.00     0.141 A 
ATOM     87  Cl  UNL A   1      37.172  19.899  24.871  1.00  0.00    -0.081 Cl
ATOM     88  F   UNL A   1      38.955  22.163  25.615  1.00  0.00    -0.205 F 
ENDBRANCH  76  81
ENDBRANCH  71  74
ENDBRANCH  69  70
ENDBRANCH  68  69
ENDBRANCH   1  68
TORSDOF 14
ENDMDL
