MODEL 1
REMARK VINA RESULT:     -12.8      0.000      0.000
REMARK SMILES Cc1ncc(CC(=O)N2CCc3c(c(C(=O)NCCCNC(=O)c4ccc(-c5c6nc(c(-c7ccc(S(=O)(=O)[O-])cc7)c7ccc([nH]7)c(-c7ccc(S(=O)(=O)[O-])cc7)c7nc(c(-c8ccc(S(=O)(=O)[O-])cc8)c8ccc5[nH]8)C=C7)C=C6)cc4)nn3CC3CC3)C2)c(=O)[nH]1
REMARK SMILES IDX 19 1 18 2 17 3 15 4 16 5 14 7 9 8 10 9 90 10 11 11 13 12
REMARK SMILES IDX 12 13 85 14 84 15 7 16 8 17 6 18 5 19 1 20 2 21 3 22 93 23
REMARK SMILES IDX 4 24 91 25 92 27 86 28 87 29 88 30 89 31 20 32 21 33 22 34
REMARK SMILES IDX 23 36 24 37 25 38 83 39 26 40 82 41 27 42 28 43 29 44 76 45
REMARK SMILES IDX 30 46 81 47 75 48 77 49 31 50 80 51 74 52 73 53 32 55 62 56
REMARK SMILES IDX 43 57 61 58 44 59 47 60 60 61 78 62 45 63 46 64 59 66 79 67
REMARK SMILES IDX 48 68 33 69 34 70 42 71 35 72 41 73 36 74 37 75 38 76 39 77
REMARK SMILES IDX 40 78 63 79 64 80 72 81 65 82 71 83 66 84 67 85 68 86 69 87
REMARK SMILES IDX 70 88 49 89 50 90 58 91 51 92 57 93 52 94 53 95 54 96 55 97
REMARK SMILES IDX 56 98
REMARK H PARENT 17 6 93 26 21 35 77 54 47 65
REMARK Flexibility Score: inf
ROOT
ATOM      1  C   UNL A   1      39.006  21.379  26.071  1.00  0.00     0.042 C 
ENDROOT
BRANCH   1   2
ATOM      2  C   UNL A   1      37.722  22.186  25.846  1.00  0.00     0.118 C 
BRANCH   2   3
ATOM      3  N   UNL A   1      37.507  22.560  24.451  1.00  0.00    -0.351 N 
ATOM      4  C   UNL A   1      36.348  22.617  23.707  1.00  0.00     0.272 C 
ATOM      5  O   UNL A   1      36.426  23.083  22.561  1.00  0.00    -0.267 OA
ATOM      6  H   UNL A   1      38.323  22.812  23.962  1.00  0.00     0.163 HD
BRANCH   4   7
ATOM      7  C   UNL A   1      35.066  22.133  24.242  1.00  0.00     0.155 A 
ATOM      8  N   UNL A   1      32.207  24.582  24.769  1.00  0.00    -0.338 N 
ATOM      9  C   UNL A   1      31.173  23.579  24.462  1.00  0.00     0.126 C 
ATOM     10  C   UNL A   1      33.527  24.323  24.135  1.00  0.00     0.159 C 
ATOM     11  C   UNL A   1      31.504  22.233  25.125  1.00  0.00     0.078 C 
ATOM     12  C   UNL A   1      33.857  22.876  24.398  1.00  0.00     0.026 A 
ATOM     13  C   UNL A   1      32.932  21.949  24.847  1.00  0.00     0.046 A 
ATOM     14  N   UNL A   1      33.587  20.772  24.990  1.00  0.00    -0.268 N 
ATOM     15  N   UNL A   1      34.877  20.861  24.645  1.00  0.00    -0.167 NA
BRANCH   8  16
ATOM     16  C   UNL A   1      32.063  25.714  25.551  1.00  0.00     0.227 C 
ATOM     17  O   UNL A   1      31.391  25.682  26.587  1.00  0.00    -0.275 OA
BRANCH  16  18
ATOM     18  C   UNL A   1      32.469  27.100  25.006  1.00  0.00     0.143 C 
BRANCH  18  19
ATOM     19  C   UNL A   1      31.437  28.071  24.545  1.00  0.00     0.045 A 
ATOM     20  C   UNL A   1      28.877  30.986  22.873  1.00  0.00     0.087 C 
ATOM     21  C   UNL A   1      29.721  29.910  23.488  1.00  0.00     0.105 A 
ATOM     22  N   UNL A   1      29.563  28.671  23.154  1.00  0.00    -0.243 NA
ATOM     23  N   UNL A   1      30.656  30.331  24.390  1.00  0.00    -0.311 N 
ATOM     24  C   UNL A   1      30.429  27.769  23.713  1.00  0.00     0.123 A 
ATOM     25  C   UNL A   1      31.520  29.472  25.004  1.00  0.00     0.254 A 
ATOM     26  H   UNL A   1      30.707  31.291  24.605  1.00  0.00     0.171 HD
ATOM     27  O   UNL A   1      32.319  29.847  25.851  1.00  0.00    -0.269 OA
ENDBRANCH  18  19
ENDBRANCH  16  18
ENDBRANCH   8  16
BRANCH  14  28
ATOM     28  C   UNL A   1      33.076  19.504  25.489  1.00  0.00     0.148 C 
BRANCH  28  29
ATOM     29  C   UNL A   1      32.680  18.517  24.423  1.00  0.00     0.011 C 
ATOM     30  C   UNL A   1      33.624  17.533  23.764  1.00  0.00     0.006 C 
ATOM     31  C   UNL A   1      32.618  17.046  24.766  1.00  0.00     0.006 C 
ENDBRANCH  28  29
ENDBRANCH  14  28
ENDBRANCH   4   7
ENDBRANCH   2   3
ENDBRANCH   1   2
BRANCH   1  32
ATOM     32  C   UNL A   1      38.969  20.074  25.295  1.00  0.00     0.118 C 
BRANCH  32  33
ATOM     33  N   UNL A   1      40.021  19.122  25.712  1.00  0.00    -0.352 N 
ATOM     34  C   UNL A   1      41.342  19.349  26.080  1.00  0.00     0.251 C 
ATOM     35  H   UNL A   1      39.742  18.178  25.731  1.00  0.00     0.163 HD
ATOM     36  O   UNL A   1      42.146  18.423  26.109  1.00  0.00    -0.269 OA
BRANCH  34  37
ATOM     37  C   UNL A   1      41.760  20.714  26.442  1.00  0.00     0.039 A 
ATOM     38  C   UNL A   1      42.274  21.655  25.542  1.00  0.00     0.014 A 
ATOM     39  C   UNL A   1      41.566  21.067  27.762  1.00  0.00     0.014 A 
ATOM     40  C   UNL A   1      42.582  22.930  26.024  1.00  0.00     0.010 A 
ATOM     41  C   UNL A   1      41.421  22.376  28.064  1.00  0.00     0.010 A 
ATOM     42  C   UNL A   1      42.166  23.259  27.316  1.00  0.00    -0.014 A 
BRANCH  42  43
ATOM     43  C   UNL A   1      42.431  24.512  27.998  1.00  0.00     0.031 A 
ATOM     44  C   UNL A   1      41.295  25.456  27.946  1.00  0.00     0.074 A 
ATOM     45  C   UNL A   1      43.429  24.603  28.910  1.00  0.00     0.049 A 
ATOM     46  N   UNL A   1      41.194  26.514  27.215  1.00  0.00    -0.248 NA
ATOM     47  C   UNL A   1      40.034  25.063  28.605  1.00  0.00     0.031 C 
ATOM     48  C   UNL A   1      44.366  23.560  29.359  1.00  0.00     0.029 A 
ATOM     49  N   UNL A   1      43.716  25.621  29.759  1.00  0.00    -0.354 N 
ATOM     50  C   UNL A   1      39.959  27.060  27.540  1.00  0.00     0.074 A 
ATOM     51  C   UNL A   1      39.201  25.988  28.128  1.00  0.00     0.031 C 
ATOM     52  C   UNL A   1      44.912  23.921  30.544  1.00  0.00     0.029 A 
ATOM     53  C   UNL A   1      44.469  25.265  30.873  1.00  0.00     0.049 A 
ATOM     54  H   UNL A   1      43.414  26.545  29.599  1.00  0.00     0.167 HD
ATOM     55  C   UNL A   1      39.776  28.409  27.622  1.00  0.00     0.031 A 
ATOM     56  C   UNL A   1      44.625  25.995  32.013  1.00  0.00     0.031 A 
ATOM     57  C   UNL A   1      40.939  29.118  27.138  1.00  0.00     0.049 A 
ATOM     58  C   UNL A   1      44.249  27.398  31.668  1.00  0.00     0.074 A 
ATOM     59  C   UNL A   1      41.656  29.113  25.957  1.00  0.00     0.029 A 
ATOM     60  N   UNL A   1      41.788  29.640  28.094  1.00  0.00    -0.354 N 
ATOM     61  N   UNL A   1      44.904  28.117  30.795  1.00  0.00    -0.248 NA
ATOM     62  C   UNL A   1      42.862  27.797  31.875  1.00  0.00     0.031 C 
ATOM     63  C   UNL A   1      43.023  29.146  26.363  1.00  0.00     0.029 A 
ATOM     64  C   UNL A   1      43.066  29.279  27.754  1.00  0.00     0.049 A 
ATOM     65  H   UNL A   1      41.522  30.174  28.877  1.00  0.00     0.167 HD
ATOM     66  C   UNL A   1      43.924  28.742  30.033  1.00  0.00     0.074 A 
ATOM     67  C   UNL A   1      42.687  28.574  30.800  1.00  0.00     0.031 C 
ATOM     68  C   UNL A   1      44.129  29.052  28.715  1.00  0.00     0.031 A 
BRANCH  55  69
ATOM     69  C   UNL A   1      38.775  29.083  28.533  1.00  0.00    -0.014 A 
ATOM     70  C   UNL A   1      37.972  30.107  27.990  1.00  0.00     0.010 A 
ATOM     71  C   UNL A   1      38.766  28.948  29.937  1.00  0.00     0.010 A 
ATOM     72  C   UNL A   1      37.293  31.013  28.811  1.00  0.00     0.020 A 
ATOM     73  C   UNL A   1      38.054  29.818  30.765  1.00  0.00     0.020 A 
ATOM     74  C   UNL A   1      37.356  30.872  30.196  1.00  0.00     0.054 A 
BRANCH  74  75
ATOM     75  S   UNL A   1      36.579  32.118  31.249  1.00  0.00     0.124 S 
ATOM     76  O   UNL A   1      37.008  33.358  30.610  1.00  0.00    -0.237 OA
ATOM     77  O   UNL A   1      35.162  31.791  31.117  1.00  0.00    -0.237 OA
ATOM     78  O   UNL A   1      37.155  31.858  32.567  1.00  0.00    -0.744 OA
ENDBRANCH  74  75
ENDBRANCH  55  69
BRANCH  56  79
ATOM     79  C   UNL A   1      44.665  25.466  33.413  1.00  0.00    -0.014 A 
ATOM     80  C   UNL A   1      44.112  24.215  33.759  1.00  0.00     0.010 A 
ATOM     81  C   UNL A   1      45.487  26.086  34.379  1.00  0.00     0.010 A 
ATOM     82  C   UNL A   1      44.425  23.592  34.988  1.00  0.00     0.020 A 
ATOM     83  C   UNL A   1      45.794  25.480  35.604  1.00  0.00     0.020 A 
ATOM     84  C   UNL A   1      45.283  24.220  35.893  1.00  0.00     0.054 A 
BRANCH  84  85
ATOM     85  S   UNL A   1      45.847  23.339  37.383  1.00  0.00     0.124 S 
ATOM     86  O   UNL A   1      45.548  21.948  37.056  1.00  0.00    -0.237 OA
ATOM     87  O   UNL A   1      47.264  23.684  37.441  1.00  0.00    -0.237 OA
ATOM     88  O   UNL A   1      45.032  23.915  38.452  1.00  0.00    -0.744 OA
ENDBRANCH  84  85
ENDBRANCH  56  79
BRANCH  68  89
ATOM     89  C   UNL A   1      45.521  28.927  28.130  1.00  0.00    -0.014 A 
ATOM     90  C   UNL A   1      46.477  29.963  28.135  1.00  0.00     0.010 A 
ATOM     91  C   UNL A   1      45.939  27.641  27.744  1.00  0.00     0.010 A 
ATOM     92  C   UNL A   1      47.805  29.720  27.746  1.00  0.00     0.020 A 
ATOM     93  C   UNL A   1      47.262  27.389  27.375  1.00  0.00     0.020 A 
ATOM     94  C   UNL A   1      48.189  28.430  27.368  1.00  0.00     0.054 A 
BRANCH  94  95
ATOM     95  S   UNL A   1      49.913  28.106  26.903  1.00  0.00     0.124 S 
ATOM     96  O   UNL A   1      49.854  26.738  26.397  1.00  0.00    -0.237 OA
ATOM     97  O   UNL A   1      50.182  29.138  25.904  1.00  0.00    -0.237 OA
ATOM     98  O   UNL A   1      50.648  28.268  28.159  1.00  0.00    -0.744 OA
ENDBRANCH  94  95
ENDBRANCH  68  89
ENDBRANCH  42  43
ENDBRANCH  34  37
ENDBRANCH  32  33
ENDBRANCH   1  32
TORSDOF 18
ENDMDL
MODEL 2
REMARK VINA RESULT:     -12.7      4.208     10.298
REMARK SMILES Cc1ncc(CC(=O)N2CCc3c(c(C(=O)NCCCNC(=O)c4ccc(-c5c6nc(c(-c7ccc(S(=O)(=O)[O-])cc7)c7ccc([nH]7)c(-c7ccc(S(=O)(=O)[O-])cc7)c7nc(c(-c8ccc(S(=O)(=O)[O-])cc8)c8ccc5[nH]8)C=C7)C=C6)cc4)nn3CC3CC3)C2)c(=O)[nH]1
REMARK SMILES IDX 19 1 18 2 17 3 15 4 16 5 14 7 9 8 10 9 90 10 11 11 13 12
REMARK SMILES IDX 12 13 85 14 84 15 7 16 8 17 6 18 5 19 1 20 2 21 3 22 93 23
REMARK SMILES IDX 4 24 91 25 92 27 86 28 87 29 88 30 89 31 20 32 21 33 22 34
REMARK SMILES IDX 23 36 24 37 25 38 83 39 26 40 82 41 27 42 28 43 29 44 76 45
REMARK SMILES IDX 30 46 81 47 75 48 77 49 31 50 80 51 74 52 73 53 32 55 62 56
REMARK SMILES IDX 43 57 61 58 44 59 47 60 60 61 78 62 45 63 46 64 59 66 79 67
REMARK SMILES IDX 48 68 33 69 34 70 42 71 35 72 41 73 36 74 37 75 38 76 39 77
REMARK SMILES IDX 40 78 63 79 64 80 72 81 65 82 71 83 66 84 67 85 68 86 69 87
REMARK SMILES IDX 70 88 49 89 50 90 58 91 51 92 57 93 52 94 53 95 54 96 55 97
REMARK SMILES IDX 56 98
REMARK H PARENT 17 6 93 26 21 35 77 54 47 65
REMARK Flexibility Score: inf
ROOT
ATOM      1  C   UNL A   1      33.519  27.228  25.762  1.00  0.00     0.042 C 
ENDROOT
BRANCH   1   2
ATOM      2  C   UNL A   1      32.506  26.663  24.761  1.00  0.00     0.118 C 
BRANCH   2   3
ATOM      3  N   UNL A   1      33.066  26.440  23.430  1.00  0.00    -0.351 N 
ATOM      4  C   UNL A   1      33.475  25.276  22.815  1.00  0.00     0.272 C 
ATOM      5  O   UNL A   1      33.810  25.347  21.623  1.00  0.00    -0.267 OA
ATOM      6  H   UNL A   1      33.167  27.253  22.885  1.00  0.00     0.163 HD
BRANCH   4   7
ATOM      7  C   UNL A   1      33.527  23.998  23.541  1.00  0.00     0.155 A 
ATOM      8  N   UNL A   1      36.295  23.391  26.074  1.00  0.00    -0.338 N 
ATOM      9  C   UNL A   1      35.442  22.560  26.941  1.00  0.00     0.126 C 
ATOM     10  C   UNL A   1      35.557  24.381  25.247  1.00  0.00     0.159 C 
ATOM     11  C   UNL A   1      34.590  21.594  26.104  1.00  0.00     0.078 C 
ATOM     12  C   UNL A   1      34.416  23.640  24.599  1.00  0.00     0.026 A 
ATOM     13  C   UNL A   1      33.995  22.382  24.998  1.00  0.00     0.046 A 
ATOM     14  N   UNL A   1      32.974  22.028  24.183  1.00  0.00    -0.268 N 
ATOM     15  N   UNL A   1      32.682  22.979  23.287  1.00  0.00    -0.167 NA
BRANCH   8  16
ATOM     16  C   UNL A   1      37.674  23.348  25.976  1.00  0.00     0.227 C 
ATOM     17  O   UNL A   1      38.235  22.422  25.380  1.00  0.00    -0.275 OA
BRANCH  16  18
ATOM     18  C   UNL A   1      38.552  24.267  26.854  1.00  0.00     0.143 C 
BRANCH  18  19
ATOM     19  C   UNL A   1      39.981  24.511  26.511  1.00  0.00     0.045 A 
ATOM     20  C   UNL A   1      43.945  24.897  25.102  1.00  0.00     0.087 C 
ATOM     21  C   UNL A   1      42.546  24.830  25.638  1.00  0.00     0.105 A 
ATOM     22  N   UNL A   1      41.713  25.800  25.441  1.00  0.00    -0.243 NA
ATOM     23  N   UNL A   1      42.224  23.691  26.318  1.00  0.00    -0.311 N 
ATOM     24  C   UNL A   1      40.438  25.617  25.904  1.00  0.00     0.123 A 
ATOM     25  C   UNL A   1      40.979  23.472  26.832  1.00  0.00     0.254 A 
ATOM     26  H   UNL A   1      42.917  23.001  26.442  1.00  0.00     0.171 HD
ATOM     27  O   UNL A   1      40.711  22.474  27.487  1.00  0.00    -0.269 OA
ENDBRANCH  18  19
ENDBRANCH  16  18
ENDBRANCH   8  16
BRANCH  14  28
ATOM     28  C   UNL A   1      32.229  20.779  24.152  1.00  0.00     0.148 C 
BRANCH  28  29
ATOM     29  C   UNL A   1      33.073  19.540  24.014  1.00  0.00     0.011 C 
ATOM     30  C   UNL A   1      32.775  18.212  24.678  1.00  0.00     0.006 C 
ATOM     31  C   UNL A   1      32.551  18.376  23.203  1.00  0.00     0.006 C 
ENDBRANCH  28  29
ENDBRANCH  14  28
ENDBRANCH   4   7
ENDBRANCH   2   3
ENDBRANCH   1   2
BRANCH   1  32
ATOM     32  C   UNL A   1      33.894  28.657  25.406  1.00  0.00     0.118 C 
BRANCH  32  33
ATOM     33  N   UNL A   1      32.885  29.647  25.844  1.00  0.00    -0.352 N 
ATOM     34  C   UNL A   1      32.948  30.608  26.845  1.00  0.00     0.251 C 
ATOM     35  H   UNL A   1      32.036  29.619  25.347  1.00  0.00     0.163 HD
ATOM     36  O   UNL A   1      31.923  31.138  27.262  1.00  0.00    -0.269 OA
BRANCH  34  37
ATOM     37  C   UNL A   1      34.262  30.988  27.393  1.00  0.00     0.039 A 
ATOM     38  C   UNL A   1      34.725  32.302  27.513  1.00  0.00     0.014 A 
ATOM     39  C   UNL A   1      35.038  29.945  27.855  1.00  0.00     0.014 A 
ATOM     40  C   UNL A   1      35.977  32.511  28.099  1.00  0.00     0.010 A 
ATOM     41  C   UNL A   1      35.965  30.203  28.803  1.00  0.00     0.010 A 
ATOM     42  C   UNL A   1      36.598  31.424  28.718  1.00  0.00    -0.014 A 
BRANCH  42  43
ATOM     43  C   UNL A   1      37.910  31.438  29.338  1.00  0.00     0.031 A 
ATOM     44  C   UNL A   1      38.674  30.193  29.114  1.00  0.00     0.074 A 
ATOM     45  C   UNL A   1      38.490  32.608  29.699  1.00  0.00     0.049 A 
ATOM     46  N   UNL A   1      38.892  29.248  29.965  1.00  0.00    -0.248 NA
ATOM     47  C   UNL A   1      39.045  29.845  27.728  1.00  0.00     0.031 C 
ATOM     48  C   UNL A   1      37.968  33.977  29.559  1.00  0.00     0.029 A 
ATOM     49  N   UNL A   1      39.756  32.834  30.128  1.00  0.00    -0.354 N 
ATOM     50  C   UNL A   1      39.665  28.318  29.282  1.00  0.00     0.074 A 
ATOM     51  C   UNL A   1      39.452  28.584  27.885  1.00  0.00     0.031 C 
ATOM     52  C   UNL A   1      38.989  34.862  29.646  1.00  0.00     0.029 A 
ATOM     53  C   UNL A   1      40.206  34.141  29.975  1.00  0.00     0.049 A 
ATOM     54  H   UNL A   1      40.317  32.125  30.520  1.00  0.00     0.167 HD
ATOM     55  C   UNL A   1      40.674  27.640  29.901  1.00  0.00     0.031 A 
ATOM     56  C   UNL A   1      41.501  34.563  30.022  1.00  0.00     0.031 A 
ATOM     57  C   UNL A   1      40.658  27.878  31.327  1.00  0.00     0.049 A 
ATOM     58  C   UNL A   1      42.268  33.487  30.718  1.00  0.00     0.074 A 
ATOM     59  C   UNL A   1      39.713  27.728  32.324  1.00  0.00     0.029 A 
ATOM     60  N   UNL A   1      41.585  28.777  31.815  1.00  0.00    -0.354 N 
ATOM     61  N   UNL A   1      42.050  33.147  31.961  1.00  0.00    -0.248 NA
ATOM     62  C   UNL A   1      42.877  32.450  29.894  1.00  0.00     0.031 C 
ATOM     63  C   UNL A   1      39.842  28.902  33.123  1.00  0.00     0.029 A 
ATOM     64  C   UNL A   1      40.922  29.647  32.641  1.00  0.00     0.049 A 
ATOM     65  H   UNL A   1      42.547  28.790  31.606  1.00  0.00     0.167 HD
ATOM     66  C   UNL A   1      42.066  31.757  31.962  1.00  0.00     0.074 A 
ATOM     67  C   UNL A   1      42.666  31.387  30.678  1.00  0.00     0.031 C 
ATOM     68  C   UNL A   1      41.309  31.031  32.843  1.00  0.00     0.031 A 
BRANCH  55  69
ATOM     69  C   UNL A   1      41.923  27.146  29.207  1.00  0.00    -0.014 A 
ATOM     70  C   UNL A   1      42.274  25.789  29.366  1.00  0.00     0.010 A 
ATOM     71  C   UNL A   1      42.897  27.989  28.633  1.00  0.00     0.010 A 
ATOM     72  C   UNL A   1      43.563  25.331  29.074  1.00  0.00     0.020 A 
ATOM     73  C   UNL A   1      44.172  27.532  28.295  1.00  0.00     0.020 A 
ATOM     74  C   UNL A   1      44.510  26.213  28.559  1.00  0.00     0.054 A 
BRANCH  74  75
ATOM     75  S   UNL A   1      46.205  25.643  28.303  1.00  0.00     0.124 S 
ATOM     76  O   UNL A   1      46.060  24.199  28.458  1.00  0.00    -0.237 OA
ATOM     77  O   UNL A   1      46.486  26.113  26.949  1.00  0.00    -0.237 OA
ATOM     78  O   UNL A   1      46.955  26.317  29.361  1.00  0.00    -0.744 OA
ENDBRANCH  74  75
ENDBRANCH  55  69
BRANCH  56  79
ATOM     79  C   UNL A   1      42.133  35.604  29.150  1.00  0.00    -0.014 A 
ATOM     80  C   UNL A   1      41.609  35.942  27.886  1.00  0.00     0.010 A 
ATOM     81  C   UNL A   1      43.122  36.462  29.679  1.00  0.00     0.010 A 
ATOM     82  C   UNL A   1      42.013  37.120  27.218  1.00  0.00     0.020 A 
ATOM     83  C   UNL A   1      43.536  37.626  29.019  1.00  0.00     0.020 A 
ATOM     84  C   UNL A   1      42.959  37.967  27.802  1.00  0.00     0.054 A 
BRANCH  84  85
ATOM     85  S   UNL A   1      43.335  39.579  27.045  1.00  0.00     0.124 S 
ATOM     86  O   UNL A   1      42.159  39.817  26.213  1.00  0.00    -0.237 OA
ATOM     87  O   UNL A   1      43.473  40.452  28.208  1.00  0.00    -0.237 OA
ATOM     88  O   UNL A   1      44.576  39.334  26.312  1.00  0.00    -0.744 OA
ENDBRANCH  84  85
ENDBRANCH  56  79
BRANCH  68  89
ATOM     89  C   UNL A   1      40.618  31.741  33.989  1.00  0.00    -0.014 A 
ATOM     90  C   UNL A   1      39.330  32.308  33.906  1.00  0.00     0.010 A 
ATOM     91  C   UNL A   1      41.222  31.648  35.255  1.00  0.00     0.010 A 
ATOM     92  C   UNL A   1      38.677  32.785  35.056  1.00  0.00     0.020 A 
ATOM     93  C   UNL A   1      40.570  32.103  36.405  1.00  0.00     0.020 A 
ATOM     94  C   UNL A   1      39.305  32.677  36.300  1.00  0.00     0.054 A 
BRANCH  94  95
ATOM     95  S   UNL A   1      38.447  33.256  37.792  1.00  0.00     0.124 S 
ATOM     96  O   UNL A   1      38.932  32.335  38.816  1.00  0.00    -0.237 OA
ATOM     97  O   UNL A   1      38.905  34.637  37.918  1.00  0.00    -0.237 OA
ATOM     98  O   UNL A   1      37.030  33.113  37.455  1.00  0.00    -0.744 OA
ENDBRANCH  94  95
ENDBRANCH  68  89
ENDBRANCH  42  43
ENDBRANCH  34  37
ENDBRANCH  32  33
ENDBRANCH   1  32
TORSDOF 18
ENDMDL
MODEL 3
REMARK VINA RESULT:     -11.8      4.439      8.840
REMARK SMILES Cc1ncc(CC(=O)N2CCc3c(c(C(=O)NCCCNC(=O)c4ccc(-c5c6nc(c(-c7ccc(S(=O)(=O)[O-])cc7)c7ccc([nH]7)c(-c7ccc(S(=O)(=O)[O-])cc7)c7nc(c(-c8ccc(S(=O)(=O)[O-])cc8)c8ccc5[nH]8)C=C7)C=C6)cc4)nn3CC3CC3)C2)c(=O)[nH]1
REMARK SMILES IDX 19 1 18 2 17 3 15 4 16 5 14 7 9 8 10 9 90 10 11 11 13 12
REMARK SMILES IDX 12 13 85 14 84 15 7 16 8 17 6 18 5 19 1 20 2 21 3 22 93 23
REMARK SMILES IDX 4 24 91 25 92 27 86 28 87 29 88 30 89 31 20 32 21 33 22 34
REMARK SMILES IDX 23 36 24 37 25 38 83 39 26 40 82 41 27 42 28 43 29 44 76 45
REMARK SMILES IDX 30 46 81 47 75 48 77 49 31 50 80 51 74 52 73 53 32 55 62 56
REMARK SMILES IDX 43 57 61 58 44 59 47 60 60 61 78 62 45 63 46 64 59 66 79 67
REMARK SMILES IDX 48 68 33 69 34 70 42 71 35 72 41 73 36 74 37 75 38 76 39 77
REMARK SMILES IDX 40 78 63 79 64 80 72 81 65 82 71 83 66 84 67 85 68 86 69 87
REMARK SMILES IDX 70 88 49 89 50 90 58 91 51 92 57 93 52 94 53 95 54 96 55 97
REMARK SMILES IDX 56 98
REMARK H PARENT 17 6 93 26 21 35 77 54 47 65
REMARK Flexibility Score: inf
ROOT
ATOM      1  C   UNL A   1      43.444  24.328  27.836  1.00  0.00     0.042 C 
ENDROOT
BRANCH   1   2
ATOM      2  C   UNL A   1      42.082  23.954  28.431  1.00  0.00     0.118 C 
BRANCH   2   3
ATOM      3  N   UNL A   1      41.022  24.901  28.094  1.00  0.00    -0.351 N 
ATOM      4  C   UNL A   1      39.810  24.702  27.467  1.00  0.00     0.272 C 
ATOM      5  O   UNL A   1      39.033  25.666  27.406  1.00  0.00    -0.267 OA
ATOM      6  H   UNL A   1      41.202  25.831  28.358  1.00  0.00     0.163 HD
BRANCH   4   7
ATOM      7  C   UNL A   1      39.451  23.402  26.880  1.00  0.00     0.155 A 
ATOM      8  N   UNL A   1      35.949  22.865  25.505  1.00  0.00    -0.338 N 
ATOM      9  C   UNL A   1      36.408  21.949  24.447  1.00  0.00     0.126 C 
ATOM     10  C   UNL A   1      36.972  23.840  25.966  1.00  0.00     0.159 C 
ATOM     11  C   UNL A   1      37.456  20.966  24.992  1.00  0.00     0.078 C 
ATOM     12  C   UNL A   1      38.234  23.057  26.220  1.00  0.00     0.026 A 
ATOM     13  C   UNL A   1      38.433  21.760  25.774  1.00  0.00     0.046 A 
ATOM     14  N   UNL A   1      39.659  21.377  26.204  1.00  0.00    -0.268 N 
ATOM     15  N   UNL A   1      40.287  22.344  26.885  1.00  0.00    -0.167 NA
BRANCH   8  16
ATOM     16  C   UNL A   1      34.690  22.911  26.077  1.00  0.00     0.227 C 
ATOM     17  O   UNL A   1      34.424  22.223  27.069  1.00  0.00    -0.275 OA
BRANCH  16  18
ATOM     18  C   UNL A   1      33.512  23.571  25.329  1.00  0.00     0.143 C 
BRANCH  18  19
ATOM     19  C   UNL A   1      33.011  24.915  25.730  1.00  0.00     0.045 A 
ATOM     20  C   UNL A   1      31.814  28.629  27.350  1.00  0.00     0.087 C 
ATOM     21  C   UNL A   1      32.239  27.345  26.703  1.00  0.00     0.105 A 
ATOM     22  N   UNL A   1      33.278  27.302  25.934  1.00  0.00    -0.243 NA
ATOM     23  N   UNL A   1      31.475  26.252  26.994  1.00  0.00    -0.311 N 
ATOM     24  C   UNL A   1      33.632  26.071  25.449  1.00  0.00     0.123 A 
ATOM     25  C   UNL A   1      31.761  25.009  26.509  1.00  0.00     0.254 A 
ATOM     26  H   UNL A   1      30.689  26.365  27.577  1.00  0.00     0.171 HD
ATOM     27  O   UNL A   1      31.043  24.043  26.729  1.00  0.00    -0.269 OA
ENDBRANCH  18  19
ENDBRANCH  16  18
ENDBRANCH   8  16
BRANCH  14  28
ATOM     28  C   UNL A   1      40.313  20.086  26.048  1.00  0.00     0.148 C 
BRANCH  28  29
ATOM     29  C   UNL A   1      41.750  20.046  26.492  1.00  0.00     0.011 C 
ATOM     30  C   UNL A   1      42.314  19.075  27.508  1.00  0.00     0.006 C 
ATOM     31  C   UNL A   1      42.627  18.896  26.051  1.00  0.00     0.006 C 
ENDBRANCH  28  29
ENDBRANCH  14  28
ENDBRANCH   4   7
ENDBRANCH   2   3
ENDBRANCH   1   2
BRANCH   1  32
ATOM     32  C   UNL A   1      43.421  24.222  26.321  1.00  0.00     0.118 C 
BRANCH  32  33
ATOM     33  N   UNL A   1      44.711  24.587  25.695  1.00  0.00    -0.352 N 
ATOM     34  C   UNL A   1      45.228  25.834  25.368  1.00  0.00     0.251 C 
ATOM     35  H   UNL A   1      45.295  23.825  25.475  1.00  0.00     0.163 HD
ATOM     36  O   UNL A   1      46.175  25.930  24.592  1.00  0.00    -0.269 OA
BRANCH  34  37
ATOM     37  C   UNL A   1      44.630  27.038  25.970  1.00  0.00     0.039 A 
ATOM     38  C   UNL A   1      43.356  27.531  25.666  1.00  0.00     0.014 A 
ATOM     39  C   UNL A   1      45.393  27.665  26.933  1.00  0.00     0.014 A 
ATOM     40  C   UNL A   1      42.903  28.659  26.356  1.00  0.00     0.010 A 
ATOM     41  C   UNL A   1      44.765  28.409  27.869  1.00  0.00     0.010 A 
ATOM     42  C   UNL A   1      43.651  29.102  27.449  1.00  0.00    -0.014 A 
BRANCH  42  43
ATOM     43  C   UNL A   1      43.363  30.274  28.255  1.00  0.00     0.031 A 
ATOM     44  C   UNL A   1      44.037  31.496  27.769  1.00  0.00     0.074 A 
ATOM     45  C   UNL A   1      42.285  30.298  29.075  1.00  0.00     0.049 A 
ATOM     46  N   UNL A   1      45.066  32.077  28.286  1.00  0.00    -0.248 NA
ATOM     47  C   UNL A   1      43.674  32.005  26.432  1.00  0.00     0.031 C 
ATOM     48  C   UNL A   1      41.277  29.250  29.305  1.00  0.00     0.029 A 
ATOM     49  N   UNL A   1      41.764  31.343  29.766  1.00  0.00    -0.354 N 
ATOM     50  C   UNL A   1      45.300  33.183  27.480  1.00  0.00     0.074 A 
ATOM     51  C   UNL A   1      44.639  32.904  26.233  1.00  0.00     0.031 C 
ATOM     52  C   UNL A   1      40.168  29.799  29.853  1.00  0.00     0.029 A 
ATOM     53  C   UNL A   1      40.429  31.201  30.130  1.00  0.00     0.049 A 
ATOM     54  H   UNL A   1      42.291  32.143  29.993  1.00  0.00     0.167 HD
ATOM     55  C   UNL A   1      45.712  34.372  28.005  1.00  0.00     0.031 A 
ATOM     56  C   UNL A   1      39.590  32.195  30.536  1.00  0.00     0.031 A 
ATOM     57  C   UNL A   1      46.046  34.231  29.404  1.00  0.00     0.049 A 
ATOM     58  C   UNL A   1      40.461  33.332  30.961  1.00  0.00     0.074 A 
ATOM     59  C   UNL A   1      46.907  33.420  30.118  1.00  0.00     0.029 A 
ATOM     60  N   UNL A   1      45.110  34.682  30.313  1.00  0.00    -0.354 N 
ATOM     61  N   UNL A   1      41.293  33.255  31.965  1.00  0.00    -0.248 NA
ATOM     62  C   UNL A   1      40.796  34.337  29.960  1.00  0.00     0.031 C 
ATOM     63  C   UNL A   1      46.162  33.026  31.269  1.00  0.00     0.029 A 
ATOM     64  C   UNL A   1      44.937  33.698  31.252  1.00  0.00     0.049 A 
ATOM     65  H   UNL A   1      44.650  35.553  30.290  1.00  0.00     0.167 HD
ATOM     66  C   UNL A   1      42.462  33.857  31.512  1.00  0.00     0.074 A 
ATOM     67  C   UNL A   1      42.067  34.581  30.301  1.00  0.00     0.031 C 
ATOM     68  C   UNL A   1      43.694  33.461  31.961  1.00  0.00     0.031 A 
BRANCH  55  69
ATOM     69  C   UNL A   1      45.390  35.726  27.413  1.00  0.00    -0.014 A 
ATOM     70  C   UNL A   1      46.455  36.629  27.213  1.00  0.00     0.010 A 
ATOM     71  C   UNL A   1      44.086  36.247  27.291  1.00  0.00     0.010 A 
ATOM     72  C   UNL A   1      46.224  37.995  27.016  1.00  0.00     0.020 A 
ATOM     73  C   UNL A   1      43.844  37.601  27.049  1.00  0.00     0.020 A 
ATOM     74  C   UNL A   1      44.917  38.473  26.956  1.00  0.00     0.054 A 
BRANCH  74  75
ATOM     75  S   UNL A   1      44.631  40.253  26.828  1.00  0.00     0.124 S 
ATOM     76  O   UNL A   1      45.069  40.527  25.463  1.00  0.00    -0.237 OA
ATOM     77  O   UNL A   1      43.193  40.350  27.066  1.00  0.00    -0.237 OA
ATOM     78  O   UNL A   1      45.473  40.811  27.883  1.00  0.00    -0.744 OA
ENDBRANCH  74  75
ENDBRANCH  55  69
BRANCH  56  79
ATOM     79  C   UNL A   1      38.144  32.345  30.178  1.00  0.00    -0.014 A 
ATOM     80  C   UNL A   1      37.209  32.927  31.059  1.00  0.00     0.010 A 
ATOM     81  C   UNL A   1      37.723  32.146  28.845  1.00  0.00     0.010 A 
ATOM     82  C   UNL A   1      35.939  33.346  30.605  1.00  0.00     0.020 A 
ATOM     83  C   UNL A   1      36.461  32.548  28.388  1.00  0.00     0.020 A 
ATOM     84  C   UNL A   1      35.582  33.174  29.265  1.00  0.00     0.054 A 
BRANCH  84  85
ATOM     85  S   UNL A   1      34.032  33.889  28.630  1.00  0.00     0.124 S 
ATOM     86  O   UNL A   1      34.513  34.971  27.776  1.00  0.00    -0.237 OA
ATOM     87  O   UNL A   1      33.421  32.760  27.936  1.00  0.00    -0.237 OA
ATOM     88  O   UNL A   1      33.331  34.317  29.840  1.00  0.00    -0.744 OA
ENDBRANCH  84  85
ENDBRANCH  56  79
BRANCH  68  89
ATOM     89  C   UNL A   1      43.785  32.513  33.140  1.00  0.00    -0.014 A 
ATOM     90  C   UNL A   1      43.969  32.927  34.475  1.00  0.00     0.010 A 
ATOM     91  C   UNL A   1      43.468  31.164  32.901  1.00  0.00     0.010 A 
ATOM     92  C   UNL A   1      43.858  32.011  35.535  1.00  0.00     0.020 A 
ATOM     93  C   UNL A   1      43.337  30.253  33.951  1.00  0.00     0.020 A 
ATOM     94  C   UNL A   1      43.541  30.677  35.264  1.00  0.00     0.054 A 
BRANCH  94  95
ATOM     95  S   UNL A   1      43.358  29.501  36.634  1.00  0.00     0.124 S 
ATOM     96  O   UNL A   1      43.812  30.279  37.784  1.00  0.00    -0.237 OA
ATOM     97  O   UNL A   1      41.931  29.189  36.609  1.00  0.00    -0.237 OA
ATOM     98  O   UNL A   1      44.232  28.389  36.258  1.00  0.00    -0.744 OA
ENDBRANCH  94  95
ENDBRANCH  68  89
ENDBRANCH  42  43
ENDBRANCH  34  37
ENDBRANCH  32  33
ENDBRANCH   1  32
TORSDOF 18
ENDMDL
