MODEL 1
REMARK VINA RESULT:     -12.2      0.000      0.000
REMARK SMILES O=C(NCCCNC(=O)c1ccccc1-n1ccnn1)c1ccc(-c2c3nc(c(-c4ccc(S(=O)(=O)[O-])cc4)c4ccc([nH]4)c(-c4ccc(S(=O)(=O)[O-])cc4)c4nc(c(-c5ccc(S(=O)(=O)[O-])cc5)c5ccc2[nH]5)C=C4)C=C3)cc1
REMARK SMILES IDX 4 1 3 2 1 3 2 4 21 6 22 7 80 8 23 9 79 10 24 11 25 12 26 13
REMARK SMILES IDX 73 14 27 15 78 16 72 17 74 18 28 19 77 20 71 21 70 22 29 24
REMARK SMILES IDX 59 25 40 26 58 27 41 28 44 29 57 30 75 31 42 32 43 33 56 35
REMARK SMILES IDX 76 36 45 37 30 38 31 39 39 40 32 41 38 42 33 43 34 44 35 45
REMARK SMILES IDX 36 46 37 47 60 48 61 49 69 50 62 51 68 52 63 53 64 54 65 55
REMARK SMILES IDX 66 56 67 57 46 58 47 59 55 60 48 61 54 62 49 63 50 64 51 65
REMARK SMILES IDX 52 66 53 67 5 68 6 69 7 70 8 71 9 73 10 74 11 75 15 76 12 77
REMARK SMILES IDX 14 78 13 79 16 80 17 81 20 82 18 83 19 84
REMARK H PARENT 3 5 74 23 44 34 7 72
REMARK Flexibility Score: inf
ROOT
ATOM      1  C   UNL A   1      33.118  29.351  27.569  1.00  0.00     0.118 C 
ENDROOT
BRANCH   1   2
ATOM      2  N   UNL A   1      33.438  30.722  27.911  1.00  0.00    -0.352 N 
ATOM      3  O   UNL A   1      34.443  32.681  27.992  1.00  0.00    -0.269 OA
ATOM      4  C   UNL A   1      34.592  31.456  27.961  1.00  0.00     0.251 C 
ATOM      5  H   UNL A   1      32.643  31.245  28.166  1.00  0.00     0.163 HD
BRANCH   4   6
ATOM      6  C   UNL A   1      35.966  30.897  28.075  1.00  0.00     0.039 A 
ATOM      7  C   UNL A   1      36.396  29.661  27.590  1.00  0.00     0.014 A 
ATOM      8  C   UNL A   1      36.880  31.691  28.795  1.00  0.00     0.014 A 
ATOM      9  C   UNL A   1      37.671  29.186  27.907  1.00  0.00     0.010 A 
ATOM     10  C   UNL A   1      38.151  31.228  29.107  1.00  0.00     0.010 A 
ATOM     11  C   UNL A   1      38.534  29.955  28.696  1.00  0.00    -0.014 A 
BRANCH  11  12
ATOM     12  C   UNL A   1      39.898  29.485  28.932  1.00  0.00     0.031 A 
ATOM     13  C   UNL A   1      40.211  29.222  30.366  1.00  0.00     0.074 A 
ATOM     14  C   UNL A   1      40.756  29.136  27.951  1.00  0.00     0.049 A 
ATOM     15  N   UNL A   1      41.072  29.828  31.117  1.00  0.00    -0.248 NA
ATOM     16  C   UNL A   1      39.378  28.245  31.087  1.00  0.00     0.031 C 
ATOM     17  C   UNL A   1      40.493  29.051  26.511  1.00  0.00     0.029 A 
ATOM     18  N   UNL A   1      42.033  28.664  28.050  1.00  0.00    -0.354 N 
ATOM     19  C   UNL A   1      41.032  29.182  32.351  1.00  0.00     0.074 A 
ATOM     20  C   UNL A   1      39.871  28.328  32.324  1.00  0.00     0.031 C 
ATOM     21  C   UNL A   1      41.479  28.338  25.917  1.00  0.00     0.029 A 
ATOM     22  C   UNL A   1      42.506  28.035  26.900  1.00  0.00     0.049 A 
ATOM     23  H   UNL A   1      42.575  28.760  28.866  1.00  0.00     0.167 HD
ATOM     24  C   UNL A   1      42.075  29.229  33.227  1.00  0.00     0.031 A 
ATOM     25  C   UNL A   1      43.627  27.272  26.783  1.00  0.00     0.031 A 
ATOM     26  C   UNL A   1      43.025  30.245  32.873  1.00  0.00     0.049 A 
ATOM     27  C   UNL A   1      44.510  27.610  27.925  1.00  0.00     0.074 A 
ATOM     28  C   UNL A   1      42.990  31.620  32.752  1.00  0.00     0.029 A 
ATOM     29  N   UNL A   1      44.156  29.833  32.210  1.00  0.00    -0.354 N 
ATOM     30  N   UNL A   1      45.078  28.773  28.074  1.00  0.00    -0.248 NA
ATOM     31  C   UNL A   1      44.395  26.811  29.136  1.00  0.00     0.031 C 
ATOM     32  C   UNL A   1      43.814  31.907  31.626  1.00  0.00     0.029 A 
ATOM     33  C   UNL A   1      44.360  30.703  31.173  1.00  0.00     0.049 A 
ATOM     34  H   UNL A   1      44.716  29.056  32.438  1.00  0.00     0.167 HD
ATOM     35  C   UNL A   1      44.984  29.040  29.431  1.00  0.00     0.074 A 
ATOM     36  C   UNL A   1      44.635  27.759  30.046  1.00  0.00     0.031 C 
ATOM     37  C   UNL A   1      44.925  30.322  29.897  1.00  0.00     0.031 A 
BRANCH  24  38
ATOM     38  C   UNL A   1      42.440  28.110  34.171  1.00  0.00    -0.014 A 
ATOM     39  C   UNL A   1      42.682  28.417  35.527  1.00  0.00     0.010 A 
ATOM     40  C   UNL A   1      42.836  26.833  33.723  1.00  0.00     0.010 A 
ATOM     41  C   UNL A   1      43.351  27.520  36.369  1.00  0.00     0.020 A 
ATOM     42  C   UNL A   1      43.466  25.913  34.567  1.00  0.00     0.020 A 
ATOM     43  C   UNL A   1      43.750  26.277  35.877  1.00  0.00     0.054 A 
BRANCH  43  44
ATOM     44  S   UNL A   1      44.701  25.168  36.945  1.00  0.00     0.124 S 
ATOM     45  O   UNL A   1      44.085  25.403  38.247  1.00  0.00    -0.237 OA
ATOM     46  O   UNL A   1      44.438  23.862  36.345  1.00  0.00    -0.237 OA
ATOM     47  O   UNL A   1      46.073  25.648  36.803  1.00  0.00    -0.744 OA
ENDBRANCH  43  44
ENDBRANCH  24  38
BRANCH  25  48
ATOM     48  C   UNL A   1      43.838  26.048  25.959  1.00  0.00    -0.014 A 
ATOM     49  C   UNL A   1      45.124  25.664  25.528  1.00  0.00     0.010 A 
ATOM     50  C   UNL A   1      42.806  25.095  25.849  1.00  0.00     0.010 A 
ATOM     51  C   UNL A   1      45.379  24.357  25.067  1.00  0.00     0.020 A 
ATOM     52  C   UNL A   1      43.050  23.793  25.387  1.00  0.00     0.020 A 
ATOM     53  C   UNL A   1      44.342  23.422  25.021  1.00  0.00     0.054 A 
BRANCH  53  54
ATOM     54  S   UNL A   1      44.707  21.687  24.607  1.00  0.00     0.124 S 
ATOM     55  O   UNL A   1      43.664  20.967  25.332  1.00  0.00    -0.237 OA
ATOM     56  O   UNL A   1      44.588  21.675  23.152  1.00  0.00    -0.237 OA
ATOM     57  O   UNL A   1      46.063  21.489  25.115  1.00  0.00    -0.744 OA
ENDBRANCH  53  54
ENDBRANCH  25  48
BRANCH  37  58
ATOM     58  C   UNL A   1      45.256  31.453  28.951  1.00  0.00    -0.014 A 
ATOM     59  C   UNL A   1      46.567  31.853  28.625  1.00  0.00     0.010 A 
ATOM     60  C   UNL A   1      44.185  32.024  28.244  1.00  0.00     0.010 A 
ATOM     61  C   UNL A   1      46.793  32.819  27.631  1.00  0.00     0.020 A 
ATOM     62  C   UNL A   1      44.404  32.969  27.241  1.00  0.00     0.020 A 
ATOM     63  C   UNL A   1      45.706  33.370  26.944  1.00  0.00     0.054 A 
BRANCH  63  64
ATOM     64  S   UNL A   1      45.997  34.583  25.627  1.00  0.00     0.124 S 
ATOM     65  O   UNL A   1      47.425  34.429  25.362  1.00  0.00    -0.237 OA
ATOM     66  O   UNL A   1      45.106  34.127  24.562  1.00  0.00    -0.237 OA
ATOM     67  O   UNL A   1      45.616  35.857  26.235  1.00  0.00    -0.744 OA
ENDBRANCH  63  64
ENDBRANCH  37  58
ENDBRANCH  11  12
ENDBRANCH   4   6
ENDBRANCH   1   2
BRANCH   1  68
ATOM     68  C   UNL A   1      31.798  29.128  26.833  1.00  0.00     0.042 C 
BRANCH  68  69
ATOM     69  C   UNL A   1      31.508  30.088  25.684  1.00  0.00     0.118 C 
BRANCH  69  70
ATOM     70  N   UNL A   1      32.187  29.756  24.437  1.00  0.00    -0.352 N 
ATOM     71  C   UNL A   1      31.793  28.952  23.391  1.00  0.00     0.253 C 
ATOM     72  H   UNL A   1      33.070  30.175  24.325  1.00  0.00     0.163 HD
ATOM     73  O   UNL A   1      32.504  28.855  22.403  1.00  0.00    -0.269 OA
BRANCH  71  74
ATOM     74  C   UNL A   1      30.538  28.163  23.450  1.00  0.00     0.065 A 
ATOM     75  C   UNL A   1      30.693  26.835  23.886  1.00  0.00     0.016 A 
ATOM     76  C   UNL A   1      29.254  28.645  23.155  1.00  0.00     0.079 A 
ATOM     77  C   UNL A   1      29.582  26.014  24.083  1.00  0.00     0.001 A 
ATOM     78  C   UNL A   1      28.135  27.829  23.413  1.00  0.00     0.029 A 
ATOM     79  C   UNL A   1      28.303  26.518  23.865  1.00  0.00     0.002 A 
BRANCH  76  80
ATOM     80  N   UNL A   1      29.027  29.922  22.593  1.00  0.00    -0.220 N 
ATOM     81  C   UNL A   1      28.818  31.132  23.215  1.00  0.00     0.137 A 
ATOM     82  N   UNL A   1      28.969  30.096  21.252  1.00  0.00    -0.062 NA
ATOM     83  C   UNL A   1      28.469  31.987  22.200  1.00  0.00     0.157 A 
ATOM     84  N   UNL A   1      28.560  31.334  21.008  1.00  0.00    -0.139 NA
ENDBRANCH  76  80
ENDBRANCH  71  74
ENDBRANCH  69  70
ENDBRANCH  68  69
ENDBRANCH   1  68
TORSDOF 14
ENDMDL
MODEL 2
REMARK VINA RESULT:     -12.1      3.426      9.435
REMARK SMILES O=C(NCCCNC(=O)c1ccccc1-n1ccnn1)c1ccc(-c2c3nc(c(-c4ccc(S(=O)(=O)[O-])cc4)c4ccc([nH]4)c(-c4ccc(S(=O)(=O)[O-])cc4)c4nc(c(-c5ccc(S(=O)(=O)[O-])cc5)c5ccc2[nH]5)C=C4)C=C3)cc1
REMARK SMILES IDX 4 1 3 2 1 3 2 4 21 6 22 7 80 8 23 9 79 10 24 11 25 12 26 13
REMARK SMILES IDX 73 14 27 15 78 16 72 17 74 18 28 19 77 20 71 21 70 22 29 24
REMARK SMILES IDX 59 25 40 26 58 27 41 28 44 29 57 30 75 31 42 32 43 33 56 35
REMARK SMILES IDX 76 36 45 37 30 38 31 39 39 40 32 41 38 42 33 43 34 44 35 45
REMARK SMILES IDX 36 46 37 47 60 48 61 49 69 50 62 51 68 52 63 53 64 54 65 55
REMARK SMILES IDX 66 56 67 57 46 58 47 59 55 60 48 61 54 62 49 63 50 64 51 65
REMARK SMILES IDX 52 66 53 67 5 68 6 69 7 70 8 71 9 73 10 74 11 75 15 76 12 77
REMARK SMILES IDX 14 78 13 79 16 80 17 81 20 82 18 83 19 84
REMARK H PARENT 3 5 74 23 44 34 7 72
REMARK Flexibility Score: inf
ROOT
ATOM      1  C   UNL A   1      36.864  21.934  25.610  1.00  0.00     0.118 C 
ENDROOT
BRANCH   1   2
ATOM      2  N   UNL A   1      38.245  21.503  25.545  1.00  0.00    -0.352 N 
ATOM      3  O   UNL A   1      40.337  21.083  26.096  1.00  0.00    -0.269 OA
ATOM      4  C   UNL A   1      39.401  21.885  26.169  1.00  0.00     0.251 C 
ATOM      5  H   UNL A   1      38.384  20.768  24.905  1.00  0.00     0.163 HD
BRANCH   4   6
ATOM      6  C   UNL A   1      39.634  23.199  26.827  1.00  0.00     0.039 A 
ATOM      7  C   UNL A   1      38.876  24.358  26.645  1.00  0.00     0.014 A 
ATOM      8  C   UNL A   1      40.766  23.261  27.663  1.00  0.00     0.014 A 
ATOM      9  C   UNL A   1      39.299  25.568  27.199  1.00  0.00     0.010 A 
ATOM     10  C   UNL A   1      41.187  24.459  28.223  1.00  0.00     0.010 A 
ATOM     11  C   UNL A   1      40.475  25.624  27.957  1.00  0.00    -0.014 A 
BRANCH  11  12
ATOM     12  C   UNL A   1      40.845  26.879  28.610  1.00  0.00     0.031 A 
ATOM     13  C   UNL A   1      42.034  27.550  28.008  1.00  0.00     0.074 A 
ATOM     14  C   UNL A   1      40.095  27.491  29.550  1.00  0.00     0.049 A 
ATOM     15  N   UNL A   1      43.183  27.775  28.556  1.00  0.00    -0.248 NA
ATOM     16  C   UNL A   1      41.977  27.905  26.580  1.00  0.00     0.031 C 
ATOM     17  C   UNL A   1      38.760  27.114  30.024  1.00  0.00     0.029 A 
ATOM     18  N   UNL A   1      40.324  28.666  30.205  1.00  0.00    -0.354 N 
ATOM     19  C   UNL A   1      43.931  28.476  27.613  1.00  0.00     0.074 A 
ATOM     20  C   UNL A   1      43.203  28.389  26.372  1.00  0.00     0.031 C 
ATOM     21  C   UNL A   1      38.211  28.156  30.693  1.00  0.00     0.029 A 
ATOM     22  C   UNL A   1      39.198  29.216  30.813  1.00  0.00     0.049 A 
ATOM     23  H   UNL A   1      41.212  29.090  30.245  1.00  0.00     0.167 HD
ATOM     24  C   UNL A   1      44.988  29.261  27.964  1.00  0.00     0.031 A 
ATOM     25  C   UNL A   1      39.070  30.472  31.322  1.00  0.00     0.031 A 
ATOM     26  C   UNL A   1      45.407  29.020  29.316  1.00  0.00     0.049 A 
ATOM     27  C   UNL A   1      40.438  30.989  31.566  1.00  0.00     0.074 A 
ATOM     28  C   UNL A   1      45.909  27.936  30.007  1.00  0.00     0.029 A 
ATOM     29  N   UNL A   1      44.974  29.912  30.268  1.00  0.00    -0.354 N 
ATOM     30  N   UNL A   1      41.243  30.494  32.463  1.00  0.00    -0.248 NA
ATOM     31  C   UNL A   1      41.078  31.753  30.506  1.00  0.00     0.031 C 
ATOM     32  C   UNL A   1      45.311  28.018  31.297  1.00  0.00     0.029 A 
ATOM     33  C   UNL A   1      44.539  29.182  31.342  1.00  0.00     0.049 A 
ATOM     34  H   UNL A   1      44.977  30.894  30.193  1.00  0.00     0.167 HD
ATOM     35  C   UNL A   1      42.490  30.495  31.856  1.00  0.00     0.074 A 
ATOM     36  C   UNL A   1      42.342  31.362  30.687  1.00  0.00     0.031 C 
ATOM     37  C   UNL A   1      43.443  29.578  32.197  1.00  0.00     0.031 A 
BRANCH  24  38
ATOM     38  C   UNL A   1      45.391  30.517  27.232  1.00  0.00    -0.014 A 
ATOM     39  C   UNL A   1      46.763  30.768  27.018  1.00  0.00     0.010 A 
ATOM     40  C   UNL A   1      44.502  31.589  27.008  1.00  0.00     0.010 A 
ATOM     41  C   UNL A   1      47.226  32.044  26.671  1.00  0.00     0.020 A 
ATOM     42  C   UNL A   1      44.950  32.855  26.618  1.00  0.00     0.020 A 
ATOM     43  C   UNL A   1      46.314  33.082  26.486  1.00  0.00     0.054 A 
BRANCH  43  44
ATOM     44  S   UNL A   1      46.930  34.747  26.135  1.00  0.00     0.124 S 
ATOM     45  O   UNL A   1      45.698  35.463  25.819  1.00  0.00    -0.237 OA
ATOM     46  O   UNL A   1      47.569  35.112  27.397  1.00  0.00    -0.237 OA
ATOM     47  O   UNL A   1      47.844  34.545  25.015  1.00  0.00    -0.744 OA
ENDBRANCH  43  44
ENDBRANCH  24  38
BRANCH  25  48
ATOM     48  C   UNL A   1      37.882  31.371  31.296  1.00  0.00    -0.014 A 
ATOM     49  C   UNL A   1      36.652  30.982  31.864  1.00  0.00     0.010 A 
ATOM     50  C   UNL A   1      38.044  32.733  30.974  1.00  0.00     0.010 A 
ATOM     51  C   UNL A   1      35.651  31.930  32.158  1.00  0.00     0.020 A 
ATOM     52  C   UNL A   1      37.052  33.682  31.259  1.00  0.00     0.020 A 
ATOM     53  C   UNL A   1      35.868  33.280  31.873  1.00  0.00     0.054 A 
BRANCH  53  54
ATOM     54  S   UNL A   1      34.660  34.525  32.423  1.00  0.00     0.124 S 
ATOM     55  O   UNL A   1      35.466  35.383  33.287  1.00  0.00    -0.237 OA
ATOM     56  O   UNL A   1      34.226  35.126  31.165  1.00  0.00    -0.237 OA
ATOM     57  O   UNL A   1      33.640  33.736  33.111  1.00  0.00    -0.744 OA
ENDBRANCH  53  54
ENDBRANCH  25  48
BRANCH  37  58
ATOM     58  C   UNL A   1      43.237  28.749  33.444  1.00  0.00    -0.014 A 
ATOM     59  C   UNL A   1      43.651  29.141  34.732  1.00  0.00     0.010 A 
ATOM     60  C   UNL A   1      42.446  27.595  33.315  1.00  0.00     0.010 A 
ATOM     61  C   UNL A   1      43.298  28.380  35.858  1.00  0.00     0.020 A 
ATOM     62  C   UNL A   1      42.076  26.845  34.432  1.00  0.00     0.020 A 
ATOM     63  C   UNL A   1      42.510  27.235  35.699  1.00  0.00     0.054 A 
BRANCH  63  64
ATOM     64  S   UNL A   1      42.014  26.276  37.157  1.00  0.00     0.124 S 
ATOM     65  O   UNL A   1      43.078  26.574  38.111  1.00  0.00    -0.237 OA
ATOM     66  O   UNL A   1      40.702  26.833  37.481  1.00  0.00    -0.237 OA
ATOM     67  O   UNL A   1      41.985  24.896  36.674  1.00  0.00    -0.744 OA
ENDBRANCH  63  64
ENDBRANCH  37  58
ENDBRANCH  11  12
ENDBRANCH   4   6
ENDBRANCH   1   2
BRANCH   1  68
ATOM     68  C   UNL A   1      36.383  22.836  24.474  1.00  0.00     0.042 C 
BRANCH  68  69
ATOM     69  C   UNL A   1      35.539  24.036  24.891  1.00  0.00     0.118 C 
BRANCH  69  70
ATOM     70  N   UNL A   1      34.118  23.749  25.044  1.00  0.00    -0.352 N 
ATOM     71  C   UNL A   1      33.034  24.596  25.089  1.00  0.00     0.253 C 
ATOM     72  H   UNL A   1      33.899  22.793  25.126  1.00  0.00     0.163 HD
ATOM     73  O   UNL A   1      31.907  24.131  25.168  1.00  0.00    -0.269 OA
BRANCH  71  74
ATOM     74  C   UNL A   1      33.201  26.070  25.086  1.00  0.00     0.065 A 
ATOM     75  C   UNL A   1      33.359  26.650  26.358  1.00  0.00     0.016 A 
ATOM     76  C   UNL A   1      33.255  26.885  23.946  1.00  0.00     0.079 A 
ATOM     77  C   UNL A   1      33.626  28.014  26.491  1.00  0.00     0.001 A 
ATOM     78  C   UNL A   1      33.583  28.247  24.087  1.00  0.00     0.029 A 
ATOM     79  C   UNL A   1      33.757  28.807  25.355  1.00  0.00     0.002 A 
BRANCH  76  80
ATOM     80  N   UNL A   1      32.981  26.401  22.647  1.00  0.00    -0.220 N 
ATOM     81  C   UNL A   1      31.872  26.593  21.854  1.00  0.00     0.137 A 
ATOM     82  N   UNL A   1      33.863  25.609  21.993  1.00  0.00    -0.062 NA
ATOM     83  C   UNL A   1      32.061  25.749  20.787  1.00  0.00     0.157 A 
ATOM     84  N   UNL A   1      33.279  25.151  20.894  1.00  0.00    -0.139 NA
ENDBRANCH  76  80
ENDBRANCH  71  74
ENDBRANCH  69  70
ENDBRANCH  68  69
ENDBRANCH   1  68
TORSDOF 14
ENDMDL
MODEL 3
REMARK VINA RESULT:     -12.1      4.156      9.912
REMARK SMILES O=C(NCCCNC(=O)c1ccccc1-n1ccnn1)c1ccc(-c2c3nc(c(-c4ccc(S(=O)(=O)[O-])cc4)c4ccc([nH]4)c(-c4ccc(S(=O)(=O)[O-])cc4)c4nc(c(-c5ccc(S(=O)(=O)[O-])cc5)c5ccc2[nH]5)C=C4)C=C3)cc1
REMARK SMILES IDX 4 1 3 2 1 3 2 4 21 6 22 7 80 8 23 9 79 10 24 11 25 12 26 13
REMARK SMILES IDX 73 14 27 15 78 16 72 17 74 18 28 19 77 20 71 21 70 22 29 24
REMARK SMILES IDX 59 25 40 26 58 27 41 28 44 29 57 30 75 31 42 32 43 33 56 35
REMARK SMILES IDX 76 36 45 37 30 38 31 39 39 40 32 41 38 42 33 43 34 44 35 45
REMARK SMILES IDX 36 46 37 47 60 48 61 49 69 50 62 51 68 52 63 53 64 54 65 55
REMARK SMILES IDX 66 56 67 57 46 58 47 59 55 60 48 61 54 62 49 63 50 64 51 65
REMARK SMILES IDX 52 66 53 67 5 68 6 69 7 70 8 71 9 73 10 74 11 75 15 76 12 77
REMARK SMILES IDX 14 78 13 79 16 80 17 81 20 82 18 83 19 84
REMARK H PARENT 3 5 74 23 44 34 7 72
REMARK Flexibility Score: inf
ROOT
ATOM      1  C   UNL A   1      37.464  22.167  24.882  1.00  0.00     0.118 C 
ENDROOT
BRANCH   1   2
ATOM      2  N   UNL A   1      38.731  21.585  25.275  1.00  0.00    -0.352 N 
ATOM      3  O   UNL A   1      40.470  20.970  26.481  1.00  0.00    -0.269 OA
ATOM      4  C   UNL A   1      39.664  21.872  26.235  1.00  0.00     0.251 C 
ATOM      5  H   UNL A   1      38.978  20.806  24.726  1.00  0.00     0.163 HD
BRANCH   4   6
ATOM      6  C   UNL A   1      39.830  23.187  26.912  1.00  0.00     0.039 A 
ATOM      7  C   UNL A   1      39.016  24.309  26.744  1.00  0.00     0.014 A 
ATOM      8  C   UNL A   1      40.955  23.293  27.752  1.00  0.00     0.014 A 
ATOM      9  C   UNL A   1      39.378  25.531  27.316  1.00  0.00     0.010 A 
ATOM     10  C   UNL A   1      41.316  24.502  28.329  1.00  0.00     0.010 A 
ATOM     11  C   UNL A   1      40.548  25.634  28.077  1.00  0.00    -0.014 A 
BRANCH  11  12
ATOM     12  C   UNL A   1      40.855  26.896  28.749  1.00  0.00     0.031 A 
ATOM     13  C   UNL A   1      42.001  27.640  28.152  1.00  0.00     0.074 A 
ATOM     14  C   UNL A   1      40.079  27.451  29.704  1.00  0.00     0.049 A 
ATOM     15  N   UNL A   1      43.140  27.918  28.696  1.00  0.00    -0.248 NA
ATOM     16  C   UNL A   1      41.915  28.015  26.730  1.00  0.00     0.031 C 
ATOM     17  C   UNL A   1      38.770  26.995  30.180  1.00  0.00     0.029 A 
ATOM     18  N   UNL A   1      40.249  28.626  30.377  1.00  0.00    -0.354 N 
ATOM     19  C   UNL A   1      43.843  28.674  27.760  1.00  0.00     0.074 A 
ATOM     20  C   UNL A   1      43.111  28.568  26.523  1.00  0.00     0.031 C 
ATOM     21  C   UNL A   1      38.170  27.995  30.869  1.00  0.00     0.029 A 
ATOM     22  C   UNL A   1      39.099  29.105  31.002  1.00  0.00     0.049 A 
ATOM     23  H   UNL A   1      41.113  29.097  30.419  1.00  0.00     0.167 HD
ATOM     24  C   UNL A   1      44.858  29.509  28.118  1.00  0.00     0.031 A 
ATOM     25  C   UNL A   1      38.907  30.343  31.532  1.00  0.00     0.031 A 
ATOM     26  C   UNL A   1      45.299  29.269  29.464  1.00  0.00     0.049 A 
ATOM     27  C   UNL A   1      40.247  30.929  31.777  1.00  0.00     0.074 A 
ATOM     28  C   UNL A   1      45.864  28.202  30.133  1.00  0.00     0.029 A 
ATOM     29  N   UNL A   1      44.826  30.121  30.433  1.00  0.00    -0.354 N 
ATOM     30  N   UNL A   1      41.084  30.464  32.660  1.00  0.00    -0.248 NA
ATOM     31  C   UNL A   1      40.837  31.745  30.725  1.00  0.00     0.031 C 
ATOM     32  C   UNL A   1      45.271  28.230  31.428  1.00  0.00     0.029 A 
ATOM     33  C   UNL A   1      44.438  29.351  31.497  1.00  0.00     0.049 A 
ATOM     34  H   UNL A   1      44.775  31.102  30.374  1.00  0.00     0.167 HD
ATOM     35  C   UNL A   1      42.325  30.542  32.045  1.00  0.00     0.074 A 
ATOM     36  C   UNL A   1      42.122  31.420  30.892  1.00  0.00     0.031 C 
ATOM     37  C   UNL A   1      43.328  29.673  32.366  1.00  0.00     0.031 A 
BRANCH  24  38
ATOM     38  C   UNL A   1      45.188  30.797  27.405  1.00  0.00    -0.014 A 
ATOM     39  C   UNL A   1      46.510  31.006  26.956  1.00  0.00     0.010 A 
ATOM     40  C   UNL A   1      44.332  31.918  27.418  1.00  0.00     0.010 A 
ATOM     41  C   UNL A   1      46.969  32.283  26.610  1.00  0.00     0.020 A 
ATOM     42  C   UNL A   1      44.769  33.189  27.033  1.00  0.00     0.020 A 
ATOM     43  C   UNL A   1      46.095  33.369  26.664  1.00  0.00     0.054 A 
BRANCH  43  44
ATOM     44  S   UNL A   1      46.726  35.028  26.311  1.00  0.00     0.124 S 
ATOM     45  O   UNL A   1      47.527  35.305  27.499  1.00  0.00    -0.237 OA
ATOM     46  O   UNL A   1      47.475  34.817  25.075  1.00  0.00    -0.237 OA
ATOM     47  O   UNL A   1      45.514  35.832  26.170  1.00  0.00    -0.744 OA
ENDBRANCH  43  44
ENDBRANCH  24  38
BRANCH  25  48
ATOM     48  C   UNL A   1      37.672  31.177  31.528  1.00  0.00    -0.014 A 
ATOM     49  C   UNL A   1      36.786  31.186  32.625  1.00  0.00     0.010 A 
ATOM     50  C   UNL A   1      37.520  32.194  30.564  1.00  0.00     0.010 A 
ATOM     51  C   UNL A   1      35.830  32.209  32.782  1.00  0.00     0.020 A 
ATOM     52  C   UNL A   1      36.569  33.214  30.711  1.00  0.00     0.020 A 
ATOM     53  C   UNL A   1      35.743  33.231  31.833  1.00  0.00     0.054 A 
BRANCH  53  54
ATOM     54  S   UNL A   1      34.643  34.650  32.131  1.00  0.00     0.124 S 
ATOM     55  O   UNL A   1      35.497  35.553  32.897  1.00  0.00    -0.237 OA
ATOM     56  O   UNL A   1      34.314  35.088  30.778  1.00  0.00    -0.237 OA
ATOM     57  O   UNL A   1      33.528  34.071  32.878  1.00  0.00    -0.744 OA
ENDBRANCH  53  54
ENDBRANCH  25  48
BRANCH  37  58
ATOM     58  C   UNL A   1      43.176  28.814  33.599  1.00  0.00    -0.014 A 
ATOM     59  C   UNL A   1      43.536  29.223  34.898  1.00  0.00     0.010 A 
ATOM     60  C   UNL A   1      42.489  27.598  33.445  1.00  0.00     0.010 A 
ATOM     61  C   UNL A   1      43.234  28.421  36.009  1.00  0.00     0.020 A 
ATOM     62  C   UNL A   1      42.168  26.805  34.548  1.00  0.00     0.020 A 
ATOM     63  C   UNL A   1      42.549  27.215  35.826  1.00  0.00     0.054 A 
BRANCH  63  64
ATOM     64  S   UNL A   1      42.115  26.199  37.264  1.00  0.00     0.124 S 
ATOM     65  O   UNL A   1      43.142  26.567  38.236  1.00  0.00    -0.237 OA
ATOM     66  O   UNL A   1      40.760  26.644  37.581  1.00  0.00    -0.237 OA
ATOM     67  O   UNL A   1      42.203  24.828  36.764  1.00  0.00    -0.744 OA
ENDBRANCH  63  64
ENDBRANCH  37  58
ENDBRANCH  11  12
ENDBRANCH   4   6
ENDBRANCH   1   2
BRANCH   1  68
ATOM     68  C   UNL A   1      36.287  21.926  25.827  1.00  0.00     0.042 C 
BRANCH  68  69
ATOM     69  C   UNL A   1      35.595  23.177  26.357  1.00  0.00     0.118 C 
BRANCH  69  70
ATOM     70  N   UNL A   1      34.524  22.913  27.310  1.00  0.00    -0.352 N 
ATOM     71  C   UNL A   1      33.163  22.819  27.124  1.00  0.00     0.253 C 
ATOM     72  H   UNL A   1      34.823  22.779  28.238  1.00  0.00     0.163 HD
ATOM     73  O   UNL A   1      32.442  22.531  28.068  1.00  0.00    -0.269 OA
BRANCH  71  74
ATOM     74  C   UNL A   1      32.539  23.101  25.808  1.00  0.00     0.065 A 
ATOM     75  C   UNL A   1      32.057  24.413  25.650  1.00  0.00     0.016 A 
ATOM     76  C   UNL A   1      32.444  22.199  24.738  1.00  0.00     0.079 A 
ATOM     77  C   UNL A   1      31.539  24.840  24.426  1.00  0.00     0.001 A 
ATOM     78  C   UNL A   1      31.974  22.656  23.491  1.00  0.00     0.029 A 
ATOM     79  C   UNL A   1      31.516  23.967  23.343  1.00  0.00     0.002 A 
BRANCH  76  80
ATOM     80  N   UNL A   1      32.788  20.834  24.856  1.00  0.00    -0.220 N 
ATOM     81  C   UNL A   1      33.978  20.200  24.579  1.00  0.00     0.137 A 
ATOM     82  N   UNL A   1      31.885  19.918  25.281  1.00  0.00    -0.062 NA
ATOM     83  C   UNL A   1      33.691  18.862  24.693  1.00  0.00     0.157 A 
ATOM     84  N   UNL A   1      32.406  18.710  25.115  1.00  0.00    -0.139 NA
ENDBRANCH  76  80
ENDBRANCH  71  74
ENDBRANCH  69  70
ENDBRANCH  68  69
ENDBRANCH   1  68
TORSDOF 14
ENDMDL
