MODEL 1
REMARK VINA RESULT:     -12.2      0.000      0.000
REMARK SMILES CC1(C)S[C@@H](c2cccc3c2sc2ccccc23)[NH2+][C@@H]1C(=O)NCCCNC(=O)c1ccc(-c2c3nc(c(-c4ccc(S(=O)(=O)[O-])cc4)c4ccc([nH]4)c(-c4ccc(S(=O)(=O)[O-])cc4)c4nc(c(-c5ccc(S(=O)(=O)[O-])cc5)c5ccc2[nH]5)C=C4)C=C3)cc1
REMARK SMILES IDX 26 1 25 2 24 3 23 4 21 5 22 6 20 8 1 9 2 10 3 11 4 12 5 13
REMARK SMILES IDX 19 14 6 17 7 18 11 19 8 20 10 21 12 22 9 23 18 24 13 25
REMARK SMILES IDX 17 26 14 27 16 28 15 29 27 30 28 31 29 33 30 34 31 35 89 36
REMARK SMILES IDX 32 37 88 38 33 39 34 40 35 41 82 42 36 43 87 44 81 45 83 46
REMARK SMILES IDX 37 47 86 48 80 49 79 50 38 52 68 53 49 54 67 55 50 56 53 57
REMARK SMILES IDX 66 58 84 59 51 60 52 61 65 63 85 64 54 65 39 66 40 67 48 68
REMARK SMILES IDX 41 69 47 70 42 71 43 72 44 73 45 74 46 75 69 76 70 77 78 78
REMARK SMILES IDX 71 79 77 80 72 81 73 82 74 83 75 84 76 85 55 86 56 87 64 88
REMARK SMILES IDX 57 89 63 90 58 91 59 92 60 93 61 94 62 95
REMARK H PARENT 23 7 19 15 19 16 27 32 83 51 53 62
REMARK Flexibility Score: inf
ROOT
ATOM      1  C   UNL A   1      33.619  28.779  27.127  1.00  0.00     0.118 C 
ENDROOT
BRANCH   1   2
ATOM      2  C   UNL A   1      32.425  27.982  27.626  1.00  0.00     0.042 C 
BRANCH   2   3
ATOM      3  C   UNL A   1      31.342  27.767  26.583  1.00  0.00     0.118 C 
BRANCH   3   4
ATOM      4  N   UNL A   1      30.926  26.376  26.501  1.00  0.00    -0.351 N 
ATOM      5  C   UNL A   1      31.421  25.298  25.831  1.00  0.00     0.279 C 
ATOM      6  O   UNL A   1      30.727  24.280  25.904  1.00  0.00    -0.268 OA
ATOM      7  H   UNL A   1      30.125  26.171  27.037  1.00  0.00     0.163 HD
BRANCH   5   8
ATOM      8  C   UNL A   1      32.691  25.360  24.935  1.00  0.00     0.289 C 
ATOM      9  C   UNL A   1      33.653  25.824  22.617  1.00  0.00     0.030 C 
ATOM     10  C   UNL A   1      32.461  25.234  23.398  1.00  0.00     0.077 C 
ATOM     11  C   UNL A   1      31.178  25.839  22.829  1.00  0.00     0.030 C 
ATOM     12  S   UNL A   1      32.476  23.419  23.109  1.00  0.00    -0.081 SA
ATOM     13  C   UNL A   1      33.193  23.046  24.734  1.00  0.00     0.276 C 
ATOM     14  N   UNL A   1      33.684  24.313  25.282  1.00  0.00    -0.320 N 
ATOM     15  H   UNL A   1      34.591  24.541  24.873  1.00  0.00     0.348 HD
ATOM     16  H   UNL A   1      33.801  24.247  26.294  1.00  0.00     0.348 HD
BRANCH  13  17
ATOM     17  C   UNL A   1      34.294  22.001  24.706  1.00  0.00     0.038 A 
ATOM     18  C   UNL A   1      35.649  22.403  24.632  1.00  0.00     0.012 A 
ATOM     19  C   UNL A   1      34.049  20.598  24.810  1.00  0.00     0.046 A 
ATOM     20  C   UNL A   1      36.692  21.493  24.640  1.00  0.00     0.001 A 
ATOM     21  C   UNL A   1      35.086  19.657  24.801  1.00  0.00     0.001 A 
ATOM     22  S   UNL A   1      32.526  19.801  24.973  1.00  0.00    -0.135 S 
ATOM     23  C   UNL A   1      36.419  20.131  24.715  1.00  0.00     0.010 A 
ATOM     24  C   UNL A   1      34.600  18.290  24.883  1.00  0.00     0.000 A 
ATOM     25  C   UNL A   1      33.214  18.235  25.003  1.00  0.00     0.036 A 
ATOM     26  C   UNL A   1      35.311  17.060  24.868  1.00  0.00     0.010 A 
ATOM     27  C   UNL A   1      32.528  17.009  25.127  1.00  0.00     0.019 A 
ATOM     28  C   UNL A   1      34.638  15.840  24.976  1.00  0.00     0.001 A 
ATOM     29  C   UNL A   1      33.258  15.818  25.111  1.00  0.00     0.002 A 
ENDBRANCH  13  17
ENDBRANCH   5   8
ENDBRANCH   3   4
ENDBRANCH   2   3
ENDBRANCH   1   2
BRANCH   1  30
ATOM     30  N   UNL A   1      33.592  30.172  27.557  1.00  0.00    -0.352 N 
ATOM     31  C   UNL A   1      34.533  30.900  28.242  1.00  0.00     0.251 C 
ATOM     32  H   UNL A   1      32.774  30.665  27.320  1.00  0.00     0.163 HD
ATOM     33  O   UNL A   1      34.246  32.015  28.671  1.00  0.00    -0.269 OA
BRANCH  31  34
ATOM     34  C   UNL A   1      35.878  30.334  28.484  1.00  0.00     0.039 A 
ATOM     35  C   UNL A   1      36.846  30.431  27.483  1.00  0.00     0.014 A 
ATOM     36  C   UNL A   1      36.188  29.717  29.699  1.00  0.00     0.014 A 
ATOM     37  C   UNL A   1      38.144  29.980  27.732  1.00  0.00     0.010 A 
ATOM     38  C   UNL A   1      37.503  29.369  29.983  1.00  0.00     0.010 A 
ATOM     39  C   UNL A   1      38.496  29.487  29.000  1.00  0.00    -0.014 A 
BRANCH  39  40
ATOM     40  C   UNL A   1      39.890  29.086  29.317  1.00  0.00     0.031 A 
ATOM     41  C   UNL A   1      40.825  30.063  29.980  1.00  0.00     0.074 A 
ATOM     42  C   UNL A   1      40.334  27.866  28.954  1.00  0.00     0.049 A 
ATOM     43  N   UNL A   1      42.089  29.916  30.287  1.00  0.00    -0.248 NA
ATOM     44  C   UNL A   1      40.279  31.389  30.317  1.00  0.00     0.031 C 
ATOM     45  C   UNL A   1      39.539  26.843  28.267  1.00  0.00     0.029 A 
ATOM     46  N   UNL A   1      41.563  27.276  29.111  1.00  0.00    -0.354 N 
ATOM     47  C   UNL A   1      42.488  31.128  30.839  1.00  0.00     0.074 A 
ATOM     48  C   UNL A   1      41.353  32.020  30.767  1.00  0.00     0.031 C 
ATOM     49  C   UNL A   1      40.288  25.742  28.098  1.00  0.00     0.029 A 
ATOM     50  C   UNL A   1      41.629  25.993  28.618  1.00  0.00     0.049 A 
ATOM     51  H   UNL A   1      42.327  27.728  29.537  1.00  0.00     0.167 HD
ATOM     52  C   UNL A   1      43.684  31.462  31.380  1.00  0.00     0.031 A 
ATOM     53  C   UNL A   1      42.652  25.118  28.582  1.00  0.00     0.031 A 
ATOM     54  C   UNL A   1      44.809  30.569  31.457  1.00  0.00     0.049 A 
ATOM     55  C   UNL A   1      43.978  25.521  29.168  1.00  0.00     0.074 A 
ATOM     56  C   UNL A   1      46.049  30.795  32.029  1.00  0.00     0.029 A 
ATOM     57  N   UNL A   1      44.835  29.281  30.943  1.00  0.00    -0.354 N 
ATOM     58  N   UNL A   1      44.317  26.651  29.742  1.00  0.00    -0.248 NA
ATOM     59  C   UNL A   1      45.057  24.525  29.112  1.00  0.00     0.031 C 
ATOM     60  C   UNL A   1      46.843  29.666  31.809  1.00  0.00     0.029 A 
ATOM     61  C   UNL A   1      46.077  28.709  31.162  1.00  0.00     0.049 A 
ATOM     62  H   UNL A   1      44.080  28.838  30.490  1.00  0.00     0.167 HD
ATOM     63  C   UNL A   1      45.638  26.491  30.143  1.00  0.00     0.074 A 
ATOM     64  C   UNL A   1      46.031  25.150  29.760  1.00  0.00     0.031 C 
ATOM     65  C   UNL A   1      46.454  27.374  30.773  1.00  0.00     0.031 A 
BRANCH  52  66
ATOM     66  C   UNL A   1      43.835  32.858  31.931  1.00  0.00    -0.014 A 
ATOM     67  C   UNL A   1      44.276  33.918  31.117  1.00  0.00     0.010 A 
ATOM     68  C   UNL A   1      43.495  33.122  33.270  1.00  0.00     0.010 A 
ATOM     69  C   UNL A   1      44.413  35.205  31.642  1.00  0.00     0.020 A 
ATOM     70  C   UNL A   1      43.599  34.416  33.791  1.00  0.00     0.020 A 
ATOM     71  C   UNL A   1      44.075  35.446  32.977  1.00  0.00     0.054 A 
BRANCH  71  72
ATOM     72  S   UNL A   1      44.238  37.133  33.623  1.00  0.00     0.124 S 
ATOM     73  O   UNL A   1      43.462  37.902  32.653  1.00  0.00    -0.237 OA
ATOM     74  O   UNL A   1      43.646  37.024  34.954  1.00  0.00    -0.237 OA
ATOM     75  O   UNL A   1      45.678  37.376  33.600  1.00  0.00    -0.744 OA
ENDBRANCH  71  72
ENDBRANCH  52  66
BRANCH  53  76
ATOM     76  C   UNL A   1      42.459  23.768  27.984  1.00  0.00    -0.014 A 
ATOM     77  C   UNL A   1      42.820  23.520  26.647  1.00  0.00     0.010 A 
ATOM     78  C   UNL A   1      41.922  22.718  28.751  1.00  0.00     0.010 A 
ATOM     79  C   UNL A   1      42.628  22.255  26.083  1.00  0.00     0.020 A 
ATOM     80  C   UNL A   1      41.757  21.443  28.201  1.00  0.00     0.020 A 
ATOM     81  C   UNL A   1      42.101  21.223  26.866  1.00  0.00     0.054 A 
BRANCH  81  82
ATOM     82  S   UNL A   1      41.906  19.578  26.126  1.00  0.00     0.124 S 
ATOM     83  O   UNL A   1      42.278  18.701  27.231  1.00  0.00    -0.237 OA
ATOM     84  O   UNL A   1      40.493  19.566  25.756  1.00  0.00    -0.237 OA
ATOM     85  O   UNL A   1      42.837  19.597  25.000  1.00  0.00    -0.744 OA
ENDBRANCH  81  82
ENDBRANCH  53  76
BRANCH  65  86
ATOM     86  C   UNL A   1      47.842  26.907  31.123  1.00  0.00    -0.014 A 
ATOM     87  C   UNL A   1      48.105  26.229  32.327  1.00  0.00     0.010 A 
ATOM     88  C   UNL A   1      48.890  27.106  30.207  1.00  0.00     0.010 A 
ATOM     89  C   UNL A   1      49.400  25.791  32.623  1.00  0.00     0.020 A 
ATOM     90  C   UNL A   1      50.178  26.640  30.483  1.00  0.00     0.020 A 
ATOM     91  C   UNL A   1      50.427  26.000  31.698  1.00  0.00     0.054 A 
BRANCH  91  92
ATOM     92  S   UNL A   1      52.089  25.388  32.089  1.00  0.00     0.124 S 
ATOM     93  O   UNL A   1      52.351  26.020  33.378  1.00  0.00    -0.237 OA
ATOM     94  O   UNL A   1      51.895  23.940  32.127  1.00  0.00    -0.237 OA
ATOM     95  O   UNL A   1      52.908  25.872  30.979  1.00  0.00    -0.744 OA
ENDBRANCH  91  92
ENDBRANCH  65  86
ENDBRANCH  39  40
ENDBRANCH  31  34
ENDBRANCH   1  30
TORSDOF 14
ENDMDL
MODEL 2
REMARK VINA RESULT:     -12.1      2.904      3.532
REMARK SMILES CC1(C)S[C@@H](c2cccc3c2sc2ccccc23)[NH2+][C@@H]1C(=O)NCCCNC(=O)c1ccc(-c2c3nc(c(-c4ccc(S(=O)(=O)[O-])cc4)c4ccc([nH]4)c(-c4ccc(S(=O)(=O)[O-])cc4)c4nc(c(-c5ccc(S(=O)(=O)[O-])cc5)c5ccc2[nH]5)C=C4)C=C3)cc1
REMARK SMILES IDX 26 1 25 2 24 3 23 4 21 5 22 6 20 8 1 9 2 10 3 11 4 12 5 13
REMARK SMILES IDX 19 14 6 17 7 18 11 19 8 20 10 21 12 22 9 23 18 24 13 25
REMARK SMILES IDX 17 26 14 27 16 28 15 29 27 30 28 31 29 33 30 34 31 35 89 36
REMARK SMILES IDX 32 37 88 38 33 39 34 40 35 41 82 42 36 43 87 44 81 45 83 46
REMARK SMILES IDX 37 47 86 48 80 49 79 50 38 52 68 53 49 54 67 55 50 56 53 57
REMARK SMILES IDX 66 58 84 59 51 60 52 61 65 63 85 64 54 65 39 66 40 67 48 68
REMARK SMILES IDX 41 69 47 70 42 71 43 72 44 73 45 74 46 75 69 76 70 77 78 78
REMARK SMILES IDX 71 79 77 80 72 81 73 82 74 83 75 84 76 85 55 86 56 87 64 88
REMARK SMILES IDX 57 89 63 90 58 91 59 92 60 93 61 94 62 95
REMARK H PARENT 23 7 19 15 19 16 27 32 83 51 53 62
REMARK Flexibility Score: inf
ROOT
ATOM      1  C   UNL A   1      35.498  30.134  27.765  1.00  0.00     0.118 C 
ENDROOT
BRANCH   1   2
ATOM      2  C   UNL A   1      34.658  28.981  27.243  1.00  0.00     0.042 C 
BRANCH   2   3
ATOM      3  C   UNL A   1      33.167  29.265  27.203  1.00  0.00     0.118 C 
BRANCH   3   4
ATOM      4  N   UNL A   1      32.372  28.054  27.326  1.00  0.00    -0.351 N 
ATOM      5  C   UNL A   1      32.221  26.959  26.531  1.00  0.00     0.279 C 
ATOM      6  O   UNL A   1      31.354  26.163  26.904  1.00  0.00    -0.268 OA
ATOM      7  H   UNL A   1      31.834  28.017  28.151  1.00  0.00     0.163 HD
BRANCH   5   8
ATOM      8  C   UNL A   1      32.980  26.769  25.186  1.00  0.00     0.289 C 
ATOM      9  C   UNL A   1      32.835  26.699  22.639  1.00  0.00     0.030 C 
ATOM     10  C   UNL A   1      32.120  26.344  23.959  1.00  0.00     0.077 C 
ATOM     11  C   UNL A   1      30.692  26.885  23.881  1.00  0.00     0.030 C 
ATOM     12  S   UNL A   1      32.085  24.510  24.074  1.00  0.00    -0.081 SA
ATOM     13  C   UNL A   1      33.444  24.441  25.274  1.00  0.00     0.276 C 
ATOM     14  N   UNL A   1      34.070  25.765  25.284  1.00  0.00    -0.320 N 
ATOM     15  H   UNL A   1      34.702  25.858  24.489  1.00  0.00     0.348 HD
ATOM     16  H   UNL A   1      34.612  25.902  26.138  1.00  0.00     0.348 HD
BRANCH  13  17
ATOM     17  C   UNL A   1      34.470  23.356  24.995  1.00  0.00     0.038 A 
ATOM     18  C   UNL A   1      35.825  23.703  24.782  1.00  0.00     0.012 A 
ATOM     19  C   UNL A   1      34.159  21.963  24.990  1.00  0.00     0.046 A 
ATOM     20  C   UNL A   1      36.805  22.751  24.560  1.00  0.00     0.001 A 
ATOM     21  C   UNL A   1      35.129  20.983  24.749  1.00  0.00     0.001 A 
ATOM     22  S   UNL A   1      32.625  21.222  25.273  1.00  0.00    -0.135 S 
ATOM     23  C   UNL A   1      36.466  21.403  24.534  1.00  0.00     0.010 A 
ATOM     24  C   UNL A   1      34.579  19.637  24.757  1.00  0.00     0.000 A 
ATOM     25  C   UNL A   1      33.218  19.632  25.054  1.00  0.00     0.036 A 
ATOM     26  C   UNL A   1      35.209  18.386  24.525  1.00  0.00     0.010 A 
ATOM     27  C   UNL A   1      32.484  18.432  25.145  1.00  0.00     0.019 A 
ATOM     28  C   UNL A   1      34.485  17.192  24.598  1.00  0.00     0.001 A 
ATOM     29  C   UNL A   1      33.135  17.218  24.912  1.00  0.00     0.002 A 
ENDBRANCH  13  17
ENDBRANCH   5   8
ENDBRANCH   3   4
ENDBRANCH   2   3
ENDBRANCH   1   2
BRANCH   1  30
ATOM     30  N   UNL A   1      35.388  30.310  29.208  1.00  0.00    -0.352 N 
ATOM     31  C   UNL A   1      36.335  30.148  30.189  1.00  0.00     0.251 C 
ATOM     32  H   UNL A   1      34.499  30.587  29.527  1.00  0.00     0.163 HD
ATOM     33  O   UNL A   1      35.996  30.169  31.371  1.00  0.00    -0.269 OA
BRANCH  31  34
ATOM     34  C   UNL A   1      37.750  29.924  29.826  1.00  0.00     0.039 A 
ATOM     35  C   UNL A   1      38.660  29.571  30.825  1.00  0.00     0.014 A 
ATOM     36  C   UNL A   1      38.180  30.054  28.503  1.00  0.00     0.014 A 
ATOM     37  C   UNL A   1      39.980  29.271  30.481  1.00  0.00     0.010 A 
ATOM     38  C   UNL A   1      39.463  29.651  28.149  1.00  0.00     0.010 A 
ATOM     39  C   UNL A   1      40.381  29.264  29.135  1.00  0.00    -0.014 A 
BRANCH  39  40
ATOM     40  C   UNL A   1      41.754  28.861  28.737  1.00  0.00     0.031 A 
ATOM     41  C   UNL A   1      42.862  29.880  28.704  1.00  0.00     0.074 A 
ATOM     42  C   UNL A   1      41.991  27.592  28.347  1.00  0.00     0.049 A 
ATOM     43  N   UNL A   1      44.109  29.731  28.335  1.00  0.00    -0.248 NA
ATOM     44  C   UNL A   1      42.520  31.254  29.113  1.00  0.00     0.031 C 
ATOM     45  C   UNL A   1      40.993  26.520  28.293  1.00  0.00     0.029 A 
ATOM     46  N   UNL A   1      43.147  26.986  27.920  1.00  0.00    -0.354 N 
ATOM     47  C   UNL A   1      44.692  30.987  28.454  1.00  0.00     0.074 A 
ATOM     48  C   UNL A   1      43.650  31.900  28.869  1.00  0.00     0.031 C 
ATOM     49  C   UNL A   1      41.587  25.383  27.897  1.00  0.00     0.029 A 
ATOM     50  C   UNL A   1      42.995  25.652  27.621  1.00  0.00     0.049 A 
ATOM     51  H   UNL A   1      44.005  27.462  27.836  1.00  0.00     0.167 HD
ATOM     52  C   UNL A   1      45.983  31.346  28.260  1.00  0.00     0.031 A 
ATOM     53  C   UNL A   1      43.885  24.747  27.171  1.00  0.00     0.031 A 
ATOM     54  C   UNL A   1      47.020  30.434  27.856  1.00  0.00     0.049 A 
ATOM     55  C   UNL A   1      45.309  25.175  26.940  1.00  0.00     0.074 A 
ATOM     56  C   UNL A   1      48.369  30.688  27.679  1.00  0.00     0.029 A 
ATOM     57  N   UNL A   1      46.823  29.093  27.560  1.00  0.00    -0.354 N 
ATOM     58  N   UNL A   1      45.855  26.355  27.119  1.00  0.00    -0.248 NA
ATOM     59  C   UNL A   1      46.241  24.147  26.458  1.00  0.00     0.031 C 
ATOM     60  C   UNL A   1      48.976  29.515  27.220  1.00  0.00     0.029 A 
ATOM     61  C   UNL A   1      48.021  28.512  27.178  1.00  0.00     0.049 A 
ATOM     62  H   UNL A   1      45.959  28.623  27.615  1.00  0.00     0.167 HD
ATOM     63  C   UNL A   1      47.199  26.203  26.802  1.00  0.00     0.074 A 
ATOM     64  C   UNL A   1      47.386  24.814  26.435  1.00  0.00     0.031 C 
ATOM     65  C   UNL A   1      48.191  27.128  26.813  1.00  0.00     0.031 A 
BRANCH  52  66
ATOM     66  C   UNL A   1      46.347  32.793  28.485  1.00  0.00    -0.014 A 
ATOM     67  C   UNL A   1      46.767  33.250  29.748  1.00  0.00     0.010 A 
ATOM     68  C   UNL A   1      46.305  33.700  27.411  1.00  0.00     0.010 A 
ATOM     69  C   UNL A   1      47.098  34.593  29.941  1.00  0.00     0.020 A 
ATOM     70  C   UNL A   1      46.668  35.038  27.592  1.00  0.00     0.020 A 
ATOM     71  C   UNL A   1      47.045  35.480  28.862  1.00  0.00     0.054 A 
BRANCH  71  72
ATOM     72  S   UNL A   1      47.508  37.211  29.138  1.00  0.00     0.124 S 
ATOM     73  O   UNL A   1      46.350  37.719  29.870  1.00  0.00    -0.237 OA
ATOM     74  O   UNL A   1      48.739  37.093  29.916  1.00  0.00    -0.237 OA
ATOM     75  O   UNL A   1      47.674  37.746  27.789  1.00  0.00    -0.744 OA
ENDBRANCH  71  72
ENDBRANCH  52  66
BRANCH  53  76
ATOM     76  C   UNL A   1      43.460  23.341  26.923  1.00  0.00    -0.014 A 
ATOM     77  C   UNL A   1      43.448  22.818  25.618  1.00  0.00     0.010 A 
ATOM     78  C   UNL A   1      43.073  22.514  27.993  1.00  0.00     0.010 A 
ATOM     79  C   UNL A   1      43.039  21.501  25.385  1.00  0.00     0.020 A 
ATOM     80  C   UNL A   1      42.692  21.187  27.769  1.00  0.00     0.020 A 
ATOM     81  C   UNL A   1      42.667  20.694  26.463  1.00  0.00     0.054 A 
BRANCH  81  82
ATOM     82  S   UNL A   1      42.184  18.974  26.141  1.00  0.00     0.124 S 
ATOM     83  O   UNL A   1      43.074  18.609  25.043  1.00  0.00    -0.237 OA
ATOM     84  O   UNL A   1      42.458  18.326  27.421  1.00  0.00    -0.237 OA
ATOM     85  O   UNL A   1      40.769  19.075  25.793  1.00  0.00    -0.744 OA
ENDBRANCH  81  82
ENDBRANCH  53  76
BRANCH  65  86
ATOM     86  C   UNL A   1      49.578  26.663  26.455  1.00  0.00    -0.014 A 
ATOM     87  C   UNL A   1      50.399  26.016  27.395  1.00  0.00     0.010 A 
ATOM     88  C   UNL A   1      50.046  26.833  25.139  1.00  0.00     0.010 A 
ATOM     89  C   UNL A   1      51.677  25.579  27.034  1.00  0.00     0.020 A 
ATOM     90  C   UNL A   1      51.309  26.368  24.766  1.00  0.00     0.020 A 
ATOM     91  C   UNL A   1      52.123  25.758  25.721  1.00  0.00     0.054 A 
BRANCH  91  92
ATOM     92  S   UNL A   1      53.769  25.147  25.269  1.00  0.00     0.124 S 
ATOM     93  O   UNL A   1      54.608  25.732  26.310  1.00  0.00    -0.237 OA
ATOM     94  O   UNL A   1      53.603  23.697  25.338  1.00  0.00    -0.237 OA
ATOM     95  O   UNL A   1      53.981  25.680  23.924  1.00  0.00    -0.744 OA
ENDBRANCH  91  92
ENDBRANCH  65  86
ENDBRANCH  39  40
ENDBRANCH  31  34
ENDBRANCH   1  30
TORSDOF 14
ENDMDL
MODEL 3
REMARK VINA RESULT:     -12.0      2.506      3.056
REMARK SMILES CC1(C)S[C@@H](c2cccc3c2sc2ccccc23)[NH2+][C@@H]1C(=O)NCCCNC(=O)c1ccc(-c2c3nc(c(-c4ccc(S(=O)(=O)[O-])cc4)c4ccc([nH]4)c(-c4ccc(S(=O)(=O)[O-])cc4)c4nc(c(-c5ccc(S(=O)(=O)[O-])cc5)c5ccc2[nH]5)C=C4)C=C3)cc1
REMARK SMILES IDX 26 1 25 2 24 3 23 4 21 5 22 6 20 8 1 9 2 10 3 11 4 12 5 13
REMARK SMILES IDX 19 14 6 17 7 18 11 19 8 20 10 21 12 22 9 23 18 24 13 25
REMARK SMILES IDX 17 26 14 27 16 28 15 29 27 30 28 31 29 33 30 34 31 35 89 36
REMARK SMILES IDX 32 37 88 38 33 39 34 40 35 41 82 42 36 43 87 44 81 45 83 46
REMARK SMILES IDX 37 47 86 48 80 49 79 50 38 52 68 53 49 54 67 55 50 56 53 57
REMARK SMILES IDX 66 58 84 59 51 60 52 61 65 63 85 64 54 65 39 66 40 67 48 68
REMARK SMILES IDX 41 69 47 70 42 71 43 72 44 73 45 74 46 75 69 76 70 77 78 78
REMARK SMILES IDX 71 79 77 80 72 81 73 82 74 83 75 84 76 85 55 86 56 87 64 88
REMARK SMILES IDX 57 89 63 90 58 91 59 92 60 93 61 94 62 95
REMARK H PARENT 23 7 19 15 19 16 27 32 83 51 53 62
REMARK Flexibility Score: inf
ROOT
ATOM      1  C   UNL A   1      33.718  29.425  26.469  1.00  0.00     0.118 C 
ENDROOT
BRANCH   1   2
ATOM      2  C   UNL A   1      32.866  28.498  27.319  1.00  0.00     0.042 C 
BRANCH   2   3
ATOM      3  C   UNL A   1      31.465  28.271  26.779  1.00  0.00     0.118 C 
BRANCH   3   4
ATOM      4  N   UNL A   1      31.069  26.873  26.846  1.00  0.00    -0.351 N 
ATOM      5  C   UNL A   1      31.521  25.750  26.222  1.00  0.00     0.279 C 
ATOM      6  O   UNL A   1      30.855  24.733  26.440  1.00  0.00    -0.268 OA
ATOM      7  H   UNL A   1      30.325  26.704  27.469  1.00  0.00     0.163 HD
BRANCH   5   8
ATOM      8  C   UNL A   1      32.703  25.752  25.211  1.00  0.00     0.289 C 
ATOM      9  C   UNL A   1      33.450  26.094  22.795  1.00  0.00     0.030 C 
ATOM     10  C   UNL A   1      32.330  25.558  23.710  1.00  0.00     0.077 C 
ATOM     11  C   UNL A   1      31.006  26.153  23.233  1.00  0.00     0.030 C 
ATOM     12  S   UNL A   1      32.301  23.731  23.508  1.00  0.00    -0.081 SA
ATOM     13  C   UNL A   1      33.163  23.425  25.075  1.00  0.00     0.276 C 
ATOM     14  N   UNL A   1      33.715  24.709  25.515  1.00  0.00    -0.320 N 
ATOM     15  H   UNL A   1      34.581  24.906  25.014  1.00  0.00     0.348 HD
ATOM     16  H   UNL A   1      33.924  24.689  26.514  1.00  0.00     0.348 HD
BRANCH  13  17
ATOM     17  C   UNL A   1      34.247  22.364  24.997  1.00  0.00     0.038 A 
ATOM     18  C   UNL A   1      35.609  22.738  25.088  1.00  0.00     0.012 A 
ATOM     19  C   UNL A   1      33.974  20.968  24.890  1.00  0.00     0.046 A 
ATOM     20  C   UNL A   1      36.634  21.808  25.059  1.00  0.00     0.001 A 
ATOM     21  C   UNL A   1      34.993  20.009  24.839  1.00  0.00     0.001 A 
ATOM     22  S   UNL A   1      32.431  20.195  24.819  1.00  0.00    -0.135 S 
ATOM     23  C   UNL A   1      36.336  20.456  24.926  1.00  0.00     0.010 A 
ATOM     24  C   UNL A   1      34.483  18.656  24.695  1.00  0.00     0.000 A 
ATOM     25  C   UNL A   1      33.091  18.622  24.693  1.00  0.00     0.036 A 
ATOM     26  C   UNL A   1      35.174  17.422  24.572  1.00  0.00     0.010 A 
ATOM     27  C   UNL A   1      32.379  17.408  24.594  1.00  0.00     0.019 A 
ATOM     28  C   UNL A   1      34.476  16.216  24.459  1.00  0.00     0.001 A 
ATOM     29  C   UNL A   1      33.090  16.212  24.476  1.00  0.00     0.002 A 
ENDBRANCH  13  17
ENDBRANCH   5   8
ENDBRANCH   3   4
ENDBRANCH   2   3
ENDBRANCH   1   2
BRANCH   1  30
ATOM     30  N   UNL A   1      33.602  30.824  26.861  1.00  0.00    -0.352 N 
ATOM     31  C   UNL A   1      34.364  31.561  27.732  1.00  0.00     0.251 C 
ATOM     32  H   UNL A   1      32.863  31.315  26.434  1.00  0.00     0.163 HD
ATOM     33  O   UNL A   1      33.992  32.683  28.068  1.00  0.00    -0.269 OA
BRANCH  31  34
ATOM     34  C   UNL A   1      35.614  30.996  28.286  1.00  0.00     0.039 A 
ATOM     35  C   UNL A   1      36.830  31.614  27.986  1.00  0.00     0.014 A 
ATOM     36  C   UNL A   1      35.588  29.866  29.107  1.00  0.00     0.014 A 
ATOM     37  C   UNL A   1      38.006  31.143  28.573  1.00  0.00     0.010 A 
ATOM     38  C   UNL A   1      36.741  29.468  29.773  1.00  0.00     0.010 A 
ATOM     39  C   UNL A   1      37.966  30.095  29.508  1.00  0.00    -0.014 A 
BRANCH  39  40
ATOM     40  C   UNL A   1      39.190  29.638  30.214  1.00  0.00     0.031 A 
ATOM     41  C   UNL A   1      39.628  30.317  31.484  1.00  0.00     0.074 A 
ATOM     42  C   UNL A   1      39.940  28.653  29.681  1.00  0.00     0.049 A 
ATOM     43  N   UNL A   1      40.693  30.095  32.213  1.00  0.00    -0.248 NA
ATOM     44  C   UNL A   1      38.775  31.407  31.989  1.00  0.00     0.031 C 
ATOM     45  C   UNL A   1      39.647  27.943  28.432  1.00  0.00     0.029 A 
ATOM     46  N   UNL A   1      41.106  28.076  30.120  1.00  0.00    -0.354 N 
ATOM     47  C   UNL A   1      40.643  31.022  33.248  1.00  0.00     0.074 A 
ATOM     48  C   UNL A   1      39.479  31.849  33.020  1.00  0.00     0.031 C 
ATOM     49  C   UNL A   1      40.583  27.003  28.228  1.00  0.00     0.029 A 
ATOM     50  C   UNL A   1      41.570  27.073  29.300  1.00  0.00     0.049 A 
ATOM     51  H   UNL A   1      41.567  28.354  30.944  1.00  0.00     0.167 HD
ATOM     52  C   UNL A   1      41.475  31.158  34.307  1.00  0.00     0.031 A 
ATOM     53  C   UNL A   1      42.669  26.299  29.397  1.00  0.00     0.031 A 
ATOM     54  C   UNL A   1      42.628  30.327  34.536  1.00  0.00     0.049 A 
ATOM     55  C   UNL A   1      43.592  26.484  30.571  1.00  0.00     0.074 A 
ATOM     56  C   UNL A   1      43.507  30.352  35.604  1.00  0.00     0.029 A 
ATOM     57  N   UNL A   1      43.064  29.326  33.681  1.00  0.00    -0.354 N 
ATOM     58  N   UNL A   1      43.492  27.325  31.573  1.00  0.00    -0.248 NA
ATOM     59  C   UNL A   1      44.769  25.608  30.633  1.00  0.00     0.031 C 
ATOM     60  C   UNL A   1      44.509  29.406  35.365  1.00  0.00     0.029 A 
ATOM     61  C   UNL A   1      44.215  28.743  34.184  1.00  0.00     0.049 A 
ATOM     62  H   UNL A   1      42.621  29.067  32.840  1.00  0.00     0.167 HD
ATOM     63  C   UNL A   1      44.577  27.058  32.401  1.00  0.00     0.074 A 
ATOM     64  C   UNL A   1      45.309  25.968  31.789  1.00  0.00     0.031 C 
ATOM     65  C   UNL A   1      44.935  27.659  33.563  1.00  0.00     0.031 A 
BRANCH  52  66
ATOM     66  C   UNL A   1      41.167  32.248  35.302  1.00  0.00    -0.014 A 
ATOM     67  C   UNL A   1      41.659  33.555  35.124  1.00  0.00     0.010 A 
ATOM     68  C   UNL A   1      40.344  31.975  36.409  1.00  0.00     0.010 A 
ATOM     69  C   UNL A   1      41.368  34.555  36.055  1.00  0.00     0.020 A 
ATOM     70  C   UNL A   1      40.022  32.981  37.326  1.00  0.00     0.020 A 
ATOM     71  C   UNL A   1      40.551  34.261  37.152  1.00  0.00     0.054 A 
BRANCH  71  72
ATOM     72  S   UNL A   1      40.168  35.587  38.328  1.00  0.00     0.124 S 
ATOM     73  O   UNL A   1      40.021  36.740  37.444  1.00  0.00    -0.237 OA
ATOM     74  O   UNL A   1      38.935  35.114  38.952  1.00  0.00    -0.237 OA
ATOM     75  O   UNL A   1      41.335  35.621  39.206  1.00  0.00    -0.744 OA
ENDBRANCH  71  72
ENDBRANCH  52  66
BRANCH  53  76
ATOM     76  C   UNL A   1      42.947  25.266  28.361  1.00  0.00    -0.014 A 
ATOM     77  C   UNL A   1      43.772  25.563  27.261  1.00  0.00     0.010 A 
ATOM     78  C   UNL A   1      42.398  23.976  28.473  1.00  0.00     0.010 A 
ATOM     79  C   UNL A   1      44.025  24.596  26.282  1.00  0.00     0.020 A 
ATOM     80  C   UNL A   1      42.673  22.997  27.513  1.00  0.00     0.020 A 
ATOM     81  C   UNL A   1      43.476  23.318  26.417  1.00  0.00     0.054 A 
BRANCH  81  82
ATOM     82  S   UNL A   1      43.857  22.067  25.160  1.00  0.00     0.124 S 
ATOM     83  O   UNL A   1      43.502  22.758  23.925  1.00  0.00    -0.237 OA
ATOM     84  O   UNL A   1      45.283  21.835  25.369  1.00  0.00    -0.237 OA
ATOM     85  O   UNL A   1      42.992  20.945  25.520  1.00  0.00    -0.744 OA
ENDBRANCH  81  82
ENDBRANCH  53  76
BRANCH  65  86
ATOM     86  C   UNL A   1      46.152  27.128  34.273  1.00  0.00    -0.014 A 
ATOM     87  C   UNL A   1      47.428  27.676  34.049  1.00  0.00     0.010 A 
ATOM     88  C   UNL A   1      46.006  26.097  35.218  1.00  0.00     0.010 A 
ATOM     89  C   UNL A   1      48.541  27.176  34.732  1.00  0.00     0.020 A 
ATOM     90  C   UNL A   1      47.110  25.618  35.928  1.00  0.00     0.020 A 
ATOM     91  C   UNL A   1      48.374  26.150  35.667  1.00  0.00     0.054 A 
BRANCH  91  92
ATOM     92  S   UNL A   1      49.827  25.547  36.567  1.00  0.00     0.124 S 
ATOM     93  O   UNL A   1      50.396  26.784  37.093  1.00  0.00    -0.237 OA
ATOM     94  O   UNL A   1      49.239  24.654  37.563  1.00  0.00    -0.237 OA
ATOM     95  O   UNL A   1      50.623  24.882  35.537  1.00  0.00    -0.744 OA
ENDBRANCH  91  92
ENDBRANCH  65  86
ENDBRANCH  39  40
ENDBRANCH  31  34
ENDBRANCH   1  30
TORSDOF 14
ENDMDL
