MODEL 1
REMARK VINA RESULT:     -12.3      0.000      0.000
REMARK SMILES O=C(NCCCNC(=O)c1cn(-c2ncnc3ccccc23)cn1)c1ccc(-c2c3nc(c(-c4ccc(S(=O)(=O)[O-])cc4)c4ccc([nH]4)c(-c4ccc(S(=O)(=O)[O-])cc4)c4nc(c(-c5ccc(S(=O)(=O)[O-])cc5)c5ccc2[nH]5)C=C4)C=C3)cc1
REMARK SMILES IDX 4 1 3 2 1 3 2 4 25 6 26 7 84 8 27 9 83 10 28 11 29 12 30 13
REMARK SMILES IDX 77 14 31 15 82 16 76 17 78 18 32 19 81 20 75 21 74 22 33 24
REMARK SMILES IDX 63 25 44 26 62 27 45 28 48 29 61 30 79 31 46 32 47 33 60 35
REMARK SMILES IDX 80 36 49 37 34 38 35 39 43 40 36 41 42 42 37 43 38 44 39 45
REMARK SMILES IDX 40 46 41 47 64 48 65 49 73 50 66 51 72 52 67 53 68 54 69 55
REMARK SMILES IDX 70 56 71 57 50 58 51 59 59 60 52 61 58 62 53 63 54 64 55 65
REMARK SMILES IDX 56 66 57 67 5 68 6 69 7 70 8 71 9 73 10 74 11 75 24 76 12 77
REMARK SMILES IDX 23 78 13 79 14 80 22 81 15 82 17 83 21 84 16 85 18 86 20 87
REMARK SMILES IDX 19 88
REMARK H PARENT 3 5 78 23 48 34 7 72
REMARK Flexibility Score: inf
ROOT
ATOM      1  C   UNL A   1      41.385  20.642  26.615  1.00  0.00     0.118 C 
ENDROOT
BRANCH   1   2
ATOM      2  N   UNL A   1      40.043  21.089  26.297  1.00  0.00    -0.352 N 
ATOM      3  O   UNL A   1      38.275  22.262  25.743  1.00  0.00    -0.269 OA
ATOM      4  C   UNL A   1      39.375  22.281  26.309  1.00  0.00     0.251 C 
ATOM      5  H   UNL A   1      39.469  20.347  25.997  1.00  0.00     0.163 HD
BRANCH   4   6
ATOM      6  C   UNL A   1      39.806  23.540  26.981  1.00  0.00     0.039 A 
ATOM      7  C   UNL A   1      41.002  23.759  27.666  1.00  0.00     0.014 A 
ATOM      8  C   UNL A   1      38.861  24.588  26.944  1.00  0.00     0.014 A 
ATOM      9  C   UNL A   1      41.205  24.964  28.357  1.00  0.00     0.010 A 
ATOM     10  C   UNL A   1      39.058  25.782  27.631  1.00  0.00     0.010 A 
ATOM     11  C   UNL A   1      40.216  25.960  28.375  1.00  0.00    -0.014 A 
BRANCH  11  12
ATOM     12  C   UNL A   1      40.477  27.241  29.045  1.00  0.00     0.031 A 
ATOM     13  C   UNL A   1      41.542  28.066  28.400  1.00  0.00     0.074 A 
ATOM     14  C   UNL A   1      39.741  27.753  30.059  1.00  0.00     0.049 A 
ATOM     15  N   UNL A   1      42.696  28.386  28.885  1.00  0.00    -0.248 NA
ATOM     16  C   UNL A   1      41.347  28.492  27.004  1.00  0.00     0.031 C 
ATOM     17  C   UNL A   1      38.494  27.236  30.631  1.00  0.00     0.029 A 
ATOM     18  N   UNL A   1      39.916  28.922  30.746  1.00  0.00    -0.354 N 
ATOM     19  C   UNL A   1      43.305  29.211  27.941  1.00  0.00     0.074 A 
ATOM     20  C   UNL A   1      42.490  29.135  26.755  1.00  0.00     0.031 C 
ATOM     21  C   UNL A   1      37.916  28.190  31.402  1.00  0.00     0.029 A 
ATOM     22  C   UNL A   1      38.817  29.326  31.506  1.00  0.00     0.049 A 
ATOM     23  H   UNL A   1      40.753  29.439  30.708  1.00  0.00     0.167 HD
ATOM     24  C   UNL A   1      44.333  30.044  28.268  1.00  0.00     0.031 A 
ATOM     25  C   UNL A   1      38.650  30.512  32.153  1.00  0.00     0.031 A 
ATOM     26  C   UNL A   1      44.889  29.722  29.554  1.00  0.00     0.049 A 
ATOM     27  C   UNL A   1      40.000  31.087  32.358  1.00  0.00     0.074 A 
ATOM     28  C   UNL A   1      45.534  28.627  30.092  1.00  0.00     0.029 A 
ATOM     29  N   UNL A   1      44.473  30.483  30.619  1.00  0.00    -0.354 N 
ATOM     30  N   UNL A   1      40.901  30.545  33.130  1.00  0.00    -0.248 NA
ATOM     31  C   UNL A   1      40.504  32.008  31.353  1.00  0.00     0.031 C 
ATOM     32  C   UNL A   1      45.037  28.535  31.424  1.00  0.00     0.029 A 
ATOM     33  C   UNL A   1      44.184  29.620  31.643  1.00  0.00     0.049 A 
ATOM     34  H   UNL A   1      44.398  31.464  30.644  1.00  0.00     0.167 HD
ATOM     35  C   UNL A   1      42.093  30.704  32.440  1.00  0.00     0.074 A 
ATOM     36  C   UNL A   1      41.797  31.678  31.389  1.00  0.00     0.031 C 
ATOM     37  C   UNL A   1      43.130  29.835  32.610  1.00  0.00     0.031 A 
BRANCH  24  38
ATOM     38  C   UNL A   1      44.597  31.380  27.617  1.00  0.00    -0.014 A 
ATOM     39  C   UNL A   1      45.849  31.596  26.999  1.00  0.00     0.010 A 
ATOM     40  C   UNL A   1      43.793  32.513  27.847  1.00  0.00     0.010 A 
ATOM     41  C   UNL A   1      46.306  32.887  26.707  1.00  0.00     0.020 A 
ATOM     42  C   UNL A   1      44.223  33.803  27.521  1.00  0.00     0.020 A 
ATOM     43  C   UNL A   1      45.493  33.985  26.986  1.00  0.00     0.054 A 
BRANCH  43  44
ATOM     44  S   UNL A   1      46.140  35.652  26.709  1.00  0.00     0.124 S 
ATOM     45  O   UNL A   1      47.035  35.822  27.850  1.00  0.00    -0.237 OA
ATOM     46  O   UNL A   1      46.791  35.517  25.408  1.00  0.00    -0.237 OA
ATOM     47  O   UNL A   1      44.944  36.489  26.718  1.00  0.00    -0.744 OA
ENDBRANCH  43  44
ENDBRANCH  24  38
BRANCH  25  48
ATOM     48  C   UNL A   1      37.417  31.341  32.293  1.00  0.00    -0.014 A 
ATOM     49  C   UNL A   1      37.174  32.122  33.443  1.00  0.00     0.010 A 
ATOM     50  C   UNL A   1      36.628  31.606  31.156  1.00  0.00     0.010 A 
ATOM     51  C   UNL A   1      36.222  33.162  33.436  1.00  0.00     0.020 A 
ATOM     52  C   UNL A   1      35.678  32.639  31.140  1.00  0.00     0.020 A 
ATOM     53  C   UNL A   1      35.494  33.428  32.274  1.00  0.00     0.054 A 
BRANCH  53  54
ATOM     54  S   UNL A   1      34.394  34.880  32.206  1.00  0.00     0.124 S 
ATOM     55  O   UNL A   1      33.185  34.386  32.857  1.00  0.00    -0.237 OA
ATOM     56  O   UNL A   1      35.147  35.886  32.950  1.00  0.00    -0.237 OA
ATOM     57  O   UNL A   1      34.263  35.145  30.774  1.00  0.00    -0.744 OA
ENDBRANCH  53  54
ENDBRANCH  25  48
BRANCH  37  58
ATOM     58  C   UNL A   1      43.093  28.861  33.763  1.00  0.00    -0.014 A 
ATOM     59  C   UNL A   1      43.456  29.187  35.084  1.00  0.00     0.010 A 
ATOM     60  C   UNL A   1      42.465  27.626  33.522  1.00  0.00     0.010 A 
ATOM     61  C   UNL A   1      43.188  28.295  36.137  1.00  0.00     0.020 A 
ATOM     62  C   UNL A   1      42.180  26.745  34.566  1.00  0.00     0.020 A 
ATOM     63  C   UNL A   1      42.541  27.082  35.869  1.00  0.00     0.054 A 
BRANCH  63  64
ATOM     64  S   UNL A   1      42.105  25.972  37.238  1.00  0.00     0.124 S 
ATOM     65  O   UNL A   1      43.051  26.363  38.279  1.00  0.00    -0.237 OA
ATOM     66  O   UNL A   1      40.707  26.310  37.499  1.00  0.00    -0.237 OA
ATOM     67  O   UNL A   1      42.314  24.635  36.683  1.00  0.00    -0.744 OA
ENDBRANCH  63  64
ENDBRANCH  37  58
ENDBRANCH  11  12
ENDBRANCH   4   6
ENDBRANCH   1   2
BRANCH   1  68
ATOM     68  C   UNL A   1      41.752  19.275  26.041  1.00  0.00     0.042 C 
BRANCH  68  69
ATOM     69  C   UNL A   1      43.185  18.812  26.322  1.00  0.00     0.118 C 
BRANCH  69  70
ATOM     70  N   UNL A   1      43.958  18.543  25.116  1.00  0.00    -0.351 N 
ATOM     71  C   UNL A   1      44.694  19.404  24.326  1.00  0.00     0.271 C 
ATOM     72  H   UNL A   1      43.955  17.603  24.820  1.00  0.00     0.163 HD
ATOM     73  O   UNL A   1      45.207  18.970  23.302  1.00  0.00    -0.267 OA
BRANCH  71  74
ATOM     74  C   UNL A   1      44.845  20.793  24.756  1.00  0.00     0.146 A 
ATOM     75  C   UNL A   1      45.751  21.281  25.679  1.00  0.00     0.128 A 
ATOM     76  N   UNL A   1      44.063  21.825  24.277  1.00  0.00    -0.231 NA
ATOM     77  N   UNL A   1      45.451  22.616  25.836  1.00  0.00    -0.289 N 
ATOM     78  C   UNL A   1      44.403  22.878  24.988  1.00  0.00     0.206 A 
BRANCH  77  79
ATOM     79  C   UNL A   1      45.994  23.518  26.784  1.00  0.00     0.149 A 
ATOM     80  N   UNL A   1      47.086  24.195  26.362  1.00  0.00    -0.218 NA
ATOM     81  C   UNL A   1      45.386  23.709  28.039  1.00  0.00     0.044 A 
ATOM     82  C   UNL A   1      47.501  25.182  27.161  1.00  0.00     0.224 A 
ATOM     83  C   UNL A   1      45.957  24.744  28.793  1.00  0.00     0.076 A 
ATOM     84  C   UNL A   1      44.343  22.931  28.621  1.00  0.00     0.014 A 
ATOM     85  N   UNL A   1      46.982  25.485  28.357  1.00  0.00    -0.236 NA
ATOM     86  C   UNL A   1      45.457  25.004  30.062  1.00  0.00     0.029 A 
ATOM     87  C   UNL A   1      43.869  23.203  29.903  1.00  0.00     0.001 A 
ATOM     88  C   UNL A   1      44.425  24.248  30.624  1.00  0.00     0.002 A 
ENDBRANCH  77  79
ENDBRANCH  71  74
ENDBRANCH  69  70
ENDBRANCH  68  69
ENDBRANCH   1  68
TORSDOF 14
ENDMDL
MODEL 2
REMARK VINA RESULT:     -11.6      3.993      6.828
REMARK SMILES O=C(NCCCNC(=O)c1cn(-c2ncnc3ccccc23)cn1)c1ccc(-c2c3nc(c(-c4ccc(S(=O)(=O)[O-])cc4)c4ccc([nH]4)c(-c4ccc(S(=O)(=O)[O-])cc4)c4nc(c(-c5ccc(S(=O)(=O)[O-])cc5)c5ccc2[nH]5)C=C4)C=C3)cc1
REMARK SMILES IDX 4 1 3 2 1 3 2 4 25 6 26 7 84 8 27 9 83 10 28 11 29 12 30 13
REMARK SMILES IDX 77 14 31 15 82 16 76 17 78 18 32 19 81 20 75 21 74 22 33 24
REMARK SMILES IDX 63 25 44 26 62 27 45 28 48 29 61 30 79 31 46 32 47 33 60 35
REMARK SMILES IDX 80 36 49 37 34 38 35 39 43 40 36 41 42 42 37 43 38 44 39 45
REMARK SMILES IDX 40 46 41 47 64 48 65 49 73 50 66 51 72 52 67 53 68 54 69 55
REMARK SMILES IDX 70 56 71 57 50 58 51 59 59 60 52 61 58 62 53 63 54 64 55 65
REMARK SMILES IDX 56 66 57 67 5 68 6 69 7 70 8 71 9 73 10 74 11 75 24 76 12 77
REMARK SMILES IDX 23 78 13 79 14 80 22 81 15 82 17 83 21 84 16 85 18 86 20 87
REMARK SMILES IDX 19 88
REMARK H PARENT 3 5 78 23 48 34 7 72
REMARK Flexibility Score: inf
ROOT
ATOM      1  C   UNL A   1      37.526  22.141  25.178  1.00  0.00     0.118 C 
ENDROOT
BRANCH   1   2
ATOM      2  N   UNL A   1      38.885  21.767  25.512  1.00  0.00    -0.352 N 
ATOM      3  O   UNL A   1      40.824  21.477  26.495  1.00  0.00    -0.269 OA
ATOM      4  C   UNL A   1      39.858  22.235  26.348  1.00  0.00     0.251 C 
ATOM      5  H   UNL A   1      39.183  20.973  25.009  1.00  0.00     0.163 HD
BRANCH   4   6
ATOM      6  C   UNL A   1      39.892  23.566  27.022  1.00  0.00     0.039 A 
ATOM      7  C   UNL A   1      38.951  24.589  26.906  1.00  0.00     0.014 A 
ATOM      8  C   UNL A   1      41.033  23.801  27.818  1.00  0.00     0.014 A 
ATOM      9  C   UNL A   1      39.191  25.836  27.506  1.00  0.00     0.010 A 
ATOM     10  C   UNL A   1      41.276  25.036  28.410  1.00  0.00     0.010 A 
ATOM     11  C   UNL A   1      40.373  26.074  28.224  1.00  0.00    -0.014 A 
BRANCH  11  12
ATOM     12  C   UNL A   1      40.573  27.361  28.902  1.00  0.00     0.031 A 
ATOM     13  C   UNL A   1      41.641  28.214  28.301  1.00  0.00     0.074 A 
ATOM     14  C   UNL A   1      39.782  27.853  29.885  1.00  0.00     0.049 A 
ATOM     15  N   UNL A   1      42.765  28.564  28.832  1.00  0.00    -0.248 NA
ATOM     16  C   UNL A   1      41.493  28.635  26.898  1.00  0.00     0.031 C 
ATOM     17  C   UNL A   1      38.527  27.303  30.406  1.00  0.00     0.029 A 
ATOM     18  N   UNL A   1      39.898  29.027  30.577  1.00  0.00    -0.354 N 
ATOM     19  C   UNL A   1      43.391  29.405  27.913  1.00  0.00     0.074 A 
ATOM     20  C   UNL A   1      42.628  29.307  26.695  1.00  0.00     0.031 C 
ATOM     21  C   UNL A   1      37.893  28.242  31.152  1.00  0.00     0.029 A 
ATOM     22  C   UNL A   1      38.760  29.401  31.291  1.00  0.00     0.049 A 
ATOM     23  H   UNL A   1      40.722  29.565  30.573  1.00  0.00     0.167 HD
ATOM     24  C   UNL A   1      44.382  30.265  28.282  1.00  0.00     0.031 A 
ATOM     25  C   UNL A   1      38.535  30.583  31.930  1.00  0.00     0.031 A 
ATOM     26  C   UNL A   1      44.894  29.957  29.590  1.00  0.00     0.049 A 
ATOM     27  C   UNL A   1      39.860  31.193  32.190  1.00  0.00     0.074 A 
ATOM     28  C   UNL A   1      45.544  28.880  30.155  1.00  0.00     0.029 A 
ATOM     29  N   UNL A   1      44.415  30.706  30.636  1.00  0.00    -0.354 N 
ATOM     30  N   UNL A   1      40.742  30.675  32.998  1.00  0.00    -0.248 NA
ATOM     31  C   UNL A   1      40.380  32.127  31.206  1.00  0.00     0.031 C 
ATOM     32  C   UNL A   1      44.996  28.775  31.465  1.00  0.00     0.029 A 
ATOM     33  C   UNL A   1      44.107  29.836  31.648  1.00  0.00     0.049 A 
ATOM     34  H   UNL A   1      44.312  31.686  30.657  1.00  0.00     0.167 HD
ATOM     35  C   UNL A   1      41.956  30.865  32.358  1.00  0.00     0.074 A 
ATOM     36  C   UNL A   1      41.678  31.831  31.295  1.00  0.00     0.031 C 
ATOM     37  C   UNL A   1      43.009  30.023  32.571  1.00  0.00     0.031 A 
BRANCH  24  38
ATOM     38  C   UNL A   1      44.638  31.608  27.641  1.00  0.00    -0.014 A 
ATOM     39  C   UNL A   1      45.780  31.761  26.825  1.00  0.00     0.010 A 
ATOM     40  C   UNL A   1      43.976  32.784  28.044  1.00  0.00     0.010 A 
ATOM     41  C   UNL A   1      46.282  33.029  26.503  1.00  0.00     0.020 A 
ATOM     42  C   UNL A   1      44.445  34.053  27.693  1.00  0.00     0.020 A 
ATOM     43  C   UNL A   1      45.617  34.168  26.955  1.00  0.00     0.054 A 
BRANCH  43  44
ATOM     44  S   UNL A   1      46.338  35.795  26.628  1.00  0.00     0.124 S 
ATOM     45  O   UNL A   1      47.080  35.555  25.394  1.00  0.00    -0.237 OA
ATOM     46  O   UNL A   1      45.151  36.637  26.500  1.00  0.00    -0.237 OA
ATOM     47  O   UNL A   1      47.154  36.052  27.811  1.00  0.00    -0.744 OA
ENDBRANCH  43  44
ENDBRANCH  24  38
BRANCH  25  48
ATOM     48  C   UNL A   1      37.276  31.379  32.019  1.00  0.00    -0.014 A 
ATOM     49  C   UNL A   1      36.805  31.889  33.248  1.00  0.00     0.010 A 
ATOM     50  C   UNL A   1      36.702  31.901  30.842  1.00  0.00     0.010 A 
ATOM     51  C   UNL A   1      35.843  32.919  33.294  1.00  0.00     0.020 A 
ATOM     52  C   UNL A   1      35.745  32.926  30.879  1.00  0.00     0.020 A 
ATOM     53  C   UNL A   1      35.334  33.447  32.105  1.00  0.00     0.054 A 
BRANCH  53  54
ATOM     54  S   UNL A   1      34.228  34.894  32.156  1.00  0.00     0.124 S 
ATOM     55  O   UNL A   1      34.019  35.178  30.740  1.00  0.00    -0.237 OA
ATOM     56  O   UNL A   1      33.065  34.383  32.876  1.00  0.00    -0.237 OA
ATOM     57  O   UNL A   1      35.007  35.897  32.880  1.00  0.00    -0.744 OA
ENDBRANCH  53  54
ENDBRANCH  25  48
BRANCH  37  58
ATOM     58  C   UNL A   1      42.950  29.049  33.723  1.00  0.00    -0.014 A 
ATOM     59  C   UNL A   1      43.139  29.407  35.071  1.00  0.00     0.010 A 
ATOM     60  C   UNL A   1      42.477  27.757  33.429  1.00  0.00     0.010 A 
ATOM     61  C   UNL A   1      42.854  28.491  36.098  1.00  0.00     0.020 A 
ATOM     62  C   UNL A   1      42.176  26.850  34.444  1.00  0.00     0.020 A 
ATOM     63  C   UNL A   1      42.364  27.219  35.776  1.00  0.00     0.054 A 
BRANCH  63  64
ATOM     64  S   UNL A   1      41.902  26.069  37.102  1.00  0.00     0.124 S 
ATOM     65  O   UNL A   1      42.916  26.331  38.118  1.00  0.00    -0.237 OA
ATOM     66  O   UNL A   1      40.545  26.492  37.442  1.00  0.00    -0.237 OA
ATOM     67  O   UNL A   1      41.988  24.753  36.468  1.00  0.00    -0.744 OA
ENDBRANCH  63  64
ENDBRANCH  37  58
ENDBRANCH  11  12
ENDBRANCH   4   6
ENDBRANCH   1   2
BRANCH   1  68
ATOM     68  C   UNL A   1      36.488  21.045  25.408  1.00  0.00     0.042 C 
BRANCH  68  69
ATOM     69  C   UNL A   1      35.159  21.517  26.005  1.00  0.00     0.118 C 
BRANCH  69  70
ATOM     70  N   UNL A   1      34.007  20.759  25.536  1.00  0.00    -0.351 N 
ATOM     71  C   UNL A   1      32.699  21.161  25.347  1.00  0.00     0.271 C 
ATOM     72  H   UNL A   1      34.189  19.815  25.319  1.00  0.00     0.163 HD
ATOM     73  O   UNL A   1      31.868  20.325  25.014  1.00  0.00    -0.267 OA
BRANCH  71  74
ATOM     74  C   UNL A   1      32.367  22.572  25.535  1.00  0.00     0.146 A 
ATOM     75  C   UNL A   1      32.443  23.575  24.588  1.00  0.00     0.128 A 
ATOM     76  N   UNL A   1      31.923  23.094  26.734  1.00  0.00    -0.231 NA
ATOM     77  N   UNL A   1      32.136  24.744  25.246  1.00  0.00    -0.289 N 
ATOM     78  C   UNL A   1      31.862  24.394  26.546  1.00  0.00     0.206 A 
BRANCH  77  79
ATOM     79  C   UNL A   1      32.226  26.068  24.748  1.00  0.00     0.149 A 
ATOM     80  N   UNL A   1      33.464  26.609  24.792  1.00  0.00    -0.218 NA
ATOM     81  C   UNL A   1      31.101  26.719  24.207  1.00  0.00     0.044 A 
ATOM     82  C   UNL A   1      33.609  27.776  24.159  1.00  0.00     0.224 A 
ATOM     83  C   UNL A   1      31.393  27.958  23.620  1.00  0.00     0.076 A 
ATOM     84  C   UNL A   1      29.742  26.292  24.267  1.00  0.00     0.014 A 
ATOM     85  N   UNL A   1      32.627  28.472  23.574  1.00  0.00    -0.236 NA
ATOM     86  C   UNL A   1      30.355  28.706  23.079  1.00  0.00     0.029 A 
ATOM     87  C   UNL A   1      28.717  27.067  23.730  1.00  0.00     0.001 A 
ATOM     88  C   UNL A   1      29.026  28.277  23.128  1.00  0.00     0.002 A 
ENDBRANCH  77  79
ENDBRANCH  71  74
ENDBRANCH  69  70
ENDBRANCH  68  69
ENDBRANCH   1  68
TORSDOF 14
ENDMDL
MODEL 3
REMARK VINA RESULT:     -11.6      3.685      6.498
REMARK SMILES O=C(NCCCNC(=O)c1cn(-c2ncnc3ccccc23)cn1)c1ccc(-c2c3nc(c(-c4ccc(S(=O)(=O)[O-])cc4)c4ccc([nH]4)c(-c4ccc(S(=O)(=O)[O-])cc4)c4nc(c(-c5ccc(S(=O)(=O)[O-])cc5)c5ccc2[nH]5)C=C4)C=C3)cc1
REMARK SMILES IDX 4 1 3 2 1 3 2 4 25 6 26 7 84 8 27 9 83 10 28 11 29 12 30 13
REMARK SMILES IDX 77 14 31 15 82 16 76 17 78 18 32 19 81 20 75 21 74 22 33 24
REMARK SMILES IDX 63 25 44 26 62 27 45 28 48 29 61 30 79 31 46 32 47 33 60 35
REMARK SMILES IDX 80 36 49 37 34 38 35 39 43 40 36 41 42 42 37 43 38 44 39 45
REMARK SMILES IDX 40 46 41 47 64 48 65 49 73 50 66 51 72 52 67 53 68 54 69 55
REMARK SMILES IDX 70 56 71 57 50 58 51 59 59 60 52 61 58 62 53 63 54 64 55 65
REMARK SMILES IDX 56 66 57 67 5 68 6 69 7 70 8 71 9 73 10 74 11 75 24 76 12 77
REMARK SMILES IDX 23 78 13 79 14 80 22 81 15 82 17 83 21 84 16 85 18 86 20 87
REMARK SMILES IDX 19 88
REMARK H PARENT 3 5 78 23 48 34 7 72
REMARK Flexibility Score: inf
ROOT
ATOM      1  C   UNL A   1      37.413  22.219  25.186  1.00  0.00     0.118 C 
ENDROOT
BRANCH   1   2
ATOM      2  N   UNL A   1      38.767  21.816  25.507  1.00  0.00    -0.352 N 
ATOM      3  O   UNL A   1      40.707  21.481  26.473  1.00  0.00    -0.269 OA
ATOM      4  C   UNL A   1      39.755  22.259  26.340  1.00  0.00     0.251 C 
ATOM      5  H   UNL A   1      39.046  21.022  24.994  1.00  0.00     0.163 HD
BRANCH   4   6
ATOM      6  C   UNL A   1      39.818  23.582  27.026  1.00  0.00     0.039 A 
ATOM      7  C   UNL A   1      38.902  24.629  26.916  1.00  0.00     0.014 A 
ATOM      8  C   UNL A   1      40.962  23.783  27.827  1.00  0.00     0.014 A 
ATOM      9  C   UNL A   1      39.170  25.864  27.528  1.00  0.00     0.010 A 
ATOM     10  C   UNL A   1      41.233  25.007  28.431  1.00  0.00     0.010 A 
ATOM     11  C   UNL A   1      40.356  26.068  28.251  1.00  0.00    -0.014 A 
BRANCH  11  12
ATOM     12  C   UNL A   1      40.584  27.344  28.941  1.00  0.00     0.031 A 
ATOM     13  C   UNL A   1      41.652  28.190  28.332  1.00  0.00     0.074 A 
ATOM     14  C   UNL A   1      39.817  27.834  29.943  1.00  0.00     0.049 A 
ATOM     15  N   UNL A   1      42.790  28.519  28.847  1.00  0.00    -0.248 NA
ATOM     16  C   UNL A   1      41.485  28.630  26.936  1.00  0.00     0.031 C 
ATOM     17  C   UNL A   1      38.564  27.294  30.480  1.00  0.00     0.029 A 
ATOM     18  N   UNL A   1      39.960  28.997  30.648  1.00  0.00    -0.354 N 
ATOM     19  C   UNL A   1      43.410  29.364  27.928  1.00  0.00     0.074 A 
ATOM     20  C   UNL A   1      42.625  29.291  26.722  1.00  0.00     0.031 C 
ATOM     21  C   UNL A   1      37.956  28.231  31.248  1.00  0.00     0.029 A 
ATOM     22  C   UNL A   1      38.839  29.377  31.386  1.00  0.00     0.049 A 
ATOM     23  H   UNL A   1      40.791  29.525  30.636  1.00  0.00     0.167 HD
ATOM     24  C   UNL A   1      44.419  30.206  28.289  1.00  0.00     0.031 A 
ATOM     25  C   UNL A   1      38.641  30.554  32.044  1.00  0.00     0.031 A 
ATOM     26  C   UNL A   1      44.949  29.875  29.584  1.00  0.00     0.049 A 
ATOM     27  C   UNL A   1      39.978  31.144  32.287  1.00  0.00     0.074 A 
ATOM     28  C   UNL A   1      45.596  28.783  30.124  1.00  0.00     0.029 A 
ATOM     29  N   UNL A   1      44.498  30.618  30.648  1.00  0.00    -0.354 N 
ATOM     30  N   UNL A   1      40.867  30.604  33.074  1.00  0.00    -0.248 NA
ATOM     31  C   UNL A   1      40.493  32.083  31.305  1.00  0.00     0.031 C 
ATOM     32  C   UNL A   1      45.069  28.669  31.442  1.00  0.00     0.029 A 
ATOM     33  C   UNL A   1      44.197  29.739  31.654  1.00  0.00     0.049 A 
ATOM     34  H   UNL A   1      44.409  31.598  30.682  1.00  0.00     0.167 HD
ATOM     35  C   UNL A   1      42.073  30.786  32.414  1.00  0.00     0.074 A 
ATOM     36  C   UNL A   1      41.789  31.769  31.368  1.00  0.00     0.031 C 
ATOM     37  C   UNL A   1      43.117  29.929  32.599  1.00  0.00     0.031 A 
BRANCH  24  38
ATOM     38  C   UNL A   1      44.681  31.553  27.660  1.00  0.00    -0.014 A 
ATOM     39  C   UNL A   1      45.950  31.798  27.090  1.00  0.00     0.010 A 
ATOM     40  C   UNL A   1      43.847  32.668  27.870  1.00  0.00     0.010 A 
ATOM     41  C   UNL A   1      46.392  33.101  26.827  1.00  0.00     0.020 A 
ATOM     42  C   UNL A   1      44.264  33.969  27.572  1.00  0.00     0.020 A 
ATOM     43  C   UNL A   1      45.548  34.180  27.085  1.00  0.00     0.054 A 
BRANCH  43  44
ATOM     44  S   UNL A   1      46.172  35.862  26.847  1.00  0.00     0.124 S 
ATOM     45  O   UNL A   1      46.862  35.750  25.566  1.00  0.00    -0.237 OA
ATOM     46  O   UNL A   1      44.942  36.648  26.838  1.00  0.00    -0.237 OA
ATOM     47  O   UNL A   1      47.034  36.075  28.007  1.00  0.00    -0.744 OA
ENDBRANCH  43  44
ENDBRANCH  24  38
BRANCH  25  48
ATOM     48  C   UNL A   1      37.394  31.365  32.163  1.00  0.00    -0.014 A 
ATOM     49  C   UNL A   1      37.056  32.033  33.360  1.00  0.00     0.010 A 
ATOM     50  C   UNL A   1      36.694  31.735  30.998  1.00  0.00     0.010 A 
ATOM     51  C   UNL A   1      36.099  33.069  33.376  1.00  0.00     0.020 A 
ATOM     52  C   UNL A   1      35.740  32.764  31.006  1.00  0.00     0.020 A 
ATOM     53  C   UNL A   1      35.461  33.442  32.191  1.00  0.00     0.054 A 
BRANCH  53  54
ATOM     54  S   UNL A   1      34.359  34.893  32.174  1.00  0.00     0.124 S 
ATOM     55  O   UNL A   1      33.167  34.388  32.850  1.00  0.00    -0.237 OA
ATOM     56  O   UNL A   1      35.129  35.890  32.913  1.00  0.00    -0.237 OA
ATOM     57  O   UNL A   1      34.188  35.179  30.750  1.00  0.00    -0.744 OA
ENDBRANCH  53  54
ENDBRANCH  25  48
BRANCH  37  58
ATOM     58  C   UNL A   1      43.066  28.941  33.739  1.00  0.00    -0.014 A 
ATOM     59  C   UNL A   1      43.585  29.190  35.024  1.00  0.00     0.010 A 
ATOM     60  C   UNL A   1      42.272  27.797  33.543  1.00  0.00     0.010 A 
ATOM     61  C   UNL A   1      43.306  28.314  36.087  1.00  0.00     0.020 A 
ATOM     62  C   UNL A   1      41.977  26.934  34.599  1.00  0.00     0.020 A 
ATOM     63  C   UNL A   1      42.494  27.195  35.867  1.00  0.00     0.054 A 
BRANCH  63  64
ATOM     64  S   UNL A   1      42.051  26.115  37.258  1.00  0.00     0.124 S 
ATOM     65  O   UNL A   1      40.722  26.595  37.622  1.00  0.00    -0.237 OA
ATOM     66  O   UNL A   1      42.098  24.781  36.662  1.00  0.00    -0.237 OA
ATOM     67  O   UNL A   1      43.096  26.376  38.249  1.00  0.00    -0.744 OA
ENDBRANCH  63  64
ENDBRANCH  37  58
ENDBRANCH  11  12
ENDBRANCH   4   6
ENDBRANCH   1   2
BRANCH   1  68
ATOM     68  C   UNL A   1      36.337  21.213  25.587  1.00  0.00     0.042 C 
BRANCH  68  69
ATOM     69  C   UNL A   1      34.915  21.774  25.671  1.00  0.00     0.118 C 
BRANCH  69  70
ATOM     70  N   UNL A   1      33.993  21.175  24.714  1.00  0.00    -0.351 N 
ATOM     71  C   UNL A   1      33.168  21.776  23.784  1.00  0.00     0.271 C 
ATOM     72  H   UNL A   1      33.954  20.191  24.733  1.00  0.00     0.163 HD
ATOM     73  O   UNL A   1      32.410  21.073  23.127  1.00  0.00    -0.267 OA
BRANCH  71  74
ATOM     74  C   UNL A   1      33.249  23.226  23.610  1.00  0.00     0.146 A 
ATOM     75  C   UNL A   1      32.410  24.175  24.165  1.00  0.00     0.128 A 
ATOM     76  N   UNL A   1      34.208  23.845  22.835  1.00  0.00    -0.231 NA
ATOM     77  N   UNL A   1      32.806  25.384  23.640  1.00  0.00    -0.289 N 
ATOM     78  C   UNL A   1      33.874  25.117  22.819  1.00  0.00     0.206 A 
BRANCH  77  79
ATOM     79  C   UNL A   1      32.164  26.640  23.780  1.00  0.00     0.149 A 
ATOM     80  N   UNL A   1      31.294  26.947  22.791  1.00  0.00    -0.218 NA
ATOM     81  C   UNL A   1      32.398  27.455  24.903  1.00  0.00     0.044 A 
ATOM     82  C   UNL A   1      30.542  28.031  22.997  1.00  0.00     0.224 A 
ATOM     83  C   UNL A   1      31.572  28.587  24.962  1.00  0.00     0.076 A 
ATOM     84  C   UNL A   1      33.406  27.288  25.898  1.00  0.00     0.014 A 
ATOM     85  N   UNL A   1      30.643  28.863  24.040  1.00  0.00    -0.236 NA
ATOM     86  C   UNL A   1      31.735  29.481  26.013  1.00  0.00     0.029 A 
ATOM     87  C   UNL A   1      33.558  28.208  26.933  1.00  0.00     0.001 A 
ATOM     88  C   UNL A   1      32.714  29.306  26.994  1.00  0.00     0.002 A 
ENDBRANCH  77  79
ENDBRANCH  71  74
ENDBRANCH  69  70
ENDBRANCH  68  69
ENDBRANCH   1  68
TORSDOF 14
ENDMDL
