MODEL 1
REMARK VINA RESULT:     -12.2      0.000      0.000
REMARK SMILES C[C@H]1[C@@H](C(=O)NCCCNC(=O)c2ccc(-c3c4nc(c(-c5ccc(S(=O)(=O)[O-])cc5)c5ccc([nH]5)c(-c5ccc(S(=O)(=O)[O-])cc5)c5nc(c(-c6ccc(S(=O)(=O)[O-])cc6)c6ccc3[nH]6)C=C5)C=C4)cc2)CCN1C(=O)c1n[nH]c(N)n1
REMARK SMILES IDX 8 1 7 2 6 3 4 4 5 5 3 7 1 8 2 9 75 10 73 11 74 12 76 13
REMARK SMILES IDX 77 14 78 15 79 16 83 17 80 18 81 19 82 21 9 24 10 25 11 26
REMARK SMILES IDX 12 28 13 29 14 30 72 31 15 32 71 33 16 34 17 35 18 36 65 37
REMARK SMILES IDX 19 38 70 39 64 40 66 41 20 42 69 43 63 44 62 45 21 47 51 48
REMARK SMILES IDX 32 49 50 50 33 51 36 52 49 53 67 54 34 55 35 56 48 58 68 59
REMARK SMILES IDX 37 60 22 61 23 62 31 63 24 64 30 65 25 66 26 67 27 68 28 69
REMARK SMILES IDX 29 70 52 71 53 72 61 73 54 74 60 75 55 76 56 77 57 78 58 79
REMARK SMILES IDX 59 80 38 81 39 82 47 83 40 84 46 85 41 86 42 87 43 88 44 89
REMARK SMILES IDX 45 90
REMARK H PARENT 6 6 80 20 82 22 82 23 10 27 66 46 36 57
REMARK Flexibility Score: inf
ROOT
ATOM      1  C   UNL A   1      39.242  22.218  26.466  1.00  0.00     0.042 C 
ENDROOT
BRANCH   1   2
ATOM      2  C   UNL A   1      38.171  23.203  25.991  1.00  0.00     0.117 C 
BRANCH   2   3
ATOM      3  N   UNL A   1      37.788  22.998  24.603  1.00  0.00    -0.356 N 
ATOM      4  C   UNL A   1      36.561  23.075  24.011  1.00  0.00     0.225 C 
ATOM      5  O   UNL A   1      36.506  22.949  22.787  1.00  0.00    -0.275 OA
ATOM      6  H   UNL A   1      38.529  22.771  23.996  1.00  0.00     0.163 HD
BRANCH   4   7
ATOM      7  C   UNL A   1      35.320  23.317  24.862  1.00  0.00     0.102 C 
ATOM      8  C   UNL A   1      35.472  20.770  25.394  1.00  0.00     0.032 C 
ATOM      9  C   UNL A   1      34.636  22.047  25.432  1.00  0.00     0.095 C 
ATOM     10  N   UNL A   1      33.393  21.906  24.668  1.00  0.00    -0.332 N 
ATOM     11  C   UNL A   1      34.202  23.986  24.040  1.00  0.00     0.037 C 
ATOM     12  C   UNL A   1      33.360  22.820  23.550  1.00  0.00     0.121 C 
BRANCH  10  13
ATOM     13  C   UNL A   1      32.305  21.079  24.961  1.00  0.00     0.293 C 
ATOM     14  O   UNL A   1      31.308  21.509  25.541  1.00  0.00    -0.265 OA
BRANCH  13  15
ATOM     15  C   UNL A   1      32.415  19.662  24.548  1.00  0.00     0.241 A 
ATOM     16  N   UNL A   1      32.409  19.259  23.257  1.00  0.00    -0.147 NA
ATOM     17  N   UNL A   1      32.407  18.620  25.457  1.00  0.00    -0.187 NA
ATOM     18  N   UNL A   1      32.429  17.921  23.399  1.00  0.00    -0.245 N 
ATOM     19  C   UNL A   1      32.376  17.550  24.710  1.00  0.00     0.216 A 
ATOM     20  H   UNL A   1      32.476  17.287  22.648  1.00  0.00     0.193 HD
BRANCH  19  21
ATOM     21  N   UNL A   1      32.276  16.277  25.096  1.00  0.00    -0.368 N 
ATOM     22  H   UNL A   1      32.847  15.935  25.821  1.00  0.00     0.159 HD
ATOM     23  H   UNL A   1      31.632  15.678  24.654  1.00  0.00     0.159 HD
ENDBRANCH  19  21
ENDBRANCH  13  15
ENDBRANCH  10  13
ENDBRANCH   4   7
ENDBRANCH   2   3
ENDBRANCH   1   2
BRANCH   1  24
ATOM     24  C   UNL A   1      40.415  22.889  27.176  1.00  0.00     0.118 C 
BRANCH  24  25
ATOM     25  N   UNL A   1      41.207  23.684  26.254  1.00  0.00    -0.352 N 
ATOM     26  C   UNL A   1      41.383  25.034  26.104  1.00  0.00     0.251 C 
ATOM     27  H   UNL A   1      41.720  23.145  25.607  1.00  0.00     0.163 HD
ATOM     28  O   UNL A   1      41.894  25.424  25.053  1.00  0.00    -0.269 OA
BRANCH  26  29
ATOM     29  C   UNL A   1      40.991  26.037  27.129  1.00  0.00     0.039 A 
ATOM     30  C   UNL A   1      41.691  27.254  27.144  1.00  0.00     0.014 A 
ATOM     31  C   UNL A   1      40.087  25.770  28.161  1.00  0.00     0.014 A 
ATOM     32  C   UNL A   1      41.494  28.183  28.172  1.00  0.00     0.010 A 
ATOM     33  C   UNL A   1      39.847  26.725  29.159  1.00  0.00     0.010 A 
ATOM     34  C   UNL A   1      40.570  27.927  29.195  1.00  0.00    -0.014 A 
BRANCH  34  35
ATOM     35  C   UNL A   1      40.424  28.867  30.341  1.00  0.00     0.031 A 
ATOM     36  C   UNL A   1      41.353  28.775  31.525  1.00  0.00     0.074 A 
ATOM     37  C   UNL A   1      39.460  29.808  30.337  1.00  0.00     0.049 A 
ATOM     38  N   UNL A   1      41.350  29.474  32.633  1.00  0.00    -0.248 NA
ATOM     39  C   UNL A   1      42.412  27.756  31.460  1.00  0.00     0.031 C 
ATOM     40  C   UNL A   1      38.477  30.014  29.273  1.00  0.00     0.029 A 
ATOM     41  N   UNL A   1      39.157  30.773  31.266  1.00  0.00    -0.354 N 
ATOM     42  C   UNL A   1      42.373  28.951  33.415  1.00  0.00     0.074 A 
ATOM     43  C   UNL A   1      42.974  27.875  32.654  1.00  0.00     0.031 C 
ATOM     44  C   UNL A   1      37.694  31.056  29.599  1.00  0.00     0.029 A 
ATOM     45  C   UNL A   1      38.106  31.578  30.901  1.00  0.00     0.049 A 
ATOM     46  H   UNL A   1      39.646  30.877  32.113  1.00  0.00     0.167 HD
ATOM     47  C   UNL A   1      42.783  29.327  34.649  1.00  0.00     0.031 A 
ATOM     48  C   UNL A   1      37.536  32.621  31.534  1.00  0.00     0.031 A 
ATOM     49  C   UNL A   1      42.237  30.422  35.403  1.00  0.00     0.049 A 
ATOM     50  C   UNL A   1      38.056  33.072  32.868  1.00  0.00     0.074 A 
ATOM     51  C   UNL A   1      42.615  30.884  36.653  1.00  0.00     0.029 A 
ATOM     52  N   UNL A   1      41.206  31.239  34.971  1.00  0.00    -0.354 N 
ATOM     53  N   UNL A   1      39.024  32.561  33.587  1.00  0.00    -0.248 NA
ATOM     54  C   UNL A   1      37.407  34.247  33.469  1.00  0.00     0.031 C 
ATOM     55  C   UNL A   1      41.810  31.984  36.977  1.00  0.00     0.029 A 
ATOM     56  C   UNL A   1      40.941  32.209  35.923  1.00  0.00     0.049 A 
ATOM     57  H   UNL A   1      40.732  31.145  34.113  1.00  0.00     0.167 HD
ATOM     58  C   UNL A   1      39.106  33.356  34.725  1.00  0.00     0.074 A 
ATOM     59  C   UNL A   1      38.097  34.389  34.594  1.00  0.00     0.031 C 
ATOM     60  C   UNL A   1      39.942  33.235  35.784  1.00  0.00     0.031 A 
BRANCH  47  61
ATOM     61  C   UNL A   1      43.885  28.516  35.268  1.00  0.00    -0.014 A 
ATOM     62  C   UNL A   1      45.233  28.852  35.058  1.00  0.00     0.010 A 
ATOM     63  C   UNL A   1      43.566  27.394  36.053  1.00  0.00     0.010 A 
ATOM     64  C   UNL A   1      46.249  28.051  35.584  1.00  0.00     0.020 A 
ATOM     65  C   UNL A   1      44.579  26.598  36.591  1.00  0.00     0.020 A 
ATOM     66  C   UNL A   1      45.915  26.918  36.333  1.00  0.00     0.054 A 
BRANCH  66  67
ATOM     67  S   UNL A   1      47.234  25.863  36.995  1.00  0.00     0.124 S 
ATOM     68  O   UNL A   1      48.294  26.059  36.008  1.00  0.00    -0.237 OA
ATOM     69  O   UNL A   1      47.491  26.439  38.313  1.00  0.00    -0.237 OA
ATOM     70  O   UNL A   1      46.629  24.535  37.009  1.00  0.00    -0.744 OA
ENDBRANCH  66  67
ENDBRANCH  47  61
BRANCH  48  71
ATOM     71  C   UNL A   1      36.410  33.335  30.884  1.00  0.00    -0.014 A 
ATOM     72  C   UNL A   1      35.187  33.482  31.560  1.00  0.00     0.010 A 
ATOM     73  C   UNL A   1      36.573  33.906  29.610  1.00  0.00     0.010 A 
ATOM     74  C   UNL A   1      34.142  34.201  30.976  1.00  0.00     0.020 A 
ATOM     75  C   UNL A   1      35.531  34.633  29.028  1.00  0.00     0.020 A 
ATOM     76  C   UNL A   1      34.323  34.775  29.714  1.00  0.00     0.054 A 
BRANCH  76  77
ATOM     77  S   UNL A   1      33.003  35.799  29.004  1.00  0.00     0.124 S 
ATOM     78  O   UNL A   1      33.760  36.876  28.376  1.00  0.00    -0.237 OA
ATOM     79  O   UNL A   1      32.330  34.880  28.088  1.00  0.00    -0.237 OA
ATOM     80  O   UNL A   1      32.215  36.178  30.176  1.00  0.00    -0.744 OA
ENDBRANCH  76  77
ENDBRANCH  48  71
BRANCH  60  81
ATOM     81  C   UNL A   1      39.814  34.255  36.878  1.00  0.00    -0.014 A 
ATOM     82  C   UNL A   1      40.478  35.489  36.789  1.00  0.00     0.010 A 
ATOM     83  C   UNL A   1      38.996  33.989  37.991  1.00  0.00     0.010 A 
ATOM     84  C   UNL A   1      40.348  36.437  37.809  1.00  0.00     0.020 A 
ATOM     85  C   UNL A   1      38.857  34.938  39.008  1.00  0.00     0.020 A 
ATOM     86  C   UNL A   1      39.544  36.151  38.916  1.00  0.00     0.054 A 
BRANCH  86  87
ATOM     87  S   UNL A   1      39.348  37.397  40.221  1.00  0.00     0.124 S 
ATOM     88  O   UNL A   1      38.736  36.618  41.293  1.00  0.00    -0.237 OA
ATOM     89  O   UNL A   1      40.719  37.838  40.470  1.00  0.00    -0.237 OA
ATOM     90  O   UNL A   1      38.484  38.401  39.604  1.00  0.00    -0.744 OA
ENDBRANCH  86  87
ENDBRANCH  60  81
ENDBRANCH  34  35
ENDBRANCH  26  29
ENDBRANCH  24  25
ENDBRANCH   1  24
TORSDOF 16
ENDMDL
MODEL 2
REMARK VINA RESULT:     -11.7      4.733      9.726
REMARK SMILES C[C@H]1[C@@H](C(=O)NCCCNC(=O)c2ccc(-c3c4nc(c(-c5ccc(S(=O)(=O)[O-])cc5)c5ccc([nH]5)c(-c5ccc(S(=O)(=O)[O-])cc5)c5nc(c(-c6ccc(S(=O)(=O)[O-])cc6)c6ccc3[nH]6)C=C5)C=C4)cc2)CCN1C(=O)c1n[nH]c(N)n1
REMARK SMILES IDX 8 1 7 2 6 3 4 4 5 5 3 7 1 8 2 9 75 10 73 11 74 12 76 13
REMARK SMILES IDX 77 14 78 15 79 16 83 17 80 18 81 19 82 21 9 24 10 25 11 26
REMARK SMILES IDX 12 28 13 29 14 30 72 31 15 32 71 33 16 34 17 35 18 36 65 37
REMARK SMILES IDX 19 38 70 39 64 40 66 41 20 42 69 43 63 44 62 45 21 47 51 48
REMARK SMILES IDX 32 49 50 50 33 51 36 52 49 53 67 54 34 55 35 56 48 58 68 59
REMARK SMILES IDX 37 60 22 61 23 62 31 63 24 64 30 65 25 66 26 67 27 68 28 69
REMARK SMILES IDX 29 70 52 71 53 72 61 73 54 74 60 75 55 76 56 77 57 78 58 79
REMARK SMILES IDX 59 80 38 81 39 82 47 83 40 84 46 85 41 86 42 87 43 88 44 89
REMARK SMILES IDX 45 90
REMARK H PARENT 6 6 80 20 82 22 82 23 10 27 66 46 36 57
REMARK Flexibility Score: inf
ROOT
ATOM      1  C   UNL A   1      31.783  27.826  27.119  1.00  0.00     0.042 C 
ENDROOT
BRANCH   1   2
ATOM      2  C   UNL A   1      31.574  26.762  26.038  1.00  0.00     0.117 C 
BRANCH   2   3
ATOM      3  N   UNL A   1      30.952  25.551  26.548  1.00  0.00    -0.356 N 
ATOM      4  C   UNL A   1      31.492  24.321  26.789  1.00  0.00     0.225 C 
ATOM      5  O   UNL A   1      30.771  23.471  27.315  1.00  0.00    -0.275 OA
ATOM      6  H   UNL A   1      29.992  25.631  26.751  1.00  0.00     0.163 HD
BRANCH   4   7
ATOM      7  C   UNL A   1      32.943  24.042  26.417  1.00  0.00     0.102 C 
ATOM      8  C   UNL A   1      31.939  22.935  24.281  1.00  0.00     0.032 C 
ATOM      9  C   UNL A   1      33.157  23.130  25.181  1.00  0.00     0.095 C 
ATOM     10  N   UNL A   1      33.643  21.858  25.723  1.00  0.00    -0.332 N 
ATOM     11  C   UNL A   1      33.672  23.289  27.546  1.00  0.00     0.037 C 
ATOM     12  C   UNL A   1      33.531  21.827  27.162  1.00  0.00     0.121 C 
BRANCH  10  13
ATOM     13  C   UNL A   1      34.222  20.800  25.017  1.00  0.00     0.293 C 
ATOM     14  O   UNL A   1      33.534  19.941  24.465  1.00  0.00    -0.265 OA
BRANCH  13  15
ATOM     15  C   UNL A   1      35.701  20.757  24.974  1.00  0.00     0.241 A 
ATOM     16  N   UNL A   1      36.410  19.622  24.780  1.00  0.00    -0.147 NA
ATOM     17  N   UNL A   1      36.484  21.861  25.257  1.00  0.00    -0.187 NA
ATOM     18  N   UNL A   1      37.670  20.071  24.921  1.00  0.00    -0.245 N 
ATOM     19  C   UNL A   1      37.703  21.393  25.255  1.00  0.00     0.216 A 
ATOM     20  H   UNL A   1      38.471  19.513  24.798  1.00  0.00     0.193 HD
BRANCH  19  21
ATOM     21  N   UNL A   1      38.835  22.033  25.553  1.00  0.00    -0.368 N 
ATOM     22  H   UNL A   1      39.119  22.121  26.491  1.00  0.00     0.159 HD
ATOM     23  H   UNL A   1      39.386  22.418  24.833  1.00  0.00     0.159 HD
ENDBRANCH  19  21
ENDBRANCH  13  15
ENDBRANCH  10  13
ENDBRANCH   4   7
ENDBRANCH   2   3
ENDBRANCH   1   2
BRANCH   1  24
ATOM     24  C   UNL A   1      33.246  28.217  27.315  1.00  0.00     0.118 C 
BRANCH  24  25
ATOM     25  N   UNL A   1      33.384  29.639  27.570  1.00  0.00    -0.352 N 
ATOM     26  C   UNL A   1      34.408  30.399  28.074  1.00  0.00     0.251 C 
ATOM     27  H   UNL A   1      32.584  30.163  27.334  1.00  0.00     0.163 HD
ATOM     28  O   UNL A   1      34.134  31.543  28.440  1.00  0.00    -0.269 OA
BRANCH  26  29
ATOM     29  C   UNL A   1      35.808  29.917  28.202  1.00  0.00     0.039 A 
ATOM     30  C   UNL A   1      36.206  29.410  29.449  1.00  0.00     0.014 A 
ATOM     31  C   UNL A   1      36.776  30.091  27.209  1.00  0.00     0.014 A 
ATOM     32  C   UNL A   1      37.546  29.087  29.698  1.00  0.00     0.010 A 
ATOM     33  C   UNL A   1      38.106  29.713  27.439  1.00  0.00     0.010 A 
ATOM     34  C   UNL A   1      38.512  29.237  28.695  1.00  0.00    -0.014 A 
BRANCH  34  35
ATOM     35  C   UNL A   1      39.951  28.985  28.981  1.00  0.00     0.031 A 
ATOM     36  C   UNL A   1      40.587  27.673  28.596  1.00  0.00     0.074 A 
ATOM     37  C   UNL A   1      40.704  29.922  29.590  1.00  0.00     0.049 A 
ATOM     38  N   UNL A   1      41.811  27.255  28.806  1.00  0.00    -0.248 NA
ATOM     39  C   UNL A   1      39.731  26.701  27.899  1.00  0.00     0.031 C 
ATOM     40  C   UNL A   1      40.232  31.233  30.035  1.00  0.00     0.029 A 
ATOM     41  N   UNL A   1      42.034  29.910  29.932  1.00  0.00    -0.354 N 
ATOM     42  C   UNL A   1      41.860  25.959  28.309  1.00  0.00     0.074 A 
ATOM     43  C   UNL A   1      40.541  25.658  27.790  1.00  0.00     0.031 C 
ATOM     44  C   UNL A   1      41.263  31.908  30.573  1.00  0.00     0.029 A 
ATOM     45  C   UNL A   1      42.460  31.072  30.527  1.00  0.00     0.049 A 
ATOM     46  H   UNL A   1      42.625  29.140  29.768  1.00  0.00     0.167 HD
ATOM     47  C   UNL A   1      42.901  25.092  28.280  1.00  0.00     0.031 A 
ATOM     48  C   UNL A   1      43.676  31.431  30.983  1.00  0.00     0.031 A 
ATOM     49  C   UNL A   1      44.230  25.383  28.743  1.00  0.00     0.049 A 
ATOM     50  C   UNL A   1      44.836  30.486  30.871  1.00  0.00     0.074 A 
ATOM     51  C   UNL A   1      45.349  24.567  28.726  1.00  0.00     0.029 A 
ATOM     52  N   UNL A   1      44.626  26.591  29.292  1.00  0.00    -0.354 N 
ATOM     53  N   UNL A   1      44.857  29.264  30.398  1.00  0.00    -0.248 NA
ATOM     54  C   UNL A   1      46.137  30.974  31.351  1.00  0.00     0.031 C 
ATOM     55  C   UNL A   1      46.424  25.284  29.266  1.00  0.00     0.029 A 
ATOM     56  C   UNL A   1      45.974  26.547  29.609  1.00  0.00     0.049 A 
ATOM     57  H   UNL A   1      44.037  27.366  29.436  1.00  0.00     0.167 HD
ATOM     58  C   UNL A   1      46.176  28.839  30.516  1.00  0.00     0.074 A 
ATOM     59  C   UNL A   1      46.924  29.937  31.096  1.00  0.00     0.031 C 
ATOM     60  C   UNL A   1      46.713  27.643  30.178  1.00  0.00     0.031 A 
BRANCH  47  61
ATOM     61  C   UNL A   1      42.621  23.722  27.732  1.00  0.00    -0.014 A 
ATOM     62  C   UNL A   1      42.100  22.710  28.555  1.00  0.00     0.010 A 
ATOM     63  C   UNL A   1      42.900  23.443  26.383  1.00  0.00     0.010 A 
ATOM     64  C   UNL A   1      41.907  21.421  28.050  1.00  0.00     0.020 A 
ATOM     65  C   UNL A   1      42.696  22.160  25.871  1.00  0.00     0.020 A 
ATOM     66  C   UNL A   1      42.223  21.151  26.715  1.00  0.00     0.054 A 
BRANCH  66  67
ATOM     67  S   UNL A   1      41.996  19.472  26.066  1.00  0.00     0.124 S 
ATOM     68  O   UNL A   1      42.886  19.478  24.908  1.00  0.00    -0.237 OA
ATOM     69  O   UNL A   1      42.420  18.625  27.179  1.00  0.00    -0.237 OA
ATOM     70  O   UNL A   1      40.569  19.419  25.760  1.00  0.00    -0.744 OA
ENDBRANCH  66  67
ENDBRANCH  47  61
BRANCH  48  71
ATOM     71  C   UNL A   1      43.859  32.783  31.567  1.00  0.00    -0.014 A 
ATOM     72  C   UNL A   1      43.721  32.973  32.953  1.00  0.00     0.010 A 
ATOM     73  C   UNL A   1      44.213  33.868  30.749  1.00  0.00     0.010 A 
ATOM     74  C   UNL A   1      43.946  34.230  33.516  1.00  0.00     0.020 A 
ATOM     75  C   UNL A   1      44.448  35.125  31.311  1.00  0.00     0.020 A 
ATOM     76  C   UNL A   1      44.312  35.299  32.691  1.00  0.00     0.054 A 
BRANCH  76  77
ATOM     77  S   UNL A   1      44.709  36.905  33.436  1.00  0.00     0.124 S 
ATOM     78  O   UNL A   1      45.189  36.516  34.758  1.00  0.00    -0.237 OA
ATOM     79  O   UNL A   1      45.720  37.447  32.530  1.00  0.00    -0.237 OA
ATOM     80  O   UNL A   1      43.427  37.607  33.408  1.00  0.00    -0.744 OA
ENDBRANCH  76  77
ENDBRANCH  48  71
BRANCH  60  81
ATOM     81  C   UNL A   1      48.185  27.463  30.408  1.00  0.00    -0.014 A 
ATOM     82  C   UNL A   1      48.662  26.964  31.632  1.00  0.00     0.010 A 
ATOM     83  C   UNL A   1      49.097  27.764  29.382  1.00  0.00     0.010 A 
ATOM     84  C   UNL A   1      50.035  26.791  31.837  1.00  0.00     0.020 A 
ATOM     85  C   UNL A   1      50.469  27.585  29.581  1.00  0.00     0.020 A 
ATOM     86  C   UNL A   1      50.930  27.111  30.812  1.00  0.00     0.054 A 
BRANCH  86  87
ATOM     87  S   UNL A   1      52.708  26.853  31.069  1.00  0.00     0.124 S 
ATOM     88  O   UNL A   1      53.100  28.089  31.740  1.00  0.00    -0.237 OA
ATOM     89  O   UNL A   1      52.754  25.649  31.894  1.00  0.00    -0.237 OA
ATOM     90  O   UNL A   1      53.225  26.687  29.712  1.00  0.00    -0.744 OA
ENDBRANCH  86  87
ENDBRANCH  60  81
ENDBRANCH  34  35
ENDBRANCH  26  29
ENDBRANCH  24  25
ENDBRANCH   1  24
TORSDOF 16
ENDMDL
MODEL 3
REMARK VINA RESULT:     -11.7      4.419     10.167
REMARK SMILES C[C@H]1[C@@H](C(=O)NCCCNC(=O)c2ccc(-c3c4nc(c(-c5ccc(S(=O)(=O)[O-])cc5)c5ccc([nH]5)c(-c5ccc(S(=O)(=O)[O-])cc5)c5nc(c(-c6ccc(S(=O)(=O)[O-])cc6)c6ccc3[nH]6)C=C5)C=C4)cc2)CCN1C(=O)c1n[nH]c(N)n1
REMARK SMILES IDX 8 1 7 2 6 3 4 4 5 5 3 7 1 8 2 9 75 10 73 11 74 12 76 13
REMARK SMILES IDX 77 14 78 15 79 16 83 17 80 18 81 19 82 21 9 24 10 25 11 26
REMARK SMILES IDX 12 28 13 29 14 30 72 31 15 32 71 33 16 34 17 35 18 36 65 37
REMARK SMILES IDX 19 38 70 39 64 40 66 41 20 42 69 43 63 44 62 45 21 47 51 48
REMARK SMILES IDX 32 49 50 50 33 51 36 52 49 53 67 54 34 55 35 56 48 58 68 59
REMARK SMILES IDX 37 60 22 61 23 62 31 63 24 64 30 65 25 66 26 67 27 68 28 69
REMARK SMILES IDX 29 70 52 71 53 72 61 73 54 74 60 75 55 76 56 77 57 78 58 79
REMARK SMILES IDX 59 80 38 81 39 82 47 83 40 84 46 85 41 86 42 87 43 88 44 89
REMARK SMILES IDX 45 90
REMARK H PARENT 6 6 80 20 82 22 82 23 10 27 66 46 36 57
REMARK Flexibility Score: inf
ROOT
ATOM      1  C   UNL A   1      33.662  27.443  25.322  1.00  0.00     0.042 C 
ENDROOT
BRANCH   1   2
ATOM      2  C   UNL A   1      32.331  26.807  24.912  1.00  0.00     0.117 C 
BRANCH   2   3
ATOM      3  N   UNL A   1      31.773  25.946  25.942  1.00  0.00    -0.356 N 
ATOM      4  C   UNL A   1      32.090  24.662  26.280  1.00  0.00     0.225 C 
ATOM      5  O   UNL A   1      31.532  24.173  27.263  1.00  0.00    -0.275 OA
ATOM      6  H   UNL A   1      31.056  26.353  26.480  1.00  0.00     0.163 HD
BRANCH   4   7
ATOM      7  C   UNL A   1      33.112  23.889  25.454  1.00  0.00     0.102 C 
ATOM      8  C   UNL A   1      31.087  23.315  23.915  1.00  0.00     0.032 C 
ATOM      9  C   UNL A   1      32.530  23.015  24.312  1.00  0.00     0.095 C 
ATOM     10  N   UNL A   1      32.693  21.632  24.769  1.00  0.00    -0.332 N 
ATOM     11  C   UNL A   1      33.879  22.876  26.324  1.00  0.00     0.037 C 
ATOM     12  C   UNL A   1      33.101  21.583  26.153  1.00  0.00     0.121 C 
BRANCH  10  13
ATOM     13  C   UNL A   1      32.566  20.466  24.009  1.00  0.00     0.293 C 
ATOM     14  O   UNL A   1      32.073  20.484  22.881  1.00  0.00    -0.265 OA
BRANCH  13  15
ATOM     15  C   UNL A   1      33.042  19.210  24.630  1.00  0.00     0.241 A 
ATOM     16  N   UNL A   1      34.311  18.755  24.514  1.00  0.00    -0.147 NA
ATOM     17  N   UNL A   1      32.193  18.332  25.277  1.00  0.00    -0.187 NA
ATOM     18  N   UNL A   1      34.224  17.570  25.145  1.00  0.00    -0.245 N 
ATOM     19  C   UNL A   1      32.949  17.304  25.550  1.00  0.00     0.216 A 
ATOM     20  H   UNL A   1      34.988  16.968  25.295  1.00  0.00     0.193 HD
BRANCH  19  21
ATOM     21  N   UNL A   1      32.597  16.141  26.102  1.00  0.00    -0.368 N 
ATOM     22  H   UNL A   1      33.279  15.456  26.285  1.00  0.00     0.159 HD
ATOM     23  H   UNL A   1      31.654  15.969  26.326  1.00  0.00     0.159 HD
ENDBRANCH  19  21
ENDBRANCH  13  15
ENDBRANCH  10  13
ENDBRANCH   4   7
ENDBRANCH   2   3
ENDBRANCH   1   2
BRANCH   1  24
ATOM     24  C   UNL A   1      33.729  27.815  26.801  1.00  0.00     0.118 C 
BRANCH  24  25
ATOM     25  N   UNL A   1      33.514  29.238  26.999  1.00  0.00    -0.352 N 
ATOM     26  C   UNL A   1      34.225  30.201  27.666  1.00  0.00     0.251 C 
ATOM     27  H   UNL A   1      32.696  29.578  26.568  1.00  0.00     0.163 HD
ATOM     28  O   UNL A   1      33.650  31.265  27.900  1.00  0.00    -0.269 OA
BRANCH  26  29
ATOM     29  C   UNL A   1      35.631  30.028  28.117  1.00  0.00     0.039 A 
ATOM     30  C   UNL A   1      36.641  30.170  27.153  1.00  0.00     0.014 A 
ATOM     31  C   UNL A   1      35.980  29.581  29.394  1.00  0.00     0.014 A 
ATOM     32  C   UNL A   1      37.973  29.867  27.459  1.00  0.00     0.010 A 
ATOM     33  C   UNL A   1      37.322  29.333  29.718  1.00  0.00     0.010 A 
ATOM     34  C   UNL A   1      38.328  29.442  28.746  1.00  0.00    -0.014 A 
BRANCH  34  35
ATOM     35  C   UNL A   1      39.725  29.028  29.052  1.00  0.00     0.031 A 
ATOM     36  C   UNL A   1      40.659  29.970  29.770  1.00  0.00     0.074 A 
ATOM     37  C   UNL A   1      40.175  27.811  28.690  1.00  0.00     0.049 A 
ATOM     38  N   UNL A   1      41.921  29.803  30.080  1.00  0.00    -0.248 NA
ATOM     39  C   UNL A   1      40.106  31.270  30.178  1.00  0.00     0.031 C 
ATOM     40  C   UNL A   1      39.399  26.795  27.979  1.00  0.00     0.029 A 
ATOM     41  N   UNL A   1      41.401  27.224  28.881  1.00  0.00    -0.354 N 
ATOM     42  C   UNL A   1      42.325  30.991  30.678  1.00  0.00     0.074 A 
ATOM     43  C   UNL A   1      41.174  31.871  30.683  1.00  0.00     0.031 C 
ATOM     44  C   UNL A   1      40.161  25.701  27.812  1.00  0.00     0.029 A 
ATOM     45  C   UNL A   1      41.483  25.945  28.387  1.00  0.00     0.049 A 
ATOM     46  H   UNL A   1      42.152  27.677  29.328  1.00  0.00     0.167 HD
ATOM     47  C   UNL A   1      43.537  31.328  31.180  1.00  0.00     0.031 A 
ATOM     48  C   UNL A   1      42.500  25.062  28.396  1.00  0.00     0.031 A 
ATOM     49  C   UNL A   1      44.680  30.458  31.230  1.00  0.00     0.049 A 
ATOM     50  C   UNL A   1      43.812  25.425  29.026  1.00  0.00     0.074 A 
ATOM     51  C   UNL A   1      45.939  30.714  31.747  1.00  0.00     0.029 A 
ATOM     52  N   UNL A   1      44.699  29.155  30.763  1.00  0.00    -0.354 N 
ATOM     53  N   UNL A   1      44.170  26.556  29.584  1.00  0.00    -0.248 NA
ATOM     54  C   UNL A   1      44.854  24.388  29.033  1.00  0.00     0.031 C 
ATOM     55  C   UNL A   1      46.721  29.563  31.591  1.00  0.00     0.029 A 
ATOM     56  C   UNL A   1      45.944  28.590  30.987  1.00  0.00     0.049 A 
ATOM     57  H   UNL A   1      43.940  28.697  30.334  1.00  0.00     0.167 HD
ATOM     58  C   UNL A   1      45.478  26.364  30.015  1.00  0.00     0.074 A 
ATOM     59  C   UNL A   1      45.845  25.006  29.663  1.00  0.00     0.031 C 
ATOM     60  C   UNL A   1      46.299  27.239  30.642  1.00  0.00     0.031 A 
BRANCH  47  61
ATOM     61  C   UNL A   1      43.683  32.727  31.706  1.00  0.00    -0.014 A 
ATOM     62  C   UNL A   1      43.328  33.040  33.029  1.00  0.00     0.010 A 
ATOM     63  C   UNL A   1      44.164  33.741  30.860  1.00  0.00     0.010 A 
ATOM     64  C   UNL A   1      43.405  34.359  33.485  1.00  0.00     0.020 A 
ATOM     65  C   UNL A   1      44.255  35.057  31.316  1.00  0.00     0.020 A 
ATOM     66  C   UNL A   1      43.852  35.362  32.619  1.00  0.00     0.054 A 
BRANCH  66  67
ATOM     67  S   UNL A   1      43.929  37.077  33.205  1.00  0.00     0.124 S 
ATOM     68  O   UNL A   1      42.762  37.144  34.081  1.00  0.00    -0.237 OA
ATOM     69  O   UNL A   1      45.223  37.141  33.880  1.00  0.00    -0.237 OA
ATOM     70  O   UNL A   1      43.835  37.858  31.975  1.00  0.00    -0.744 OA
ENDBRANCH  66  67
ENDBRANCH  47  61
BRANCH  48  71
ATOM     71  C   UNL A   1      42.296  23.718  27.801  1.00  0.00    -0.014 A 
ATOM     72  C   UNL A   1      42.755  23.449  26.500  1.00  0.00     0.010 A 
ATOM     73  C   UNL A   1      41.687  22.696  28.548  1.00  0.00     0.010 A 
ATOM     74  C   UNL A   1      42.617  22.171  25.956  1.00  0.00     0.020 A 
ATOM     75  C   UNL A   1      41.555  21.415  28.008  1.00  0.00     0.020 A 
ATOM     76  C   UNL A   1      42.019  21.160  26.715  1.00  0.00     0.054 A 
BRANCH  76  77
ATOM     77  S   UNL A   1      41.938  19.474  26.049  1.00  0.00     0.124 S 
ATOM     78  O   UNL A   1      40.513  19.324  25.777  1.00  0.00    -0.237 OA
ATOM     79  O   UNL A   1      42.803  19.543  24.873  1.00  0.00    -0.237 OA
ATOM     80  O   UNL A   1      42.464  18.662  27.145  1.00  0.00    -0.744 OA
ENDBRANCH  76  77
ENDBRANCH  48  71
BRANCH  60  81
ATOM     81  C   UNL A   1      47.672  26.752  31.005  1.00  0.00    -0.014 A 
ATOM     82  C   UNL A   1      48.761  26.972  30.145  1.00  0.00     0.010 A 
ATOM     83  C   UNL A   1      47.881  26.095  32.231  1.00  0.00     0.010 A 
ATOM     84  C   UNL A   1      50.038  26.521  30.494  1.00  0.00     0.020 A 
ATOM     85  C   UNL A   1      49.158  25.651  32.586  1.00  0.00     0.020 A 
ATOM     86  C   UNL A   1      50.226  25.856  31.708  1.00  0.00     0.054 A 
BRANCH  86  87
ATOM     87  S   UNL A   1      51.891  25.304  32.174  1.00  0.00     0.124 S 
ATOM     88  O   UNL A   1      52.668  25.651  30.988  1.00  0.00    -0.237 OA
ATOM     89  O   UNL A   1      52.182  26.094  33.368  1.00  0.00    -0.237 OA
ATOM     90  O   UNL A   1      51.718  23.872  32.413  1.00  0.00    -0.744 OA
ENDBRANCH  86  87
ENDBRANCH  60  81
ENDBRANCH  34  35
ENDBRANCH  26  29
ENDBRANCH  24  25
ENDBRANCH   1  24
TORSDOF 16
ENDMDL
