MODEL 1
REMARK VINA RESULT:     -10.1      0.000      0.000
REMARK SMILES Cc1oc2cc(OCC(=O)NCCCNC(=O)c3ccc(-c4c5nc(c(-c6ccc(S(=O)(=O)[O-])cc6)c6ccc([nH]6)c(-c6ccc(S(=O)(=O)[O-])cc6)c6nc(c(-c7ccc(S(=O)(=O)[O-])cc7)c7ccc4[nH]7)C=C6)C=C5)cc3)ccc2c(=O)c1Oc1ccc(Cl)cc1Cl
REMARK SMILES IDX 12 1 11 2 9 3 10 4 8 6 7 7 6 8 1 9 2 10 3 11 83 12 4 13
REMARK SMILES IDX 81 14 5 15 80 16 82 17 79 18 78 19 84 20 85 21 86 22 91 23
REMARK SMILES IDX 87 24 90 25 92 26 88 27 89 28 13 29 14 30 15 31 16 32 17 34
REMARK SMILES IDX 18 35 19 36 77 37 20 38 76 39 21 40 22 41 23 42 70 43 24 44
REMARK SMILES IDX 75 45 69 46 71 47 25 48 74 49 68 50 67 51 26 53 56 54 37 55
REMARK SMILES IDX 55 56 38 57 41 58 54 59 72 60 39 61 40 62 53 64 73 65 42 66
REMARK SMILES IDX 27 67 28 68 36 69 29 70 35 71 30 72 31 73 32 74 33 75 34 76
REMARK SMILES IDX 57 77 58 78 66 79 59 80 65 81 60 82 61 83 62 84 63 85 64 86
REMARK SMILES IDX 43 87 44 88 52 89 45 90 51 91 46 92 47 93 48 94 49 95 50 96
REMARK H PARENT 11 5 15 33 71 52 41 63
REMARK Flexibility Score: inf
ROOT
ATOM      1  C   UNL A   1      34.466  35.418  29.797  1.00  0.00     0.117 C 
ENDROOT
BRANCH   1   2
ATOM      2  N   UNL A   1      33.621  36.311  30.565  1.00  0.00    -0.353 N 
ATOM      3  C   UNL A   1      33.666  36.562  31.906  1.00  0.00     0.257 C 
ATOM      4  O   UNL A   1      32.907  37.410  32.379  1.00  0.00    -0.271 OA
ATOM      5  H   UNL A   1      32.929  36.795  30.059  1.00  0.00     0.163 HD
BRANCH   3   6
ATOM      6  C   UNL A   1      34.682  35.814  32.779  1.00  0.00     0.329 C 
BRANCH   6   7
ATOM      7  O   UNL A   1      34.439  34.424  32.958  1.00  0.00    -0.484 OA
BRANCH   7   8
ATOM      8  C   UNL A   1      35.405  33.688  33.588  1.00  0.00     0.123 A 
ATOM      9  C   UNL A   1      39.022  29.009  32.917  1.00  0.00     0.092 C 
ATOM     10  C   UNL A   1      38.622  30.150  33.808  1.00  0.00     0.148 A 
ATOM     11  O   UNL A   1      37.709  30.935  33.123  1.00  0.00    -0.457 OA
ATOM     12  C   UNL A   1      39.032  30.407  35.078  1.00  0.00     0.213 A 
ATOM     13  C   UNL A   1      37.084  31.961  33.760  1.00  0.00     0.142 A 
ATOM     14  C   UNL A   1      38.392  31.568  35.787  1.00  0.00     0.235 A 
ATOM     15  C   UNL A   1      36.110  32.631  33.021  1.00  0.00     0.094 A 
ATOM     16  C   UNL A   1      37.369  32.331  35.060  1.00  0.00     0.069 A 
ATOM     17  O   UNL A   1      38.672  31.859  36.945  1.00  0.00    -0.285 OA
ATOM     18  C   UNL A   1      36.668  33.388  35.646  1.00  0.00     0.020 A 
ATOM     19  C   UNL A   1      35.688  34.063  34.906  1.00  0.00     0.047 A 
BRANCH  12  20
ATOM     20  O   UNL A   1      39.953  29.727  35.870  1.00  0.00    -0.448 OA
BRANCH  20  21
ATOM     21  C   UNL A   1      41.210  29.436  35.416  1.00  0.00     0.146 A 
ATOM     22  C   UNL A   1      41.527  28.080  35.284  1.00  0.00     0.050 A 
ATOM     23  C   UNL A   1      42.161  30.418  35.118  1.00  0.00     0.085 A 
ATOM     24  C   UNL A   1      42.758  27.708  34.743  1.00  0.00     0.024 A 
ATOM     25  C   UNL A   1      43.391  30.043  34.571  1.00  0.00     0.045 A 
ATOM     26  Cl  UNL A   1      41.845  32.095  35.359  1.00  0.00    -0.080 Cl
ATOM     27  C   UNL A   1      43.673  28.692  34.368  1.00  0.00     0.042 A 
ATOM     28  Cl  UNL A   1      45.158  28.231  33.632  1.00  0.00    -0.084 Cl
ENDBRANCH  20  21
ENDBRANCH  12  20
ENDBRANCH   7   8
ENDBRANCH   6   7
ENDBRANCH   3   6
ENDBRANCH   1   2
BRANCH   1  29
ATOM     29  C   UNL A   1      33.921  33.997  29.732  1.00  0.00     0.042 C 
BRANCH  29  30
ATOM     30  C   UNL A   1      34.675  33.079  28.776  1.00  0.00     0.118 C 
BRANCH  30  31
ATOM     31  N   UNL A   1      33.864  31.962  28.305  1.00  0.00    -0.352 N 
ATOM     32  C   UNL A   1      34.232  30.682  27.968  1.00  0.00     0.251 C 
ATOM     33  H   UNL A   1      32.903  32.157  28.212  1.00  0.00     0.163 HD
ATOM     34  O   UNL A   1      33.418  29.942  27.419  1.00  0.00    -0.269 OA
BRANCH  32  35
ATOM     35  C   UNL A   1      35.602  30.201  28.247  1.00  0.00     0.039 A 
ATOM     36  C   UNL A   1      36.552  30.221  27.222  1.00  0.00     0.014 A 
ATOM     37  C   UNL A   1      35.945  29.719  29.512  1.00  0.00     0.014 A 
ATOM     38  C   UNL A   1      37.867  29.830  27.488  1.00  0.00     0.010 A 
ATOM     39  C   UNL A   1      37.270  29.400  29.793  1.00  0.00     0.010 A 
ATOM     40  C   UNL A   1      38.245  29.453  28.786  1.00  0.00    -0.014 A 
BRANCH  40  41
ATOM     41  C   UNL A   1      39.646  29.092  29.127  1.00  0.00     0.031 A 
ATOM     42  C   UNL A   1      40.557  30.133  29.724  1.00  0.00     0.074 A 
ATOM     43  C   UNL A   1      40.125  27.870  28.819  1.00  0.00     0.049 A 
ATOM     44  N   UNL A   1      41.846  30.080  29.932  1.00  0.00    -0.248 NA
ATOM     45  C   UNL A   1      39.937  31.411  30.113  1.00  0.00     0.031 C 
ATOM     46  C   UNL A   1      39.350  26.775  28.228  1.00  0.00     0.029 A 
ATOM     47  N   UNL A   1      41.389  27.348  28.943  1.00  0.00    -0.354 N 
ATOM     48  C   UNL A   1      42.196  31.321  30.452  1.00  0.00     0.074 A 
ATOM     49  C   UNL A   1      40.992  32.120  30.490  1.00  0.00     0.031 C 
ATOM     50  C   UNL A   1      40.151  25.713  28.053  1.00  0.00     0.029 A 
ATOM     51  C   UNL A   1      41.506  26.062  28.468  1.00  0.00     0.049 A 
ATOM     52  H   UNL A   1      42.141  27.848  29.336  1.00  0.00     0.167 HD
ATOM     53  C   UNL A   1      43.408  31.750  30.879  1.00  0.00     0.031 A 
ATOM     54  C   UNL A   1      42.586  25.263  28.357  1.00  0.00     0.031 A 
ATOM     55  C   UNL A   1      44.600  30.947  30.857  1.00  0.00     0.049 A 
ATOM     56  C   UNL A   1      43.928  25.777  28.809  1.00  0.00     0.074 A 
ATOM     57  C   UNL A   1      45.871  31.284  31.288  1.00  0.00     0.029 A 
ATOM     58  N   UNL A   1      44.668  29.644  30.388  1.00  0.00    -0.354 N 
ATOM     59  N   UNL A   1      44.234  26.946  29.320  1.00  0.00    -0.248 NA
ATOM     60  C   UNL A   1      45.071  24.862  28.675  1.00  0.00     0.031 C 
ATOM     61  C   UNL A   1      46.716  30.196  31.047  1.00  0.00     0.029 A 
ATOM     62  C   UNL A   1      45.959  29.164  30.519  1.00  0.00     0.049 A 
ATOM     63  H   UNL A   1      43.910  29.135  30.019  1.00  0.00     0.167 HD
ATOM     64  C   UNL A   1      45.593  26.887  29.611  1.00  0.00     0.074 A 
ATOM     65  C   UNL A   1      46.050  25.570  29.222  1.00  0.00     0.031 C 
ATOM     66  C   UNL A   1      46.390  27.837  30.158  1.00  0.00     0.031 A 
BRANCH  53  67
ATOM     67  C   UNL A   1      43.504  33.153  31.414  1.00  0.00    -0.014 A 
ATOM     68  C   UNL A   1      43.392  33.408  32.792  1.00  0.00     0.010 A 
ATOM     69  C   UNL A   1      43.771  34.223  30.540  1.00  0.00     0.010 A 
ATOM     70  C   UNL A   1      43.515  34.710  33.284  1.00  0.00     0.020 A 
ATOM     71  C   UNL A   1      43.922  35.523  31.031  1.00  0.00     0.020 A 
ATOM     72  C   UNL A   1      43.779  35.760  32.399  1.00  0.00     0.054 A 
BRANCH  72  73
ATOM     73  S   UNL A   1      43.976  37.431  33.073  1.00  0.00     0.124 S 
ATOM     74  O   UNL A   1      42.710  37.622  33.779  1.00  0.00    -0.237 OA
ATOM     75  O   UNL A   1      45.155  37.298  33.925  1.00  0.00    -0.237 OA
ATOM     76  O   UNL A   1      44.158  38.265  31.888  1.00  0.00    -0.744 OA
ENDBRANCH  72  73
ENDBRANCH  53  67
BRANCH  54  77
ATOM     77  C   UNL A   1      42.455  23.889  27.797  1.00  0.00    -0.014 A 
ATOM     78  C   UNL A   1      42.171  22.802  28.643  1.00  0.00     0.010 A 
ATOM     79  C   UNL A   1      42.639  23.655  26.423  1.00  0.00     0.010 A 
ATOM     80  C   UNL A   1      42.114  21.501  28.132  1.00  0.00     0.020 A 
ATOM     81  C   UNL A   1      42.553  22.360  25.902  1.00  0.00     0.020 A 
ATOM     82  C   UNL A   1      42.310  21.289  26.764  1.00  0.00     0.054 A 
BRANCH  82  83
ATOM     83  S   UNL A   1      42.219  19.595  26.119  1.00  0.00     0.124 S 
ATOM     84  O   UNL A   1      40.810  19.484  25.758  1.00  0.00    -0.237 OA
ATOM     85  O   UNL A   1      43.159  19.631  25.001  1.00  0.00    -0.237 OA
ATOM     86  O   UNL A   1      42.644  18.776  27.253  1.00  0.00    -0.744 OA
ENDBRANCH  82  83
ENDBRANCH  54  77
BRANCH  66  87
ATOM     87  C   UNL A   1      47.821  27.474  30.447  1.00  0.00    -0.014 A 
ATOM     88  C   UNL A   1      48.208  26.935  31.685  1.00  0.00     0.010 A 
ATOM     89  C   UNL A   1      48.777  27.598  29.421  1.00  0.00     0.010 A 
ATOM     90  C   UNL A   1      49.533  26.541  31.898  1.00  0.00     0.020 A 
ATOM     91  C   UNL A   1      50.095  27.181  29.621  1.00  0.00     0.020 A 
ATOM     92  C   UNL A   1      50.466  26.662  30.862  1.00  0.00     0.054 A 
BRANCH  92  93
ATOM     93  S   UNL A   1      52.160  26.075  31.140  1.00  0.00     0.124 S 
ATOM     94  O   UNL A   1      52.707  26.073  29.786  1.00  0.00    -0.237 OA
ATOM     95  O   UNL A   1      52.708  27.088  32.038  1.00  0.00    -0.237 OA
ATOM     96  O   UNL A   1      51.976  24.756  31.739  1.00  0.00    -0.744 OA
ENDBRANCH  92  93
ENDBRANCH  66  87
ENDBRANCH  40  41
ENDBRANCH  32  35
ENDBRANCH  30  31
ENDBRANCH  29  30
ENDBRANCH   1  29
TORSDOF 17
ENDMDL
MODEL 2
REMARK VINA RESULT:      -9.9      1.111      8.009
REMARK SMILES Cc1oc2cc(OCC(=O)NCCCNC(=O)c3ccc(-c4c5nc(c(-c6ccc(S(=O)(=O)[O-])cc6)c6ccc([nH]6)c(-c6ccc(S(=O)(=O)[O-])cc6)c6nc(c(-c7ccc(S(=O)(=O)[O-])cc7)c7ccc4[nH]7)C=C6)C=C5)cc3)ccc2c(=O)c1Oc1ccc(Cl)cc1Cl
REMARK SMILES IDX 12 1 11 2 9 3 10 4 8 6 7 7 6 8 1 9 2 10 3 11 83 12 4 13
REMARK SMILES IDX 81 14 5 15 80 16 82 17 79 18 78 19 84 20 85 21 86 22 91 23
REMARK SMILES IDX 87 24 90 25 92 26 88 27 89 28 13 29 14 30 15 31 16 32 17 34
REMARK SMILES IDX 18 35 19 36 77 37 20 38 76 39 21 40 22 41 23 42 70 43 24 44
REMARK SMILES IDX 75 45 69 46 71 47 25 48 74 49 68 50 67 51 26 53 56 54 37 55
REMARK SMILES IDX 55 56 38 57 41 58 54 59 72 60 39 61 40 62 53 64 73 65 42 66
REMARK SMILES IDX 27 67 28 68 36 69 29 70 35 71 30 72 31 73 32 74 33 75 34 76
REMARK SMILES IDX 57 77 58 78 66 79 59 80 65 81 60 82 61 83 62 84 63 85 64 86
REMARK SMILES IDX 43 87 44 88 52 89 45 90 51 91 46 92 47 93 48 94 49 95 50 96
REMARK H PARENT 11 5 15 33 71 52 41 63
REMARK Flexibility Score: inf
ROOT
ATOM      1  C   UNL A   1      35.317  34.173  30.168  1.00  0.00     0.117 C 
ENDROOT
BRANCH   1   2
ATOM      2  N   UNL A   1      34.219  35.064  30.488  1.00  0.00    -0.353 N 
ATOM      3  C   UNL A   1      33.595  35.228  31.691  1.00  0.00     0.257 C 
ATOM      4  O   UNL A   1      32.718  36.087  31.794  1.00  0.00    -0.271 OA
ATOM      5  H   UNL A   1      33.882  35.619  29.747  1.00  0.00     0.163 HD
BRANCH   3   6
ATOM      6  C   UNL A   1      34.026  34.369  32.887  1.00  0.00     0.329 C 
BRANCH   6   7
ATOM      7  O   UNL A   1      35.066  34.909  33.693  1.00  0.00    -0.484 OA
BRANCH   7   8
ATOM      8  C   UNL A   1      35.969  34.033  34.232  1.00  0.00     0.123 A 
ATOM      9  C   UNL A   1      39.375  29.321  32.958  1.00  0.00     0.092 C 
ATOM     10  C   UNL A   1      38.996  30.332  34.003  1.00  0.00     0.148 A 
ATOM     11  O   UNL A   1      38.151  31.262  33.419  1.00  0.00    -0.457 OA
ATOM     12  C   UNL A   1      39.366  30.367  35.310  1.00  0.00     0.213 A 
ATOM     13  C   UNL A   1      37.552  32.211  34.188  1.00  0.00     0.142 A 
ATOM     14  C   UNL A   1      38.755  31.440  36.170  1.00  0.00     0.235 A 
ATOM     15  C   UNL A   1      36.643  33.039  33.531  1.00  0.00     0.094 A 
ATOM     16  C   UNL A   1      37.802  32.360  35.538  1.00  0.00     0.069 A 
ATOM     17  O   UNL A   1      39.003  31.533  37.368  1.00  0.00    -0.285 OA
ATOM     18  C   UNL A   1      37.131  33.352  36.258  1.00  0.00     0.020 A 
ATOM     19  C   UNL A   1      36.216  34.185  35.601  1.00  0.00     0.047 A 
BRANCH  12  20
ATOM     20  O   UNL A   1      40.219  29.524  36.016  1.00  0.00    -0.448 OA
BRANCH  20  21
ATOM     21  C   UNL A   1      41.574  29.565  35.837  1.00  0.00     0.146 A 
ATOM     22  C   UNL A   1      42.222  30.739  36.237  1.00  0.00     0.050 A 
ATOM     23  C   UNL A   1      42.302  28.517  35.263  1.00  0.00     0.085 A 
ATOM     24  C   UNL A   1      43.612  30.819  36.168  1.00  0.00     0.024 A 
ATOM     25  C   UNL A   1      43.695  28.597  35.200  1.00  0.00     0.045 A 
ATOM     26  Cl  UNL A   1      41.532  27.094  34.668  1.00  0.00    -0.080 Cl
ATOM     27  C   UNL A   1      44.342  29.739  35.671  1.00  0.00     0.042 A 
ATOM     28  Cl  UNL A   1      46.061  29.813  35.658  1.00  0.00    -0.084 Cl
ENDBRANCH  20  21
ENDBRANCH  12  20
ENDBRANCH   7   8
ENDBRANCH   6   7
ENDBRANCH   3   6
ENDBRANCH   1   2
BRANCH   1  29
ATOM     29  C   UNL A   1      34.852  32.775  29.785  1.00  0.00     0.042 C 
BRANCH  29  30
ATOM     30  C   UNL A   1      34.499  32.612  28.310  1.00  0.00     0.118 C 
BRANCH  30  31
ATOM     31  N   UNL A   1      33.801  31.363  28.028  1.00  0.00    -0.352 N 
ATOM     32  C   UNL A   1      34.296  30.092  27.859  1.00  0.00     0.251 C 
ATOM     33  H   UNL A   1      32.824  31.443  27.945  1.00  0.00     0.163 HD
ATOM     34  O   UNL A   1      33.553  29.203  27.448  1.00  0.00    -0.269 OA
BRANCH  32  35
ATOM     35  C   UNL A   1      35.714  29.798  28.152  1.00  0.00     0.039 A 
ATOM     36  C   UNL A   1      36.666  29.962  27.140  1.00  0.00     0.014 A 
ATOM     37  C   UNL A   1      36.105  29.349  29.415  1.00  0.00     0.014 A 
ATOM     38  C   UNL A   1      38.019  29.749  27.420  1.00  0.00     0.010 A 
ATOM     39  C   UNL A   1      37.457  29.209  29.711  1.00  0.00     0.010 A 
ATOM     40  C   UNL A   1      38.429  29.408  28.718  1.00  0.00    -0.014 A 
BRANCH  40  41
ATOM     41  C   UNL A   1      39.861  29.236  29.074  1.00  0.00     0.031 A 
ATOM     42  C   UNL A   1      40.542  27.922  28.797  1.00  0.00     0.074 A 
ATOM     43  C   UNL A   1      40.520  30.216  29.725  1.00  0.00     0.049 A 
ATOM     44  N   UNL A   1      41.721  27.506  29.180  1.00  0.00    -0.248 NA
ATOM     45  C   UNL A   1      39.786  26.938  28.004  1.00  0.00     0.031 C 
ATOM     46  C   UNL A   1      39.971  31.532  30.064  1.00  0.00     0.029 A 
ATOM     47  N   UNL A   1      41.794  30.250  30.238  1.00  0.00    -0.354 N 
ATOM     48  C   UNL A   1      41.838  26.207  28.698  1.00  0.00     0.074 A 
ATOM     49  C   UNL A   1      40.596  25.889  28.030  1.00  0.00     0.031 C 
ATOM     50  C   UNL A   1      40.904  32.244  30.716  1.00  0.00     0.029 A 
ATOM     51  C   UNL A   1      42.098  31.423  30.888  1.00  0.00     0.049 A 
ATOM     52  H   UNL A   1      42.430  29.503  30.146  1.00  0.00     0.167 HD
ATOM     53  C   UNL A   1      42.893  25.362  28.787  1.00  0.00     0.031 A 
ATOM     54  C   UNL A   1      43.204  31.788  31.567  1.00  0.00     0.031 A 
ATOM     55  C   UNL A   1      44.134  25.688  29.437  1.00  0.00     0.049 A 
ATOM     56  C   UNL A   1      44.350  30.816  31.678  1.00  0.00     0.074 A 
ATOM     57  C   UNL A   1      45.270  24.908  29.560  1.00  0.00     0.029 A 
ATOM     58  N   UNL A   1      44.406  26.895  30.062  1.00  0.00    -0.354 N 
ATOM     59  N   UNL A   1      44.450  29.600  31.195  1.00  0.00    -0.248 NA
ATOM     60  C   UNL A   1      45.536  31.268  32.421  1.00  0.00     0.031 C 
ATOM     61  C   UNL A   1      46.217  25.629  30.291  1.00  0.00     0.029 A 
ATOM     62  C   UNL A   1      45.692  26.879  30.575  1.00  0.00     0.049 A 
ATOM     63  H   UNL A   1      43.778  27.650  30.131  1.00  0.00     0.167 HD
ATOM     64  C   UNL A   1      45.726  29.163  31.536  1.00  0.00     0.074 A 
ATOM     65  C   UNL A   1      46.361  30.242  32.263  1.00  0.00     0.031 C 
ATOM     66  C   UNL A   1      46.321  27.975  31.266  1.00  0.00     0.031 A 
BRANCH  53  67
ATOM     67  C   UNL A   1      42.753  24.001  28.160  1.00  0.00    -0.014 A 
ATOM     68  C   UNL A   1      42.357  22.891  28.927  1.00  0.00     0.010 A 
ATOM     69  C   UNL A   1      42.959  23.840  26.778  1.00  0.00     0.010 A 
ATOM     70  C   UNL A   1      42.199  21.638  28.330  1.00  0.00     0.020 A 
ATOM     71  C   UNL A   1      42.775  22.594  26.171  1.00  0.00     0.020 A 
ATOM     72  C   UNL A   1      42.409  21.497  26.954  1.00  0.00     0.054 A 
BRANCH  72  73
ATOM     73  S   UNL A   1      42.154  19.868  26.202  1.00  0.00     0.124 S 
ATOM     74  O   UNL A   1      40.734  19.913  25.859  1.00  0.00    -0.237 OA
ATOM     75  O   UNL A   1      43.073  19.890  25.067  1.00  0.00    -0.237 OA
ATOM     76  O   UNL A   1      42.506  18.933  27.267  1.00  0.00    -0.744 OA
ENDBRANCH  72  73
ENDBRANCH  53  67
BRANCH  54  77
ATOM     77  C   UNL A   1      43.293  33.134  32.197  1.00  0.00    -0.014 A 
ATOM     78  C   UNL A   1      42.861  33.328  33.522  1.00  0.00     0.010 A 
ATOM     79  C   UNL A   1      43.784  34.234  31.472  1.00  0.00     0.010 A 
ATOM     80  C   UNL A   1      42.879  34.603  34.095  1.00  0.00     0.020 A 
ATOM     81  C   UNL A   1      43.833  35.506  32.051  1.00  0.00     0.020 A 
ATOM     82  C   UNL A   1      43.362  35.685  33.353  1.00  0.00     0.054 A 
BRANCH  82  83
ATOM     83  S   UNL A   1      43.389  37.330  34.120  1.00  0.00     0.124 S 
ATOM     84  O   UNL A   1      44.634  37.289  34.880  1.00  0.00    -0.237 OA
ATOM     85  O   UNL A   1      43.383  38.220  32.962  1.00  0.00    -0.237 OA
ATOM     86  O   UNL A   1      42.166  37.353  34.919  1.00  0.00    -0.744 OA
ENDBRANCH  82  83
ENDBRANCH  54  77
BRANCH  66  87
ATOM     87  C   UNL A   1      47.755  27.797  31.682  1.00  0.00    -0.014 A 
ATOM     88  C   UNL A   1      48.818  28.173  30.843  1.00  0.00     0.010 A 
ATOM     89  C   UNL A   1      48.036  27.319  32.976  1.00  0.00     0.010 A 
ATOM     90  C   UNL A   1      50.139  28.061  31.287  1.00  0.00     0.020 A 
ATOM     91  C   UNL A   1      49.353  27.231  33.432  1.00  0.00     0.020 A 
ATOM     92  C   UNL A   1      50.397  27.595  32.581  1.00  0.00     0.054 A 
BRANCH  92  93
ATOM     93  S   UNL A   1      52.115  27.528  33.159  1.00  0.00     0.124 S 
ATOM     94  O   UNL A   1      52.516  28.930  33.083  1.00  0.00    -0.237 OA
ATOM     95  O   UNL A   1      51.980  26.984  34.508  1.00  0.00    -0.237 OA
ATOM     96  O   UNL A   1      52.770  26.641  32.200  1.00  0.00    -0.744 OA
ENDBRANCH  92  93
ENDBRANCH  66  87
ENDBRANCH  40  41
ENDBRANCH  32  35
ENDBRANCH  30  31
ENDBRANCH  29  30
ENDBRANCH   1  29
TORSDOF 17
ENDMDL
MODEL 3
REMARK VINA RESULT:      -9.9      5.296     12.593
REMARK SMILES Cc1oc2cc(OCC(=O)NCCCNC(=O)c3ccc(-c4c5nc(c(-c6ccc(S(=O)(=O)[O-])cc6)c6ccc([nH]6)c(-c6ccc(S(=O)(=O)[O-])cc6)c6nc(c(-c7ccc(S(=O)(=O)[O-])cc7)c7ccc4[nH]7)C=C6)C=C5)cc3)ccc2c(=O)c1Oc1ccc(Cl)cc1Cl
REMARK SMILES IDX 12 1 11 2 9 3 10 4 8 6 7 7 6 8 1 9 2 10 3 11 83 12 4 13
REMARK SMILES IDX 81 14 5 15 80 16 82 17 79 18 78 19 84 20 85 21 86 22 91 23
REMARK SMILES IDX 87 24 90 25 92 26 88 27 89 28 13 29 14 30 15 31 16 32 17 34
REMARK SMILES IDX 18 35 19 36 77 37 20 38 76 39 21 40 22 41 23 42 70 43 24 44
REMARK SMILES IDX 75 45 69 46 71 47 25 48 74 49 68 50 67 51 26 53 56 54 37 55
REMARK SMILES IDX 55 56 38 57 41 58 54 59 72 60 39 61 40 62 53 64 73 65 42 66
REMARK SMILES IDX 27 67 28 68 36 69 29 70 35 71 30 72 31 73 32 74 33 75 34 76
REMARK SMILES IDX 57 77 58 78 66 79 59 80 65 81 60 82 61 83 62 84 63 85 64 86
REMARK SMILES IDX 43 87 44 88 52 89 45 90 51 91 46 92 47 93 48 94 49 95 50 96
REMARK H PARENT 11 5 15 33 71 52 41 63
REMARK Flexibility Score: inf
ROOT
ATOM      1  C   UNL A   1      42.951  21.863  25.782  1.00  0.00     0.117 C 
ENDROOT
BRANCH   1   2
ATOM      2  N   UNL A   1      42.823  20.421  25.690  1.00  0.00    -0.353 N 
ATOM      3  C   UNL A   1      41.733  19.655  25.989  1.00  0.00     0.257 C 
ATOM      4  O   UNL A   1      41.786  18.441  25.784  1.00  0.00    -0.271 OA
ATOM      5  H   UNL A   1      43.619  19.936  25.374  1.00  0.00     0.163 HD
BRANCH   3   6
ATOM      6  C   UNL A   1      40.466  20.327  26.535  1.00  0.00     0.329 C 
BRANCH   6   7
ATOM      7  O   UNL A   1      40.049  21.504  25.855  1.00  0.00    -0.484 OA
BRANCH   7   8
ATOM      8  C   UNL A   1      38.711  21.653  25.610  1.00  0.00     0.123 A 
ATOM      9  C   UNL A   1      34.232  25.565  25.852  1.00  0.00     0.092 C 
ATOM     10  C   UNL A   1      34.649  24.180  25.446  1.00  0.00     0.148 A 
ATOM     11  O   UNL A   1      36.019  24.073  25.616  1.00  0.00    -0.457 OA
ATOM     12  C   UNL A   1      33.864  23.163  25.005  1.00  0.00     0.213 A 
ATOM     13  C   UNL A   1      36.632  22.871  25.449  1.00  0.00     0.142 A 
ATOM     14  C   UNL A   1      34.528  21.835  24.764  1.00  0.00     0.235 A 
ATOM     15  C   UNL A   1      37.995  22.839  25.739  1.00  0.00     0.094 A 
ATOM     16  C   UNL A   1      35.968  21.734  25.031  1.00  0.00     0.069 A 
ATOM     17  O   UNL A   1      33.897  20.849  24.396  1.00  0.00    -0.285 OA
ATOM     18  C   UNL A   1      36.670  20.534  24.900  1.00  0.00     0.020 A 
ATOM     19  C   UNL A   1      38.041  20.499  25.191  1.00  0.00     0.047 A 
BRANCH  12  20
ATOM     20  O   UNL A   1      32.493  23.137  24.764  1.00  0.00    -0.448 OA
BRANCH  20  21
ATOM     21  C   UNL A   1      31.841  24.211  24.226  1.00  0.00     0.146 A 
ATOM     22  C   UNL A   1      30.892  24.839  25.040  1.00  0.00     0.050 A 
ATOM     23  C   UNL A   1      32.066  24.668  22.922  1.00  0.00     0.085 A 
ATOM     24  C   UNL A   1      30.252  25.993  24.592  1.00  0.00     0.024 A 
ATOM     25  C   UNL A   1      31.428  25.829  22.478  1.00  0.00     0.045 A 
ATOM     26  Cl  UNL A   1      33.154  23.867  21.852  1.00  0.00    -0.080 Cl
ATOM     27  C   UNL A   1      30.541  26.495  23.323  1.00  0.00     0.042 A 
ATOM     28  Cl  UNL A   1      29.806  27.962  22.804  1.00  0.00    -0.084 Cl
ENDBRANCH  20  21
ENDBRANCH  12  20
ENDBRANCH   7   8
ENDBRANCH   6   7
ENDBRANCH   3   6
ENDBRANCH   1   2
BRANCH   1  29
ATOM     29  C   UNL A   1      43.445  22.328  27.145  1.00  0.00     0.042 C 
BRANCH  29  30
ATOM     30  C   UNL A   1      43.518  23.843  27.303  1.00  0.00     0.118 C 
BRANCH  30  31
ATOM     31  N   UNL A   1      43.140  24.558  26.090  1.00  0.00    -0.352 N 
ATOM     32  C   UNL A   1      42.401  25.705  25.934  1.00  0.00     0.251 C 
ATOM     33  H   UNL A   1      43.465  24.156  25.252  1.00  0.00     0.163 HD
ATOM     34  O   UNL A   1      42.043  26.046  24.808  1.00  0.00    -0.269 OA
BRANCH  32  35
ATOM     35  C   UNL A   1      42.022  26.516  27.111  1.00  0.00     0.039 A 
ATOM     36  C   UNL A   1      40.995  26.065  27.945  1.00  0.00     0.014 A 
ATOM     37  C   UNL A   1      42.668  27.724  27.384  1.00  0.00     0.014 A 
ATOM     38  C   UNL A   1      40.670  26.788  29.097  1.00  0.00     0.010 A 
ATOM     39  C   UNL A   1      42.394  28.402  28.567  1.00  0.00     0.010 A 
ATOM     40  C   UNL A   1      41.393  27.942  29.437  1.00  0.00    -0.014 A 
BRANCH  40  41
ATOM     41  C   UNL A   1      41.124  28.704  30.684  1.00  0.00     0.031 A 
ATOM     42  C   UNL A   1      40.020  29.728  30.704  1.00  0.00     0.074 A 
ATOM     43  C   UNL A   1      41.921  28.547  31.759  1.00  0.00     0.049 A 
ATOM     44  N   UNL A   1      39.733  30.614  31.622  1.00  0.00    -0.248 NA
ATOM     45  C   UNL A   1      39.139  29.776  29.525  1.00  0.00     0.031 C 
ATOM     46  C   UNL A   1      43.032  27.597  31.864  1.00  0.00     0.029 A 
ATOM     47  N   UNL A   1      41.932  29.200  32.968  1.00  0.00    -0.354 N 
ATOM     48  C   UNL A   1      38.657  31.340  31.122  1.00  0.00     0.074 A 
ATOM     49  C   UNL A   1      38.369  30.818  29.805  1.00  0.00     0.031 C 
ATOM     50  C   UNL A   1      43.606  27.721  33.072  1.00  0.00     0.029 A 
ATOM     51  C   UNL A   1      42.942  28.792  33.808  1.00  0.00     0.049 A 
ATOM     52  H   UNL A   1      41.277  29.894  33.209  1.00  0.00     0.167 HD
ATOM     53  C   UNL A   1      37.960  32.338  31.715  1.00  0.00     0.031 A 
ATOM     54  C   UNL A   1      43.307  29.245  35.024  1.00  0.00     0.031 A 
ATOM     55  C   UNL A   1      38.238  32.843  33.032  1.00  0.00     0.049 A 
ATOM     56  C   UNL A   1      42.535  30.379  35.647  1.00  0.00     0.074 A 
ATOM     57  C   UNL A   1      37.574  33.837  33.730  1.00  0.00     0.029 A 
ATOM     58  N   UNL A   1      39.255  32.387  33.856  1.00  0.00    -0.354 N 
ATOM     59  N   UNL A   1      41.505  31.036  35.167  1.00  0.00    -0.248 NA
ATOM     60  C   UNL A   1      42.969  30.828  36.978  1.00  0.00     0.031 C 
ATOM     61  C   UNL A   1      38.212  34.006  34.962  1.00  0.00     0.029 A 
ATOM     62  C   UNL A   1      39.237  33.080  35.053  1.00  0.00     0.049 A 
ATOM     63  H   UNL A   1      39.894  31.674  33.624  1.00  0.00     0.167 HD
ATOM     64  C   UNL A   1      41.142  31.942  36.159  1.00  0.00     0.074 A 
ATOM     65  C   UNL A   1      42.058  31.749  37.263  1.00  0.00     0.031 C 
ATOM     66  C   UNL A   1      40.135  32.850  36.156  1.00  0.00     0.031 A 
BRANCH  53  67
ATOM     67  C   UNL A   1      36.820  32.949  30.944  1.00  0.00    -0.014 A 
ATOM     68  C   UNL A   1      35.493  32.552  31.185  1.00  0.00     0.010 A 
ATOM     69  C   UNL A   1      37.070  33.974  30.014  1.00  0.00     0.010 A 
ATOM     70  C   UNL A   1      34.438  33.146  30.488  1.00  0.00     0.020 A 
ATOM     71  C   UNL A   1      36.015  34.591  29.334  1.00  0.00     0.020 A 
ATOM     72  C   UNL A   1      34.706  34.163  29.567  1.00  0.00     0.054 A 
BRANCH  72  73
ATOM     73  S   UNL A   1      33.313  34.944  28.710  1.00  0.00     0.124 S 
ATOM     74  O   UNL A   1      32.509  35.434  29.827  1.00  0.00    -0.237 OA
ATOM     75  O   UNL A   1      33.966  35.975  27.908  1.00  0.00    -0.237 OA
ATOM     76  O   UNL A   1      32.716  33.851  27.947  1.00  0.00    -0.744 OA
ENDBRANCH  72  73
ENDBRANCH  53  67
BRANCH  54  77
ATOM     77  C   UNL A   1      44.458  28.633  35.744  1.00  0.00    -0.014 A 
ATOM     78  C   UNL A   1      45.776  29.009  35.426  1.00  0.00     0.010 A 
ATOM     79  C   UNL A   1      44.248  27.652  36.729  1.00  0.00     0.010 A 
ATOM     80  C   UNL A   1      46.862  28.388  36.051  1.00  0.00     0.020 A 
ATOM     81  C   UNL A   1      45.330  27.050  37.379  1.00  0.00     0.020 A 
ATOM     82  C   UNL A   1      46.631  27.408  37.021  1.00  0.00     0.054 A 
BRANCH  82  83
ATOM     83  S   UNL A   1      48.054  26.624  37.828  1.00  0.00     0.124 S 
ATOM     84  O   UNL A   1      47.409  25.808  38.852  1.00  0.00    -0.237 OA
ATOM     85  O   UNL A   1      48.675  25.887  36.730  1.00  0.00    -0.237 OA
ATOM     86  O   UNL A   1      48.831  27.757  38.325  1.00  0.00    -0.744 OA
ENDBRANCH  82  83
ENDBRANCH  54  77
BRANCH  66  87
ATOM     87  C   UNL A   1      39.910  33.653  37.408  1.00  0.00    -0.014 A 
ATOM     88  C   UNL A   1      40.657  34.810  37.685  1.00  0.00     0.010 A 
ATOM     89  C   UNL A   1      38.867  33.282  38.279  1.00  0.00     0.010 A 
ATOM     90  C   UNL A   1      40.375  35.574  38.821  1.00  0.00     0.020 A 
ATOM     91  C   UNL A   1      38.566  34.058  39.401  1.00  0.00     0.020 A 
ATOM     92  C   UNL A   1      39.328  35.196  39.669  1.00  0.00     0.054 A 
BRANCH  92  93
ATOM     93  S   UNL A   1      38.935  36.245  41.096  1.00  0.00     0.124 S 
ATOM     94  O   UNL A   1      37.837  35.513  41.719  1.00  0.00    -0.237 OA
ATOM     95  O   UNL A   1      40.190  36.253  41.844  1.00  0.00    -0.237 OA
ATOM     96  O   UNL A   1      38.569  37.525  40.494  1.00  0.00    -0.744 OA
ENDBRANCH  92  93
ENDBRANCH  66  87
ENDBRANCH  40  41
ENDBRANCH  32  35
ENDBRANCH  30  31
ENDBRANCH  29  30
ENDBRANCH   1  29
TORSDOF 17
ENDMDL
