MODEL 1
REMARK VINA RESULT:     -10.2      0.000      0.000
REMARK SMILES O=C(NCCCNC(=O)[C@H]1CC[C@@H]2CCCC[C@H]2[NH2+]1)c1ccc(-c2c3nc(c(-c4ccc(S(=O)(=O)[O-])cc4)c4ccc([nH]4)c(-c4ccc(S(=O)(=O)[O-])cc4)c4nc(c(-c5ccc(S(=O)(=O)[O-])cc5)c5ccc2[nH]5)C=C4)C=C3)cc1
REMARK SMILES IDX 1 1 2 2 3 3 20 5 21 6 79 7 22 8 78 9 23 10 24 11 25 12 72 13
REMARK SMILES IDX 26 14 77 15 71 16 73 17 27 18 76 19 70 20 69 21 28 23 58 24
REMARK SMILES IDX 39 25 57 26 40 27 43 28 56 29 74 30 41 31 42 32 55 34 75 35
REMARK SMILES IDX 44 36 29 37 30 38 38 39 31 40 37 41 32 42 33 43 34 44 35 45
REMARK SMILES IDX 36 46 59 47 60 48 68 49 61 50 67 51 62 52 63 53 64 54 65 55
REMARK SMILES IDX 66 56 45 57 46 58 54 59 47 60 53 61 48 62 49 63 50 64 51 65
REMARK SMILES IDX 52 66 4 67 5 68 6 69 7 70 8 71 9 73 10 74 11 75 19 76 12 77
REMARK SMILES IDX 18 78 13 81 17 82 14 83 16 84 15 85
REMARK H PARENT 3 4 73 22 43 33 7 72 19 79 19 80
REMARK Flexibility Score: inf
ROOT
ATOM      1  O   UNL A   1      33.634  29.318  27.678  1.00  0.00    -0.269 OA
ATOM      2  C   UNL A   1      34.427  30.189  28.041  1.00  0.00     0.251 C 
ATOM      3  N   UNL A   1      33.993  31.480  28.184  1.00  0.00    -0.352 N 
ATOM      4  H   UNL A   1      33.015  31.595  28.170  1.00  0.00     0.163 HD
ENDROOT
BRANCH   2   5
ATOM      5  C   UNL A   1      35.838  29.843  28.310  1.00  0.00     0.039 A 
ATOM      6  C   UNL A   1      36.800  29.936  27.301  1.00  0.00     0.014 A 
ATOM      7  C   UNL A   1      36.209  29.459  29.601  1.00  0.00     0.014 A 
ATOM      8  C   UNL A   1      38.105  29.524  27.546  1.00  0.00     0.010 A 
ATOM      9  C   UNL A   1      37.537  29.126  29.867  1.00  0.00     0.010 A 
ATOM     10  C   UNL A   1      38.491  29.134  28.837  1.00  0.00    -0.014 A 
BRANCH  10  11
ATOM     11  C   UNL A   1      39.910  28.804  29.119  1.00  0.00     0.031 A 
ATOM     12  C   UNL A   1      40.842  29.836  29.685  1.00  0.00     0.074 A 
ATOM     13  C   UNL A   1      40.360  27.570  28.824  1.00  0.00     0.049 A 
ATOM     14  N   UNL A   1      42.125  29.740  29.925  1.00  0.00    -0.248 NA
ATOM     15  C   UNL A   1      40.262  31.146  30.016  1.00  0.00     0.031 C 
ATOM     16  C   UNL A   1      39.546  26.487  28.265  1.00  0.00     0.029 A 
ATOM     17  N   UNL A   1      41.611  27.021  28.937  1.00  0.00    -0.354 N 
ATOM     18  C   UNL A   1      42.514  30.985  30.406  1.00  0.00     0.074 A 
ATOM     19  C   UNL A   1      41.334  31.823  30.404  1.00  0.00     0.031 C 
ATOM     20  C   UNL A   1      40.315  25.404  28.091  1.00  0.00     0.029 A 
ATOM     21  C   UNL A   1      41.687  25.734  28.462  1.00  0.00     0.049 A 
ATOM     22  H   UNL A   1      42.380  27.501  29.322  1.00  0.00     0.167 HD
ATOM     23  C   UNL A   1      43.744  31.388  30.809  1.00  0.00     0.031 A 
ATOM     24  C   UNL A   1      42.744  24.917  28.299  1.00  0.00     0.031 A 
ATOM     25  C   UNL A   1      44.912  30.547  30.787  1.00  0.00     0.049 A 
ATOM     26  C   UNL A   1      44.106  25.395  28.711  1.00  0.00     0.074 A 
ATOM     27  C   UNL A   1      46.195  30.846  31.212  1.00  0.00     0.029 A 
ATOM     28  N   UNL A   1      44.947  29.249  30.298  1.00  0.00    -0.354 N 
ATOM     29  N   UNL A   1      44.447  26.557  29.215  1.00  0.00    -0.248 NA
ATOM     30  C   UNL A   1      45.221  24.456  28.543  1.00  0.00     0.031 C 
ATOM     31  C   UNL A   1      47.017  29.754  30.918  1.00  0.00     0.029 A 
ATOM     32  C   UNL A   1      46.235  28.746  30.377  1.00  0.00     0.049 A 
ATOM     33  H   UNL A   1      44.170  28.758  29.944  1.00  0.00     0.167 HD
ATOM     34  C   UNL A   1      45.815  26.482  29.446  1.00  0.00     0.074 A 
ATOM     35  C   UNL A   1      46.236  25.158  29.032  1.00  0.00     0.031 C 
ATOM     36  C   UNL A   1      46.641  27.425  29.961  1.00  0.00     0.031 A 
BRANCH  23  37
ATOM     37  C   UNL A   1      43.892  32.821  31.256  1.00  0.00    -0.014 A 
ATOM     38  C   UNL A   1      43.738  33.192  32.605  1.00  0.00     0.010 A 
ATOM     39  C   UNL A   1      44.197  33.814  30.307  1.00  0.00     0.010 A 
ATOM     40  C   UNL A   1      43.816  34.536  32.982  1.00  0.00     0.020 A 
ATOM     41  C   UNL A   1      44.307  35.155  30.686  1.00  0.00     0.020 A 
ATOM     42  C   UNL A   1      44.087  35.511  32.018  1.00  0.00     0.054 A 
BRANCH  42  43
ATOM     43  S   UNL A   1      44.146  37.250  32.528  1.00  0.00     0.124 S 
ATOM     44  O   UNL A   1      45.490  37.350  33.092  1.00  0.00    -0.237 OA
ATOM     45  O   UNL A   1      43.940  37.961  31.268  1.00  0.00    -0.237 OA
ATOM     46  O   UNL A   1      43.055  37.368  33.492  1.00  0.00    -0.744 OA
ENDBRANCH  42  43
ENDBRANCH  23  37
BRANCH  24  47
ATOM     47  C   UNL A   1      42.531  23.578  27.689  1.00  0.00    -0.014 A 
ATOM     48  C   UNL A   1      42.862  23.340  26.344  1.00  0.00     0.010 A 
ATOM     49  C   UNL A   1      42.083  22.506  28.485  1.00  0.00     0.010 A 
ATOM     50  C   UNL A   1      42.758  22.052  25.810  1.00  0.00     0.020 A 
ATOM     51  C   UNL A   1      42.006  21.214  27.964  1.00  0.00     0.020 A 
ATOM     52  C   UNL A   1      42.342  20.995  26.627  1.00  0.00     0.054 A 
BRANCH  52  53
ATOM     53  S   UNL A   1      42.316  19.317  25.939  1.00  0.00     0.124 S 
ATOM     54  O   UNL A   1      42.870  18.530  27.037  1.00  0.00    -0.237 OA
ATOM     55  O   UNL A   1      40.894  19.111  25.667  1.00  0.00    -0.237 OA
ATOM     56  O   UNL A   1      43.160  19.419  24.751  1.00  0.00    -0.744 OA
ENDBRANCH  52  53
ENDBRANCH  24  47
BRANCH  36  57
ATOM     57  C   UNL A   1      48.089  27.058  30.151  1.00  0.00    -0.014 A 
ATOM     58  C   UNL A   1      49.056  27.363  29.177  1.00  0.00     0.010 A 
ATOM     59  C   UNL A   1      48.500  26.492  31.373  1.00  0.00     0.010 A 
ATOM     60  C   UNL A   1      50.408  27.108  29.422  1.00  0.00     0.020 A 
ATOM     61  C   UNL A   1      49.853  26.261  31.631  1.00  0.00     0.020 A 
ATOM     62  C   UNL A   1      50.798  26.567  30.652  1.00  0.00     0.054 A 
BRANCH  62  63
ATOM     63  S   UNL A   1      52.567  26.336  30.982  1.00  0.00     0.124 S 
ATOM     64  O   UNL A   1      53.109  26.173  29.636  1.00  0.00    -0.237 OA
ATOM     65  O   UNL A   1      52.931  27.576  31.661  1.00  0.00    -0.237 OA
ATOM     66  O   UNL A   1      52.611  25.138  31.819  1.00  0.00    -0.744 OA
ENDBRANCH  62  63
ENDBRANCH  36  57
ENDBRANCH  10  11
ENDBRANCH   2   5
BRANCH   3  67
ATOM     67  C   UNL A   1      34.758  32.707  28.350  1.00  0.00     0.118 C 
BRANCH  67  68
ATOM     68  C   UNL A   1      33.877  33.888  28.738  1.00  0.00     0.042 C 
BRANCH  68  69
ATOM     69  C   UNL A   1      34.357  34.616  29.986  1.00  0.00     0.118 C 
BRANCH  69  70
ATOM     70  N   UNL A   1      33.747  34.078  31.191  1.00  0.00    -0.351 N 
ATOM     71  C   UNL A   1      34.333  33.403  32.227  1.00  0.00     0.278 C 
ATOM     72  H   UNL A   1      32.776  34.219  31.273  1.00  0.00     0.163 HD
ATOM     73  O   UNL A   1      33.603  32.933  33.098  1.00  0.00    -0.268 OA
BRANCH  71  74
ATOM     74  C   UNL A   1      35.868  33.278  32.233  1.00  0.00     0.272 C 
ATOM     75  C   UNL A   1      36.480  34.496  32.938  1.00  0.00     0.076 C 
ATOM     76  N   UNL A   1      36.299  32.040  32.915  1.00  0.00    -0.333 N 
ATOM     77  C   UNL A   1      38.001  34.404  32.952  1.00  0.00     0.016 C 
ATOM     78  C   UNL A   1      37.754  31.889  32.835  1.00  0.00     0.186 C 
ATOM     79  H   UNL A   1      35.854  31.239  32.468  1.00  0.00     0.347 HD
ATOM     80  H   UNL A   1      36.028  32.093  33.896  1.00  0.00     0.347 HD
ATOM     81  C   UNL A   1      38.443  33.067  33.554  1.00  0.00     0.048 C 
ATOM     82  C   UNL A   1      38.183  30.554  33.457  1.00  0.00     0.065 C 
ATOM     83  C   UNL A   1      39.967  32.918  33.505  1.00  0.00     0.010 C 
ATOM     84  C   UNL A   1      39.704  30.404  33.437  1.00  0.00     0.006 C 
ATOM     85  C   UNL A   1      40.403  31.584  34.106  1.00  0.00     0.001 C 
ENDBRANCH  71  74
ENDBRANCH  69  70
ENDBRANCH  68  69
ENDBRANCH  67  68
ENDBRANCH   3  67
TORSDOF 13
ENDMDL
MODEL 2
REMARK VINA RESULT:     -10.0      0.943      8.608
REMARK SMILES O=C(NCCCNC(=O)[C@H]1CC[C@@H]2CCCC[C@H]2[NH2+]1)c1ccc(-c2c3nc(c(-c4ccc(S(=O)(=O)[O-])cc4)c4ccc([nH]4)c(-c4ccc(S(=O)(=O)[O-])cc4)c4nc(c(-c5ccc(S(=O)(=O)[O-])cc5)c5ccc2[nH]5)C=C4)C=C3)cc1
REMARK SMILES IDX 1 1 2 2 3 3 20 5 21 6 79 7 22 8 78 9 23 10 24 11 25 12 72 13
REMARK SMILES IDX 26 14 77 15 71 16 73 17 27 18 76 19 70 20 69 21 28 23 58 24
REMARK SMILES IDX 39 25 57 26 40 27 43 28 56 29 74 30 41 31 42 32 55 34 75 35
REMARK SMILES IDX 44 36 29 37 30 38 38 39 31 40 37 41 32 42 33 43 34 44 35 45
REMARK SMILES IDX 36 46 59 47 60 48 68 49 61 50 67 51 62 52 63 53 64 54 65 55
REMARK SMILES IDX 66 56 45 57 46 58 54 59 47 60 53 61 48 62 49 63 50 64 51 65
REMARK SMILES IDX 52 66 4 67 5 68 6 69 7 70 8 71 9 73 10 74 11 75 19 76 12 77
REMARK SMILES IDX 18 78 13 81 17 82 14 83 16 84 15 85
REMARK H PARENT 3 4 73 22 43 33 7 72 19 79 19 80
REMARK Flexibility Score: inf
ROOT
ATOM      1  O   UNL A   1      33.744  29.356  27.380  1.00  0.00    -0.269 OA
ATOM      2  C   UNL A   1      34.483  30.217  27.858  1.00  0.00     0.251 C 
ATOM      3  N   UNL A   1      33.982  31.464  28.124  1.00  0.00    -0.352 N 
ATOM      4  H   UNL A   1      33.001  31.535  28.092  1.00  0.00     0.163 HD
ENDROOT
BRANCH   2   5
ATOM      5  C   UNL A   1      35.901  29.909  28.134  1.00  0.00     0.039 A 
ATOM      6  C   UNL A   1      36.879  30.120  27.157  1.00  0.00     0.014 A 
ATOM      7  C   UNL A   1      36.262  29.442  29.399  1.00  0.00     0.014 A 
ATOM      8  C   UNL A   1      38.195  29.743  27.401  1.00  0.00     0.010 A 
ATOM      9  C   UNL A   1      37.598  29.144  29.670  1.00  0.00     0.010 A 
ATOM     10  C   UNL A   1      38.571  29.270  28.666  1.00  0.00    -0.014 A 
BRANCH  10  11
ATOM     11  C   UNL A   1      39.996  28.978  28.956  1.00  0.00     0.031 A 
ATOM     12  C   UNL A   1      40.597  27.647  28.606  1.00  0.00     0.074 A 
ATOM     13  C   UNL A   1      40.737  29.916  29.575  1.00  0.00     0.049 A 
ATOM     14  N   UNL A   1      41.800  27.199  28.852  1.00  0.00    -0.248 NA
ATOM     15  C   UNL A   1      39.730  26.693  27.897  1.00  0.00     0.031 C 
ATOM     16  C   UNL A   1      40.259  31.245  29.969  1.00  0.00     0.029 A 
ATOM     17  N   UNL A   1      42.042  29.895  29.996  1.00  0.00    -0.354 N 
ATOM     18  C   UNL A   1      41.830  25.901  28.356  1.00  0.00     0.074 A 
ATOM     19  C   UNL A   1      40.516  25.628  27.814  1.00  0.00     0.031 C 
ATOM     20  C   UNL A   1      41.257  31.911  30.565  1.00  0.00     0.029 A 
ATOM     21  C   UNL A   1      42.421  31.038  30.657  1.00  0.00     0.049 A 
ATOM     22  H   UNL A   1      42.649  29.135  29.839  1.00  0.00     0.167 HD
ATOM     23  C   UNL A   1      42.860  25.019  28.356  1.00  0.00     0.031 A 
ATOM     24  C   UNL A   1      43.561  31.343  31.305  1.00  0.00     0.031 A 
ATOM     25  C   UNL A   1      44.157  25.299  28.917  1.00  0.00     0.049 A 
ATOM     26  C   UNL A   1      44.676  30.339  31.332  1.00  0.00     0.074 A 
ATOM     27  C   UNL A   1      45.279  24.490  28.932  1.00  0.00     0.029 A 
ATOM     28  N   UNL A   1      44.500  26.470  29.578  1.00  0.00    -0.354 N 
ATOM     29  N   UNL A   1      44.706  29.136  30.811  1.00  0.00    -0.248 NA
ATOM     30  C   UNL A   1      45.909  30.731  32.023  1.00  0.00     0.031 C 
ATOM     31  C   UNL A   1      46.278  25.144  29.660  1.00  0.00     0.029 A 
ATOM     32  C   UNL A   1      45.804  26.392  30.036  1.00  0.00     0.049 A 
ATOM     33  H   UNL A   1      43.902  27.243  29.705  1.00  0.00     0.167 HD
ATOM     34  C   UNL A   1      45.971  28.633  31.091  1.00  0.00     0.074 A 
ATOM     35  C   UNL A   1      46.677  29.667  31.824  1.00  0.00     0.031 C 
ATOM     36  C   UNL A   1      46.497  27.428  30.764  1.00  0.00     0.031 A 
BRANCH  23  37
ATOM     37  C   UNL A   1      42.602  23.651  27.779  1.00  0.00    -0.014 A 
ATOM     38  C   UNL A   1      42.047  22.616  28.555  1.00  0.00     0.010 A 
ATOM     39  C   UNL A   1      42.916  23.397  26.431  1.00  0.00     0.010 A 
ATOM     40  C   UNL A   1      41.879  21.338  28.014  1.00  0.00     0.020 A 
ATOM     41  C   UNL A   1      42.719  22.128  25.877  1.00  0.00     0.020 A 
ATOM     42  C   UNL A   1      42.228  21.099  26.682  1.00  0.00     0.054 A 
BRANCH  42  43
ATOM     43  S   UNL A   1      42.033  19.423  26.016  1.00  0.00     0.124 S 
ATOM     44  O   UNL A   1      42.850  19.486  24.806  1.00  0.00    -0.237 OA
ATOM     45  O   UNL A   1      42.566  18.587  27.089  1.00  0.00    -0.237 OA
ATOM     46  O   UNL A   1      40.596  19.302  25.791  1.00  0.00    -0.744 OA
ENDBRANCH  42  43
ENDBRANCH  23  37
BRANCH  24  47
ATOM     47  C   UNL A   1      43.666  32.655  31.997  1.00  0.00    -0.014 A 
ATOM     48  C   UNL A   1      44.008  33.818  31.285  1.00  0.00     0.010 A 
ATOM     49  C   UNL A   1      43.327  32.759  33.360  1.00  0.00     0.010 A 
ATOM     50  C   UNL A   1      43.999  35.062  31.923  1.00  0.00     0.020 A 
ATOM     51  C   UNL A   1      43.289  34.003  33.992  1.00  0.00     0.020 A 
ATOM     52  C   UNL A   1      43.628  35.148  33.269  1.00  0.00     0.054 A 
BRANCH  52  53
ATOM     53  S   UNL A   1      43.523  36.785  34.044  1.00  0.00     0.124 S 
ATOM     54  O   UNL A   1      44.614  36.732  35.014  1.00  0.00    -0.237 OA
ATOM     55  O   UNL A   1      43.728  37.683  32.910  1.00  0.00    -0.237 OA
ATOM     56  O   UNL A   1      42.178  36.810  34.614  1.00  0.00    -0.744 OA
ENDBRANCH  52  53
ENDBRANCH  24  47
BRANCH  36  57
ATOM     57  C   UNL A   1      47.925  27.158  31.156  1.00  0.00    -0.014 A 
ATOM     58  C   UNL A   1      48.244  26.512  32.363  1.00  0.00     0.010 A 
ATOM     59  C   UNL A   1      48.956  27.465  30.248  1.00  0.00     0.010 A 
ATOM     60  C   UNL A   1      49.570  26.179  32.654  1.00  0.00     0.020 A 
ATOM     61  C   UNL A   1      50.278  27.109  30.524  1.00  0.00     0.020 A 
ATOM     62  C   UNL A   1      50.577  26.471  31.728  1.00  0.00     0.054 A 
BRANCH  62  63
ATOM     63  S   UNL A   1      52.274  25.941  32.087  1.00  0.00     0.124 S 
ATOM     64  O   UNL A   1      52.556  26.647  33.335  1.00  0.00    -0.237 OA
ATOM     65  O   UNL A   1      52.140  24.491  32.201  1.00  0.00    -0.237 OA
ATOM     66  O   UNL A   1      53.035  26.401  30.927  1.00  0.00    -0.744 OA
ENDBRANCH  62  63
ENDBRANCH  36  57
ENDBRANCH  10  11
ENDBRANCH   2   5
BRANCH   3  67
ATOM     67  C   UNL A   1      34.682  32.700  28.445  1.00  0.00     0.118 C 
BRANCH  67  68
ATOM     68  C   UNL A   1      34.369  33.190  29.853  1.00  0.00     0.042 C 
BRANCH  68  69
ATOM     69  C   UNL A   1      34.886  32.263  30.944  1.00  0.00     0.118 C 
BRANCH  69  70
ATOM     70  N   UNL A   1      34.712  32.840  32.267  1.00  0.00    -0.351 N 
ATOM     71  C   UNL A   1      35.576  32.836  33.329  1.00  0.00     0.278 C 
ATOM     72  H   UNL A   1      33.854  33.296  32.421  1.00  0.00     0.163 HD
ATOM     73  O   UNL A   1      35.175  33.286  34.402  1.00  0.00    -0.268 OA
BRANCH  71  74
ATOM     74  C   UNL A   1      36.990  32.270  33.110  1.00  0.00     0.272 C 
ATOM     75  C   UNL A   1      37.945  32.854  34.160  1.00  0.00     0.076 C 
ATOM     76  N   UNL A   1      36.994  30.794  33.202  1.00  0.00    -0.333 N 
ATOM     77  C   UNL A   1      39.358  32.317  33.964  1.00  0.00     0.016 C 
ATOM     78  C   UNL A   1      38.327  30.264  32.904  1.00  0.00     0.186 C 
ATOM     79  H   UNL A   1      36.326  30.416  32.532  1.00  0.00     0.347 HD
ATOM     80  H   UNL A   1      36.737  30.522  34.150  1.00  0.00     0.347 HD
ATOM     81  C   UNL A   1      39.342  30.786  33.942  1.00  0.00     0.048 C 
ATOM     82  C   UNL A   1      38.299  28.731  32.902  1.00  0.00     0.065 C 
ATOM     83  C   UNL A   1      40.740  30.224  33.665  1.00  0.00     0.010 C 
ATOM     84  C   UNL A   1      39.693  28.158  32.652  1.00  0.00     0.006 C 
ATOM     85  C   UNL A   1      40.720  28.698  33.644  1.00  0.00     0.001 C 
ENDBRANCH  71  74
ENDBRANCH  69  70
ENDBRANCH  68  69
ENDBRANCH  67  68
ENDBRANCH   3  67
TORSDOF 13
ENDMDL
MODEL 3
REMARK VINA RESULT:      -9.8      3.305      5.829
REMARK SMILES O=C(NCCCNC(=O)[C@H]1CC[C@@H]2CCCC[C@H]2[NH2+]1)c1ccc(-c2c3nc(c(-c4ccc(S(=O)(=O)[O-])cc4)c4ccc([nH]4)c(-c4ccc(S(=O)(=O)[O-])cc4)c4nc(c(-c5ccc(S(=O)(=O)[O-])cc5)c5ccc2[nH]5)C=C4)C=C3)cc1
REMARK SMILES IDX 1 1 2 2 3 3 20 5 21 6 79 7 22 8 78 9 23 10 24 11 25 12 72 13
REMARK SMILES IDX 26 14 77 15 71 16 73 17 27 18 76 19 70 20 69 21 28 23 58 24
REMARK SMILES IDX 39 25 57 26 40 27 43 28 56 29 74 30 41 31 42 32 55 34 75 35
REMARK SMILES IDX 44 36 29 37 30 38 38 39 31 40 37 41 32 42 33 43 34 44 35 45
REMARK SMILES IDX 36 46 59 47 60 48 68 49 61 50 67 51 62 52 63 53 64 54 65 55
REMARK SMILES IDX 66 56 45 57 46 58 54 59 47 60 53 61 48 62 49 63 50 64 51 65
REMARK SMILES IDX 52 66 4 67 5 68 6 69 7 70 8 71 9 73 10 74 11 75 19 76 12 77
REMARK SMILES IDX 18 78 13 81 17 82 14 83 16 84 15 85
REMARK H PARENT 3 4 73 22 43 33 7 72 19 79 19 80
REMARK Flexibility Score: inf
ROOT
ATOM      1  O   UNL A   1      33.877  31.543  28.285  1.00  0.00    -0.269 OA
ATOM      2  C   UNL A   1      34.308  30.437  27.956  1.00  0.00     0.251 C 
ATOM      3  N   UNL A   1      33.479  29.552  27.319  1.00  0.00    -0.352 N 
ATOM      4  H   UNL A   1      32.634  29.935  26.989  1.00  0.00     0.163 HD
ENDROOT
BRANCH   2   5
ATOM      5  C   UNL A   1      35.706  30.065  28.257  1.00  0.00     0.039 A 
ATOM      6  C   UNL A   1      36.695  30.154  27.272  1.00  0.00     0.014 A 
ATOM      7  C   UNL A   1      36.038  29.661  29.551  1.00  0.00     0.014 A 
ATOM      8  C   UNL A   1      37.986  29.717  27.546  1.00  0.00     0.010 A 
ATOM      9  C   UNL A   1      37.354  29.303  29.847  1.00  0.00     0.010 A 
ATOM     10  C   UNL A   1      38.333  29.307  28.841  1.00  0.00    -0.014 A 
BRANCH  10  11
ATOM     11  C   UNL A   1      39.738  28.951  29.155  1.00  0.00     0.031 A 
ATOM     12  C   UNL A   1      40.678  29.965  29.739  1.00  0.00     0.074 A 
ATOM     13  C   UNL A   1      40.171  27.707  28.871  1.00  0.00     0.049 A 
ATOM     14  N   UNL A   1      41.953  29.846  30.007  1.00  0.00    -0.248 NA
ATOM     15  C   UNL A   1      40.116  31.287  30.055  1.00  0.00     0.031 C 
ATOM     16  C   UNL A   1      39.349  26.639  28.295  1.00  0.00     0.029 A 
ATOM     17  N   UNL A   1      41.409  27.135  29.012  1.00  0.00    -0.354 N 
ATOM     18  C   UNL A   1      42.355  31.083  30.495  1.00  0.00     0.074 A 
ATOM     19  C   UNL A   1      41.192  31.944  30.466  1.00  0.00     0.031 C 
ATOM     20  C   UNL A   1      40.101  25.542  28.141  1.00  0.00     0.029 A 
ATOM     21  C   UNL A   1      41.470  25.846  28.540  1.00  0.00     0.049 A 
ATOM     22  H   UNL A   1      42.178  27.601  29.413  1.00  0.00     0.167 HD
ATOM     23  C   UNL A   1      43.583  31.464  30.925  1.00  0.00     0.031 A 
ATOM     24  C   UNL A   1      42.516  25.008  28.402  1.00  0.00     0.031 A 
ATOM     25  C   UNL A   1      44.736  30.601  30.929  1.00  0.00     0.049 A 
ATOM     26  C   UNL A   1      43.876  25.461  28.843  1.00  0.00     0.074 A 
ATOM     27  C   UNL A   1      46.014  30.876  31.381  1.00  0.00     0.029 A 
ATOM     28  N   UNL A   1      44.756  29.301  30.442  1.00  0.00    -0.354 N 
ATOM     29  N   UNL A   1      44.229  26.617  29.352  1.00  0.00    -0.248 NA
ATOM     30  C   UNL A   1      44.977  24.501  28.701  1.00  0.00     0.031 C 
ATOM     31  C   UNL A   1      46.822  29.768  31.107  1.00  0.00     0.029 A 
ATOM     32  C   UNL A   1      46.032  28.774  30.551  1.00  0.00     0.049 A 
ATOM     33  H   UNL A   1      43.978  28.824  30.073  1.00  0.00     0.167 HD
ATOM     34  C   UNL A   1      45.590  26.517  29.614  1.00  0.00     0.074 A 
ATOM     35  C   UNL A   1      45.995  25.184  29.211  1.00  0.00     0.031 C 
ATOM     36  C   UNL A   1      46.422  27.445  30.146  1.00  0.00     0.031 A 
BRANCH  23  37
ATOM     37  C   UNL A   1      43.749  32.894  31.372  1.00  0.00    -0.014 A 
ATOM     38  C   UNL A   1      43.586  33.269  32.719  1.00  0.00     0.010 A 
ATOM     39  C   UNL A   1      44.080  33.882  30.426  1.00  0.00     0.010 A 
ATOM     40  C   UNL A   1      43.681  34.612  33.097  1.00  0.00     0.020 A 
ATOM     41  C   UNL A   1      44.208  35.222  30.806  1.00  0.00     0.020 A 
ATOM     42  C   UNL A   1      43.978  35.582  32.135  1.00  0.00     0.054 A 
BRANCH  42  43
ATOM     43  S   UNL A   1      44.058  37.320  32.645  1.00  0.00     0.124 S 
ATOM     44  O   UNL A   1      43.794  38.013  31.387  1.00  0.00    -0.237 OA
ATOM     45  O   UNL A   1      42.997  37.410  33.646  1.00  0.00    -0.237 OA
ATOM     46  O   UNL A   1      45.415  37.468  33.165  1.00  0.00    -0.744 OA
ENDBRANCH  42  43
ENDBRANCH  23  37
BRANCH  24  47
ATOM     47  C   UNL A   1      42.290  23.673  27.789  1.00  0.00    -0.014 A 
ATOM     48  C   UNL A   1      42.429  23.485  26.403  1.00  0.00     0.010 A 
ATOM     49  C   UNL A   1      42.028  22.559  28.610  1.00  0.00     0.010 A 
ATOM     50  C   UNL A   1      42.320  22.205  25.852  1.00  0.00     0.020 A 
ATOM     51  C   UNL A   1      41.947  21.275  28.066  1.00  0.00     0.020 A 
ATOM     52  C   UNL A   1      42.092  21.107  26.688  1.00  0.00     0.054 A 
BRANCH  52  53
ATOM     53  S   UNL A   1      42.059  19.446  25.960  1.00  0.00     0.124 S 
ATOM     54  O   UNL A   1      42.593  18.628  27.046  1.00  0.00    -0.237 OA
ATOM     55  O   UNL A   1      40.639  19.260  25.667  1.00  0.00    -0.237 OA
ATOM     56  O   UNL A   1      42.919  19.568  24.786  1.00  0.00    -0.744 OA
ENDBRANCH  52  53
ENDBRANCH  24  47
BRANCH  36  57
ATOM     57  C   UNL A   1      47.859  27.051  30.367  1.00  0.00    -0.014 A 
ATOM     58  C   UNL A   1      48.878  27.480  29.500  1.00  0.00     0.010 A 
ATOM     59  C   UNL A   1      48.201  26.325  31.524  1.00  0.00     0.010 A 
ATOM     60  C   UNL A   1      50.215  27.189  29.787  1.00  0.00     0.020 A 
ATOM     61  C   UNL A   1      49.537  26.056  31.827  1.00  0.00     0.020 A 
ATOM     62  C   UNL A   1      50.536  26.487  30.953  1.00  0.00     0.054 A 
BRANCH  62  63
ATOM     63  S   UNL A   1      52.284  26.207  31.351  1.00  0.00     0.124 S 
ATOM     64  O   UNL A   1      52.631  27.428  32.074  1.00  0.00    -0.237 OA
ATOM     65  O   UNL A   1      52.238  24.990  32.157  1.00  0.00    -0.237 OA
ATOM     66  O   UNL A   1      52.919  26.058  30.043  1.00  0.00    -0.744 OA
ENDBRANCH  62  63
ENDBRANCH  36  57
ENDBRANCH  10  11
ENDBRANCH   2   5
BRANCH   3  67
ATOM     67  C   UNL A   1      33.659  28.131  27.056  1.00  0.00     0.118 C 
BRANCH  67  68
ATOM     68  C   UNL A   1      33.866  27.842  25.574  1.00  0.00     0.042 C 
BRANCH  68  69
ATOM     69  C   UNL A   1      33.216  26.543  25.117  1.00  0.00     0.118 C 
BRANCH  69  70
ATOM     70  N   UNL A   1      32.349  25.985  26.142  1.00  0.00    -0.351 N 
ATOM     71  C   UNL A   1      32.135  24.674  26.469  1.00  0.00     0.278 C 
ATOM     72  H   UNL A   1      31.846  26.642  26.675  1.00  0.00     0.163 HD
ATOM     73  O   UNL A   1      31.264  24.419  27.300  1.00  0.00    -0.268 OA
BRANCH  71  74
ATOM     74  C   UNL A   1      32.998  23.604  25.775  1.00  0.00     0.272 C 
ATOM     75  C   UNL A   1      34.238  23.311  26.631  1.00  0.00     0.076 C 
ATOM     76  N   UNL A   1      32.235  22.357  25.564  1.00  0.00    -0.333 N 
ATOM     77  C   UNL A   1      35.119  22.260  25.965  1.00  0.00     0.016 C 
ATOM     78  C   UNL A   1      33.039  21.381  24.824  1.00  0.00     0.186 C 
ATOM     79  H   UNL A   1      31.391  22.567  25.031  1.00  0.00     0.347 HD
ATOM     80  H   UNL A   1      31.991  21.962  26.471  1.00  0.00     0.347 HD
ATOM     81  C   UNL A   1      34.294  21.012  25.640  1.00  0.00     0.048 C 
ATOM     82  C   UNL A   1      32.206  20.129  24.521  1.00  0.00     0.065 C 
ATOM     83  C   UNL A   1      35.139  19.972  24.897  1.00  0.00     0.010 C 
ATOM     84  C   UNL A   1      33.044  19.074  23.802  1.00  0.00     0.006 C 
ATOM     85  C   UNL A   1      34.314  18.728  24.576  1.00  0.00     0.001 C 
ENDBRANCH  71  74
ENDBRANCH  69  70
ENDBRANCH  68  69
ENDBRANCH  67  68
ENDBRANCH   3  67
TORSDOF 13
ENDMDL
