MODEL 1
REMARK VINA RESULT:     -10.5      0.000      0.000
REMARK SMILES O=C(C[C@H]1C[N@@H+](CCSc2ccccc2F)CCO1)NCCCNC(=O)c1ccc(-c2c3nc(c(-c4ccc(S(=O)(=O)[O-])cc4)c4ccc([nH]4)c(-c4ccc(S(=O)(=O)[O-])cc4)c4nc(c(-c5ccc(S(=O)(=O)[O-])cc5)c5ccc2[nH]5)C=C4)C=C3)cc1
REMARK SMILES IDX 21 1 20 2 1 3 2 4 3 6 4 7 5 8 19 9 6 10 18 11 17 12 7 14
REMARK SMILES IDX 8 15 9 16 10 17 11 18 15 19 12 20 14 21 16 22 13 23 22 24
REMARK SMILES IDX 23 25 24 26 25 27 26 29 27 30 28 31 86 32 29 33 85 34 30 35
REMARK SMILES IDX 31 36 32 37 79 38 33 39 84 40 78 41 80 42 34 43 83 44 77 45
REMARK SMILES IDX 76 46 35 48 65 49 46 50 64 51 47 52 50 53 63 54 81 55 48 56
REMARK SMILES IDX 49 57 62 59 82 60 51 61 36 62 37 63 45 64 38 65 44 66 39 67
REMARK SMILES IDX 40 68 41 69 42 70 43 71 66 72 67 73 75 74 68 75 74 76 69 77
REMARK SMILES IDX 70 78 71 79 72 80 73 81 52 82 53 83 61 84 54 85 60 86 55 87
REMARK SMILES IDX 56 88 57 89 58 90 59 91
REMARK H PARENT 20 5 6 13 24 28 80 47 50 58
REMARK Flexibility Score: inf
ROOT
ATOM      1  C   UNL A   1      31.333  27.172  26.555  1.00  0.00     0.117 C 
ENDROOT
BRANCH   1   2
ATOM      2  N   UNL A   1      32.124  26.076  26.035  1.00  0.00    -0.356 N 
ATOM      3  O   UNL A   1      31.127  24.403  27.256  1.00  0.00    -0.275 OA
ATOM      4  C   UNL A   1      32.035  24.797  26.532  1.00  0.00     0.222 C 
ATOM      5  H   UNL A   1      32.750  26.253  25.297  1.00  0.00     0.163 HD
BRANCH   4   6
ATOM      6  C   UNL A   1      33.243  23.944  26.241  1.00  0.00     0.138 C 
BRANCH   6   7
ATOM      7  C   UNL A   1      33.084  22.703  25.366  1.00  0.00     0.182 C 
ATOM      8  C   UNL A   1      31.977  22.863  24.282  1.00  0.00     0.295 C 
ATOM      9  O   UNL A   1      34.315  22.133  24.893  1.00  0.00    -0.366 OA
ATOM     10  N   UNL A   1      32.425  23.335  22.963  1.00  0.00    -0.330 N 
ATOM     11  C   UNL A   1      34.716  22.627  23.609  1.00  0.00     0.222 C 
ATOM     12  C   UNL A   1      33.572  22.522  22.603  1.00  0.00     0.291 C 
ATOM     13  H   UNL A   1      31.694  23.191  22.267  1.00  0.00     0.348 HD
BRANCH  10  14
ATOM     14  C   UNL A   1      32.535  24.797  22.795  1.00  0.00     0.273 C 
BRANCH  14  15
ATOM     15  C   UNL A   1      31.371  25.760  22.381  1.00  0.00     0.136 C 
BRANCH  15  16
ATOM     16  S   UNL A   1      31.563  27.594  22.593  1.00  0.00    -0.117 SA
BRANCH  16  17
ATOM     17  C   UNL A   1      29.889  28.198  22.827  1.00  0.00     0.043 A 
ATOM     18  C   UNL A   1      29.012  27.374  23.553  1.00  0.00     0.018 A 
ATOM     19  C   UNL A   1      29.382  29.393  22.307  1.00  0.00     0.136 A 
ATOM     20  C   UNL A   1      27.642  27.653  23.615  1.00  0.00     0.001 A 
ATOM     21  C   UNL A   1      28.023  29.708  22.416  1.00  0.00     0.040 A 
ATOM     22  F   UNL A   1      30.182  30.255  21.660  1.00  0.00    -0.206 F 
ATOM     23  C   UNL A   1      27.145  28.819  23.038  1.00  0.00     0.003 A 
ENDBRANCH  16  17
ENDBRANCH  15  16
ENDBRANCH  14  15
ENDBRANCH  10  14
ENDBRANCH   6   7
ENDBRANCH   4   6
ENDBRANCH   1   2
BRANCH   1  24
ATOM     24  C   UNL A   1      32.047  27.873  27.710  1.00  0.00     0.042 C 
BRANCH  24  25
ATOM     25  C   UNL A   1      33.366  28.542  27.326  1.00  0.00     0.118 C 
BRANCH  25  26
ATOM     26  N   UNL A   1      33.354  29.984  27.512  1.00  0.00    -0.352 N 
ATOM     27  C   UNL A   1      34.337  30.818  27.996  1.00  0.00     0.251 C 
ATOM     28  H   UNL A   1      32.516  30.431  27.254  1.00  0.00     0.163 HD
ATOM     29  O   UNL A   1      34.085  31.996  28.198  1.00  0.00    -0.269 OA
BRANCH  27  30
ATOM     30  C   UNL A   1      35.686  30.283  28.296  1.00  0.00     0.039 A 
ATOM     31  C   UNL A   1      36.648  30.289  27.283  1.00  0.00     0.014 A 
ATOM     32  C   UNL A   1      36.002  29.770  29.558  1.00  0.00     0.014 A 
ATOM     33  C   UNL A   1      37.945  29.844  27.553  1.00  0.00     0.010 A 
ATOM     34  C   UNL A   1      37.313  29.391  29.844  1.00  0.00     0.010 A 
ATOM     35  C   UNL A   1      38.299  29.425  28.846  1.00  0.00    -0.014 A 
BRANCH  35  36
ATOM     36  C   UNL A   1      39.697  29.038  29.174  1.00  0.00     0.031 A 
ATOM     37  C   UNL A   1      40.633  30.029  29.812  1.00  0.00     0.074 A 
ATOM     38  C   UNL A   1      40.142  27.808  28.845  1.00  0.00     0.049 A 
ATOM     39  N   UNL A   1      41.897  29.889  30.121  1.00  0.00    -0.248 NA
ATOM     40  C   UNL A   1      40.085  31.360  30.121  1.00  0.00     0.031 C 
ATOM     41  C   UNL A   1      39.345  26.767  28.190  1.00  0.00     0.029 A 
ATOM     42  N   UNL A   1      41.376  27.227  29.008  1.00  0.00    -0.354 N 
ATOM     43  C   UNL A   1      42.299  31.112  30.645  1.00  0.00     0.074 A 
ATOM     44  C   UNL A   1      41.158  31.998  30.567  1.00  0.00     0.031 C 
ATOM     45  C   UNL A   1      40.102  25.669  28.033  1.00  0.00     0.029 A 
ATOM     46  C   UNL A   1      41.447  25.939  28.532  1.00  0.00     0.049 A 
ATOM     47  H   UNL A   1      42.137  27.690  29.427  1.00  0.00     0.167 HD
ATOM     48  C   UNL A   1      43.501  31.462  31.162  1.00  0.00     0.031 A 
ATOM     49  C   UNL A   1      42.478  25.072  28.492  1.00  0.00     0.031 A 
ATOM     50  C   UNL A   1      44.633  30.576  31.243  1.00  0.00     0.049 A 
ATOM     51  C   UNL A   1      43.810  25.491  29.054  1.00  0.00     0.074 A 
ATOM     52  C   UNL A   1      45.878  30.821  31.798  1.00  0.00     0.029 A 
ATOM     53  N   UNL A   1      44.663  29.279  30.754  1.00  0.00    -0.354 N 
ATOM     54  N   UNL A   1      44.150  26.631  29.606  1.00  0.00    -0.248 NA
ATOM     55  C   UNL A   1      44.894  24.500  28.999  1.00  0.00     0.031 C 
ATOM     56  C   UNL A   1      46.678  29.693  31.592  1.00  0.00     0.029 A 
ATOM     57  C   UNL A   1      45.912  28.720  30.968  1.00  0.00     0.049 A 
ATOM     58  H   UNL A   1      43.907  28.823  30.317  1.00  0.00     0.167 HD
ATOM     59  C   UNL A   1      45.478  26.484  29.990  1.00  0.00     0.074 A 
ATOM     60  C   UNL A   1      45.874  25.141  29.621  1.00  0.00     0.031 C 
ATOM     61  C   UNL A   1      46.295  27.382  30.595  1.00  0.00     0.031 A 
BRANCH  48  62
ATOM     62  C   UNL A   1      43.659  32.871  31.673  1.00  0.00    -0.014 A 
ATOM     63  C   UNL A   1      44.145  33.898  30.843  1.00  0.00     0.010 A 
ATOM     64  C   UNL A   1      43.276  33.184  32.991  1.00  0.00     0.010 A 
ATOM     65  C   UNL A   1      44.287  35.199  31.332  1.00  0.00     0.020 A 
ATOM     66  C   UNL A   1      43.386  34.491  33.475  1.00  0.00     0.020 A 
ATOM     67  C   UNL A   1      43.909  35.487  32.647  1.00  0.00     0.054 A 
BRANCH  67  68
ATOM     68  S   UNL A   1      44.087  37.188  33.248  1.00  0.00     0.124 S 
ATOM     69  O   UNL A   1      45.500  37.231  33.617  1.00  0.00    -0.237 OA
ATOM     70  O   UNL A   1      43.720  37.981  32.079  1.00  0.00    -0.237 OA
ATOM     71  O   UNL A   1      43.150  37.261  34.367  1.00  0.00    -0.744 OA
ENDBRANCH  67  68
ENDBRANCH  48  62
BRANCH  49  72
ATOM     72  C   UNL A   1      42.288  23.716  27.905  1.00  0.00    -0.014 A 
ATOM     73  C   UNL A   1      42.572  23.478  26.549  1.00  0.00     0.010 A 
ATOM     74  C   UNL A   1      41.832  22.651  28.704  1.00  0.00     0.010 A 
ATOM     75  C   UNL A   1      42.386  22.207  25.998  1.00  0.00     0.020 A 
ATOM     76  C   UNL A   1      41.673  21.372  28.164  1.00  0.00     0.020 A 
ATOM     77  C   UNL A   1      41.940  21.161  26.810  1.00  0.00     0.054 A 
BRANCH  77  78
ATOM     78  S   UNL A   1      41.752  19.509  26.084  1.00  0.00     0.124 S 
ATOM     79  O   UNL A   1      42.237  18.648  27.158  1.00  0.00    -0.237 OA
ATOM     80  O   UNL A   1      40.318  19.443  25.817  1.00  0.00    -0.237 OA
ATOM     81  O   UNL A   1      42.598  19.562  24.893  1.00  0.00    -0.744 OA
ENDBRANCH  77  78
ENDBRANCH  49  72
BRANCH  61  82
ATOM     82  C   UNL A   1      47.692  26.932  30.934  1.00  0.00    -0.014 A 
ATOM     83  C   UNL A   1      48.766  27.148  30.052  1.00  0.00     0.010 A 
ATOM     84  C   UNL A   1      47.942  26.332  32.182  1.00  0.00     0.010 A 
ATOM     85  C   UNL A   1      50.058  26.745  30.400  1.00  0.00     0.020 A 
ATOM     86  C   UNL A   1      49.238  25.954  32.545  1.00  0.00     0.020 A 
ATOM     87  C   UNL A   1      50.285  26.151  31.645  1.00  0.00     0.054 A 
BRANCH  87  88
ATOM     88  S   UNL A   1      51.979  25.678  32.090  1.00  0.00     0.124 S 
ATOM     89  O   UNL A   1      51.858  24.233  32.259  1.00  0.00    -0.237 OA
ATOM     90  O   UNL A   1      52.749  26.113  30.926  1.00  0.00    -0.237 OA
ATOM     91  O   UNL A   1      52.238  26.430  33.316  1.00  0.00    -0.744 OA
ENDBRANCH  87  88
ENDBRANCH  61  82
ENDBRANCH  35  36
ENDBRANCH  27  30
ENDBRANCH  25  26
ENDBRANCH  24  25
ENDBRANCH   1  24
TORSDOF 18
ENDMDL
MODEL 2
REMARK VINA RESULT:     -10.5      4.489     10.154
REMARK SMILES O=C(C[C@H]1C[N@@H+](CCSc2ccccc2F)CCO1)NCCCNC(=O)c1ccc(-c2c3nc(c(-c4ccc(S(=O)(=O)[O-])cc4)c4ccc([nH]4)c(-c4ccc(S(=O)(=O)[O-])cc4)c4nc(c(-c5ccc(S(=O)(=O)[O-])cc5)c5ccc2[nH]5)C=C4)C=C3)cc1
REMARK SMILES IDX 21 1 20 2 1 3 2 4 3 6 4 7 5 8 19 9 6 10 18 11 17 12 7 14
REMARK SMILES IDX 8 15 9 16 10 17 11 18 15 19 12 20 14 21 16 22 13 23 22 24
REMARK SMILES IDX 23 25 24 26 25 27 26 29 27 30 28 31 86 32 29 33 85 34 30 35
REMARK SMILES IDX 31 36 32 37 79 38 33 39 84 40 78 41 80 42 34 43 83 44 77 45
REMARK SMILES IDX 76 46 35 48 65 49 46 50 64 51 47 52 50 53 63 54 81 55 48 56
REMARK SMILES IDX 49 57 62 59 82 60 51 61 36 62 37 63 45 64 38 65 44 66 39 67
REMARK SMILES IDX 40 68 41 69 42 70 43 71 66 72 67 73 75 74 68 75 74 76 69 77
REMARK SMILES IDX 70 78 71 79 72 80 73 81 52 82 53 83 61 84 54 85 60 86 55 87
REMARK SMILES IDX 56 88 57 89 58 90 59 91
REMARK H PARENT 20 5 6 13 24 28 80 47 50 58
REMARK Flexibility Score: inf
ROOT
ATOM      1  C   UNL A   1      39.344  21.687  25.812  1.00  0.00     0.117 C 
ENDROOT
BRANCH   1   2
ATOM      2  N   UNL A   1      37.907  21.737  25.980  1.00  0.00    -0.356 N 
ATOM      3  O   UNL A   1      37.575  23.775  24.971  1.00  0.00    -0.275 OA
ATOM      4  C   UNL A   1      37.161  22.845  25.656  1.00  0.00     0.222 C 
ATOM      5  H   UNL A   1      37.445  20.947  26.342  1.00  0.00     0.163 HD
BRANCH   4   6
ATOM      6  C   UNL A   1      35.824  22.906  26.348  1.00  0.00     0.138 C 
BRANCH   6   7
ATOM      7  C   UNL A   1      35.016  21.621  26.518  1.00  0.00     0.182 C 
ATOM      8  C   UNL A   1      33.660  21.849  27.251  1.00  0.00     0.295 C 
ATOM      9  O   UNL A   1      34.938  20.795  25.346  1.00  0.00    -0.366 OA
ATOM     10  N   UNL A   1      32.491  22.084  26.391  1.00  0.00    -0.330 N 
ATOM     11  C   UNL A   1      33.787  21.064  24.535  1.00  0.00     0.222 C 
ATOM     12  C   UNL A   1      32.512  21.048  25.375  1.00  0.00     0.291 C 
ATOM     13  H   UNL A   1      31.630  21.994  26.929  1.00  0.00     0.348 HD
BRANCH  10  14
ATOM     14  C   UNL A   1      32.271  23.476  25.952  1.00  0.00     0.273 C 
BRANCH  14  15
ATOM     15  C   UNL A   1      31.062  24.384  26.362  1.00  0.00     0.136 C 
BRANCH  15  16
ATOM     16  S   UNL A   1      30.342  25.579  25.138  1.00  0.00    -0.117 SA
BRANCH  16  17
ATOM     17  C   UNL A   1      31.047  27.167  25.590  1.00  0.00     0.043 A 
ATOM     18  C   UNL A   1      31.434  27.331  26.930  1.00  0.00     0.018 A 
ATOM     19  C   UNL A   1      31.194  28.258  24.728  1.00  0.00     0.136 A 
ATOM     20  C   UNL A   1      31.800  28.586  27.428  1.00  0.00     0.001 A 
ATOM     21  C   UNL A   1      31.616  29.504  25.209  1.00  0.00     0.040 A 
ATOM     22  F   UNL A   1      30.903  28.149  23.423  1.00  0.00    -0.206 F 
ATOM     23  C   UNL A   1      31.883  29.677  26.567  1.00  0.00     0.003 A 
ENDBRANCH  16  17
ENDBRANCH  15  16
ENDBRANCH  14  15
ENDBRANCH  10  14
ENDBRANCH   6   7
ENDBRANCH   4   6
ENDBRANCH   1   2
BRANCH   1  24
ATOM     24  C   UNL A   1      40.063  21.759  27.160  1.00  0.00     0.042 C 
BRANCH  24  25
ATOM     25  C   UNL A   1      40.577  23.150  27.528  1.00  0.00     0.118 C 
BRANCH  25  26
ATOM     26  N   UNL A   1      40.894  23.970  26.369  1.00  0.00    -0.352 N 
ATOM     27  C   UNL A   1      41.008  25.338  26.263  1.00  0.00     0.251 C 
ATOM     28  H   UNL A   1      41.050  23.471  25.535  1.00  0.00     0.163 HD
ATOM     29  O   UNL A   1      41.156  25.849  25.163  1.00  0.00    -0.269 OA
BRANCH  27  30
ATOM     30  C   UNL A   1      40.923  26.189  27.473  1.00  0.00     0.039 A 
ATOM     31  C   UNL A   1      41.962  27.088  27.731  1.00  0.00     0.014 A 
ATOM     32  C   UNL A   1      39.841  26.099  28.353  1.00  0.00     0.014 A 
ATOM     33  C   UNL A   1      41.882  27.943  28.834  1.00  0.00     0.010 A 
ATOM     34  C   UNL A   1      39.731  26.998  29.413  1.00  0.00     0.010 A 
ATOM     35  C   UNL A   1      40.749  27.932  29.664  1.00  0.00    -0.014 A 
BRANCH  35  36
ATOM     36  C   UNL A   1      40.605  28.898  30.785  1.00  0.00     0.031 A 
ATOM     37  C   UNL A   1      41.462  28.771  32.016  1.00  0.00     0.074 A 
ATOM     38  C   UNL A   1      39.661  29.859  30.718  1.00  0.00     0.049 A 
ATOM     39  N   UNL A   1      41.441  29.485  33.113  1.00  0.00    -0.248 NA
ATOM     40  C   UNL A   1      42.454  27.684  32.028  1.00  0.00     0.031 C 
ATOM     41  C   UNL A   1      38.742  30.067  29.596  1.00  0.00     0.029 A 
ATOM     42  N   UNL A   1      39.312  30.837  31.617  1.00  0.00    -0.354 N 
ATOM     43  C   UNL A   1      42.403  28.928  33.948  1.00  0.00     0.074 A 
ATOM     44  C   UNL A   1      42.954  27.787  33.251  1.00  0.00     0.031 C 
ATOM     45  C   UNL A   1      37.954  31.121  29.863  1.00  0.00     0.029 A 
ATOM     46  C   UNL A   1      38.278  31.637  31.189  1.00  0.00     0.049 A 
ATOM     47  H   UNL A   1      39.759  30.953  32.487  1.00  0.00     0.167 HD
ATOM     48  C   UNL A   1      42.804  29.340  35.174  1.00  0.00     0.031 A 
ATOM     49  C   UNL A   1      37.653  32.665  31.796  1.00  0.00     0.031 A 
ATOM     50  C   UNL A   1      42.257  30.480  35.862  1.00  0.00     0.049 A 
ATOM     51  C   UNL A   1      38.104  33.092  33.167  1.00  0.00     0.074 A 
ATOM     52  C   UNL A   1      42.634  31.008  37.086  1.00  0.00     0.029 A 
ATOM     53  N   UNL A   1      41.215  31.266  35.392  1.00  0.00    -0.354 N 
ATOM     54  N   UNL A   1      39.061  32.591  33.912  1.00  0.00    -0.248 NA
ATOM     55  C   UNL A   1      37.398  34.229  33.773  1.00  0.00     0.031 C 
ATOM     56  C   UNL A   1      41.783  32.078  37.381  1.00  0.00     0.029 A 
ATOM     57  C   UNL A   1      40.918  32.257  36.313  1.00  0.00     0.049 A 
ATOM     58  H   UNL A   1      40.755  31.137  34.532  1.00  0.00     0.167 HD
ATOM     59  C   UNL A   1      39.091  33.372  35.062  1.00  0.00     0.074 A 
ATOM     60  C   UNL A   1      38.067  34.385  34.908  1.00  0.00     0.031 C 
ATOM     61  C   UNL A   1      39.896  33.260  36.148  1.00  0.00     0.031 A 
BRANCH  48  62
ATOM     62  C   UNL A   1      43.885  28.543  35.859  1.00  0.00    -0.014 A 
ATOM     63  C   UNL A   1      43.569  27.495  36.744  1.00  0.00     0.010 A 
ATOM     64  C   UNL A   1      45.237  28.817  35.583  1.00  0.00     0.010 A 
ATOM     65  C   UNL A   1      44.582  26.768  37.373  1.00  0.00     0.020 A 
ATOM     66  C   UNL A   1      46.255  28.071  36.185  1.00  0.00     0.020 A 
ATOM     67  C   UNL A   1      45.920  27.062  37.091  1.00  0.00     0.054 A 
BRANCH  67  68
ATOM     68  S   UNL A   1      47.213  26.088  37.907  1.00  0.00     0.124 S 
ATOM     69  O   UNL A   1      48.032  25.664  36.774  1.00  0.00    -0.237 OA
ATOM     70  O   UNL A   1      47.834  27.063  38.799  1.00  0.00    -0.237 OA
ATOM     71  O   UNL A   1      46.475  25.018  38.574  1.00  0.00    -0.744 OA
ENDBRANCH  67  68
ENDBRANCH  48  62
BRANCH  49  72
ATOM     72  C   UNL A   1      36.538  33.370  31.105  1.00  0.00    -0.014 A 
ATOM     73  C   UNL A   1      36.791  34.186  29.988  1.00  0.00     0.010 A 
ATOM     74  C   UNL A   1      35.213  33.221  31.554  1.00  0.00     0.010 A 
ATOM     75  C   UNL A   1      35.745  34.854  29.345  1.00  0.00     0.020 A 
ATOM     76  C   UNL A   1      34.160  33.863  30.896  1.00  0.00     0.020 A 
ATOM     77  C   UNL A   1      34.435  34.685  29.802  1.00  0.00     0.054 A 
BRANCH  77  78
ATOM     78  S   UNL A   1      33.087  35.523  28.922  1.00  0.00     0.124 S 
ATOM     79  O   UNL A   1      32.450  34.415  28.216  1.00  0.00    -0.237 OA
ATOM     80  O   UNL A   1      32.314  36.108  30.013  1.00  0.00    -0.237 OA
ATOM     81  O   UNL A   1      33.782  36.488  28.073  1.00  0.00    -0.744 OA
ENDBRANCH  77  78
ENDBRANCH  49  72
BRANCH  61  82
ATOM     82  C   UNL A   1      39.731  34.281  37.244  1.00  0.00    -0.014 A 
ATOM     83  C   UNL A   1      38.972  34.005  38.395  1.00  0.00     0.010 A 
ATOM     84  C   UNL A   1      40.395  35.517  37.142  1.00  0.00     0.010 A 
ATOM     85  C   UNL A   1      38.856  34.958  39.410  1.00  0.00     0.020 A 
ATOM     86  C   UNL A   1      40.304  36.462  38.168  1.00  0.00     0.020 A 
ATOM     87  C   UNL A   1      39.523  36.181  39.290  1.00  0.00     0.054 A 
BRANCH  87  88
ATOM     88  S   UNL A   1      39.392  37.383  40.642  1.00  0.00     0.124 S 
ATOM     89  O   UNL A   1      38.409  38.326  40.117  1.00  0.00    -0.237 OA
ATOM     90  O   UNL A   1      38.938  36.559  41.760  1.00  0.00    -0.237 OA
ATOM     91  O   UNL A   1      40.749  37.907  40.773  1.00  0.00    -0.744 OA
ENDBRANCH  87  88
ENDBRANCH  61  82
ENDBRANCH  35  36
ENDBRANCH  27  30
ENDBRANCH  25  26
ENDBRANCH  24  25
ENDBRANCH   1  24
TORSDOF 18
ENDMDL
MODEL 3
REMARK VINA RESULT:     -10.1      3.800      9.325
REMARK SMILES O=C(C[C@H]1C[N@@H+](CCSc2ccccc2F)CCO1)NCCCNC(=O)c1ccc(-c2c3nc(c(-c4ccc(S(=O)(=O)[O-])cc4)c4ccc([nH]4)c(-c4ccc(S(=O)(=O)[O-])cc4)c4nc(c(-c5ccc(S(=O)(=O)[O-])cc5)c5ccc2[nH]5)C=C4)C=C3)cc1
REMARK SMILES IDX 21 1 20 2 1 3 2 4 3 6 4 7 5 8 19 9 6 10 18 11 17 12 7 14
REMARK SMILES IDX 8 15 9 16 10 17 11 18 15 19 12 20 14 21 16 22 13 23 22 24
REMARK SMILES IDX 23 25 24 26 25 27 26 29 27 30 28 31 86 32 29 33 85 34 30 35
REMARK SMILES IDX 31 36 32 37 79 38 33 39 84 40 78 41 80 42 34 43 83 44 77 45
REMARK SMILES IDX 76 46 35 48 65 49 46 50 64 51 47 52 50 53 63 54 81 55 48 56
REMARK SMILES IDX 49 57 62 59 82 60 51 61 36 62 37 63 45 64 38 65 44 66 39 67
REMARK SMILES IDX 40 68 41 69 42 70 43 71 66 72 67 73 75 74 68 75 74 76 69 77
REMARK SMILES IDX 70 78 71 79 72 80 73 81 52 82 53 83 61 84 54 85 60 86 55 87
REMARK SMILES IDX 56 88 57 89 58 90 59 91
REMARK H PARENT 20 5 6 13 24 28 80 47 50 58
REMARK Flexibility Score: inf
ROOT
ATOM      1  C   UNL A   1      39.632  22.129  26.268  1.00  0.00     0.117 C 
ENDROOT
BRANCH   1   2
ATOM      2  N   UNL A   1      38.457  22.694  25.640  1.00  0.00    -0.356 N 
ATOM      3  O   UNL A   1      38.328  24.589  26.934  1.00  0.00    -0.275 OA
ATOM      4  C   UNL A   1      37.830  23.821  26.118  1.00  0.00     0.222 C 
ATOM      5  H   UNL A   1      38.091  22.255  24.838  1.00  0.00     0.163 HD
BRANCH   4   6
ATOM      6  C   UNL A   1      36.396  23.956  25.674  1.00  0.00     0.138 C 
BRANCH   6   7
ATOM      7  C   UNL A   1      35.358  22.969  26.202  1.00  0.00     0.182 C 
ATOM      8  C   UNL A   1      33.931  23.224  25.630  1.00  0.00     0.295 C 
ATOM      9  O   UNL A   1      35.773  21.593  26.199  1.00  0.00    -0.366 OA
ATOM     10  N   UNL A   1      33.569  22.459  24.428  1.00  0.00    -0.330 N 
ATOM     11  C   UNL A   1      35.405  20.890  25.005  1.00  0.00     0.222 C 
ATOM     12  C   UNL A   1      33.921  21.077  24.697  1.00  0.00     0.291 C 
ATOM     13  H   UNL A   1      32.564  22.511  24.262  1.00  0.00     0.348 HD
BRANCH  10  14
ATOM     14  C   UNL A   1      33.985  23.037  23.135  1.00  0.00     0.273 C 
BRANCH  14  15
ATOM     15  C   UNL A   1      33.039  23.732  22.098  1.00  0.00     0.136 C 
BRANCH  15  16
ATOM     16  S   UNL A   1      32.982  25.584  21.988  1.00  0.00    -0.117 SA
BRANCH  16  17
ATOM     17  C   UNL A   1      32.692  26.127  23.674  1.00  0.00     0.043 A 
ATOM     18  C   UNL A   1      33.777  26.714  24.347  1.00  0.00     0.018 A 
ATOM     19  C   UNL A   1      31.495  25.969  24.378  1.00  0.00     0.136 A 
ATOM     20  C   UNL A   1      33.717  26.981  25.719  1.00  0.00     0.001 A 
ATOM     21  C   UNL A   1      31.410  26.289  25.739  1.00  0.00     0.040 A 
ATOM     22  F   UNL A   1      30.402  25.475  23.776  1.00  0.00    -0.206 F 
ATOM     23  C   UNL A   1      32.534  26.760  26.418  1.00  0.00     0.003 A 
ENDBRANCH  16  17
ENDBRANCH  15  16
ENDBRANCH  14  15
ENDBRANCH  10  14
ENDBRANCH   6   7
ENDBRANCH   4   6
ENDBRANCH   1   2
BRANCH   1  24
ATOM     24  C   UNL A   1      39.660  20.607  26.125  1.00  0.00     0.042 C 
BRANCH  24  25
ATOM     25  C   UNL A   1      40.781  19.920  26.904  1.00  0.00     0.118 C 
BRANCH  25  26
ATOM     26  N   UNL A   1      41.719  19.207  26.051  1.00  0.00    -0.352 N 
ATOM     27  C   UNL A   1      42.875  19.651  25.450  1.00  0.00     0.251 C 
ATOM     28  H   UNL A   1      41.492  18.265  25.877  1.00  0.00     0.163 HD
ATOM     29  O   UNL A   1      43.462  18.927  24.659  1.00  0.00    -0.269 OA
BRANCH  27  30
ATOM     30  C   UNL A   1      43.390  21.010  25.739  1.00  0.00     0.039 A 
ATOM     31  C   UNL A   1      43.510  21.918  24.684  1.00  0.00     0.014 A 
ATOM     32  C   UNL A   1      43.763  21.387  27.032  1.00  0.00     0.014 A 
ATOM     33  C   UNL A   1      43.940  23.224  24.936  1.00  0.00     0.010 A 
ATOM     34  C   UNL A   1      44.125  22.708  27.293  1.00  0.00     0.010 A 
ATOM     35  C   UNL A   1      44.216  23.642  26.248  1.00  0.00    -0.014 A 
BRANCH  35  36
ATOM     36  C   UNL A   1      44.583  25.051  26.547  1.00  0.00     0.031 A 
ATOM     37  C   UNL A   1      46.005  25.519  26.391  1.00  0.00     0.074 A 
ATOM     38  C   UNL A   1      43.643  25.898  27.014  1.00  0.00     0.049 A 
ATOM     39  N   UNL A   1      46.521  26.693  26.654  1.00  0.00    -0.248 NA
ATOM     40  C   UNL A   1      46.980  24.533  25.898  1.00  0.00     0.031 C 
ATOM     41  C   UNL A   1      42.236  25.560  27.245  1.00  0.00     0.029 A 
ATOM     42  N   UNL A   1      43.731  27.217  27.388  1.00  0.00    -0.354 N 
ATOM     43  C   UNL A   1      47.878  26.583  26.374  1.00  0.00     0.074 A 
ATOM     44  C   UNL A   1      48.115  25.215  25.968  1.00  0.00     0.031 C 
ATOM     45  C   UNL A   1      41.590  26.647  27.694  1.00  0.00     0.029 A 
ATOM     46  C   UNL A   1      42.541  27.748  27.827  1.00  0.00     0.049 A 
ATOM     47  H   UNL A   1      44.569  27.734  27.346  1.00  0.00     0.167 HD
ATOM     48  C   UNL A   1      48.837  27.538  26.432  1.00  0.00     0.031 A 
ATOM     49  C   UNL A   1      42.244  28.977  28.292  1.00  0.00     0.031 A 
ATOM     50  C   UNL A   1      48.597  28.900  26.830  1.00  0.00     0.049 A 
ATOM     51  C   UNL A   1      43.331  30.016  28.365  1.00  0.00     0.074 A 
ATOM     52  C   UNL A   1      49.494  29.955  26.870  1.00  0.00     0.029 A 
ATOM     53  N   UNL A   1      47.377  29.398  27.263  1.00  0.00    -0.354 N 
ATOM     54  N   UNL A   1      44.596  29.909  28.033  1.00  0.00    -0.248 NA
ATOM     55  C   UNL A   1      42.948  31.343  28.864  1.00  0.00     0.031 C 
ATOM     56  C   UNL A   1      48.830  31.075  27.381  1.00  0.00     0.029 A 
ATOM     57  C   UNL A   1      47.503  30.736  27.597  1.00  0.00     0.049 A 
ATOM     58  H   UNL A   1      46.544  28.876  27.323  1.00  0.00     0.167 HD
ATOM     59  C   UNL A   1      45.152  31.164  28.255  1.00  0.00     0.074 A 
ATOM     60  C   UNL A   1      44.083  32.016  28.737  1.00  0.00     0.031 C 
ATOM     61  C   UNL A   1      46.432  31.573  28.076  1.00  0.00     0.031 A 
BRANCH  48  62
ATOM     62  C   UNL A   1      50.243  27.139  26.061  1.00  0.00    -0.014 A 
ATOM     63  C   UNL A   1      50.700  27.225  24.733  1.00  0.00     0.010 A 
ATOM     64  C   UNL A   1      51.135  26.711  27.062  1.00  0.00     0.010 A 
ATOM     65  C   UNL A   1      52.005  26.850  24.406  1.00  0.00     0.020 A 
ATOM     66  C   UNL A   1      52.452  26.364  26.744  1.00  0.00     0.020 A 
ATOM     67  C   UNL A   1      52.873  26.419  25.414  1.00  0.00     0.054 A 
BRANCH  67  68
ATOM     68  S   UNL A   1      54.567  25.956  24.962  1.00  0.00     0.124 S 
ATOM     69  O   UNL A   1      55.346  26.600  26.017  1.00  0.00    -0.237 OA
ATOM     70  O   UNL A   1      54.525  24.498  25.014  1.00  0.00    -0.237 OA
ATOM     71  O   UNL A   1      54.738  26.526  23.627  1.00  0.00    -0.744 OA
ENDBRANCH  67  68
ENDBRANCH  48  62
BRANCH  49  72
ATOM     72  C   UNL A   1      40.853  29.297  28.717  1.00  0.00    -0.014 A 
ATOM     73  C   UNL A   1      40.553  29.519  30.072  1.00  0.00     0.010 A 
ATOM     74  C   UNL A   1      39.821  29.391  27.765  1.00  0.00     0.010 A 
ATOM     75  C   UNL A   1      39.245  29.810  30.471  1.00  0.00     0.020 A 
ATOM     76  C   UNL A   1      38.518  29.712  28.156  1.00  0.00     0.020 A 
ATOM     77  C   UNL A   1      38.236  29.908  29.509  1.00  0.00     0.054 A 
BRANCH  77  78
ATOM     78  S   UNL A   1      36.556  30.336  30.044  1.00  0.00     0.124 S 
ATOM     79  O   UNL A   1      36.728  31.704  30.522  1.00  0.00    -0.237 OA
ATOM     80  O   UNL A   1      35.785  30.187  28.813  1.00  0.00    -0.237 OA
ATOM     81  O   UNL A   1      36.264  29.344  31.077  1.00  0.00    -0.744 OA
ENDBRANCH  77  78
ENDBRANCH  49  72
BRANCH  61  82
ATOM     82  C   UNL A   1      46.747  33.018  28.364  1.00  0.00    -0.014 A 
ATOM     83  C   UNL A   1      47.222  33.428  29.622  1.00  0.00     0.010 A 
ATOM     84  C   UNL A   1      46.617  33.972  27.338  1.00  0.00     0.010 A 
ATOM     85  C   UNL A   1      47.532  34.770  29.858  1.00  0.00     0.020 A 
ATOM     86  C   UNL A   1      46.953  35.310  27.561  1.00  0.00     0.020 A 
ATOM     87  C   UNL A   1      47.396  35.702  28.824  1.00  0.00     0.054 A 
BRANCH  87  88
ATOM     88  S   UNL A   1      47.848  37.430  29.143  1.00  0.00     0.124 S 
ATOM     89  O   UNL A   1      47.838  37.483  30.603  1.00  0.00    -0.237 OA
ATOM     90  O   UNL A   1      49.165  37.537  28.519  1.00  0.00    -0.237 OA
ATOM     91  O   UNL A   1      46.790  38.193  28.485  1.00  0.00    -0.744 OA
ENDBRANCH  87  88
ENDBRANCH  61  82
ENDBRANCH  35  36
ENDBRANCH  27  30
ENDBRANCH  25  26
ENDBRANCH  24  25
ENDBRANCH   1  24
TORSDOF 18
ENDMDL
