MODEL 1
REMARK VINA RESULT:     -12.5      0.000      0.000
REMARK SMILES O=C(NCCCNC(=O)[C@@H]1CCCN1S(=O)(=O)c1ccc2c3c(cccc13)C(=O)N2)c1ccc(-c2c3nc(c(-c4ccc(S(=O)(=O)[O-])cc4)c4ccc([nH]4)c(-c4ccc(S(=O)(=O)[O-])cc4)c4nc(c(-c5ccc(S(=O)(=O)[O-])cc5)c5ccc2[nH]5)C=C4)C=C3)cc1
REMARK SMILES IDX 4 1 3 2 1 3 2 4 31 6 32 7 90 8 33 9 89 10 34 11 35 12 36 13
REMARK SMILES IDX 83 14 37 15 88 16 82 17 84 18 38 19 87 20 81 21 80 22 39 24
REMARK SMILES IDX 69 25 50 26 68 27 51 28 54 29 67 30 85 31 52 32 53 33 66 35
REMARK SMILES IDX 86 36 55 37 40 38 41 39 49 40 42 41 48 42 43 43 44 44 45 45
REMARK SMILES IDX 46 46 47 47 70 48 71 49 79 50 72 51 78 52 73 53 74 54 75 55
REMARK SMILES IDX 76 56 77 57 56 58 57 59 65 60 58 61 64 62 59 63 60 64 61 65
REMARK SMILES IDX 62 66 63 67 5 68 6 69 7 70 8 71 9 73 10 74 11 75 14 76 12 77
REMARK SMILES IDX 13 78 15 79 16 80 17 81 18 82 19 83 27 84 20 85 22 86 26 87
REMARK SMILES IDX 21 88 23 89 25 90 30 91 24 92 28 93 29 95
REMARK H PARENT 3 5 84 23 54 34 7 72 30 94
REMARK Flexibility Score: inf
ROOT
ATOM      1  C   UNL A   1      33.347  28.859  27.369  1.00  0.00     0.118 C 
ENDROOT
BRANCH   1   2
ATOM      2  N   UNL A   1      33.542  30.261  27.705  1.00  0.00    -0.352 N 
ATOM      3  O   UNL A   1      34.573  32.056  28.618  1.00  0.00    -0.269 OA
ATOM      4  C   UNL A   1      34.639  30.896  28.232  1.00  0.00     0.251 C 
ATOM      5  H   UNL A   1      32.769  30.844  27.528  1.00  0.00     0.163 HD
BRANCH   4   6
ATOM      6  C   UNL A   1      35.898  30.174  28.416  1.00  0.00     0.039 A 
ATOM      7  C   UNL A   1      36.216  29.575  29.634  1.00  0.00     0.014 A 
ATOM      8  C   UNL A   1      36.791  30.156  27.341  1.00  0.00     0.014 A 
ATOM      9  C   UNL A   1      37.517  29.164  29.853  1.00  0.00     0.010 A 
ATOM     10  C   UNL A   1      38.068  29.657  27.532  1.00  0.00     0.010 A 
ATOM     11  C   UNL A   1      38.452  29.235  28.811  1.00  0.00    -0.014 A 
BRANCH  11  12
ATOM     12  C   UNL A   1      39.859  28.902  29.074  1.00  0.00     0.031 A 
ATOM     13  C   UNL A   1      40.747  29.919  29.727  1.00  0.00     0.074 A 
ATOM     14  C   UNL A   1      40.295  27.679  28.730  1.00  0.00     0.049 A 
ATOM     15  N   UNL A   1      42.019  29.831  30.008  1.00  0.00    -0.248 NA
ATOM     16  C   UNL A   1      40.135  31.204  30.112  1.00  0.00     0.031 C 
ATOM     17  C   UNL A   1      39.471  26.638  28.107  1.00  0.00     0.029 A 
ATOM     18  N   UNL A   1      41.525  27.103  28.861  1.00  0.00    -0.354 N 
ATOM     19  C   UNL A   1      42.364  31.050  30.579  1.00  0.00     0.074 A 
ATOM     20  C   UNL A   1      41.175  31.872  30.592  1.00  0.00     0.031 C 
ATOM     21  C   UNL A   1      40.217  25.537  27.936  1.00  0.00     0.029 A 
ATOM     22  C   UNL A   1      41.575  25.817  28.384  1.00  0.00     0.049 A 
ATOM     23  H   UNL A   1      42.300  27.565  29.257  1.00  0.00     0.167 HD
ATOM     24  C   UNL A   1      43.570  31.437  31.051  1.00  0.00     0.031 A 
ATOM     25  C   UNL A   1      42.614  24.968  28.304  1.00  0.00     0.031 A 
ATOM     26  C   UNL A   1      44.731  30.589  31.025  1.00  0.00     0.049 A 
ATOM     27  C   UNL A   1      43.945  25.431  28.809  1.00  0.00     0.074 A 
ATOM     28  C   UNL A   1      46.006  30.861  31.486  1.00  0.00     0.029 A 
ATOM     29  N   UNL A   1      44.752  29.300  30.509  1.00  0.00    -0.354 N 
ATOM     30  N   UNL A   1      44.259  26.589  29.343  1.00  0.00    -0.248 NA
ATOM     31  C   UNL A   1      45.060  24.484  28.705  1.00  0.00     0.031 C 
ATOM     32  C   UNL A   1      46.808  29.748  31.212  1.00  0.00     0.029 A 
ATOM     33  C   UNL A   1      46.021  28.767  30.627  1.00  0.00     0.049 A 
ATOM     34  H   UNL A   1      43.978  28.835  30.118  1.00  0.00     0.167 HD
ATOM     35  C   UNL A   1      45.609  26.509  29.650  1.00  0.00     0.074 A 
ATOM     36  C   UNL A   1      46.048  25.184  29.252  1.00  0.00     0.031 C 
ATOM     37  C   UNL A   1      46.415  27.444  30.210  1.00  0.00     0.031 A 
BRANCH  24  38
ATOM     38  C   UNL A   1      43.704  32.825  31.615  1.00  0.00    -0.014 A 
ATOM     39  C   UNL A   1      44.031  33.914  30.787  1.00  0.00     0.010 A 
ATOM     40  C   UNL A   1      43.430  33.055  32.975  1.00  0.00     0.010 A 
ATOM     41  C   UNL A   1      44.090  35.208  31.315  1.00  0.00     0.020 A 
ATOM     42  C   UNL A   1      43.469  34.350  33.501  1.00  0.00     0.020 A 
ATOM     43  C   UNL A   1      43.801  35.419  32.667  1.00  0.00     0.054 A 
BRANCH  43  44
ATOM     44  S   UNL A   1      43.849  37.115  33.307  1.00  0.00     0.124 S 
ATOM     45  O   UNL A   1      45.116  37.132  34.033  1.00  0.00    -0.237 OA
ATOM     46  O   UNL A   1      43.816  37.913  32.084  1.00  0.00    -0.237 OA
ATOM     47  O   UNL A   1      42.656  37.207  34.144  1.00  0.00    -0.744 OA
ENDBRANCH  43  44
ENDBRANCH  24  38
BRANCH  25  48
ATOM     48  C   UNL A   1      42.396  23.618  27.727  1.00  0.00    -0.014 A 
ATOM     49  C   UNL A   1      42.592  23.392  26.356  1.00  0.00     0.010 A 
ATOM     50  C   UNL A   1      42.105  22.528  28.569  1.00  0.00     0.010 A 
ATOM     51  C   UNL A   1      42.513  22.097  25.836  1.00  0.00     0.020 A 
ATOM     52  C   UNL A   1      42.045  21.230  28.057  1.00  0.00     0.020 A 
ATOM     53  C   UNL A   1      42.254  21.022  26.693  1.00  0.00     0.054 A 
BRANCH  53  54
ATOM     54  S   UNL A   1      42.236  19.346  26.000  1.00  0.00     0.124 S 
ATOM     55  O   UNL A   1      43.178  19.462  24.891  1.00  0.00    -0.237 OA
ATOM     56  O   UNL A   1      42.690  18.542  27.132  1.00  0.00    -0.237 OA
ATOM     57  O   UNL A   1      40.841  19.144  25.618  1.00  0.00    -0.744 OA
ENDBRANCH  53  54
ENDBRANCH  25  48
BRANCH  37  58
ATOM     58  C   UNL A   1      47.846  27.060  30.440  1.00  0.00    -0.014 A 
ATOM     59  C   UNL A   1      48.834  27.377  29.494  1.00  0.00     0.010 A 
ATOM     60  C   UNL A   1      48.212  26.463  31.659  1.00  0.00     0.010 A 
ATOM     61  C   UNL A   1      50.174  27.090  29.762  1.00  0.00     0.020 A 
ATOM     62  C   UNL A   1      49.552  26.195  31.938  1.00  0.00     0.020 A 
ATOM     63  C   UNL A   1      50.524  26.508  30.986  1.00  0.00     0.054 A 
BRANCH  63  64
ATOM     64  S   UNL A   1      52.277  26.196  31.322  1.00  0.00     0.124 S 
ATOM     65  O   UNL A   1      52.624  27.314  32.196  1.00  0.00    -0.237 OA
ATOM     66  O   UNL A   1      52.245  24.884  31.960  1.00  0.00    -0.237 OA
ATOM     67  O   UNL A   1      52.896  26.228  29.999  1.00  0.00    -0.744 OA
ENDBRANCH  63  64
ENDBRANCH  37  58
ENDBRANCH  11  12
ENDBRANCH   4   6
ENDBRANCH   1   2
BRANCH   1  68
ATOM     68  C   UNL A   1      33.949  28.472  26.026  1.00  0.00     0.042 C 
BRANCH  68  69
ATOM     69  C   UNL A   1      33.293  29.129  24.826  1.00  0.00     0.117 C 
BRANCH  69  70
ATOM     70  N   UNL A   1      31.861  28.889  24.742  1.00  0.00    -0.355 N 
ATOM     71  C   UNL A   1      31.242  27.837  24.117  1.00  0.00     0.238 C 
ATOM     72  H   UNL A   1      31.276  29.549  25.180  1.00  0.00     0.163 HD
ATOM     73  O   UNL A   1      30.018  27.732  24.194  1.00  0.00    -0.273 OA
BRANCH  71  74
ATOM     74  C   UNL A   1      32.105  26.908  23.305  1.00  0.00     0.162 C 
ATOM     75  C   UNL A   1      31.435  26.274  22.095  1.00  0.00     0.032 C 
ATOM     76  N   UNL A   1      32.849  25.777  23.954  1.00  0.00    -0.185 NA
ATOM     77  C   UNL A   1      32.495  25.298  21.598  1.00  0.00     0.019 C 
ATOM     78  C   UNL A   1      33.480  25.110  22.760  1.00  0.00     0.103 C 
BRANCH  76  79
ATOM     79  S   UNL A   1      32.030  24.627  24.942  1.00  0.00     0.244 S 
ATOM     80  O   UNL A   1      31.962  25.165  26.285  1.00  0.00    -0.207 OA
ATOM     81  O   UNL A   1      30.794  24.313  24.254  1.00  0.00    -0.207 OA
BRANCH  79  82
ATOM     82  C   UNL A   1      33.007  23.136  25.018  1.00  0.00     0.090 A 
ATOM     83  C   UNL A   1      32.356  21.931  24.632  1.00  0.00     0.024 A 
ATOM     84  C   UNL A   1      34.421  23.152  25.253  1.00  0.00     0.005 A 
ATOM     85  C   UNL A   1      33.026  20.697  24.576  1.00  0.00     0.028 A 
ATOM     86  C   UNL A   1      35.028  21.936  25.092  1.00  0.00     0.019 A 
ATOM     87  C   UNL A   1      35.326  24.187  25.626  1.00  0.00     0.010 A 
ATOM     88  C   UNL A   1      34.382  20.752  24.811  1.00  0.00     0.050 A 
ATOM     89  C   UNL A   1      36.382  21.660  25.216  1.00  0.00     0.050 A 
ATOM     90  C   UNL A   1      36.712  23.946  25.768  1.00  0.00     0.002 A 
ATOM     91  N   UNL A   1      35.331  19.750  24.796  1.00  0.00    -0.321 N 
ATOM     92  C   UNL A   1      37.269  22.679  25.549  1.00  0.00     0.014 A 
ATOM     93  C   UNL A   1      36.623  20.242  25.021  1.00  0.00     0.256 C 
ATOM     94  H   UNL A   1      35.124  18.798  24.647  1.00  0.00     0.170 HD
ATOM     95  O   UNL A   1      37.635  19.554  25.000  1.00  0.00    -0.269 OA
ENDBRANCH  79  82
ENDBRANCH  76  79
ENDBRANCH  71  74
ENDBRANCH  69  70
ENDBRANCH  68  69
ENDBRANCH   1  68
TORSDOF 15
ENDMDL
MODEL 2
REMARK VINA RESULT:     -12.4      2.512      9.481
REMARK SMILES O=C(NCCCNC(=O)[C@@H]1CCCN1S(=O)(=O)c1ccc2c3c(cccc13)C(=O)N2)c1ccc(-c2c3nc(c(-c4ccc(S(=O)(=O)[O-])cc4)c4ccc([nH]4)c(-c4ccc(S(=O)(=O)[O-])cc4)c4nc(c(-c5ccc(S(=O)(=O)[O-])cc5)c5ccc2[nH]5)C=C4)C=C3)cc1
REMARK SMILES IDX 4 1 3 2 1 3 2 4 31 6 32 7 90 8 33 9 89 10 34 11 35 12 36 13
REMARK SMILES IDX 83 14 37 15 88 16 82 17 84 18 38 19 87 20 81 21 80 22 39 24
REMARK SMILES IDX 69 25 50 26 68 27 51 28 54 29 67 30 85 31 52 32 53 33 66 35
REMARK SMILES IDX 86 36 55 37 40 38 41 39 49 40 42 41 48 42 43 43 44 44 45 45
REMARK SMILES IDX 46 46 47 47 70 48 71 49 79 50 72 51 78 52 73 53 74 54 75 55
REMARK SMILES IDX 76 56 77 57 56 58 57 59 65 60 58 61 64 62 59 63 60 64 61 65
REMARK SMILES IDX 62 66 63 67 5 68 6 69 7 70 8 71 9 73 10 74 11 75 14 76 12 77
REMARK SMILES IDX 13 78 15 79 16 80 17 81 18 82 19 83 27 84 20 85 22 86 26 87
REMARK SMILES IDX 21 88 23 89 25 90 30 91 24 92 28 93 29 95
REMARK H PARENT 3 5 84 23 54 34 7 72 30 94
REMARK Flexibility Score: inf
ROOT
ATOM      1  C   UNL A   1      37.256  23.026  25.355  1.00  0.00     0.118 C 
ENDROOT
BRANCH   1   2
ATOM      2  N   UNL A   1      38.436  22.304  25.807  1.00  0.00    -0.352 N 
ATOM      3  O   UNL A   1      40.539  22.047  26.600  1.00  0.00    -0.269 OA
ATOM      4  C   UNL A   1      39.559  22.765  26.448  1.00  0.00     0.251 C 
ATOM      5  H   UNL A   1      38.428  21.336  25.624  1.00  0.00     0.163 HD
BRANCH   4   6
ATOM      6  C   UNL A   1      39.640  24.154  26.898  1.00  0.00     0.039 A 
ATOM      7  C   UNL A   1      40.162  25.151  26.075  1.00  0.00     0.014 A 
ATOM      8  C   UNL A   1      39.225  24.431  28.203  1.00  0.00     0.014 A 
ATOM      9  C   UNL A   1      40.486  26.373  26.634  1.00  0.00     0.010 A 
ATOM     10  C   UNL A   1      39.465  25.687  28.736  1.00  0.00     0.010 A 
ATOM     11  C   UNL A   1      40.166  26.629  27.975  1.00  0.00    -0.014 A 
BRANCH  11  12
ATOM     12  C   UNL A   1      40.609  27.883  28.599  1.00  0.00     0.031 A 
ATOM     13  C   UNL A   1      42.028  28.013  29.067  1.00  0.00     0.074 A 
ATOM     14  C   UNL A   1      39.718  28.882  28.713  1.00  0.00     0.049 A 
ATOM     15  N   UNL A   1      42.600  29.019  29.672  1.00  0.00    -0.248 NA
ATOM     16  C   UNL A   1      42.926  26.867  28.830  1.00  0.00     0.031 C 
ATOM     17  C   UNL A   1      38.326  28.822  28.259  1.00  0.00     0.029 A 
ATOM     18  N   UNL A   1      39.850  30.137  29.233  1.00  0.00    -0.354 N 
ATOM     19  C   UNL A   1      43.910  28.621  29.909  1.00  0.00     0.074 A 
ATOM     20  C   UNL A   1      44.051  27.277  29.400  1.00  0.00     0.031 C 
ATOM     21  C   UNL A   1      37.739  30.003  28.497  1.00  0.00     0.029 A 
ATOM     22  C   UNL A   1      38.695  30.875  29.166  1.00  0.00     0.049 A 
ATOM     23  H   UNL A   1      40.690  30.478  29.618  1.00  0.00     0.167 HD
ATOM     24  C   UNL A   1      44.900  29.328  30.499  1.00  0.00     0.031 A 
ATOM     25  C   UNL A   1      38.439  32.116  29.615  1.00  0.00     0.031 A 
ATOM     26  C   UNL A   1      44.723  30.666  30.991  1.00  0.00     0.049 A 
ATOM     27  C   UNL A   1      39.545  32.866  30.289  1.00  0.00     0.074 A 
ATOM     28  C   UNL A   1      45.654  31.493  31.594  1.00  0.00     0.029 A 
ATOM     29  N   UNL A   1      43.530  31.375  30.931  1.00  0.00    -0.354 N 
ATOM     30  N   UNL A   1      40.779  32.476  30.511  1.00  0.00    -0.248 NA
ATOM     31  C   UNL A   1      39.235  34.215  30.771  1.00  0.00     0.031 C 
ATOM     32  C   UNL A   1      45.010  32.687  31.935  1.00  0.00     0.029 A 
ATOM     33  C   UNL A   1      43.695  32.624  31.498  1.00  0.00     0.049 A 
ATOM     34  H   UNL A   1      42.691  31.038  30.541  1.00  0.00     0.167 HD
ATOM     35  C   UNL A   1      41.401  33.538  31.152  1.00  0.00     0.074 A 
ATOM     36  C   UNL A   1      40.407  34.590  31.271  1.00  0.00     0.031 C 
ATOM     37  C   UNL A   1      42.675  33.637  31.602  1.00  0.00     0.031 A 
BRANCH  24  38
ATOM     38  C   UNL A   1      46.245  28.673  30.659  1.00  0.00    -0.014 A 
ATOM     39  C   UNL A   1      46.539  27.889  31.789  1.00  0.00     0.010 A 
ATOM     40  C   UNL A   1      47.202  28.785  29.635  1.00  0.00     0.010 A 
ATOM     41  C   UNL A   1      47.770  27.236  31.894  1.00  0.00     0.020 A 
ATOM     42  C   UNL A   1      48.427  28.117  29.727  1.00  0.00     0.020 A 
ATOM     43  C   UNL A   1      48.704  27.347  30.859  1.00  0.00     0.054 A 
BRANCH  43  44
ATOM     44  S   UNL A   1      50.275  26.454  31.011  1.00  0.00     0.124 S 
ATOM     45  O   UNL A   1      49.885  25.088  30.670  1.00  0.00    -0.237 OA
ATOM     46  O   UNL A   1      51.118  27.130  30.028  1.00  0.00    -0.237 OA
ATOM     47  O   UNL A   1      50.659  26.656  32.406  1.00  0.00    -0.744 OA
ENDBRANCH  43  44
ENDBRANCH  24  38
BRANCH  25  48
ATOM     48  C   UNL A   1      37.082  32.684  29.422  1.00  0.00    -0.014 A 
ATOM     49  C   UNL A   1      36.148  32.665  30.470  1.00  0.00     0.010 A 
ATOM     50  C   UNL A   1      36.759  33.351  28.225  1.00  0.00     0.010 A 
ATOM     51  C   UNL A   1      34.918  33.313  30.331  1.00  0.00     0.020 A 
ATOM     52  C   UNL A   1      35.538  34.018  28.089  1.00  0.00     0.020 A 
ATOM     53  C   UNL A   1      34.627  33.998  29.146  1.00  0.00     0.054 A 
BRANCH  53  54
ATOM     54  S   UNL A   1      33.055  34.896  29.026  1.00  0.00     0.124 S 
ATOM     55  O   UNL A   1      32.323  34.105  28.042  1.00  0.00    -0.237 OA
ATOM     56  O   UNL A   1      32.554  34.820  30.396  1.00  0.00    -0.237 OA
ATOM     57  O   UNL A   1      33.452  36.231  28.586  1.00  0.00    -0.744 OA
ENDBRANCH  53  54
ENDBRANCH  25  48
BRANCH  37  58
ATOM     58  C   UNL A   1      43.071  34.931  32.248  1.00  0.00    -0.014 A 
ATOM     59  C   UNL A   1      43.755  35.917  31.519  1.00  0.00     0.010 A 
ATOM     60  C   UNL A   1      42.666  35.194  33.569  1.00  0.00     0.010 A 
ATOM     61  C   UNL A   1      44.039  37.150  32.109  1.00  0.00     0.020 A 
ATOM     62  C   UNL A   1      42.931  36.433  34.153  1.00  0.00     0.020 A 
ATOM     63  C   UNL A   1      43.618  37.401  33.420  1.00  0.00     0.054 A 
BRANCH  63  64
ATOM     64  S   UNL A   1      43.959  39.030  34.137  1.00  0.00     0.124 S 
ATOM     65  O   UNL A   1      45.160  39.438  33.411  1.00  0.00    -0.237 OA
ATOM     66  O   UNL A   1      42.746  39.775  33.815  1.00  0.00    -0.237 OA
ATOM     67  O   UNL A   1      44.158  38.750  35.557  1.00  0.00    -0.744 OA
ENDBRANCH  63  64
ENDBRANCH  37  58
ENDBRANCH  11  12
ENDBRANCH   4   6
ENDBRANCH   1   2
BRANCH   1  68
ATOM     68  C   UNL A   1      36.110  22.112  24.946  1.00  0.00     0.042 C 
BRANCH  68  69
ATOM     69  C   UNL A   1      35.393  21.442  26.102  1.00  0.00     0.117 C 
BRANCH  69  70
ATOM     70  N   UNL A   1      34.214  20.691  25.699  1.00  0.00    -0.355 N 
ATOM     71  C   UNL A   1      32.933  21.170  25.599  1.00  0.00     0.238 C 
ATOM     72  H   UNL A   1      34.350  19.743  25.473  1.00  0.00     0.163 HD
ATOM     73  O   UNL A   1      32.049  20.428  25.172  1.00  0.00    -0.273 OA
BRANCH  71  74
ATOM     74  C   UNL A   1      32.675  22.569  26.094  1.00  0.00     0.162 C 
ATOM     75  C   UNL A   1      31.257  22.850  26.567  1.00  0.00     0.032 C 
ATOM     76  N   UNL A   1      33.033  23.764  25.260  1.00  0.00    -0.185 NA
ATOM     77  C   UNL A   1      31.287  24.348  26.845  1.00  0.00     0.019 C 
ATOM     78  C   UNL A   1      32.525  24.892  26.120  1.00  0.00     0.103 C 
BRANCH  76  79
ATOM     79  S   UNL A   1      32.467  23.919  23.640  1.00  0.00     0.244 S 
ATOM     80  O   UNL A   1      33.515  23.451  22.758  1.00  0.00    -0.207 OA
ATOM     81  O   UNL A   1      31.177  23.260  23.600  1.00  0.00    -0.207 OA
BRANCH  79  82
ATOM     82  C   UNL A   1      32.208  25.648  23.284  1.00  0.00     0.090 A 
ATOM     83  C   UNL A   1      33.309  26.352  22.722  1.00  0.00     0.024 A 
ATOM     84  C   UNL A   1      30.915  26.265  23.358  1.00  0.00     0.005 A 
ATOM     85  C   UNL A   1      33.222  27.697  22.328  1.00  0.00     0.028 A 
ATOM     86  C   UNL A   1      30.878  27.543  22.872  1.00  0.00     0.019 A 
ATOM     87  C   UNL A   1      29.655  25.811  23.842  1.00  0.00     0.010 A 
ATOM     88  C   UNL A   1      31.965  28.256  22.416  1.00  0.00     0.050 A 
ATOM     89  C   UNL A   1      29.764  28.367  22.783  1.00  0.00     0.050 A 
ATOM     90  C   UNL A   1      28.497  26.620  23.773  1.00  0.00     0.002 A 
ATOM     91  N   UNL A   1      31.527  29.522  22.081  1.00  0.00    -0.321 N 
ATOM     92  C   UNL A   1      28.528  27.910  23.227  1.00  0.00     0.014 A 
ATOM     93  C   UNL A   1      30.145  29.667  22.261  1.00  0.00     0.256 C 
ATOM     94  H   UNL A   1      32.117  30.240  21.754  1.00  0.00     0.170 HD
ATOM     95  O   UNL A   1      29.517  30.679  21.979  1.00  0.00    -0.269 OA
ENDBRANCH  79  82
ENDBRANCH  76  79
ENDBRANCH  71  74
ENDBRANCH  69  70
ENDBRANCH  68  69
ENDBRANCH   1  68
TORSDOF 15
ENDMDL
MODEL 3
REMARK VINA RESULT:     -12.3      1.228      1.971
REMARK SMILES O=C(NCCCNC(=O)[C@@H]1CCCN1S(=O)(=O)c1ccc2c3c(cccc13)C(=O)N2)c1ccc(-c2c3nc(c(-c4ccc(S(=O)(=O)[O-])cc4)c4ccc([nH]4)c(-c4ccc(S(=O)(=O)[O-])cc4)c4nc(c(-c5ccc(S(=O)(=O)[O-])cc5)c5ccc2[nH]5)C=C4)C=C3)cc1
REMARK SMILES IDX 4 1 3 2 1 3 2 4 31 6 32 7 90 8 33 9 89 10 34 11 35 12 36 13
REMARK SMILES IDX 83 14 37 15 88 16 82 17 84 18 38 19 87 20 81 21 80 22 39 24
REMARK SMILES IDX 69 25 50 26 68 27 51 28 54 29 67 30 85 31 52 32 53 33 66 35
REMARK SMILES IDX 86 36 55 37 40 38 41 39 49 40 42 41 48 42 43 43 44 44 45 45
REMARK SMILES IDX 46 46 47 47 70 48 71 49 79 50 72 51 78 52 73 53 74 54 75 55
REMARK SMILES IDX 76 56 77 57 56 58 57 59 65 60 58 61 64 62 59 63 60 64 61 65
REMARK SMILES IDX 62 66 63 67 5 68 6 69 7 70 8 71 9 73 10 74 11 75 14 76 12 77
REMARK SMILES IDX 13 78 15 79 16 80 17 81 18 82 19 83 27 84 20 85 22 86 26 87
REMARK SMILES IDX 21 88 23 89 25 90 30 91 24 92 28 93 29 95
REMARK H PARENT 3 5 84 23 54 34 7 72 30 94
REMARK Flexibility Score: inf
ROOT
ATOM      1  C   UNL A   1      33.437  29.020  27.154  1.00  0.00     0.118 C 
ENDROOT
BRANCH   1   2
ATOM      2  N   UNL A   1      33.589  30.363  27.690  1.00  0.00    -0.352 N 
ATOM      3  O   UNL A   1      34.541  32.025  28.895  1.00  0.00    -0.269 OA
ATOM      4  C   UNL A   1      34.647  30.931  28.356  1.00  0.00     0.251 C 
ATOM      5  H   UNL A   1      32.816  30.957  27.555  1.00  0.00     0.163 HD
BRANCH   4   6
ATOM      6  C   UNL A   1      35.908  30.205  28.504  1.00  0.00     0.039 A 
ATOM      7  C   UNL A   1      36.229  29.547  29.691  1.00  0.00     0.014 A 
ATOM      8  C   UNL A   1      36.801  30.243  27.429  1.00  0.00     0.014 A 
ATOM      9  C   UNL A   1      37.531  29.129  29.889  1.00  0.00     0.010 A 
ATOM     10  C   UNL A   1      38.080  29.739  27.595  1.00  0.00     0.010 A 
ATOM     11  C   UNL A   1      38.465  29.255  28.851  1.00  0.00    -0.014 A 
BRANCH  11  12
ATOM     12  C   UNL A   1      39.873  28.913  29.097  1.00  0.00     0.031 A 
ATOM     13  C   UNL A   1      40.771  29.919  29.755  1.00  0.00     0.074 A 
ATOM     14  C   UNL A   1      40.301  27.694  28.733  1.00  0.00     0.049 A 
ATOM     15  N   UNL A   1      42.045  29.823  30.023  1.00  0.00    -0.248 NA
ATOM     16  C   UNL A   1      40.167  31.201  30.162  1.00  0.00     0.031 C 
ATOM     17  C   UNL A   1      39.469  26.663  28.105  1.00  0.00     0.029 A 
ATOM     18  N   UNL A   1      41.531  27.112  28.845  1.00  0.00    -0.354 N 
ATOM     19  C   UNL A   1      42.399  31.033  30.607  1.00  0.00     0.074 A 
ATOM     20  C   UNL A   1      41.214  31.859  30.641  1.00  0.00     0.031 C 
ATOM     21  C   UNL A   1      40.208  25.563  27.913  1.00  0.00     0.029 A 
ATOM     22  C   UNL A   1      41.572  25.832  28.352  1.00  0.00     0.049 A 
ATOM     23  H   UNL A   1      42.311  27.565  29.241  1.00  0.00     0.167 HD
ATOM     24  C   UNL A   1      43.612  31.409  31.072  1.00  0.00     0.031 A 
ATOM     25  C   UNL A   1      42.606  24.980  28.251  1.00  0.00     0.031 A 
ATOM     26  C   UNL A   1      44.769  30.559  31.024  1.00  0.00     0.049 A 
ATOM     27  C   UNL A   1      43.944  25.432  28.750  1.00  0.00     0.074 A 
ATOM     28  C   UNL A   1      46.049  30.819  31.478  1.00  0.00     0.029 A 
ATOM     29  N   UNL A   1      44.781  29.276  30.492  1.00  0.00    -0.354 N 
ATOM     30  N   UNL A   1      44.267  26.581  29.295  1.00  0.00    -0.248 NA
ATOM     31  C   UNL A   1      45.055  24.483  28.623  1.00  0.00     0.031 C 
ATOM     32  C   UNL A   1      46.845  29.707  31.182  1.00  0.00     0.029 A 
ATOM     33  C   UNL A   1      46.049  28.736  30.592  1.00  0.00     0.049 A 
ATOM     34  H   UNL A   1      44.001  28.819  30.102  1.00  0.00     0.167 HD
ATOM     35  C   UNL A   1      45.619  26.493  29.589  1.00  0.00     0.074 A 
ATOM     36  C   UNL A   1      46.050  25.171  29.170  1.00  0.00     0.031 C 
ATOM     37  C   UNL A   1      46.434  27.418  30.154  1.00  0.00     0.031 A 
BRANCH  24  38
ATOM     38  C   UNL A   1      43.755  32.789  31.653  1.00  0.00    -0.014 A 
ATOM     39  C   UNL A   1      43.966  33.906  30.823  1.00  0.00     0.010 A 
ATOM     40  C   UNL A   1      43.608  32.983  33.038  1.00  0.00     0.010 A 
ATOM     41  C   UNL A   1      44.035  35.190  31.373  1.00  0.00     0.020 A 
ATOM     42  C   UNL A   1      43.657  34.268  33.588  1.00  0.00     0.020 A 
ATOM     43  C   UNL A   1      43.872  35.364  32.751  1.00  0.00     0.054 A 
BRANCH  43  44
ATOM     44  S   UNL A   1      43.928  37.047  33.422  1.00  0.00     0.124 S 
ATOM     45  O   UNL A   1      45.014  36.953  34.395  1.00  0.00    -0.237 OA
ATOM     46  O   UNL A   1      44.218  37.849  32.236  1.00  0.00    -0.237 OA
ATOM     47  O   UNL A   1      42.599  37.240  33.996  1.00  0.00    -0.744 OA
ENDBRANCH  43  44
ENDBRANCH  24  38
BRANCH  25  48
ATOM     48  C   UNL A   1      42.379  23.639  27.659  1.00  0.00    -0.014 A 
ATOM     49  C   UNL A   1      42.784  23.365  26.343  1.00  0.00     0.010 A 
ATOM     50  C   UNL A   1      41.860  22.596  28.449  1.00  0.00     0.010 A 
ATOM     51  C   UNL A   1      42.688  22.069  25.830  1.00  0.00     0.020 A 
ATOM     52  C   UNL A   1      41.781  21.294  27.947  1.00  0.00     0.020 A 
ATOM     53  C   UNL A   1      42.199  21.039  26.641  1.00  0.00     0.054 A 
BRANCH  53  54
ATOM     54  S   UNL A   1      42.160  19.353  25.972  1.00  0.00     0.124 S 
ATOM     55  O   UNL A   1      40.735  19.150  25.734  1.00  0.00    -0.237 OA
ATOM     56  O   UNL A   1      42.989  19.479  24.775  1.00  0.00    -0.237 OA
ATOM     57  O   UNL A   1      42.738  18.543  27.041  1.00  0.00    -0.744 OA
ENDBRANCH  53  54
ENDBRANCH  25  48
BRANCH  37  58
ATOM     58  C   UNL A   1      47.865  27.026  30.366  1.00  0.00    -0.014 A 
ATOM     59  C   UNL A   1      48.857  27.409  29.448  1.00  0.00     0.010 A 
ATOM     60  C   UNL A   1      48.228  26.352  31.544  1.00  0.00     0.010 A 
ATOM     61  C   UNL A   1      50.197  27.111  29.703  1.00  0.00     0.020 A 
ATOM     62  C   UNL A   1      49.568  26.072  31.812  1.00  0.00     0.020 A 
ATOM     63  C   UNL A   1      50.543  26.451  30.888  1.00  0.00     0.054 A 
BRANCH  63  64
ATOM     64  S   UNL A   1      52.296  26.125  31.212  1.00  0.00     0.124 S 
ATOM     65  O   UNL A   1      52.246  24.829  31.883  1.00  0.00    -0.237 OA
ATOM     66  O   UNL A   1      52.867  26.117  29.869  1.00  0.00    -0.237 OA
ATOM     67  O   UNL A   1      52.708  27.245  32.055  1.00  0.00    -0.744 OA
ENDBRANCH  63  64
ENDBRANCH  37  58
ENDBRANCH  11  12
ENDBRANCH   4   6
ENDBRANCH   1   2
BRANCH   1  68
ATOM     68  C   UNL A   1      32.058  28.426  27.399  1.00  0.00     0.042 C 
BRANCH  68  69
ATOM     69  C   UNL A   1      31.977  26.921  27.225  1.00  0.00     0.117 C 
BRANCH  69  70
ATOM     70  N   UNL A   1      30.832  26.487  26.441  1.00  0.00    -0.355 N 
ATOM     71  C   UNL A   1      30.678  26.603  25.084  1.00  0.00     0.238 C 
ATOM     72  H   UNL A   1      30.092  26.066  26.935  1.00  0.00     0.163 HD
ATOM     73  O   UNL A   1      29.678  26.121  24.552  1.00  0.00    -0.273 OA
BRANCH  71  74
ATOM     74  C   UNL A   1      31.720  27.388  24.332  1.00  0.00     0.162 C 
ATOM     75  C   UNL A   1      31.214  28.181  23.137  1.00  0.00     0.032 C 
ATOM     76  N   UNL A   1      32.976  26.731  23.838  1.00  0.00    -0.185 NA
ATOM     77  C   UNL A   1      32.501  28.717  22.521  1.00  0.00     0.019 C 
ATOM     78  C   UNL A   1      33.638  27.868  23.103  1.00  0.00     0.103 C 
BRANCH  76  79
ATOM     79  S   UNL A   1      32.912  25.316  22.857  1.00  0.00     0.244 S 
ATOM     80  O   UNL A   1      31.584  25.232  22.287  1.00  0.00    -0.207 OA
ATOM     81  O   UNL A   1      34.051  25.394  21.964  1.00  0.00    -0.207 OA
BRANCH  79  82
ATOM     82  C   UNL A   1      33.133  23.884  23.899  1.00  0.00     0.090 A 
ATOM     83  C   UNL A   1      33.477  24.134  25.256  1.00  0.00     0.024 A 
ATOM     84  C   UNL A   1      32.789  22.559  23.471  1.00  0.00     0.005 A 
ATOM     85  C   UNL A   1      33.611  23.104  26.203  1.00  0.00     0.028 A 
ATOM     86  C   UNL A   1      32.850  21.619  24.463  1.00  0.00     0.019 A 
ATOM     87  C   UNL A   1      32.396  22.023  22.211  1.00  0.00     0.010 A 
ATOM     88  C   UNL A   1      33.275  21.846  25.753  1.00  0.00     0.050 A 
ATOM     89  C   UNL A   1      32.538  20.271  24.350  1.00  0.00     0.050 A 
ATOM     90  C   UNL A   1      32.074  20.655  22.054  1.00  0.00     0.002 A 
ATOM     91  N   UNL A   1      33.256  20.637  26.420  1.00  0.00    -0.321 N 
ATOM     92  C   UNL A   1      32.124  19.755  23.127  1.00  0.00     0.014 A 
ATOM     93  C   UNL A   1      32.781  19.596  25.612  1.00  0.00     0.256 C 
ATOM     94  H   UNL A   1      33.544  20.520  27.355  1.00  0.00     0.170 HD
ATOM     95  O   UNL A   1      32.621  18.445  25.997  1.00  0.00    -0.269 OA
ENDBRANCH  79  82
ENDBRANCH  76  79
ENDBRANCH  71  74
ENDBRANCH  69  70
ENDBRANCH  68  69
ENDBRANCH   1  68
TORSDOF 15
ENDMDL
