MODEL 1
REMARK VINA RESULT:     -12.3      0.000      0.000
REMARK SMILES Nc1nc(N2CCCCC2)nc2c1[C@H](C(=O)NCCCNC(=O)c1ccc(-c3c4nc(c(-c5ccc(S(=O)(=O)[O-])cc5)c5ccc([nH]5)c(-c5ccc(S(=O)(=O)[O-])cc5)c5nc(c(-c6ccc(S(=O)(=O)[O-])cc6)c6ccc3[nH]6)C=C5)C=C4)cc1)CC(=O)N2
REMARK SMILES IDX 20 1 19 2 18 3 17 4 15 5 16 6 14 8 2 9 3 10 13 11 4 12 12 13
REMARK SMILES IDX 11 14 87 15 84 16 85 17 86 19 1 20 5 23 6 24 10 25 7 26 9 27
REMARK SMILES IDX 8 28 21 29 22 30 23 32 24 33 25 34 83 35 26 36 82 37 27 38
REMARK SMILES IDX 28 39 29 40 76 41 30 42 81 43 75 44 77 45 31 46 80 47 74 48
REMARK SMILES IDX 73 49 32 51 62 52 43 53 61 54 44 55 47 56 60 57 78 58 45 59
REMARK SMILES IDX 46 60 59 62 79 63 48 64 33 65 34 66 42 67 35 68 41 69 36 70
REMARK SMILES IDX 37 71 38 72 39 73 40 74 63 75 64 76 72 77 65 78 71 79 66 80
REMARK SMILES IDX 67 81 68 82 69 83 70 84 49 85 50 86 58 87 51 88 57 89 52 90
REMARK SMILES IDX 53 91 54 92 55 93 56 94
REMARK H PARENT 17 7 87 18 1 21 1 22 21 31 77 50 47 61
REMARK Flexibility Score: inf
ROOT
ATOM      1  C   UNL A   1      33.783  28.211  26.389  1.00  0.00     0.118 C 
ENDROOT
BRANCH   1   2
ATOM      2  C   UNL A   1      33.673  28.058  24.884  1.00  0.00     0.042 C 
BRANCH   2   3
ATOM      3  C   UNL A   1      32.787  26.914  24.434  1.00  0.00     0.117 C 
BRANCH   3   4
ATOM      4  N   UNL A   1      33.422  25.994  23.522  1.00  0.00    -0.355 N 
ATOM      5  C   UNL A   1      33.803  24.702  23.727  1.00  0.00     0.228 C 
ATOM      6  O   UNL A   1      34.195  24.083  22.737  1.00  0.00    -0.274 OA
ATOM      7  H   UNL A   1      33.605  26.350  22.622  1.00  0.00     0.163 HD
BRANCH   5   8
ATOM      8  C   UNL A   1      33.786  24.070  25.135  1.00  0.00     0.125 C 
ATOM      9  C   UNL A   1      32.136  22.106  25.471  1.00  0.00     0.135 A 
ATOM     10  N   UNL A   1      31.807  20.827  25.248  1.00  0.00    -0.196 NA
ATOM     11  C   UNL A   1      33.368  22.620  25.129  1.00  0.00     0.050 A 
ATOM     12  C   UNL A   1      32.745  20.004  24.769  1.00  0.00     0.229 A 
ATOM     13  C   UNL A   1      34.289  21.669  24.746  1.00  0.00     0.144 A 
ATOM     14  N   UNL A   1      34.008  20.377  24.554  1.00  0.00    -0.195 NA
ATOM     15  N   UNL A   1      35.626  22.025  24.612  1.00  0.00    -0.310 N 
ATOM     16  C   UNL A   1      35.204  24.170  25.718  1.00  0.00     0.119 C 
ATOM     17  C   UNL A   1      36.160  23.207  25.038  1.00  0.00     0.226 C 
ATOM     18  H   UNL A   1      36.231  21.378  24.182  1.00  0.00     0.171 HD
ATOM     19  O   UNL A   1      37.371  23.414  24.982  1.00  0.00    -0.275 OA
BRANCH   9  20
ATOM     20  N   UNL A   1      31.120  22.853  26.021  1.00  0.00    -0.383 N 
ATOM     21  H   UNL A   1      31.206  23.831  26.082  1.00  0.00     0.158 HD
ATOM     22  H   UNL A   1      30.307  22.408  26.353  1.00  0.00     0.158 HD
ENDBRANCH   9  20
BRANCH  12  23
ATOM     23  N   UNL A   1      32.421  18.697  24.513  1.00  0.00    -0.341 N 
ATOM     24  C   UNL A   1      32.551  17.723  25.581  1.00  0.00     0.119 C 
ATOM     25  C   UNL A   1      32.467  18.267  23.130  1.00  0.00     0.119 C 
ATOM     26  C   UNL A   1      33.725  16.777  25.337  1.00  0.00     0.022 C 
ATOM     27  C   UNL A   1      33.661  17.339  22.895  1.00  0.00     0.022 C 
ATOM     28  C   UNL A   1      33.693  16.208  23.921  1.00  0.00     0.004 C 
ENDBRANCH  12  23
ENDBRANCH   5   8
ENDBRANCH   3   4
ENDBRANCH   2   3
ENDBRANCH   1   2
BRANCH   1  29
ATOM     29  N   UNL A   1      33.570  29.581  26.833  1.00  0.00    -0.352 N 
ATOM     30  C   UNL A   1      34.344  30.403  27.616  1.00  0.00     0.251 C 
ATOM     31  H   UNL A   1      32.730  29.987  26.519  1.00  0.00     0.163 HD
ATOM     32  O   UNL A   1      33.874  31.465  28.011  1.00  0.00    -0.269 OA
BRANCH  30  33
ATOM     33  C   UNL A   1      35.721  30.017  28.000  1.00  0.00     0.039 A 
ATOM     34  C   UNL A   1      35.951  29.538  29.295  1.00  0.00     0.014 A 
ATOM     35  C   UNL A   1      36.792  30.162  27.117  1.00  0.00     0.014 A 
ATOM     36  C   UNL A   1      37.240  29.157  29.679  1.00  0.00     0.010 A 
ATOM     37  C   UNL A   1      38.052  29.690  27.464  1.00  0.00     0.010 A 
ATOM     38  C   UNL A   1      38.296  29.204  28.757  1.00  0.00    -0.014 A 
BRANCH  38  39
ATOM     39  C   UNL A   1      39.680  28.820  29.127  1.00  0.00     0.031 A 
ATOM     40  C   UNL A   1      40.561  29.822  29.827  1.00  0.00     0.074 A 
ATOM     41  C   UNL A   1      40.162  27.609  28.789  1.00  0.00     0.049 A 
ATOM     42  N   UNL A   1      41.831  29.738  30.128  1.00  0.00    -0.248 NA
ATOM     43  C   UNL A   1      39.935  31.096  30.218  1.00  0.00     0.031 C 
ATOM     44  C   UNL A   1      39.409  26.553  28.112  1.00  0.00     0.029 A 
ATOM     45  N   UNL A   1      41.409  27.066  28.969  1.00  0.00    -0.354 N 
ATOM     46  C   UNL A   1      42.157  30.948  30.728  1.00  0.00     0.074 A 
ATOM     47  C   UNL A   1      40.970  31.772  30.697  1.00  0.00     0.031 C 
ATOM     48  C   UNL A   1      40.201  25.480  27.957  1.00  0.00     0.029 A 
ATOM     49  C   UNL A   1      41.531  25.788  28.475  1.00  0.00     0.049 A 
ATOM     50  H   UNL A   1      42.148  27.545  29.408  1.00  0.00     0.167 HD
ATOM     51  C   UNL A   1      43.333  31.333  31.278  1.00  0.00     0.031 A 
ATOM     52  C   UNL A   1      42.595  24.964  28.435  1.00  0.00     0.031 A 
ATOM     53  C   UNL A   1      44.511  30.508  31.314  1.00  0.00     0.049 A 
ATOM     54  C   UNL A   1      43.907  25.436  29.003  1.00  0.00     0.074 A 
ATOM     55  C   UNL A   1      45.746  30.796  31.868  1.00  0.00     0.029 A 
ATOM     56  N   UNL A   1      44.600  29.232  30.779  1.00  0.00    -0.354 N 
ATOM     57  N   UNL A   1      44.194  26.580  29.578  1.00  0.00    -0.248 NA
ATOM     58  C   UNL A   1      45.035  24.500  28.922  1.00  0.00     0.031 C 
ATOM     59  C   UNL A   1      46.598  29.715  31.618  1.00  0.00     0.029 A 
ATOM     60  C   UNL A   1      45.876  28.727  30.968  1.00  0.00     0.049 A 
ATOM     61  H   UNL A   1      43.864  28.754  30.332  1.00  0.00     0.167 HD
ATOM     62  C   UNL A   1      45.532  26.493  29.944  1.00  0.00     0.074 A 
ATOM     63  C   UNL A   1      45.988  25.175  29.549  1.00  0.00     0.031 C 
ATOM     64  C   UNL A   1      46.318  27.421  30.549  1.00  0.00     0.031 A 
BRANCH  51  65
ATOM     65  C   UNL A   1      43.400  32.711  31.883  1.00  0.00    -0.014 A 
ATOM     66  C   UNL A   1      43.088  32.922  33.239  1.00  0.00     0.010 A 
ATOM     67  C   UNL A   1      43.818  33.802  31.100  1.00  0.00     0.010 A 
ATOM     68  C   UNL A   1      43.160  34.204  33.791  1.00  0.00     0.020 A 
ATOM     69  C   UNL A   1      43.922  35.080  31.657  1.00  0.00     0.020 A 
ATOM     70  C   UNL A   1      43.580  35.274  32.996  1.00  0.00     0.054 A 
BRANCH  70  71
ATOM     71  S   UNL A   1      43.696  36.918  33.752  1.00  0.00     0.124 S 
ATOM     72  O   UNL A   1      42.435  37.005  34.483  1.00  0.00    -0.237 OA
ATOM     73  O   UNL A   1      44.895  36.804  34.579  1.00  0.00    -0.237 OA
ATOM     74  O   UNL A   1      43.814  37.821  32.608  1.00  0.00    -0.744 OA
ENDBRANCH  70  71
ENDBRANCH  51  65
BRANCH  52  75
ATOM     75  C   UNL A   1      42.461  23.604  27.845  1.00  0.00    -0.014 A 
ATOM     76  C   UNL A   1      42.807  23.376  26.502  1.00  0.00     0.010 A 
ATOM     77  C   UNL A   1      42.004  22.525  28.626  1.00  0.00     0.010 A 
ATOM     78  C   UNL A   1      42.693  22.097  25.947  1.00  0.00     0.020 A 
ATOM     79  C   UNL A   1      41.917  21.239  28.083  1.00  0.00     0.020 A 
ATOM     80  C   UNL A   1      42.256  21.035  26.744  1.00  0.00     0.054 A 
BRANCH  80  81
ATOM     81  S   UNL A   1      42.181  19.374  26.018  1.00  0.00     0.124 S 
ATOM     82  O   UNL A   1      42.768  18.553  27.071  1.00  0.00    -0.237 OA
ATOM     83  O   UNL A   1      40.748  19.195  25.799  1.00  0.00    -0.237 OA
ATOM     84  O   UNL A   1      42.979  19.496  24.800  1.00  0.00    -0.744 OA
ENDBRANCH  80  81
ENDBRANCH  52  75
BRANCH  64  85
ATOM     85  C   UNL A   1      47.747  27.034  30.830  1.00  0.00    -0.014 A 
ATOM     86  C   UNL A   1      48.763  27.277  29.889  1.00  0.00     0.010 A 
ATOM     87  C   UNL A   1      48.080  26.439  32.060  1.00  0.00     0.010 A 
ATOM     88  C   UNL A   1      50.078  26.885  30.152  1.00  0.00     0.020 A 
ATOM     89  C   UNL A   1      49.400  26.076  32.342  1.00  0.00     0.020 A 
ATOM     90  C   UNL A   1      50.386  26.281  31.376  1.00  0.00     0.054 A 
BRANCH  90  91
ATOM     91  S   UNL A   1      52.101  25.782  31.691  1.00  0.00     0.124 S 
ATOM     92  O   UNL A   1      52.472  26.654  32.802  1.00  0.00    -0.237 OA
ATOM     93  O   UNL A   1      51.964  24.365  32.023  1.00  0.00    -0.237 OA
ATOM     94  O   UNL A   1      52.782  26.057  30.428  1.00  0.00    -0.744 OA
ENDBRANCH  90  91
ENDBRANCH  64  85
ENDBRANCH  38  39
ENDBRANCH  30  33
ENDBRANCH   1  29
TORSDOF 15
ENDMDL
MODEL 2
REMARK VINA RESULT:     -12.1      3.140      9.926
REMARK SMILES Nc1nc(N2CCCCC2)nc2c1[C@H](C(=O)NCCCNC(=O)c1ccc(-c3c4nc(c(-c5ccc(S(=O)(=O)[O-])cc5)c5ccc([nH]5)c(-c5ccc(S(=O)(=O)[O-])cc5)c5nc(c(-c6ccc(S(=O)(=O)[O-])cc6)c6ccc3[nH]6)C=C5)C=C4)cc1)CC(=O)N2
REMARK SMILES IDX 20 1 19 2 18 3 17 4 15 5 16 6 14 8 2 9 3 10 13 11 4 12 12 13
REMARK SMILES IDX 11 14 87 15 84 16 85 17 86 19 1 20 5 23 6 24 10 25 7 26 9 27
REMARK SMILES IDX 8 28 21 29 22 30 23 32 24 33 25 34 83 35 26 36 82 37 27 38
REMARK SMILES IDX 28 39 29 40 76 41 30 42 81 43 75 44 77 45 31 46 80 47 74 48
REMARK SMILES IDX 73 49 32 51 62 52 43 53 61 54 44 55 47 56 60 57 78 58 45 59
REMARK SMILES IDX 46 60 59 62 79 63 48 64 33 65 34 66 42 67 35 68 41 69 36 70
REMARK SMILES IDX 37 71 38 72 39 73 40 74 63 75 64 76 72 77 65 78 71 79 66 80
REMARK SMILES IDX 67 81 68 82 69 83 70 84 49 85 50 86 58 87 51 88 57 89 52 90
REMARK SMILES IDX 53 91 54 92 55 93 56 94
REMARK H PARENT 17 7 87 18 1 21 1 22 21 31 77 50 47 61
REMARK Flexibility Score: inf
ROOT
ATOM      1  C   UNL A   1      36.496  23.976  25.277  1.00  0.00     0.118 C 
ENDROOT
BRANCH   1   2
ATOM      2  C   UNL A   1      35.135  23.706  25.889  1.00  0.00     0.042 C 
BRANCH   2   3
ATOM      3  C   UNL A   1      33.965  24.064  24.995  1.00  0.00     0.117 C 
BRANCH   3   4
ATOM      4  N   UNL A   1      32.873  24.715  25.678  1.00  0.00    -0.355 N 
ATOM      5  C   UNL A   1      32.248  25.889  25.380  1.00  0.00     0.228 C 
ATOM      6  O   UNL A   1      31.242  26.156  26.039  1.00  0.00    -0.274 OA
ATOM      7  H   UNL A   1      32.530  24.244  26.472  1.00  0.00     0.163 HD
BRANCH   5   8
ATOM      8  C   UNL A   1      32.803  26.848  24.307  1.00  0.00     0.125 C 
ATOM      9  C   UNL A   1      31.089  27.717  22.574  1.00  0.00     0.135 A 
ATOM     10  N   UNL A   1      30.050  28.509  22.279  1.00  0.00    -0.196 NA
ATOM     11  C   UNL A   1      31.766  27.805  23.772  1.00  0.00     0.050 A 
ATOM     12  C   UNL A   1      29.728  29.480  23.139  1.00  0.00     0.229 A 
ATOM     13  C   UNL A   1      31.424  28.902  24.533  1.00  0.00     0.144 A 
ATOM     14  N   UNL A   1      30.422  29.738  24.250  1.00  0.00    -0.195 NA
ATOM     15  N   UNL A   1      32.198  29.236  25.638  1.00  0.00    -0.310 N 
ATOM     16  C   UNL A   1      33.941  27.663  24.940  1.00  0.00     0.119 C 
ATOM     17  C   UNL A   1      33.416  28.690  25.926  1.00  0.00     0.226 C 
ATOM     18  H   UNL A   1      31.844  29.916  26.256  1.00  0.00     0.171 HD
ATOM     19  O   UNL A   1      34.093  29.107  26.863  1.00  0.00    -0.275 OA
BRANCH   9  20
ATOM     20  N   UNL A   1      31.377  26.792  21.597  1.00  0.00    -0.383 N 
ATOM     21  H   UNL A   1      31.027  25.875  21.671  1.00  0.00     0.158 HD
ATOM     22  H   UNL A   1      31.932  27.047  20.825  1.00  0.00     0.158 HD
ENDBRANCH   9  20
BRANCH  12  23
ATOM     23  N   UNL A   1      28.653  30.287  22.865  1.00  0.00    -0.341 N 
ATOM     24  C   UNL A   1      28.013  30.181  21.567  1.00  0.00     0.119 C 
ATOM     25  C   UNL A   1      28.537  31.510  23.633  1.00  0.00     0.119 C 
ATOM     26  C   UNL A   1      28.299  31.404  20.700  1.00  0.00     0.022 C 
ATOM     27  C   UNL A   1      28.848  32.726  22.758  1.00  0.00     0.022 C 
ATOM     28  C   UNL A   1      28.036  32.700  21.465  1.00  0.00     0.004 C 
ENDBRANCH  12  23
ENDBRANCH   5   8
ENDBRANCH   3   4
ENDBRANCH   2   3
ENDBRANCH   1   2
BRANCH   1  29
ATOM     29  N   UNL A   1      37.461  22.924  25.561  1.00  0.00    -0.352 N 
ATOM     30  C   UNL A   1      38.694  22.973  26.166  1.00  0.00     0.251 C 
ATOM     31  H   UNL A   1      37.183  22.024  25.273  1.00  0.00     0.163 HD
ATOM     32  O   UNL A   1      39.413  21.980  26.135  1.00  0.00    -0.269 OA
BRANCH  30  33
ATOM     33  C   UNL A   1      39.168  24.208  26.831  1.00  0.00     0.039 A 
ATOM     34  C   UNL A   1      39.950  25.111  26.102  1.00  0.00     0.014 A 
ATOM     35  C   UNL A   1      38.891  24.465  28.175  1.00  0.00     0.014 A 
ATOM     36  C   UNL A   1      40.402  26.289  26.704  1.00  0.00     0.010 A 
ATOM     37  C   UNL A   1      39.253  25.680  28.744  1.00  0.00     0.010 A 
ATOM     38  C   UNL A   1      40.033  26.595  28.022  1.00  0.00    -0.014 A 
BRANCH  38  39
ATOM     39  C   UNL A   1      40.500  27.829  28.702  1.00  0.00     0.031 A 
ATOM     40  C   UNL A   1      41.894  27.874  29.271  1.00  0.00     0.074 A 
ATOM     41  C   UNL A   1      39.667  28.875  28.859  1.00  0.00     0.049 A 
ATOM     42  N   UNL A   1      42.457  28.798  30.006  1.00  0.00    -0.248 NA
ATOM     43  C   UNL A   1      42.760  26.714  28.997  1.00  0.00     0.031 C 
ATOM     44  C   UNL A   1      38.296  28.953  28.353  1.00  0.00     0.029 A 
ATOM     45  N   UNL A   1      39.855  30.074  29.497  1.00  0.00    -0.354 N 
ATOM     46  C   UNL A   1      43.733  28.326  30.292  1.00  0.00     0.074 A 
ATOM     47  C   UNL A   1      43.842  27.010  29.703  1.00  0.00     0.031 C 
ATOM     48  C   UNL A   1      37.776  30.148  28.677  1.00  0.00     0.029 A 
ATOM     49  C   UNL A   1      38.756  30.899  29.457  1.00  0.00     0.049 A 
ATOM     50  H   UNL A   1      40.698  30.322  29.943  1.00  0.00     0.167 HD
ATOM     51  C   UNL A   1      44.734  28.941  30.964  1.00  0.00     0.031 A 
ATOM     52  C   UNL A   1      38.556  32.117  29.997  1.00  0.00     0.031 A 
ATOM     53  C   UNL A   1      44.625  30.254  31.544  1.00  0.00     0.049 A 
ATOM     54  C   UNL A   1      39.665  32.756  30.788  1.00  0.00     0.074 A 
ATOM     55  C   UNL A   1      45.588  30.975  32.226  1.00  0.00     0.029 A 
ATOM     56  N   UNL A   1      43.486  31.043  31.504  1.00  0.00    -0.354 N 
ATOM     57  N   UNL A   1      40.870  32.300  31.038  1.00  0.00    -0.248 NA
ATOM     58  C   UNL A   1      39.387  34.079  31.363  1.00  0.00     0.031 C 
ATOM     59  C   UNL A   1      45.014  32.179  32.647  1.00  0.00     0.029 A 
ATOM     60  C   UNL A   1      43.713  32.236  32.171  1.00  0.00     0.049 A 
ATOM     61  H   UNL A   1      42.640  30.794  31.066  1.00  0.00     0.167 HD
ATOM     62  C   UNL A   1      41.500  33.290  31.785  1.00  0.00     0.074 A 
ATOM     63  C   UNL A   1      40.552  34.378  31.920  1.00  0.00     0.031 C 
ATOM     64  C   UNL A   1      42.750  33.298  32.315  1.00  0.00     0.031 A 
BRANCH  51  65
ATOM     65  C   UNL A   1      46.034  28.195  31.111  1.00  0.00    -0.014 A 
ATOM     66  C   UNL A   1      46.253  27.326  32.196  1.00  0.00     0.010 A 
ATOM     67  C   UNL A   1      47.036  28.332  30.133  1.00  0.00     0.010 A 
ATOM     68  C   UNL A   1      47.461  26.634  32.318  1.00  0.00     0.020 A 
ATOM     69  C   UNL A   1      48.234  27.618  30.235  1.00  0.00     0.020 A 
ATOM     70  C   UNL A   1      48.443  26.783  31.334  1.00  0.00     0.054 A 
BRANCH  70  71
ATOM     71  S   UNL A   1      49.985  25.845  31.504  1.00  0.00     0.124 S 
ATOM     72  O   UNL A   1      50.943  26.896  31.838  1.00  0.00    -0.237 OA
ATOM     73  O   UNL A   1      49.672  24.913  32.585  1.00  0.00    -0.237 OA
ATOM     74  O   UNL A   1      50.168  25.233  30.190  1.00  0.00    -0.744 OA
ENDBRANCH  70  71
ENDBRANCH  51  65
BRANCH  52  75
ATOM     75  C   UNL A   1      37.256  32.815  29.797  1.00  0.00    -0.014 A 
ATOM     76  C   UNL A   1      36.266  32.768  30.793  1.00  0.00     0.010 A 
ATOM     77  C   UNL A   1      37.007  33.546  28.621  1.00  0.00     0.010 A 
ATOM     78  C   UNL A   1      35.048  33.432  30.615  1.00  0.00     0.020 A 
ATOM     79  C   UNL A   1      35.803  34.235  28.451  1.00  0.00     0.020 A 
ATOM     80  C   UNL A   1      34.828  34.168  29.448  1.00  0.00     0.054 A 
BRANCH  80  81
ATOM     81  S   UNL A   1      33.266  35.074  29.270  1.00  0.00     0.124 S 
ATOM     82  O   UNL A   1      32.557  34.272  28.279  1.00  0.00    -0.237 OA
ATOM     83  O   UNL A   1      32.725  35.030  30.626  1.00  0.00    -0.237 OA
ATOM     84  O   UNL A   1      33.687  36.399  28.819  1.00  0.00    -0.744 OA
ENDBRANCH  80  81
ENDBRANCH  52  75
BRANCH  64  85
ATOM     85  C   UNL A   1      43.165  34.529  33.079  1.00  0.00    -0.014 A 
ATOM     86  C   UNL A   1      42.961  34.625  34.467  1.00  0.00     0.010 A 
ATOM     87  C   UNL A   1      43.787  35.594  32.403  1.00  0.00     0.010 A 
ATOM     88  C   UNL A   1      43.322  35.785  35.156  1.00  0.00     0.020 A 
ATOM     89  C   UNL A   1      44.181  36.743  33.094  1.00  0.00     0.020 A 
ATOM     90  C   UNL A   1      43.925  36.839  34.463  1.00  0.00     0.054 A 
BRANCH  90  91
ATOM     91  S   UNL A   1      44.385  38.333  35.382  1.00  0.00     0.124 S 
ATOM     92  O   UNL A   1      43.865  38.042  36.715  1.00  0.00    -0.237 OA
ATOM     93  O   UNL A   1      45.842  38.345  35.265  1.00  0.00    -0.237 OA
ATOM     94  O   UNL A   1      43.699  39.407  34.667  1.00  0.00    -0.744 OA
ENDBRANCH  90  91
ENDBRANCH  64  85
ENDBRANCH  38  39
ENDBRANCH  30  33
ENDBRANCH   1  29
TORSDOF 15
ENDMDL
MODEL 3
REMARK VINA RESULT:     -11.7      2.169      2.819
REMARK SMILES Nc1nc(N2CCCCC2)nc2c1[C@H](C(=O)NCCCNC(=O)c1ccc(-c3c4nc(c(-c5ccc(S(=O)(=O)[O-])cc5)c5ccc([nH]5)c(-c5ccc(S(=O)(=O)[O-])cc5)c5nc(c(-c6ccc(S(=O)(=O)[O-])cc6)c6ccc3[nH]6)C=C5)C=C4)cc1)CC(=O)N2
REMARK SMILES IDX 20 1 19 2 18 3 17 4 15 5 16 6 14 8 2 9 3 10 13 11 4 12 12 13
REMARK SMILES IDX 11 14 87 15 84 16 85 17 86 19 1 20 5 23 6 24 10 25 7 26 9 27
REMARK SMILES IDX 8 28 21 29 22 30 23 32 24 33 25 34 83 35 26 36 82 37 27 38
REMARK SMILES IDX 28 39 29 40 76 41 30 42 81 43 75 44 77 45 31 46 80 47 74 48
REMARK SMILES IDX 73 49 32 51 62 52 43 53 61 54 44 55 47 56 60 57 78 58 45 59
REMARK SMILES IDX 46 60 59 62 79 63 48 64 33 65 34 66 42 67 35 68 41 69 36 70
REMARK SMILES IDX 37 71 38 72 39 73 40 74 63 75 64 76 72 77 65 78 71 79 66 80
REMARK SMILES IDX 67 81 68 82 69 83 70 84 49 85 50 86 58 87 51 88 57 89 52 90
REMARK SMILES IDX 53 91 54 92 55 93 56 94
REMARK H PARENT 17 7 87 18 1 21 1 22 21 31 77 50 47 61
REMARK Flexibility Score: inf
ROOT
ATOM      1  C   UNL A   1      34.080  28.346  26.023  1.00  0.00     0.118 C 
ENDROOT
BRANCH   1   2
ATOM      2  C   UNL A   1      33.923  28.086  24.537  1.00  0.00     0.042 C 
BRANCH   2   3
ATOM      3  C   UNL A   1      32.999  26.934  24.197  1.00  0.00     0.117 C 
BRANCH   3   4
ATOM      4  N   UNL A   1      33.581  25.944  23.324  1.00  0.00    -0.355 N 
ATOM      5  C   UNL A   1      33.882  24.640  23.581  1.00  0.00     0.228 C 
ATOM      6  O   UNL A   1      34.240  23.961  22.617  1.00  0.00    -0.274 OA
ATOM      7  H   UNL A   1      33.789  26.253  22.413  1.00  0.00     0.163 HD
BRANCH   5   8
ATOM      8  C   UNL A   1      33.821  24.065  25.011  1.00  0.00     0.125 C 
ATOM      9  C   UNL A   1      32.162  22.113  25.374  1.00  0.00     0.135 A 
ATOM     10  N   UNL A   1      31.841  20.825  25.192  1.00  0.00    -0.196 NA
ATOM     11  C   UNL A   1      33.405  22.615  25.051  1.00  0.00     0.050 A 
ATOM     12  C   UNL A   1      32.794  19.986  24.775  1.00  0.00     0.229 A 
ATOM     13  C   UNL A   1      34.337  21.650  24.734  1.00  0.00     0.144 A 
ATOM     14  N   UNL A   1      34.063  20.352  24.585  1.00  0.00    -0.195 NA
ATOM     15  N   UNL A   1      35.677  22.003  24.629  1.00  0.00    -0.310 N 
ATOM     16  C   UNL A   1      35.220  24.190  25.634  1.00  0.00     0.119 C 
ATOM     17  C   UNL A   1      36.197  23.202  25.023  1.00  0.00     0.226 C 
ATOM     18  H   UNL A   1      36.296  21.341  24.243  1.00  0.00     0.171 HD
ATOM     19  O   UNL A   1      37.409  23.408  24.997  1.00  0.00    -0.275 OA
BRANCH   9  20
ATOM     20  N   UNL A   1      31.129  22.879  25.862  1.00  0.00    -0.383 N 
ATOM     21  H   UNL A   1      31.268  23.444  26.656  1.00  0.00     0.158 HD
ATOM     22  H   UNL A   1      30.251  22.863  25.417  1.00  0.00     0.158 HD
ENDBRANCH   9  20
BRANCH  12  23
ATOM     23  N   UNL A   1      32.478  18.668  24.561  1.00  0.00    -0.341 N 
ATOM     24  C   UNL A   1      32.675  17.719  25.641  1.00  0.00     0.119 C 
ATOM     25  C   UNL A   1      32.464  18.211  23.187  1.00  0.00     0.119 C 
ATOM     26  C   UNL A   1      33.850  16.786  25.359  1.00  0.00     0.022 C 
ATOM     27  C   UNL A   1      33.659  17.296  22.912  1.00  0.00     0.022 C 
ATOM     28  C   UNL A   1      33.759  16.187  23.957  1.00  0.00     0.004 C 
ENDBRANCH  12  23
ENDBRANCH   5   8
ENDBRANCH   3   4
ENDBRANCH   2   3
ENDBRANCH   1   2
BRANCH   1  29
ATOM     29  N   UNL A   1      33.786  29.724  26.389  1.00  0.00    -0.352 N 
ATOM     30  C   UNL A   1      34.378  30.557  27.308  1.00  0.00     0.251 C 
ATOM     31  H   UNL A   1      33.038  30.129  25.892  1.00  0.00     0.163 HD
ATOM     32  O   UNL A   1      33.842  31.628  27.574  1.00  0.00    -0.269 OA
BRANCH  30  33
ATOM     33  C   UNL A   1      35.634  30.170  27.990  1.00  0.00     0.039 A 
ATOM     34  C   UNL A   1      36.851  30.373  27.329  1.00  0.00     0.014 A 
ATOM     35  C   UNL A   1      35.625  29.570  29.250  1.00  0.00     0.014 A 
ATOM     36  C   UNL A   1      38.051  30.026  27.955  1.00  0.00     0.010 A 
ATOM     37  C   UNL A   1      36.820  29.318  29.913  1.00  0.00     0.010 A 
ATOM     38  C   UNL A   1      38.046  29.521  29.264  1.00  0.00    -0.014 A 
BRANCH  38  39
ATOM     39  C   UNL A   1      39.297  29.130  29.959  1.00  0.00     0.031 A 
ATOM     40  C   UNL A   1      39.728  29.891  31.186  1.00  0.00     0.074 A 
ATOM     41  C   UNL A   1      40.068  28.142  29.467  1.00  0.00     0.049 A 
ATOM     42  N   UNL A   1      40.840  29.798  31.869  1.00  0.00    -0.248 NA
ATOM     43  C   UNL A   1      38.796  30.912  31.694  1.00  0.00     0.031 C 
ATOM     44  C   UNL A   1      39.758  27.330  28.289  1.00  0.00     0.029 A 
ATOM     45  N   UNL A   1      41.276  27.657  29.898  1.00  0.00    -0.354 N 
ATOM     46  C   UNL A   1      40.745  30.751  32.875  1.00  0.00     0.074 A 
ATOM     47  C   UNL A   1      39.497  31.454  32.680  1.00  0.00     0.031 C 
ATOM     48  C   UNL A   1      40.738  26.430  28.107  1.00  0.00     0.029 A 
ATOM     49  C   UNL A   1      41.769  26.634  29.122  1.00  0.00     0.049 A 
ATOM     50  H   UNL A   1      41.748  28.007  30.688  1.00  0.00     0.167 HD
ATOM     51  C   UNL A   1      41.608  31.006  33.886  1.00  0.00     0.031 A 
ATOM     52  C   UNL A   1      42.924  25.947  29.210  1.00  0.00     0.031 A 
ATOM     53  C   UNL A   1      42.847  30.301  34.083  1.00  0.00     0.049 A 
ATOM     54  C   UNL A   1      43.893  26.287  30.311  1.00  0.00     0.074 A 
ATOM     55  C   UNL A   1      43.781  30.467  35.089  1.00  0.00     0.029 A 
ATOM     56  N   UNL A   1      43.321  29.291  33.259  1.00  0.00    -0.354 N 
ATOM     57  N   UNL A   1      43.782  27.184  31.262  1.00  0.00    -0.248 NA
ATOM     58  C   UNL A   1      45.141  25.513  30.352  1.00  0.00     0.031 C 
ATOM     59  C   UNL A   1      44.848  29.596  34.842  1.00  0.00     0.029 A 
ATOM     60  C   UNL A   1      44.547  28.841  33.719  1.00  0.00     0.049 A 
ATOM     61  H   UNL A   1      42.855  28.945  32.464  1.00  0.00     0.167 HD
ATOM     62  C   UNL A   1      44.938  27.070  32.026  1.00  0.00     0.074 A 
ATOM     63  C   UNL A   1      45.720  25.998  31.441  1.00  0.00     0.031 C 
ATOM     64  C   UNL A   1      45.322  27.788  33.112  1.00  0.00     0.031 A 
BRANCH  51  65
ATOM     65  C   UNL A   1      41.240  32.097  34.857  1.00  0.00    -0.014 A 
ATOM     66  C   UNL A   1      41.531  33.445  34.576  1.00  0.00     0.010 A 
ATOM     67  C   UNL A   1      40.559  31.779  36.046  1.00  0.00     0.010 A 
ATOM     68  C   UNL A   1      41.179  34.450  35.481  1.00  0.00     0.020 A 
ATOM     69  C   UNL A   1      40.177  32.785  36.939  1.00  0.00     0.020 A 
ATOM     70  C   UNL A   1      40.501  34.112  36.656  1.00  0.00     0.054 A 
BRANCH  70  71
ATOM     71  S   UNL A   1      40.027  35.444  37.793  1.00  0.00     0.124 S 
ATOM     72  O   UNL A   1      41.170  35.485  38.702  1.00  0.00    -0.237 OA
ATOM     73  O   UNL A   1      39.894  36.591  36.900  1.00  0.00    -0.237 OA
ATOM     74  O   UNL A   1      38.779  34.968  38.386  1.00  0.00    -0.744 OA
ENDBRANCH  70  71
ENDBRANCH  51  65
BRANCH  52  75
ATOM     75  C   UNL A   1      43.222  24.862  28.235  1.00  0.00    -0.014 A 
ATOM     76  C   UNL A   1      42.781  23.550  28.479  1.00  0.00     0.010 A 
ATOM     77  C   UNL A   1      43.930  25.135  27.050  1.00  0.00     0.010 A 
ATOM     78  C   UNL A   1      43.048  22.529  27.561  1.00  0.00     0.020 A 
ATOM     79  C   UNL A   1      44.174  24.124  26.116  1.00  0.00     0.020 A 
ATOM     80  C   UNL A   1      43.736  22.825  26.381  1.00  0.00     0.054 A 
BRANCH  80  81
ATOM     81  S   UNL A   1      44.012  21.496  25.176  1.00  0.00     0.124 S 
ATOM     82  O   UNL A   1      42.910  20.586  25.468  1.00  0.00    -0.237 OA
ATOM     83  O   UNL A   1      43.926  22.208  23.904  1.00  0.00    -0.237 OA
ATOM     84  O   UNL A   1      45.343  20.998  25.515  1.00  0.00    -0.744 OA
ENDBRANCH  80  81
ENDBRANCH  52  75
BRANCH  64  85
ATOM     85  C   UNL A   1      46.642  27.428  33.743  1.00  0.00    -0.014 A 
ATOM     86  C   UNL A   1      47.833  28.064  33.350  1.00  0.00     0.010 A 
ATOM     87  C   UNL A   1      46.688  26.455  34.758  1.00  0.00     0.010 A 
ATOM     88  C   UNL A   1      49.052  27.696  33.922  1.00  0.00     0.020 A 
ATOM     89  C   UNL A   1      47.901  26.109  35.359  1.00  0.00     0.020 A 
ATOM     90  C   UNL A   1      49.079  26.717  34.920  1.00  0.00     0.054 A 
BRANCH  90  91
ATOM     91  S   UNL A   1      50.676  26.259  35.647  1.00  0.00     0.124 S 
ATOM     92  O   UNL A   1      50.437  24.879  36.060  1.00  0.00    -0.237 OA
ATOM     93  O   UNL A   1      51.597  26.428  34.524  1.00  0.00    -0.237 OA
ATOM     94  O   UNL A   1      50.850  27.215  36.737  1.00  0.00    -0.744 OA
ENDBRANCH  90  91
ENDBRANCH  64  85
ENDBRANCH  38  39
ENDBRANCH  30  33
ENDBRANCH   1  29
TORSDOF 15
ENDMDL
