MODEL 1
REMARK VINA RESULT:     -11.1      0.000      0.000
REMARK SMILES Cc1cc(C)cc(S(=O)(=O)N2CSC[C@H]2C(=O)NCCCNC(=O)c2ccc(-c3c4nc(c(-c5ccc(S(=O)(=O)[O-])cc5)c5ccc([nH]5)c(-c5ccc(S(=O)(=O)[O-])cc5)c5nc(c(-c6ccc(S(=O)(=O)[O-])cc6)c6ccc3[nH]6)C=C5)C=C4)cc2)c1
REMARK SMILES IDX 20 1 19 2 18 3 16 4 17 5 15 7 11 8 12 9 13 10 14 11 8 12
REMARK SMILES IDX 9 13 10 14 7 15 1 16 2 17 3 18 85 19 4 20 5 21 6 22 21 23
REMARK SMILES IDX 22 24 23 25 24 27 25 28 26 29 84 30 27 31 83 32 28 33 29 34
REMARK SMILES IDX 30 35 77 36 31 37 82 38 76 39 78 40 32 41 81 42 75 43 74 44
REMARK SMILES IDX 33 46 63 47 44 48 62 49 45 50 48 51 61 52 79 53 46 54 47 55
REMARK SMILES IDX 60 57 80 58 49 59 34 60 35 61 43 62 36 63 42 64 37 65 38 66
REMARK SMILES IDX 39 67 40 68 41 69 64 70 65 71 73 72 66 73 72 74 67 75 68 76
REMARK SMILES IDX 69 77 70 78 71 79 50 80 51 81 59 82 52 83 58 84 53 85 54 86
REMARK SMILES IDX 55 87 56 88 57 89
REMARK H PARENT 18 6 22 26 78 45 48 56
REMARK Flexibility Score: inf
ROOT
ATOM      1  C   UNL A   1      32.347  27.856  26.934  1.00  0.00     0.042 C 
ENDROOT
BRANCH   1   2
ATOM      2  C   UNL A   1      32.377  26.459  26.345  1.00  0.00     0.117 C 
BRANCH   2   3
ATOM      3  N   UNL A   1      33.715  25.938  26.177  1.00  0.00    -0.355 N 
ATOM      4  C   UNL A   1      34.163  24.739  25.713  1.00  0.00     0.239 C 
ATOM      5  O   UNL A   1      35.382  24.643  25.540  1.00  0.00    -0.273 OA
ATOM      6  H   UNL A   1      34.429  26.560  26.448  1.00  0.00     0.163 HD
BRANCH   4   7
ATOM      7  C   UNL A   1      33.240  23.555  25.396  1.00  0.00     0.173 C 
ATOM      8  N   UNL A   1      33.597  22.890  24.122  1.00  0.00    -0.175 NA
ATOM      9  C   UNL A   1      34.123  21.538  24.247  1.00  0.00     0.172 C 
ATOM     10  S   UNL A   1      33.715  20.924  25.903  1.00  0.00    -0.143 SA
ATOM     11  C   UNL A   1      33.106  22.528  26.518  1.00  0.00     0.101 C 
BRANCH   8  12
ATOM     12  S   UNL A   1      32.760  23.298  22.716  1.00  0.00     0.244 S 
ATOM     13  O   UNL A   1      31.510  22.558  22.745  1.00  0.00    -0.207 OA
ATOM     14  O   UNL A   1      33.668  23.205  21.603  1.00  0.00    -0.207 OA
BRANCH  12  15
ATOM     15  C   UNL A   1      32.311  25.024  22.856  1.00  0.00     0.083 A 
ATOM     16  C   UNL A   1      29.233  27.162  23.483  1.00  0.00     0.044 C 
ATOM     17  C   UNL A   1      30.654  26.773  23.200  1.00  0.00    -0.050 A 
ATOM     18  C   UNL A   1      31.630  27.734  22.940  1.00  0.00     0.007 A 
ATOM     19  C   UNL A   1      31.019  25.428  23.181  1.00  0.00     0.025 A 
ATOM     20  C   UNL A   1      32.950  27.353  22.647  1.00  0.00    -0.050 A 
ATOM     21  C   UNL A   1      33.978  28.416  22.393  1.00  0.00     0.044 C 
ATOM     22  C   UNL A   1      33.285  25.991  22.592  1.00  0.00     0.025 A 
ENDBRANCH  12  15
ENDBRANCH   8  12
ENDBRANCH   4   7
ENDBRANCH   2   3
ENDBRANCH   1   2
BRANCH   1  23
ATOM     23  C   UNL A   1      33.661  28.590  26.740  1.00  0.00     0.118 C 
BRANCH  23  24
ATOM     24  N   UNL A   1      33.587  29.967  27.218  1.00  0.00    -0.352 N 
ATOM     25  C   UNL A   1      34.455  30.685  27.999  1.00  0.00     0.251 C 
ATOM     26  H   UNL A   1      32.785  30.461  26.933  1.00  0.00     0.163 HD
ATOM     27  O   UNL A   1      34.083  31.755  28.474  1.00  0.00    -0.269 OA
BRANCH  25  28
ATOM     28  C   UNL A   1      35.818  30.183  28.263  1.00  0.00     0.039 A 
ATOM     29  C   UNL A   1      36.118  29.679  29.531  1.00  0.00     0.014 A 
ATOM     30  C   UNL A   1      36.817  30.265  27.289  1.00  0.00     0.014 A 
ATOM     31  C   UNL A   1      37.412  29.241  29.812  1.00  0.00     0.010 A 
ATOM     32  C   UNL A   1      38.075  29.732  27.535  1.00  0.00     0.010 A 
ATOM     33  C   UNL A   1      38.396  29.256  28.812  1.00  0.00    -0.014 A 
BRANCH  33  34
ATOM     34  C   UNL A   1      39.795  28.868  29.105  1.00  0.00     0.031 A 
ATOM     35  C   UNL A   1      40.714  29.859  29.770  1.00  0.00     0.074 A 
ATOM     36  C   UNL A   1      40.240  27.649  28.745  1.00  0.00     0.049 A 
ATOM     37  N   UNL A   1      41.983  29.740  30.062  1.00  0.00    -0.248 NA
ATOM     38  C   UNL A   1      40.141  31.170  30.126  1.00  0.00     0.031 C 
ATOM     39  C   UNL A   1      39.454  26.626  28.050  1.00  0.00     0.029 A 
ATOM     40  N   UNL A   1      41.469  27.066  28.913  1.00  0.00    -0.354 N 
ATOM     41  C   UNL A   1      42.357  30.958  30.617  1.00  0.00     0.074 A 
ATOM     42  C   UNL A   1      41.205  31.827  30.560  1.00  0.00     0.031 C 
ATOM     43  C   UNL A   1      40.213  25.531  27.877  1.00  0.00     0.029 A 
ATOM     44  C   UNL A   1      41.543  25.785  28.421  1.00  0.00     0.049 A 
ATOM     45  H   UNL A   1      42.227  27.521  29.346  1.00  0.00     0.167 HD
ATOM     46  C   UNL A   1      43.546  31.315  31.161  1.00  0.00     0.031 A 
ATOM     47  C   UNL A   1      42.570  24.915  28.412  1.00  0.00     0.031 A 
ATOM     48  C   UNL A   1      44.680  30.437  31.243  1.00  0.00     0.049 A 
ATOM     49  C   UNL A   1      43.869  25.324  29.052  1.00  0.00     0.074 A 
ATOM     50  C   UNL A   1      45.923  30.682  31.798  1.00  0.00     0.029 A 
ATOM     51  N   UNL A   1      44.700  29.132  30.774  1.00  0.00    -0.354 N 
ATOM     52  N   UNL A   1      44.192  26.469  29.605  1.00  0.00    -0.248 NA
ATOM     53  C   UNL A   1      44.933  24.313  29.090  1.00  0.00     0.031 C 
ATOM     54  C   UNL A   1      46.704  29.531  31.640  1.00  0.00     0.029 A 
ATOM     55  C   UNL A   1      45.931  28.556  31.032  1.00  0.00     0.049 A 
ATOM     56  H   UNL A   1      43.948  28.681  30.325  1.00  0.00     0.167 HD
ATOM     57  C   UNL A   1      45.488  26.305  30.084  1.00  0.00     0.074 A 
ATOM     58  C   UNL A   1      45.876  24.944  29.774  1.00  0.00     0.031 C 
ATOM     59  C   UNL A   1      46.287  27.197  30.720  1.00  0.00     0.031 A 
BRANCH  46  60
ATOM     60  C   UNL A   1      43.661  32.703  31.732  1.00  0.00    -0.014 A 
ATOM     61  C   UNL A   1      43.958  33.799  30.902  1.00  0.00     0.010 A 
ATOM     62  C   UNL A   1      43.432  32.925  33.102  1.00  0.00     0.010 A 
ATOM     63  C   UNL A   1      44.058  35.086  31.435  1.00  0.00     0.020 A 
ATOM     64  C   UNL A   1      43.504  34.216  33.634  1.00  0.00     0.020 A 
ATOM     65  C   UNL A   1      43.829  35.287  32.798  1.00  0.00     0.054 A 
BRANCH  65  66
ATOM     66  S   UNL A   1      43.925  36.976  33.454  1.00  0.00     0.124 S 
ATOM     67  O   UNL A   1      44.093  37.763  32.234  1.00  0.00    -0.237 OA
ATOM     68  O   UNL A   1      42.639  37.130  34.128  1.00  0.00    -0.237 OA
ATOM     69  O   UNL A   1      45.088  36.939  34.337  1.00  0.00    -0.744 OA
ENDBRANCH  65  66
ENDBRANCH  46  60
BRANCH  47  70
ATOM     70  C   UNL A   1      42.409  23.567  27.802  1.00  0.00    -0.014 A 
ATOM     71  C   UNL A   1      41.862  22.505  28.542  1.00  0.00     0.010 A 
ATOM     72  C   UNL A   1      42.821  23.336  26.477  1.00  0.00     0.010 A 
ATOM     73  C   UNL A   1      41.772  21.226  27.987  1.00  0.00     0.020 A 
ATOM     74  C   UNL A   1      42.706  22.064  25.907  1.00  0.00     0.020 A 
ATOM     75  C   UNL A   1      42.200  21.012  26.673  1.00  0.00     0.054 A 
BRANCH  75  76
ATOM     76  S   UNL A   1      42.064  19.348  25.965  1.00  0.00     0.124 S 
ATOM     77  O   UNL A   1      42.918  19.450  24.786  1.00  0.00    -0.237 OA
ATOM     78  O   UNL A   1      42.569  18.501  27.043  1.00  0.00    -0.237 OA
ATOM     79  O   UNL A   1      40.635  19.210  25.694  1.00  0.00    -0.744 OA
ENDBRANCH  75  76
ENDBRANCH  47  70
BRANCH  59  80
ATOM     80  C   UNL A   1      47.638  26.706  31.163  1.00  0.00    -0.014 A 
ATOM     81  C   UNL A   1      47.846  26.217  32.464  1.00  0.00     0.010 A 
ATOM     82  C   UNL A   1      48.710  26.721  30.252  1.00  0.00     0.010 A 
ATOM     83  C   UNL A   1      49.118  25.803  32.864  1.00  0.00     0.020 A 
ATOM     84  C   UNL A   1      49.976  26.280  30.639  1.00  0.00     0.020 A 
ATOM     85  C   UNL A   1      50.178  25.846  31.952  1.00  0.00     0.054 A 
BRANCH  85  86
ATOM     86  S   UNL A   1      51.820  25.300  32.490  1.00  0.00     0.124 S 
ATOM     87  O   UNL A   1      51.865  25.787  33.866  1.00  0.00    -0.237 OA
ATOM     88  O   UNL A   1      51.744  23.848  32.339  1.00  0.00    -0.237 OA
ATOM     89  O   UNL A   1      52.728  25.969  31.562  1.00  0.00    -0.744 OA
ENDBRANCH  85  86
ENDBRANCH  59  80
ENDBRANCH  33  34
ENDBRANCH  25  28
ENDBRANCH  23  24
ENDBRANCH   1  23
TORSDOF 15
ENDMDL
MODEL 2
REMARK VINA RESULT:     -11.1      2.728      9.128
REMARK SMILES Cc1cc(C)cc(S(=O)(=O)N2CSC[C@H]2C(=O)NCCCNC(=O)c2ccc(-c3c4nc(c(-c5ccc(S(=O)(=O)[O-])cc5)c5ccc([nH]5)c(-c5ccc(S(=O)(=O)[O-])cc5)c5nc(c(-c6ccc(S(=O)(=O)[O-])cc6)c6ccc3[nH]6)C=C5)C=C4)cc2)c1
REMARK SMILES IDX 20 1 19 2 18 3 16 4 17 5 15 7 11 8 12 9 13 10 14 11 8 12
REMARK SMILES IDX 9 13 10 14 7 15 1 16 2 17 3 18 85 19 4 20 5 21 6 22 21 23
REMARK SMILES IDX 22 24 23 25 24 27 25 28 26 29 84 30 27 31 83 32 28 33 29 34
REMARK SMILES IDX 30 35 77 36 31 37 82 38 76 39 78 40 32 41 81 42 75 43 74 44
REMARK SMILES IDX 33 46 63 47 44 48 62 49 45 50 48 51 61 52 79 53 46 54 47 55
REMARK SMILES IDX 60 57 80 58 49 59 34 60 35 61 43 62 36 63 42 64 37 65 38 66
REMARK SMILES IDX 39 67 40 68 41 69 64 70 65 71 73 72 66 73 72 74 67 75 68 76
REMARK SMILES IDX 69 77 70 78 71 79 50 80 51 81 59 82 52 83 58 84 53 85 54 86
REMARK SMILES IDX 55 87 56 88 57 89
REMARK H PARENT 18 6 22 26 78 45 48 56
REMARK Flexibility Score: inf
ROOT
ATOM      1  C   UNL A   1      35.889  23.761  26.165  1.00  0.00     0.042 C 
ENDROOT
BRANCH   1   2
ATOM      2  C   UNL A   1      34.539  23.636  25.485  1.00  0.00     0.117 C 
BRANCH   2   3
ATOM      3  N   UNL A   1      33.448  24.144  26.286  1.00  0.00    -0.355 N 
ATOM      4  C   UNL A   1      32.160  24.446  25.963  1.00  0.00     0.239 C 
ATOM      5  O   UNL A   1      31.412  24.717  26.908  1.00  0.00    -0.273 OA
ATOM      6  H   UNL A   1      33.676  24.300  27.231  1.00  0.00     0.163 HD
BRANCH   4   7
ATOM      7  C   UNL A   1      31.624  24.448  24.525  1.00  0.00     0.173 C 
ATOM      8  N   UNL A   1      32.119  25.605  23.744  1.00  0.00    -0.175 NA
ATOM      9  C   UNL A   1      33.030  25.282  22.655  1.00  0.00     0.172 C 
ATOM     10  S   UNL A   1      32.884  23.510  22.304  1.00  0.00    -0.143 SA
ATOM     11  C   UNL A   1      31.844  23.148  23.756  1.00  0.00     0.101 C 
BRANCH   8  12
ATOM     12  S   UNL A   1      31.147  26.976  23.597  1.00  0.00     0.244 S 
ATOM     13  O   UNL A   1      29.855  26.635  24.167  1.00  0.00    -0.207 OA
ATOM     14  O   UNL A   1      31.272  27.479  22.254  1.00  0.00    -0.207 OA
BRANCH  12  15
ATOM     15  C   UNL A   1      31.841  28.227  24.669  1.00  0.00     0.083 A 
ATOM     16  C   UNL A   1      34.778  28.692  27.036  1.00  0.00     0.044 C 
ATOM     17  C   UNL A   1      33.525  28.975  26.261  1.00  0.00    -0.050 A 
ATOM     18  C   UNL A   1      32.820  30.165  26.430  1.00  0.00     0.007 A 
ATOM     19  C   UNL A   1      33.036  28.032  25.358  1.00  0.00     0.025 A 
ATOM     20  C   UNL A   1      31.632  30.403  25.719  1.00  0.00    -0.050 A 
ATOM     21  C   UNL A   1      30.914  31.705  25.912  1.00  0.00     0.044 C 
ATOM     22  C   UNL A   1      31.137  29.422  24.846  1.00  0.00     0.025 A 
ENDBRANCH  12  15
ENDBRANCH   8  12
ENDBRANCH   4   7
ENDBRANCH   2   3
ENDBRANCH   1   2
BRANCH   1  23
ATOM     23  C   UNL A   1      37.039  23.713  25.176  1.00  0.00     0.118 C 
BRANCH  23  24
ATOM     24  N   UNL A   1      38.068  22.763  25.587  1.00  0.00    -0.352 N 
ATOM     25  C   UNL A   1      39.256  22.966  26.238  1.00  0.00     0.251 C 
ATOM     26  H   UNL A   1      37.877  21.824  25.359  1.00  0.00     0.163 HD
ATOM     27  O   UNL A   1      40.078  22.054  26.277  1.00  0.00    -0.269 OA
BRANCH  25  28
ATOM     28  C   UNL A   1      39.544  24.260  26.888  1.00  0.00     0.039 A 
ATOM     29  C   UNL A   1      40.236  25.238  26.168  1.00  0.00     0.014 A 
ATOM     30  C   UNL A   1      39.193  24.490  28.221  1.00  0.00     0.014 A 
ATOM     31  C   UNL A   1      40.556  26.449  26.781  1.00  0.00     0.010 A 
ATOM     32  C   UNL A   1      39.417  25.734  28.795  1.00  0.00     0.010 A 
ATOM     33  C   UNL A   1      40.139  26.709  28.096  1.00  0.00    -0.014 A 
BRANCH  33  34
ATOM     34  C   UNL A   1      40.529  27.955  28.793  1.00  0.00     0.031 A 
ATOM     35  C   UNL A   1      41.906  28.064  29.398  1.00  0.00     0.074 A 
ATOM     36  C   UNL A   1      39.643  28.962  28.910  1.00  0.00     0.049 A 
ATOM     37  N   UNL A   1      42.425  29.040  30.095  1.00  0.00    -0.248 NA
ATOM     38  C   UNL A   1      42.807  26.911  29.224  1.00  0.00     0.031 C 
ATOM     39  C   UNL A   1      38.267  28.948  28.409  1.00  0.00     0.029 A 
ATOM     40  N   UNL A   1      39.771  30.196  29.493  1.00  0.00    -0.354 N 
ATOM     41  C   UNL A   1      43.698  28.613  30.452  1.00  0.00     0.074 A 
ATOM     42  C   UNL A   1      43.852  27.265  29.956  1.00  0.00     0.031 C 
ATOM     43  C   UNL A   1      37.687  30.129  28.681  1.00  0.00     0.029 A 
ATOM     44  C   UNL A   1      38.639  30.969  29.400  1.00  0.00     0.049 A 
ATOM     45  H   UNL A   1      40.596  30.500  29.936  1.00  0.00     0.167 HD
ATOM     46  C   UNL A   1      44.671  29.293  31.105  1.00  0.00     0.031 A 
ATOM     47  C   UNL A   1      38.399  32.217  29.845  1.00  0.00     0.031 A 
ATOM     48  C   UNL A   1      44.524  30.645  31.570  1.00  0.00     0.049 A 
ATOM     49  C   UNL A   1      39.508  32.962  30.538  1.00  0.00     0.074 A 
ATOM     50  C   UNL A   1      45.452  31.440  32.217  1.00  0.00     0.029 A 
ATOM     51  N   UNL A   1      43.377  31.409  31.416  1.00  0.00    -0.354 N 
ATOM     52  N   UNL A   1      40.719  32.553  30.834  1.00  0.00    -0.248 NA
ATOM     53  C   UNL A   1      39.225  34.348  30.933  1.00  0.00     0.031 C 
ATOM     54  C   UNL A   1      44.856  32.680  32.477  1.00  0.00     0.029 A 
ATOM     55  C   UNL A   1      43.575  32.670  31.949  1.00  0.00     0.049 A 
ATOM     56  H   UNL A   1      42.545  31.100  30.989  1.00  0.00     0.167 HD
ATOM     57  C   UNL A   1      41.352  33.642  31.423  1.00  0.00     0.074 A 
ATOM     58  C   UNL A   1      40.397  34.731  31.419  1.00  0.00     0.031 C 
ATOM     59  C   UNL A   1      42.609  33.737  31.925  1.00  0.00     0.031 A 
BRANCH  46  60
ATOM     60  C   UNL A   1      45.984  28.590  31.323  1.00  0.00    -0.014 A 
ATOM     61  C   UNL A   1      46.200  27.814  32.477  1.00  0.00     0.010 A 
ATOM     62  C   UNL A   1      46.999  28.670  30.353  1.00  0.00     0.010 A 
ATOM     63  C   UNL A   1      47.418  27.158  32.673  1.00  0.00     0.020 A 
ATOM     64  C   UNL A   1      48.209  27.992  30.533  1.00  0.00     0.020 A 
ATOM     65  C   UNL A   1      48.415  27.251  31.699  1.00  0.00     0.054 A 
BRANCH  65  66
ATOM     66  S   UNL A   1      49.970  26.354  31.962  1.00  0.00     0.124 S 
ATOM     67  O   UNL A   1      50.219  26.594  33.382  1.00  0.00    -0.237 OA
ATOM     68  O   UNL A   1      49.611  24.983  31.611  1.00  0.00    -0.237 OA
ATOM     69  O   UNL A   1      50.904  27.004  31.046  1.00  0.00    -0.744 OA
ENDBRANCH  65  66
ENDBRANCH  46  60
BRANCH  47  70
ATOM     70  C   UNL A   1      37.070  32.849  29.631  1.00  0.00    -0.014 A 
ATOM     71  C   UNL A   1      36.736  33.416  28.388  1.00  0.00     0.010 A 
ATOM     72  C   UNL A   1      36.134  32.904  30.680  1.00  0.00     0.010 A 
ATOM     73  C   UNL A   1      35.512  34.065  28.211  1.00  0.00     0.020 A 
ATOM     74  C   UNL A   1      34.896  33.526  30.498  1.00  0.00     0.020 A 
ATOM     75  C   UNL A   1      34.601  34.122  29.269  1.00  0.00     0.054 A 
BRANCH  75  76
ATOM     76  S   UNL A   1      33.011  34.958  29.016  1.00  0.00     0.124 S 
ATOM     77  O   UNL A   1      33.433  36.262  28.515  1.00  0.00    -0.237 OA
ATOM     78  O   UNL A   1      32.345  34.091  28.048  1.00  0.00    -0.237 OA
ATOM     79  O   UNL A   1      32.414  34.962  30.350  1.00  0.00    -0.744 OA
ENDBRANCH  75  76
ENDBRANCH  47  70
BRANCH  59  80
ATOM     80  C   UNL A   1      43.029  35.076  32.462  1.00  0.00    -0.014 A 
ATOM     81  C   UNL A   1      42.846  35.410  33.816  1.00  0.00     0.010 A 
ATOM     82  C   UNL A   1      43.634  36.007  31.599  1.00  0.00     0.010 A 
ATOM     83  C   UNL A   1      43.211  36.674  34.283  1.00  0.00     0.020 A 
ATOM     84  C   UNL A   1      44.026  37.261  32.069  1.00  0.00     0.020 A 
ATOM     85  C   UNL A   1      43.790  37.596  33.404  1.00  0.00     0.054 A 
BRANCH  85  86
ATOM     86  S   UNL A   1      44.258  39.230  34.032  1.00  0.00     0.124 S 
ATOM     87  O   UNL A   1      45.409  39.557  33.195  1.00  0.00    -0.237 OA
ATOM     88  O   UNL A   1      43.057  40.026  33.790  1.00  0.00    -0.237 OA
ATOM     89  O   UNL A   1      44.561  38.985  35.441  1.00  0.00    -0.744 OA
ENDBRANCH  85  86
ENDBRANCH  59  80
ENDBRANCH  33  34
ENDBRANCH  25  28
ENDBRANCH  23  24
ENDBRANCH   1  23
TORSDOF 15
ENDMDL
MODEL 3
REMARK VINA RESULT:     -10.8      4.354      5.693
REMARK SMILES Cc1cc(C)cc(S(=O)(=O)N2CSC[C@H]2C(=O)NCCCNC(=O)c2ccc(-c3c4nc(c(-c5ccc(S(=O)(=O)[O-])cc5)c5ccc([nH]5)c(-c5ccc(S(=O)(=O)[O-])cc5)c5nc(c(-c6ccc(S(=O)(=O)[O-])cc6)c6ccc3[nH]6)C=C5)C=C4)cc2)c1
REMARK SMILES IDX 20 1 19 2 18 3 16 4 17 5 15 7 11 8 12 9 13 10 14 11 8 12
REMARK SMILES IDX 9 13 10 14 7 15 1 16 2 17 3 18 85 19 4 20 5 21 6 22 21 23
REMARK SMILES IDX 22 24 23 25 24 27 25 28 26 29 84 30 27 31 83 32 28 33 29 34
REMARK SMILES IDX 30 35 77 36 31 37 82 38 76 39 78 40 32 41 81 42 75 43 74 44
REMARK SMILES IDX 33 46 63 47 44 48 62 49 45 50 48 51 61 52 79 53 46 54 47 55
REMARK SMILES IDX 60 57 80 58 49 59 34 60 35 61 43 62 36 63 42 64 37 65 38 66
REMARK SMILES IDX 39 67 40 68 41 69 64 70 65 71 73 72 66 73 72 74 67 75 68 76
REMARK SMILES IDX 69 77 70 78 71 79 50 80 51 81 59 82 52 83 58 84 53 85 54 86
REMARK SMILES IDX 55 87 56 88 57 89
REMARK H PARENT 18 6 22 26 78 45 48 56
REMARK Flexibility Score: inf
ROOT
ATOM      1  C   UNL A   1      31.656  32.137  26.872  1.00  0.00     0.042 C 
ENDROOT
BRANCH   1   2
ATOM      2  C   UNL A   1      31.774  30.724  26.335  1.00  0.00     0.117 C 
BRANCH   2   3
ATOM      3  N   UNL A   1      33.046  30.104  26.635  1.00  0.00    -0.355 N 
ATOM      4  C   UNL A   1      33.559  28.891  26.290  1.00  0.00     0.239 C 
ATOM      5  O   UNL A   1      34.748  28.703  26.569  1.00  0.00    -0.273 OA
ATOM      6  H   UNL A   1      33.646  30.656  27.187  1.00  0.00     0.163 HD
BRANCH   4   7
ATOM      7  C   UNL A   1      32.747  27.796  25.584  1.00  0.00     0.173 C 
ATOM      8  N   UNL A   1      33.433  27.279  24.378  1.00  0.00    -0.175 NA
ATOM      9  C   UNL A   1      33.892  25.900  24.462  1.00  0.00     0.172 C 
ATOM     10  S   UNL A   1      33.041  25.105  25.851  1.00  0.00    -0.143 SA
ATOM     11  C   UNL A   1      32.302  26.646  26.483  1.00  0.00     0.101 C 
BRANCH   8  12
ATOM     12  S   UNL A   1      33.016  27.894  22.865  1.00  0.00     0.244 S 
ATOM     13  O   UNL A   1      33.194  26.814  21.911  1.00  0.00    -0.207 OA
ATOM     14  O   UNL A   1      33.668  29.167  22.696  1.00  0.00    -0.207 OA
BRANCH  12  15
ATOM     15  C   UNL A   1      31.260  28.230  22.902  1.00  0.00     0.083 A 
ATOM     16  C   UNL A   1      28.016  26.520  23.899  1.00  0.00     0.044 C 
ATOM     17  C   UNL A   1      28.970  27.554  23.379  1.00  0.00    -0.050 A 
ATOM     18  C   UNL A   1      28.514  28.748  22.823  1.00  0.00     0.007 A 
ATOM     19  C   UNL A   1      30.344  27.326  23.434  1.00  0.00     0.025 A 
ATOM     20  C   UNL A   1      29.419  29.694  22.313  1.00  0.00    -0.050 A 
ATOM     21  C   UNL A   1      28.891  30.976  21.742  1.00  0.00     0.044 C 
ATOM     22  C   UNL A   1      30.796  29.424  22.342  1.00  0.00     0.025 A 
ENDBRANCH  12  15
ENDBRANCH   8  12
ENDBRANCH   4   7
ENDBRANCH   2   3
ENDBRANCH   1   2
BRANCH   1  23
ATOM     23  C   UNL A   1      32.973  32.658  27.417  1.00  0.00     0.118 C 
BRANCH  23  24
ATOM     24  N   UNL A   1      32.900  34.079  27.742  1.00  0.00    -0.352 N 
ATOM     25  C   UNL A   1      33.520  34.798  28.730  1.00  0.00     0.251 C 
ATOM     26  H   UNL A   1      32.310  34.607  27.157  1.00  0.00     0.163 HD
ATOM     27  O   UNL A   1      33.134  35.940  28.968  1.00  0.00    -0.269 OA
BRANCH  25  28
ATOM     28  C   UNL A   1      34.637  34.211  29.497  1.00  0.00     0.039 A 
ATOM     29  C   UNL A   1      35.944  34.409  29.044  1.00  0.00     0.014 A 
ATOM     30  C   UNL A   1      34.400  33.418  30.622  1.00  0.00     0.014 A 
ATOM     31  C   UNL A   1      37.008  33.825  29.730  1.00  0.00     0.010 A 
ATOM     32  C   UNL A   1      35.465  32.927  31.366  1.00  0.00     0.010 A 
ATOM     33  C   UNL A   1      36.776  33.089  30.902  1.00  0.00    -0.014 A 
BRANCH  33  34
ATOM     34  C   UNL A   1      37.879  32.398  31.608  1.00  0.00     0.031 A 
ATOM     35  C   UNL A   1      38.311  32.888  32.966  1.00  0.00     0.074 A 
ATOM     36  C   UNL A   1      38.507  31.364  31.017  1.00  0.00     0.049 A 
ATOM     37  N   UNL A   1      39.286  32.462  33.725  1.00  0.00    -0.248 NA
ATOM     38  C   UNL A   1      37.567  34.028  33.534  1.00  0.00     0.031 C 
ATOM     39  C   UNL A   1      38.209  30.836  29.683  1.00  0.00     0.029 A 
ATOM     40  N   UNL A   1      39.532  30.573  31.465  1.00  0.00    -0.354 N 
ATOM     41  C   UNL A   1      39.282  33.288  34.843  1.00  0.00     0.074 A 
ATOM     42  C   UNL A   1      38.254  34.283  34.636  1.00  0.00     0.031 C 
ATOM     43  C   UNL A   1      39.014  29.789  29.434  1.00  0.00     0.029 A 
ATOM     44  C   UNL A   1      39.902  29.594  30.575  1.00  0.00     0.049 A 
ATOM     45  H   UNL A   1      39.963  30.694  32.342  1.00  0.00     0.167 HD
ATOM     46  C   UNL A   1      40.040  33.207  35.962  1.00  0.00     0.031 A 
ATOM     47  C   UNL A   1      40.852  28.644  30.672  1.00  0.00     0.031 A 
ATOM     48  C   UNL A   1      41.041  32.198  36.176  1.00  0.00     0.049 A 
ATOM     49  C   UNL A   1      41.659  28.555  31.940  1.00  0.00     0.074 A 
ATOM     50  C   UNL A   1      41.848  32.004  37.282  1.00  0.00     0.029 A 
ATOM     51  N   UNL A   1      41.353  31.197  35.269  1.00  0.00    -0.354 N 
ATOM     52  N   UNL A   1      41.614  29.324  33.002  1.00  0.00    -0.248 NA
ATOM     53  C   UNL A   1      42.626  27.454  32.030  1.00  0.00     0.031 C 
ATOM     54  C   UNL A   1      42.669  30.898  37.032  1.00  0.00     0.029 A 
ATOM     55  C   UNL A   1      42.336  30.377  35.792  1.00  0.00     0.049 A 
ATOM     56  H   UNL A   1      40.936  31.085  34.383  1.00  0.00     0.167 HD
ATOM     57  C   UNL A   1      42.526  28.780  33.900  1.00  0.00     0.074 A 
ATOM     58  C   UNL A   1      43.087  27.607  33.263  1.00  0.00     0.031 C 
ATOM     59  C   UNL A   1      42.872  29.211  35.139  1.00  0.00     0.031 A 
BRANCH  46  60
ATOM     60  C   UNL A   1      39.792  34.223  37.045  1.00  0.00    -0.014 A 
ATOM     61  C   UNL A   1      39.092  33.871  38.213  1.00  0.00     0.010 A 
ATOM     62  C   UNL A   1      40.294  35.530  36.917  1.00  0.00     0.010 A 
ATOM     63  C   UNL A   1      38.869  34.814  39.219  1.00  0.00     0.020 A 
ATOM     64  C   UNL A   1      40.097  36.470  37.934  1.00  0.00     0.020 A 
ATOM     65  C   UNL A   1      39.373  36.108  39.073  1.00  0.00     0.054 A 
BRANCH  65  66
ATOM     66  S   UNL A   1      39.104  37.300  40.415  1.00  0.00     0.124 S 
ATOM     67  O   UNL A   1      38.484  36.464  41.439  1.00  0.00    -0.237 OA
ATOM     68  O   UNL A   1      40.459  37.758  40.712  1.00  0.00    -0.237 OA
ATOM     69  O   UNL A   1      38.228  38.304  39.815  1.00  0.00    -0.744 OA
ENDBRANCH  65  66
ENDBRANCH  46  60
BRANCH  47  70
ATOM     70  C   UNL A   1      41.077  27.688  29.554  1.00  0.00    -0.014 A 
ATOM     71  C   UNL A   1      40.152  26.662  29.290  1.00  0.00     0.010 A 
ATOM     72  C   UNL A   1      42.231  27.790  28.757  1.00  0.00     0.010 A 
ATOM     73  C   UNL A   1      40.399  25.729  28.280  1.00  0.00     0.020 A 
ATOM     74  C   UNL A   1      42.467  26.875  27.726  1.00  0.00     0.020 A 
ATOM     75  C   UNL A   1      41.559  25.837  27.508  1.00  0.00     0.054 A 
BRANCH  75  76
ATOM     76  S   UNL A   1      41.856  24.623  26.194  1.00  0.00     0.124 S 
ATOM     77  O   UNL A   1      40.779  23.664  26.419  1.00  0.00    -0.237 OA
ATOM     78  O   UNL A   1      41.743  25.430  24.982  1.00  0.00    -0.237 OA
ATOM     79  O   UNL A   1      43.203  24.133  26.482  1.00  0.00    -0.744 OA
ENDBRANCH  75  76
ENDBRANCH  47  70
BRANCH  59  80
ATOM     80  C   UNL A   1      43.866  28.376  35.897  1.00  0.00    -0.014 A 
ATOM     81  C   UNL A   1      45.247  28.629  35.812  1.00  0.00     0.010 A 
ATOM     82  C   UNL A   1      43.406  27.335  36.722  1.00  0.00     0.010 A 
ATOM     83  C   UNL A   1      46.154  27.816  36.496  1.00  0.00     0.020 A 
ATOM     84  C   UNL A   1      44.307  26.539  37.431  1.00  0.00     0.020 A 
ATOM     85  C   UNL A   1      45.678  26.770  37.294  1.00  0.00     0.054 A 
BRANCH  85  86
ATOM     86  S   UNL A   1      46.871  25.730  38.177  1.00  0.00     0.124 S 
ATOM     87  O   UNL A   1      47.983  26.654  38.384  1.00  0.00    -0.237 OA
ATOM     88  O   UNL A   1      46.138  25.348  39.382  1.00  0.00    -0.237 OA
ATOM     89  O   UNL A   1      47.134  24.637  37.243  1.00  0.00    -0.744 OA
ENDBRANCH  85  86
ENDBRANCH  59  80
ENDBRANCH  33  34
ENDBRANCH  25  28
ENDBRANCH  23  24
ENDBRANCH   1  23
TORSDOF 15
ENDMDL
