MODEL 1
REMARK VINA RESULT:      -9.9      0.000      0.000
REMARK SMILES Cc1[nH]c(=O)sc1S(=O)(=O)NC1(CC(=O)NCCCNC(=O)c2ccc(-c3c4nc(c(-c5ccc(S(=O)(=O)[O-])cc5)c5ccc([nH]5)c(-c5ccc(S(=O)(=O)[O-])cc5)c5nc(c(-c6ccc(S(=O)(=O)[O-])cc6)c6ccc3[nH]6)C=C5)C=C4)cc2)CCC1
REMARK SMILES IDX 17 1 16 2 14 3 15 4 13 6 12 7 83 8 85 9 84 10 11 11 8 13
REMARK SMILES IDX 9 14 10 15 7 16 1 17 2 18 3 19 4 20 6 22 5 23 18 24 19 25
REMARK SMILES IDX 20 26 21 27 22 29 23 30 24 31 82 32 25 33 81 34 26 35 27 36
REMARK SMILES IDX 28 37 75 38 29 39 80 40 74 41 76 42 30 43 79 44 73 45 72 46
REMARK SMILES IDX 31 48 61 49 42 50 60 51 43 52 46 53 59 54 77 55 44 56 45 57
REMARK SMILES IDX 58 59 78 60 47 61 32 62 33 63 41 64 34 65 40 66 35 67 36 68
REMARK SMILES IDX 37 69 38 70 39 71 62 72 63 73 71 74 64 75 70 76 65 77 66 78
REMARK SMILES IDX 67 79 68 80 69 81 48 82 49 83 57 84 50 85 56 86 51 87 52 88
REMARK SMILES IDX 53 89 54 90 55 91
REMARK H PARENT 16 5 11 12 3 21 20 28 76 47 46 58
REMARK Flexibility Score: inf
ROOT
ATOM      1  C   UNL A   1      44.213  23.987  24.700  1.00  0.00     0.117 C 
ENDROOT
BRANCH   1   2
ATOM      2  N   UNL A   1      43.350  25.157  24.674  1.00  0.00    -0.356 N 
ATOM      3  C   UNL A   1      43.490  26.389  25.237  1.00  0.00     0.221 C 
ATOM      4  O   UNL A   1      42.840  27.322  24.760  1.00  0.00    -0.275 OA
ATOM      5  H   UNL A   1      42.520  25.037  24.158  1.00  0.00     0.163 HD
BRANCH   3   6
ATOM      6  C   UNL A   1      44.468  26.664  26.355  1.00  0.00     0.123 C 
BRANCH   6   7
ATOM      7  C   UNL A   1      45.949  26.908  26.015  1.00  0.00     0.042 C 
ATOM      8  C   UNL A   1      46.576  28.028  26.942  1.00  0.00     0.024 C 
ATOM      9  C   UNL A   1      46.150  27.912  24.850  1.00  0.00     0.024 C 
ATOM     10  C   UNL A   1      46.473  29.043  25.815  1.00  0.00     0.004 C 
BRANCH   7  11
ATOM     11  N   UNL A   1      46.829  25.690  26.166  1.00  0.00    -0.204 NA
ATOM     12  H   UNL A   1      46.520  25.101  25.392  1.00  0.00     0.142 HD
BRANCH  11  13
ATOM     13  S   UNL A   1      47.161  24.554  27.370  1.00  0.00     0.252 S 
ATOM     14  O   UNL A   1      48.600  24.521  27.483  1.00  0.00    -0.206 OA
ATOM     15  O   UNL A   1      46.449  23.382  26.900  1.00  0.00    -0.206 OA
BRANCH  13  16
ATOM     16  C   UNL A   1      46.512  25.001  28.905  1.00  0.00     0.158 A 
ATOM     17  C   UNL A   1      48.407  26.520  29.803  1.00  0.00     0.067 C 
ATOM     18  C   UNL A   1      47.109  25.786  29.821  1.00  0.00     0.046 A 
ATOM     19  N   UNL A   1      46.358  25.905  30.973  1.00  0.00    -0.315 N 
ATOM     20  C   UNL A   1      45.136  25.282  30.993  1.00  0.00     0.305 A 
ATOM     21  H   UNL A   1      46.686  26.416  31.748  1.00  0.00     0.170 HD
ATOM     22  S   UNL A   1      44.906  24.519  29.434  1.00  0.00    -0.061 S 
ATOM     23  O   UNL A   1      44.366  25.230  31.924  1.00  0.00    -0.257 OA
ENDBRANCH  13  16
ENDBRANCH  11  13
ENDBRANCH   7  11
ENDBRANCH   6   7
ENDBRANCH   3   6
ENDBRANCH   1   2
BRANCH   1  24
ATOM     24  C   UNL A   1      43.453  22.660  24.780  1.00  0.00     0.042 C 
BRANCH  24  25
ATOM     25  C   UNL A   1      42.666  22.484  26.055  1.00  0.00     0.118 C 
BRANCH  25  26
ATOM     26  N   UNL A   1      41.247  22.195  25.857  1.00  0.00    -0.352 N 
ATOM     27  C   UNL A   1      40.174  22.874  26.427  1.00  0.00     0.251 C 
ATOM     28  H   UNL A   1      41.027  21.443  25.262  1.00  0.00     0.163 HD
ATOM     29  O   UNL A   1      39.067  22.351  26.482  1.00  0.00    -0.269 OA
BRANCH  27  30
ATOM     30  C   UNL A   1      40.402  24.240  26.950  1.00  0.00     0.039 A 
ATOM     31  C   UNL A   1      39.934  25.403  26.332  1.00  0.00     0.014 A 
ATOM     32  C   UNL A   1      41.094  24.327  28.147  1.00  0.00     0.014 A 
ATOM     33  C   UNL A   1      40.143  26.631  26.970  1.00  0.00     0.010 A 
ATOM     34  C   UNL A   1      41.011  25.457  28.894  1.00  0.00     0.010 A 
ATOM     35  C   UNL A   1      40.689  26.642  28.262  1.00  0.00    -0.014 A 
BRANCH  35  36
ATOM     36  C   UNL A   1      40.886  27.842  29.068  1.00  0.00     0.031 A 
ATOM     37  C   UNL A   1      42.006  28.698  28.599  1.00  0.00     0.074 A 
ATOM     38  C   UNL A   1      39.934  28.271  29.937  1.00  0.00     0.049 A 
ATOM     39  N   UNL A   1      43.124  28.940  29.197  1.00  0.00    -0.248 NA
ATOM     40  C   UNL A   1      41.953  29.215  27.222  1.00  0.00     0.031 C 
ATOM     41  C   UNL A   1      38.622  27.667  30.241  1.00  0.00     0.029 A 
ATOM     42  N   UNL A   1      39.867  29.430  30.641  1.00  0.00    -0.354 N 
ATOM     43  C   UNL A   1      43.800  29.841  28.379  1.00  0.00     0.074 A 
ATOM     44  C   UNL A   1      43.150  29.788  27.098  1.00  0.00     0.031 C 
ATOM     45  C   UNL A   1      37.817  28.580  30.832  1.00  0.00     0.029 A 
ATOM     46  C   UNL A   1      38.601  29.762  31.125  1.00  0.00     0.049 A 
ATOM     47  H   UNL A   1      40.657  29.995  30.800  1.00  0.00     0.167 HD
ATOM     48  C   UNL A   1      44.649  30.771  28.902  1.00  0.00     0.031 A 
ATOM     49  C   UNL A   1      38.225  30.930  31.714  1.00  0.00     0.031 A 
ATOM     50  C   UNL A   1      44.957  30.477  30.279  1.00  0.00     0.049 A 
ATOM     51  C   UNL A   1      39.477  31.582  32.173  1.00  0.00     0.074 A 
ATOM     52  C   UNL A   1      45.542  29.413  30.937  1.00  0.00     0.029 A 
ATOM     53  N   UNL A   1      44.233  31.162  31.230  1.00  0.00    -0.354 N 
ATOM     54  N   UNL A   1      40.257  31.060  33.080  1.00  0.00    -0.248 NA
ATOM     55  C   UNL A   1      40.114  32.521  31.264  1.00  0.00     0.031 C 
ATOM     56  C   UNL A   1      44.751  29.234  32.110  1.00  0.00     0.029 A 
ATOM     57  C   UNL A   1      43.795  30.251  32.159  1.00  0.00     0.049 A 
ATOM     58  H   UNL A   1      44.061  32.131  31.241  1.00  0.00     0.167 HD
ATOM     59  C   UNL A   1      41.543  31.245  32.589  1.00  0.00     0.074 A 
ATOM     60  C   UNL A   1      41.395  32.221  31.506  1.00  0.00     0.031 C 
ATOM     61  C   UNL A   1      42.553  30.376  32.897  1.00  0.00     0.031 A 
BRANCH  48  62
ATOM     62  C   UNL A   1      44.848  32.150  28.320  1.00  0.00    -0.014 A 
ATOM     63  C   UNL A   1      46.152  32.540  27.952  1.00  0.00     0.010 A 
ATOM     64  C   UNL A   1      43.869  33.164  28.373  1.00  0.00     0.010 A 
ATOM     65  C   UNL A   1      46.471  33.884  27.721  1.00  0.00     0.020 A 
ATOM     66  C   UNL A   1      44.168  34.501  28.104  1.00  0.00     0.020 A 
ATOM     67  C   UNL A   1      45.477  34.857  27.811  1.00  0.00     0.054 A 
BRANCH  67  68
ATOM     68  S   UNL A   1      45.923  36.598  27.595  1.00  0.00     0.124 S 
ATOM     69  O   UNL A   1      46.435  36.611  26.230  1.00  0.00    -0.237 OA
ATOM     70  O   UNL A   1      44.643  37.270  27.801  1.00  0.00    -0.237 OA
ATOM     71  O   UNL A   1      46.917  36.829  28.642  1.00  0.00    -0.744 OA
ENDBRANCH  67  68
ENDBRANCH  48  62
BRANCH  49  72
ATOM     72  C   UNL A   1      36.932  31.666  31.595  1.00  0.00    -0.014 A 
ATOM     73  C   UNL A   1      36.065  31.822  32.697  1.00  0.00     0.010 A 
ATOM     74  C   UNL A   1      36.685  32.472  30.465  1.00  0.00     0.010 A 
ATOM     75  C   UNL A   1      35.033  32.785  32.687  1.00  0.00     0.020 A 
ATOM     76  C   UNL A   1      35.662  33.433  30.447  1.00  0.00     0.020 A 
ATOM     77  C   UNL A   1      34.852  33.601  31.568  1.00  0.00     0.054 A 
BRANCH  77  78
ATOM     78  S   UNL A   1      33.638  34.959  31.626  1.00  0.00     0.124 S 
ATOM     79  O   UNL A   1      33.134  34.989  30.255  1.00  0.00    -0.237 OA
ATOM     80  O   UNL A   1      32.687  34.497  32.634  1.00  0.00    -0.237 OA
ATOM     81  O   UNL A   1      34.434  36.121  32.017  1.00  0.00    -0.744 OA
ENDBRANCH  77  78
ENDBRANCH  49  72
BRANCH  61  82
ATOM     82  C   UNL A   1      42.300  29.319  33.956  1.00  0.00    -0.014 A 
ATOM     83  C   UNL A   1      41.769  28.039  33.686  1.00  0.00     0.010 A 
ATOM     84  C   UNL A   1      42.787  29.575  35.248  1.00  0.00     0.010 A 
ATOM     85  C   UNL A   1      41.716  27.053  34.689  1.00  0.00     0.020 A 
ATOM     86  C   UNL A   1      42.752  28.596  36.243  1.00  0.00     0.020 A 
ATOM     87  C   UNL A   1      42.210  27.342  35.964  1.00  0.00     0.054 A 
BRANCH  87  88
ATOM     88  S   UNL A   1      42.186  26.060  37.252  1.00  0.00     0.124 S 
ATOM     89  O   UNL A   1      42.587  24.863  36.517  1.00  0.00    -0.237 OA
ATOM     90  O   UNL A   1      43.157  26.554  38.225  1.00  0.00    -0.237 OA
ATOM     91  O   UNL A   1      40.800  26.061  37.719  1.00  0.00    -0.744 OA
ENDBRANCH  87  88
ENDBRANCH  61  82
ENDBRANCH  35  36
ENDBRANCH  27  30
ENDBRANCH  25  26
ENDBRANCH  24  25
ENDBRANCH   1  24
TORSDOF 17
ENDMDL
MODEL 2
REMARK VINA RESULT:      -9.8      2.025      3.189
REMARK SMILES Cc1[nH]c(=O)sc1S(=O)(=O)NC1(CC(=O)NCCCNC(=O)c2ccc(-c3c4nc(c(-c5ccc(S(=O)(=O)[O-])cc5)c5ccc([nH]5)c(-c5ccc(S(=O)(=O)[O-])cc5)c5nc(c(-c6ccc(S(=O)(=O)[O-])cc6)c6ccc3[nH]6)C=C5)C=C4)cc2)CCC1
REMARK SMILES IDX 17 1 16 2 14 3 15 4 13 6 12 7 83 8 85 9 84 10 11 11 8 13
REMARK SMILES IDX 9 14 10 15 7 16 1 17 2 18 3 19 4 20 6 22 5 23 18 24 19 25
REMARK SMILES IDX 20 26 21 27 22 29 23 30 24 31 82 32 25 33 81 34 26 35 27 36
REMARK SMILES IDX 28 37 75 38 29 39 80 40 74 41 76 42 30 43 79 44 73 45 72 46
REMARK SMILES IDX 31 48 61 49 42 50 60 51 43 52 46 53 59 54 77 55 44 56 45 57
REMARK SMILES IDX 58 59 78 60 47 61 32 62 33 63 41 64 34 65 40 66 35 67 36 68
REMARK SMILES IDX 37 69 38 70 39 71 62 72 63 73 71 74 64 75 70 76 65 77 66 78
REMARK SMILES IDX 67 79 68 80 69 81 48 82 49 83 57 84 50 85 56 86 51 87 52 88
REMARK SMILES IDX 53 89 54 90 55 91
REMARK H PARENT 16 5 11 12 3 21 20 28 76 47 46 58
REMARK Flexibility Score: inf
ROOT
ATOM      1  C   UNL A   1      44.748  22.839  24.563  1.00  0.00     0.117 C 
ENDROOT
BRANCH   1   2
ATOM      2  N   UNL A   1      43.837  23.972  24.593  1.00  0.00    -0.356 N 
ATOM      3  C   UNL A   1      43.847  25.113  25.336  1.00  0.00     0.221 C 
ATOM      4  O   UNL A   1      43.212  26.083  24.916  1.00  0.00    -0.275 OA
ATOM      5  H   UNL A   1      43.080  23.900  23.966  1.00  0.00     0.163 HD
BRANCH   3   6
ATOM      6  C   UNL A   1      44.671  25.255  26.593  1.00  0.00     0.123 C 
BRANCH   6   7
ATOM      7  C   UNL A   1      46.035  25.966  26.523  1.00  0.00     0.042 C 
ATOM      8  C   UNL A   1      47.206  24.937  26.247  1.00  0.00     0.024 C 
ATOM      9  C   UNL A   1      46.688  26.170  27.914  1.00  0.00     0.024 C 
ATOM     10  C   UNL A   1      47.612  24.979  27.711  1.00  0.00     0.004 C 
BRANCH   7  11
ATOM     11  N   UNL A   1      46.131  27.019  25.445  1.00  0.00    -0.204 NA
ATOM     12  H   UNL A   1      45.985  26.474  24.595  1.00  0.00     0.142 HD
BRANCH  11  13
ATOM     13  S   UNL A   1      47.265  28.166  24.945  1.00  0.00     0.252 S 
ATOM     14  O   UNL A   1      48.217  28.264  26.025  1.00  0.00    -0.206 OA
ATOM     15  O   UNL A   1      46.432  29.306  24.616  1.00  0.00    -0.206 OA
BRANCH  13  16
ATOM     16  C   UNL A   1      48.113  27.688  23.521  1.00  0.00     0.158 A 
ATOM     17  C   UNL A   1      50.029  26.285  24.554  1.00  0.00     0.067 C 
ATOM     18  C   UNL A   1      49.233  26.942  23.477  1.00  0.00     0.046 A 
ATOM     19  N   UNL A   1      49.703  26.784  22.189  1.00  0.00    -0.315 N 
ATOM     20  C   UNL A   1      48.959  27.336  21.177  1.00  0.00     0.305 A 
ATOM     21  H   UNL A   1      50.538  26.296  22.004  1.00  0.00     0.170 HD
ATOM     22  S   UNL A   1      47.549  28.078  21.902  1.00  0.00    -0.061 S 
ATOM     23  O   UNL A   1      49.235  27.347  20.000  1.00  0.00    -0.257 OA
ENDBRANCH  13  16
ENDBRANCH  11  13
ENDBRANCH   7  11
ENDBRANCH   6   7
ENDBRANCH   3   6
ENDBRANCH   1   2
BRANCH   1  24
ATOM     24  C   UNL A   1      44.142  21.543  25.108  1.00  0.00     0.042 C 
BRANCH  24  25
ATOM     25  C   UNL A   1      43.233  21.748  26.294  1.00  0.00     0.118 C 
BRANCH  25  26
ATOM     26  N   UNL A   1      41.835  21.393  26.057  1.00  0.00    -0.352 N 
ATOM     27  C   UNL A   1      40.715  22.060  26.544  1.00  0.00     0.251 C 
ATOM     28  H   UNL A   1      41.668  20.602  25.496  1.00  0.00     0.163 HD
ATOM     29  O   UNL A   1      39.626  21.498  26.584  1.00  0.00    -0.269 OA
BRANCH  27  30
ATOM     30  C   UNL A   1      40.871  23.460  26.999  1.00  0.00     0.039 A 
ATOM     31  C   UNL A   1      40.200  24.547  26.430  1.00  0.00     0.014 A 
ATOM     32  C   UNL A   1      41.713  23.660  28.080  1.00  0.00     0.014 A 
ATOM     33  C   UNL A   1      40.368  25.812  27.004  1.00  0.00     0.010 A 
ATOM     34  C   UNL A   1      41.619  24.803  28.807  1.00  0.00     0.010 A 
ATOM     35  C   UNL A   1      41.088  25.926  28.203  1.00  0.00    -0.014 A 
BRANCH  35  36
ATOM     36  C   UNL A   1      41.271  27.168  28.945  1.00  0.00     0.031 A 
ATOM     37  C   UNL A   1      42.467  27.943  28.526  1.00  0.00     0.074 A 
ATOM     38  C   UNL A   1      40.268  27.694  29.696  1.00  0.00     0.049 A 
ATOM     39  N   UNL A   1      43.539  28.178  29.205  1.00  0.00    -0.248 NA
ATOM     40  C   UNL A   1      42.559  28.367  27.119  1.00  0.00     0.031 C 
ATOM     41  C   UNL A   1      38.908  27.167  29.919  1.00  0.00     0.029 A 
ATOM     42  N   UNL A   1      40.196  28.899  30.317  1.00  0.00    -0.354 N 
ATOM     43  C   UNL A   1      44.325  28.993  28.395  1.00  0.00     0.074 A 
ATOM     44  C   UNL A   1      43.787  28.881  27.067  1.00  0.00     0.031 C 
ATOM     45  C   UNL A   1      38.099  28.150  30.376  1.00  0.00     0.029 A 
ATOM     46  C   UNL A   1      38.909  29.316  30.663  1.00  0.00     0.049 A 
ATOM     47  H   UNL A   1      40.995  29.441  30.509  1.00  0.00     0.167 HD
ATOM     48  C   UNL A   1      45.169  29.920  28.932  1.00  0.00     0.031 A 
ATOM     49  C   UNL A   1      38.539  30.535  31.140  1.00  0.00     0.031 A 
ATOM     50  C   UNL A   1      45.342  29.707  30.347  1.00  0.00     0.049 A 
ATOM     51  C   UNL A   1      39.776  31.164  31.667  1.00  0.00     0.074 A 
ATOM     52  C   UNL A   1      45.816  28.666  31.121  1.00  0.00     0.029 A 
ATOM     53  N   UNL A   1      44.571  30.484  31.184  1.00  0.00    -0.354 N 
ATOM     54  N   UNL A   1      40.449  30.673  32.672  1.00  0.00    -0.248 NA
ATOM     55  C   UNL A   1      40.534  32.012  30.762  1.00  0.00     0.031 C 
ATOM     56  C   UNL A   1      44.918  28.600  32.228  1.00  0.00     0.029 A 
ATOM     57  C   UNL A   1      44.011  29.657  32.126  1.00  0.00     0.049 A 
ATOM     58  H   UNL A   1      44.445  31.458  31.118  1.00  0.00     0.167 HD
ATOM     59  C   UNL A   1      41.780  30.770  32.287  1.00  0.00     0.074 A 
ATOM     60  C   UNL A   1      41.773  31.677  31.136  1.00  0.00     0.031 C 
ATOM     61  C   UNL A   1      42.717  29.883  32.740  1.00  0.00     0.031 A 
BRANCH  48  62
ATOM     62  C   UNL A   1      45.483  31.247  28.284  1.00  0.00    -0.014 A 
ATOM     63  C   UNL A   1      44.419  32.138  28.033  1.00  0.00     0.010 A 
ATOM     64  C   UNL A   1      46.719  31.539  27.670  1.00  0.00     0.010 A 
ATOM     65  C   UNL A   1      44.568  33.220  27.157  1.00  0.00     0.020 A 
ATOM     66  C   UNL A   1      46.889  32.639  26.827  1.00  0.00     0.020 A 
ATOM     67  C   UNL A   1      45.801  33.456  26.551  1.00  0.00     0.054 A 
BRANCH  67  68
ATOM     68  S   UNL A   1      45.954  34.805  25.355  1.00  0.00     0.124 S 
ATOM     69  O   UNL A   1      47.375  34.761  25.030  1.00  0.00    -0.237 OA
ATOM     70  O   UNL A   1      45.047  34.378  24.293  1.00  0.00    -0.237 OA
ATOM     71  O   UNL A   1      45.516  35.980  26.106  1.00  0.00    -0.744 OA
ENDBRANCH  67  68
ENDBRANCH  48  62
BRANCH  49  72
ATOM     72  C   UNL A   1      37.298  31.314  30.859  1.00  0.00    -0.014 A 
ATOM     73  C   UNL A   1      36.797  32.264  31.774  1.00  0.00     0.010 A 
ATOM     74  C   UNL A   1      36.764  31.336  29.554  1.00  0.00     0.010 A 
ATOM     75  C   UNL A   1      35.846  33.230  31.381  1.00  0.00     0.020 A 
ATOM     76  C   UNL A   1      35.819  32.294  29.155  1.00  0.00     0.020 A 
ATOM     77  C   UNL A   1      35.377  33.252  30.064  1.00  0.00     0.054 A 
BRANCH  77  78
ATOM     78  S   UNL A   1      34.288  34.605  29.515  1.00  0.00     0.124 S 
ATOM     79  O   UNL A   1      35.096  35.263  28.491  1.00  0.00    -0.237 OA
ATOM     80  O   UNL A   1      33.112  33.892  29.023  1.00  0.00    -0.237 OA
ATOM     81  O   UNL A   1      34.069  35.390  30.728  1.00  0.00    -0.744 OA
ENDBRANCH  77  78
ENDBRANCH  49  72
BRANCH  61  82
ATOM     82  C   UNL A   1      42.324  28.911  33.836  1.00  0.00    -0.014 A 
ATOM     83  C   UNL A   1      41.710  27.661  33.604  1.00  0.00     0.010 A 
ATOM     84  C   UNL A   1      42.755  29.204  35.140  1.00  0.00     0.010 A 
ATOM     85  C   UNL A   1      41.524  26.742  34.654  1.00  0.00     0.020 A 
ATOM     86  C   UNL A   1      42.589  28.290  36.183  1.00  0.00     0.020 A 
ATOM     87  C   UNL A   1      41.966  27.066  35.939  1.00  0.00     0.054 A 
BRANCH  87  88
ATOM     88  S   UNL A   1      41.770  25.867  37.290  1.00  0.00     0.124 S 
ATOM     89  O   UNL A   1      42.780  26.302  38.252  1.00  0.00    -0.237 OA
ATOM     90  O   UNL A   1      40.383  26.063  37.703  1.00  0.00    -0.237 OA
ATOM     91  O   UNL A   1      42.041  24.578  36.653  1.00  0.00    -0.744 OA
ENDBRANCH  87  88
ENDBRANCH  61  82
ENDBRANCH  35  36
ENDBRANCH  27  30
ENDBRANCH  25  26
ENDBRANCH  24  25
ENDBRANCH   1  24
TORSDOF 17
ENDMDL
MODEL 3
REMARK VINA RESULT:      -9.8      4.920     10.445
REMARK SMILES Cc1[nH]c(=O)sc1S(=O)(=O)NC1(CC(=O)NCCCNC(=O)c2ccc(-c3c4nc(c(-c5ccc(S(=O)(=O)[O-])cc5)c5ccc([nH]5)c(-c5ccc(S(=O)(=O)[O-])cc5)c5nc(c(-c6ccc(S(=O)(=O)[O-])cc6)c6ccc3[nH]6)C=C5)C=C4)cc2)CCC1
REMARK SMILES IDX 17 1 16 2 14 3 15 4 13 6 12 7 83 8 85 9 84 10 11 11 8 13
REMARK SMILES IDX 9 14 10 15 7 16 1 17 2 18 3 19 4 20 6 22 5 23 18 24 19 25
REMARK SMILES IDX 20 26 21 27 22 29 23 30 24 31 82 32 25 33 81 34 26 35 27 36
REMARK SMILES IDX 28 37 75 38 29 39 80 40 74 41 76 42 30 43 79 44 73 45 72 46
REMARK SMILES IDX 31 48 61 49 42 50 60 51 43 52 46 53 59 54 77 55 44 56 45 57
REMARK SMILES IDX 58 59 78 60 47 61 32 62 33 63 41 64 34 65 40 66 35 67 36 68
REMARK SMILES IDX 37 69 38 70 39 71 62 72 63 73 71 74 64 75 70 76 65 77 66 78
REMARK SMILES IDX 67 79 68 80 69 81 48 82 49 83 57 84 50 85 56 86 51 87 52 88
REMARK SMILES IDX 53 89 54 90 55 91
REMARK H PARENT 16 5 11 12 3 21 20 28 76 47 46 58
REMARK Flexibility Score: inf
ROOT
ATOM      1  C   UNL A   1      31.711  30.425  25.636  1.00  0.00     0.117 C 
ENDROOT
BRANCH   1   2
ATOM      2  N   UNL A   1      32.176  29.294  26.421  1.00  0.00    -0.356 N 
ATOM      3  C   UNL A   1      32.670  28.081  26.044  1.00  0.00     0.221 C 
ATOM      4  O   UNL A   1      33.353  27.456  26.859  1.00  0.00    -0.275 OA
ATOM      5  H   UNL A   1      32.124  29.427  27.395  1.00  0.00     0.163 HD
BRANCH   3   6
ATOM      6  C   UNL A   1      32.485  27.527  24.652  1.00  0.00     0.123 C 
BRANCH   6   7
ATOM      7  C   UNL A   1      31.731  26.198  24.465  1.00  0.00     0.042 C 
ATOM      8  C   UNL A   1      30.414  26.399  23.609  1.00  0.00     0.024 C 
ATOM      9  C   UNL A   1      30.782  25.865  25.646  1.00  0.00     0.024 C 
ATOM     10  C   UNL A   1      29.565  26.344  24.869  1.00  0.00     0.004 C 
BRANCH   7  11
ATOM     11  N   UNL A   1      32.530  25.123  23.770  1.00  0.00    -0.204 NA
ATOM     12  H   UNL A   1      31.848  24.371  23.677  1.00  0.00     0.142 HD
BRANCH  11  13
ATOM     13  S   UNL A   1      33.962  24.275  24.058  1.00  0.00     0.252 S 
ATOM     14  O   UNL A   1      34.563  24.912  25.206  1.00  0.00    -0.206 OA
ATOM     15  O   UNL A   1      34.627  24.337  22.771  1.00  0.00    -0.206 OA
BRANCH  13  16
ATOM     16  C   UNL A   1      33.688  22.616  24.445  1.00  0.00     0.158 A 
ATOM     17  C   UNL A   1      36.124  21.751  24.593  1.00  0.00     0.067 C 
ATOM     18  C   UNL A   1      34.635  21.675  24.620  1.00  0.00     0.046 A 
ATOM     19  N   UNL A   1      34.092  20.430  24.861  1.00  0.00    -0.315 N 
ATOM     20  C   UNL A   1      32.725  20.345  24.943  1.00  0.00     0.305 A 
ATOM     21  H   UNL A   1      34.662  19.634  24.969  1.00  0.00     0.170 HD
ATOM     22  S   UNL A   1      32.082  21.960  24.734  1.00  0.00    -0.061 S 
ATOM     23  O   UNL A   1      32.071  19.340  25.094  1.00  0.00    -0.257 OA
ENDBRANCH  13  16
ENDBRANCH  11  13
ENDBRANCH   7  11
ENDBRANCH   6   7
ENDBRANCH   3   6
ENDBRANCH   1   2
BRANCH   1  24
ATOM     24  C   UNL A   1      31.298  31.635  26.478  1.00  0.00     0.042 C 
BRANCH  24  25
ATOM     25  C   UNL A   1      32.442  32.281  27.219  1.00  0.00     0.118 C 
BRANCH  25  26
ATOM     26  N   UNL A   1      32.295  33.721  27.426  1.00  0.00    -0.352 N 
ATOM     27  C   UNL A   1      32.994  34.503  28.341  1.00  0.00     0.251 C 
ATOM     28  H   UNL A   1      31.634  34.184  26.864  1.00  0.00     0.163 HD
ATOM     29  O   UNL A   1      32.561  35.600  28.679  1.00  0.00    -0.269 OA
BRANCH  27  30
ATOM     30  C   UNL A   1      34.270  33.984  28.883  1.00  0.00     0.039 A 
ATOM     31  C   UNL A   1      34.432  33.518  30.191  1.00  0.00     0.014 A 
ATOM     32  C   UNL A   1      35.335  33.939  28.000  1.00  0.00     0.014 A 
ATOM     33  C   UNL A   1      35.667  32.973  30.560  1.00  0.00     0.010 A 
ATOM     34  C   UNL A   1      36.398  33.137  28.264  1.00  0.00     0.010 A 
ATOM     35  C   UNL A   1      36.650  32.789  29.576  1.00  0.00    -0.014 A 
BRANCH  35  36
ATOM     36  C   UNL A   1      37.947  32.163  29.808  1.00  0.00     0.031 A 
ATOM     37  C   UNL A   1      38.011  30.744  29.374  1.00  0.00     0.074 A 
ATOM     38  C   UNL A   1      39.049  32.907  30.085  1.00  0.00     0.049 A 
ATOM     39  N   UNL A   1      38.136  29.692  30.112  1.00  0.00    -0.248 NA
ATOM     40  C   UNL A   1      37.731  30.439  27.961  1.00  0.00     0.031 C 
ATOM     41  C   UNL A   1      39.165  34.373  30.214  1.00  0.00     0.029 A 
ATOM     42  N   UNL A   1      40.349  32.526  30.170  1.00  0.00    -0.354 N 
ATOM     43  C   UNL A   1      38.204  28.619  29.228  1.00  0.00     0.074 A 
ATOM     44  C   UNL A   1      37.722  29.107  27.964  1.00  0.00     0.031 C 
ATOM     45  C   UNL A   1      40.458  34.749  30.089  1.00  0.00     0.029 A 
ATOM     46  C   UNL A   1      41.283  33.559  30.065  1.00  0.00     0.049 A 
ATOM     47  H   UNL A   1      40.615  31.586  30.297  1.00  0.00     0.167 HD
ATOM     48  C   UNL A   1      38.924  27.501  29.528  1.00  0.00     0.031 A 
ATOM     49  C   UNL A   1      42.634  33.439  29.956  1.00  0.00     0.031 A 
ATOM     50  C   UNL A   1      39.295  27.480  30.920  1.00  0.00     0.049 A 
ATOM     51  C   UNL A   1      42.968  32.076  30.439  1.00  0.00     0.074 A 
ATOM     52  C   UNL A   1      38.596  27.481  32.111  1.00  0.00     0.029 A 
ATOM     53  N   UNL A   1      40.566  27.916  31.224  1.00  0.00    -0.354 N 
ATOM     54  N   UNL A   1      42.760  31.688  31.669  1.00  0.00    -0.248 NA
ATOM     55  C   UNL A   1      43.032  31.013  29.451  1.00  0.00     0.031 C 
ATOM     56  C   UNL A   1      39.320  28.375  32.955  1.00  0.00     0.029 A 
ATOM     57  C   UNL A   1      40.468  28.791  32.277  1.00  0.00     0.049 A 
ATOM     58  H   UNL A   1      41.396  27.648  30.768  1.00  0.00     0.167 HD
ATOM     59  C   UNL A   1      42.226  30.412  31.551  1.00  0.00     0.074 A 
ATOM     60  C   UNL A   1      42.492  30.019  30.164  1.00  0.00     0.031 C 
ATOM     61  C   UNL A   1      41.360  29.916  32.486  1.00  0.00     0.031 A 
BRANCH  48  62
ATOM     62  C   UNL A   1      39.651  26.668  28.499  1.00  0.00    -0.014 A 
ATOM     63  C   UNL A   1      39.317  25.302  28.386  1.00  0.00     0.010 A 
ATOM     64  C   UNL A   1      40.821  27.096  27.838  1.00  0.00     0.010 A 
ATOM     65  C   UNL A   1      40.151  24.404  27.709  1.00  0.00     0.020 A 
ATOM     66  C   UNL A   1      41.637  26.215  27.125  1.00  0.00     0.020 A 
ATOM     67  C   UNL A   1      41.312  24.866  27.092  1.00  0.00     0.054 A 
BRANCH  67  68
ATOM     68  S   UNL A   1      42.422  23.680  26.296  1.00  0.00     0.124 S 
ATOM     69  O   UNL A   1      42.921  24.448  25.161  1.00  0.00    -0.237 OA
ATOM     70  O   UNL A   1      43.391  23.408  27.354  1.00  0.00    -0.237 OA
ATOM     71  O   UNL A   1      41.544  22.560  25.961  1.00  0.00    -0.744 OA
ENDBRANCH  67  68
ENDBRANCH  48  62
BRANCH  49  72
ATOM     72  C   UNL A   1      43.586  34.265  29.156  1.00  0.00    -0.014 A 
ATOM     73  C   UNL A   1      44.921  34.460  29.566  1.00  0.00     0.010 A 
ATOM     74  C   UNL A   1      43.263  34.620  27.830  1.00  0.00     0.010 A 
ATOM     75  C   UNL A   1      45.902  34.937  28.669  1.00  0.00     0.020 A 
ATOM     76  C   UNL A   1      44.232  35.094  26.932  1.00  0.00     0.020 A 
ATOM     77  C   UNL A   1      45.554  35.231  27.348  1.00  0.00     0.054 A 
BRANCH  77  78
ATOM     78  S   UNL A   1      46.852  35.675  26.149  1.00  0.00     0.124 S 
ATOM     79  O   UNL A   1      46.623  37.104  25.953  1.00  0.00    -0.237 OA
ATOM     80  O   UNL A   1      48.080  35.328  26.862  1.00  0.00    -0.237 OA
ATOM     81  O   UNL A   1      46.557  34.836  24.990  1.00  0.00    -0.744 OA
ENDBRANCH  77  78
ENDBRANCH  49  72
BRANCH  61  82
ATOM     82  C   UNL A   1      41.150  30.700  33.767  1.00  0.00    -0.014 A 
ATOM     83  C   UNL A   1      41.880  30.485  34.956  1.00  0.00     0.010 A 
ATOM     84  C   UNL A   1      40.302  31.817  33.705  1.00  0.00     0.010 A 
ATOM     85  C   UNL A   1      41.748  31.357  36.053  1.00  0.00     0.020 A 
ATOM     86  C   UNL A   1      40.178  32.696  34.784  1.00  0.00     0.020 A 
ATOM     87  C   UNL A   1      40.895  32.459  35.957  1.00  0.00     0.054 A 
BRANCH  87  88
ATOM     88  S   UNL A   1      40.753  33.615  37.352  1.00  0.00     0.124 S 
ATOM     89  O   UNL A   1      41.544  32.959  38.390  1.00  0.00    -0.237 OA
ATOM     90  O   UNL A   1      41.321  34.848  36.814  1.00  0.00    -0.237 OA
ATOM     91  O   UNL A   1      39.316  33.669  37.615  1.00  0.00    -0.744 OA
ENDBRANCH  87  88
ENDBRANCH  61  82
ENDBRANCH  35  36
ENDBRANCH  27  30
ENDBRANCH  25  26
ENDBRANCH  24  25
ENDBRANCH   1  24
TORSDOF 17
ENDMDL
