MODEL 1
REMARK VINA RESULT:     -12.1      0.000      0.000
REMARK SMILES CCn1ncc(CNc2ccccc2C(=O)NCCCNC(=O)c2ccc(-c3c4nc(c(-c5ccc(S(=O)(=O)[O-])cc5)c5ccc([nH]5)c(-c5ccc(S(=O)(=O)[O-])cc5)c5nc(c(-c6ccc(S(=O)(=O)[O-])cc6)c6ccc3[nH]6)C=C5)C=C4)cc2)c1C
REMARK SMILES IDX 18 1 17 2 15 3 16 4 14 6 9 7 10 8 11 9 13 10 12 11 8 12 7 14
REMARK SMILES IDX 6 15 3 16 4 17 84 18 5 19 85 20 2 21 1 22 19 23 20 24 21 25
REMARK SMILES IDX 22 26 23 28 24 29 25 30 83 31 26 32 82 33 27 34 28 35 29 36
REMARK SMILES IDX 76 37 30 38 81 39 75 40 77 41 31 42 80 43 74 44 73 45 32 47
REMARK SMILES IDX 62 48 43 49 61 50 44 51 47 52 60 53 78 54 45 55 46 56 59 58
REMARK SMILES IDX 79 59 48 60 33 61 34 62 42 63 35 64 41 65 36 66 37 67 38 68
REMARK SMILES IDX 39 69 40 70 63 71 64 72 72 73 65 74 71 75 66 76 67 77 68 78
REMARK SMILES IDX 69 79 70 80 49 81 50 82 58 83 51 84 57 85 52 86 53 87 54 88
REMARK SMILES IDX 55 89 56 90
REMARK H PARENT 17 5 8 13 21 27 77 46 47 57
REMARK Flexibility Score: inf
ROOT
ATOM      1  C   UNL A   1      36.161  22.212  25.507  1.00  0.00     0.118 C 
ENDROOT
BRANCH   1   2
ATOM      2  N   UNL A   1      35.244  22.281  26.634  1.00  0.00    -0.352 N 
ATOM      3  C   UNL A   1      34.040  22.944  26.723  1.00  0.00     0.253 C 
ATOM      4  O   UNL A   1      33.382  22.871  27.759  1.00  0.00    -0.269 OA
ATOM      5  H   UNL A   1      35.520  21.787  27.440  1.00  0.00     0.163 HD
BRANCH   3   6
ATOM      6  C   UNL A   1      33.577  23.836  25.634  1.00  0.00     0.062 A 
ATOM      7  C   UNL A   1      32.783  23.439  24.547  1.00  0.00     0.047 A 
ATOM      8  C   UNL A   1      32.587  24.388  23.520  1.00  0.00     0.026 A 
ATOM      9  C   UNL A   1      33.089  25.690  23.597  1.00  0.00     0.002 A 
ATOM     10  C   UNL A   1      34.046  25.164  25.732  1.00  0.00     0.016 A 
ATOM     11  C   UNL A   1      33.798  26.088  24.720  1.00  0.00     0.001 A 
BRANCH   7  12
ATOM     12  N   UNL A   1      32.107  22.243  24.402  1.00  0.00    -0.380 N 
ATOM     13  H   UNL A   1      31.301  22.117  24.953  1.00  0.00     0.160 HD
BRANCH  12  14
ATOM     14  C   UNL A   1      32.474  21.148  23.509  1.00  0.00     0.152 C 
BRANCH  14  15
ATOM     15  C   UNL A   1      32.561  19.857  24.261  1.00  0.00     0.012 A 
ATOM     16  N   UNL A   1      32.771  17.733  24.791  1.00  0.00    -0.270 N 
ATOM     17  N   UNL A   1      32.934  18.373  25.955  1.00  0.00    -0.181 NA
ATOM     18  C   UNL A   1      32.569  18.577  23.730  1.00  0.00     0.040 A 
ATOM     19  C   UNL A   1      32.776  19.656  25.639  1.00  0.00     0.141 A 
ATOM     20  C   UNL A   1      32.461  18.151  22.314  1.00  0.00     0.067 C 
BRANCH  16  21
ATOM     21  C   UNL A   1      32.926  16.293  24.788  1.00  0.00     0.141 C 
ATOM     22  C   UNL A   1      34.380  15.894  24.955  1.00  0.00     0.029 C 
ENDBRANCH  16  21
ENDBRANCH  14  15
ENDBRANCH  12  14
ENDBRANCH   7  12
ENDBRANCH   3   6
ENDBRANCH   1   2
BRANCH   1  23
ATOM     23  C   UNL A   1      37.002  23.464  25.261  1.00  0.00     0.042 C 
BRANCH  23  24
ATOM     24  C   UNL A   1      38.047  23.782  26.322  1.00  0.00     0.118 C 
BRANCH  24  25
ATOM     25  N   UNL A   1      38.822  22.643  26.810  1.00  0.00    -0.352 N 
ATOM     26  C   UNL A   1      40.199  22.620  27.023  1.00  0.00     0.251 C 
ATOM     27  H   UNL A   1      38.326  21.816  27.006  1.00  0.00     0.163 HD
ATOM     28  O   UNL A   1      40.820  21.590  27.247  1.00  0.00    -0.269 OA
BRANCH  26  29
ATOM     29  C   UNL A   1      40.895  23.913  26.959  1.00  0.00     0.039 A 
ATOM     30  C   UNL A   1      40.444  24.911  26.094  1.00  0.00     0.014 A 
ATOM     31  C   UNL A   1      41.710  24.197  28.044  1.00  0.00     0.014 A 
ATOM     32  C   UNL A   1      40.668  26.243  26.445  1.00  0.00     0.010 A 
ATOM     33  C   UNL A   1      41.766  25.505  28.466  1.00  0.00     0.010 A 
ATOM     34  C   UNL A   1      41.254  26.546  27.685  1.00  0.00    -0.014 A 
BRANCH  34  35
ATOM     35  C   UNL A   1      41.196  27.913  28.227  1.00  0.00     0.031 A 
ATOM     36  C   UNL A   1      42.263  28.879  27.814  1.00  0.00     0.074 A 
ATOM     37  C   UNL A   1      40.148  28.419  28.913  1.00  0.00     0.049 A 
ATOM     38  N   UNL A   1      43.219  29.347  28.551  1.00  0.00    -0.248 NA
ATOM     39  C   UNL A   1      42.311  29.357  26.423  1.00  0.00     0.031 C 
ATOM     40  C   UNL A   1      38.858  27.796  29.236  1.00  0.00     0.029 A 
ATOM     41  N   UNL A   1      39.989  29.687  29.384  1.00  0.00    -0.354 N 
ATOM     42  C   UNL A   1      43.885  30.307  27.792  1.00  0.00     0.074 A 
ATOM     43  C   UNL A   1      43.361  30.184  26.452  1.00  0.00     0.031 C 
ATOM     44  C   UNL A   1      37.969  28.743  29.595  1.00  0.00     0.029 A 
ATOM     45  C   UNL A   1      38.692  29.986  29.764  1.00  0.00     0.049 A 
ATOM     46  H   UNL A   1      40.730  30.333  29.449  1.00  0.00     0.167 HD
ATOM     47  C   UNL A   1      44.693  31.250  28.360  1.00  0.00     0.031 A 
ATOM     48  C   UNL A   1      38.225  31.153  30.253  1.00  0.00     0.031 A 
ATOM     49  C   UNL A   1      44.907  30.997  29.762  1.00  0.00     0.049 A 
ATOM     50  C   UNL A   1      39.373  31.846  30.878  1.00  0.00     0.074 A 
ATOM     51  C   UNL A   1      45.486  29.991  30.506  1.00  0.00     0.029 A 
ATOM     52  N   UNL A   1      44.141  31.726  30.640  1.00  0.00    -0.354 N 
ATOM     53  N   UNL A   1      40.009  31.372  31.914  1.00  0.00    -0.248 NA
ATOM     54  C   UNL A   1      40.082  32.875  30.137  1.00  0.00     0.031 C 
ATOM     55  C   UNL A   1      44.675  29.885  31.675  1.00  0.00     0.029 A 
ATOM     56  C   UNL A   1      43.678  30.861  31.598  1.00  0.00     0.049 A 
ATOM     57  H   UNL A   1      43.957  32.693  30.591  1.00  0.00     0.167 HD
ATOM     58  C   UNL A   1      41.336  31.713  31.708  1.00  0.00     0.074 A 
ATOM     59  C   UNL A   1      41.293  32.757  30.689  1.00  0.00     0.031 C 
ATOM     60  C   UNL A   1      42.352  30.930  32.184  1.00  0.00     0.031 A 
BRANCH  47  61
ATOM     61  C   UNL A   1      45.030  32.600  27.770  1.00  0.00    -0.014 A 
ATOM     62  C   UNL A   1      46.389  32.968  27.634  1.00  0.00     0.010 A 
ATOM     63  C   UNL A   1      44.075  33.621  27.602  1.00  0.00     0.010 A 
ATOM     64  C   UNL A   1      46.772  34.298  27.413  1.00  0.00     0.020 A 
ATOM     65  C   UNL A   1      44.446  34.945  27.339  1.00  0.00     0.020 A 
ATOM     66  C   UNL A   1      45.793  35.283  27.286  1.00  0.00     0.054 A 
BRANCH  66  67
ATOM     67  S   UNL A   1      46.297  37.017  27.132  1.00  0.00     0.124 S 
ATOM     68  O   UNL A   1      47.228  36.961  26.009  1.00  0.00    -0.237 OA
ATOM     69  O   UNL A   1      45.029  37.692  26.870  1.00  0.00    -0.237 OA
ATOM     70  O   UNL A   1      46.899  37.313  28.430  1.00  0.00    -0.744 OA
ENDBRANCH  66  67
ENDBRANCH  47  61
BRANCH  48  71
ATOM     71  C   UNL A   1      36.895  31.747  30.017  1.00  0.00    -0.014 A 
ATOM     72  C   UNL A   1      36.227  32.458  31.023  1.00  0.00     0.010 A 
ATOM     73  C   UNL A   1      36.398  31.831  28.698  1.00  0.00     0.010 A 
ATOM     74  C   UNL A   1      35.137  33.286  30.710  1.00  0.00     0.020 A 
ATOM     75  C   UNL A   1      35.310  32.648  28.378  1.00  0.00     0.020 A 
ATOM     76  C   UNL A   1      34.703  33.396  29.384  1.00  0.00     0.054 A 
BRANCH  76  77
ATOM     77  S   UNL A   1      33.440  34.630  28.962  1.00  0.00     0.124 S 
ATOM     78  O   UNL A   1      32.837  34.913  30.261  1.00  0.00    -0.237 OA
ATOM     79  O   UNL A   1      34.235  35.710  28.385  1.00  0.00    -0.237 OA
ATOM     80  O   UNL A   1      32.576  33.928  28.014  1.00  0.00    -0.744 OA
ENDBRANCH  76  77
ENDBRANCH  48  71
BRANCH  60  81
ATOM     81  C   UNL A   1      42.016  29.867  33.209  1.00  0.00    -0.014 A 
ATOM     82  C   UNL A   1      41.564  28.577  32.868  1.00  0.00     0.010 A 
ATOM     83  C   UNL A   1      42.313  30.132  34.558  1.00  0.00     0.010 A 
ATOM     84  C   UNL A   1      41.389  27.590  33.850  1.00  0.00     0.020 A 
ATOM     85  C   UNL A   1      42.158  29.149  35.540  1.00  0.00     0.020 A 
ATOM     86  C   UNL A   1      41.687  27.885  35.183  1.00  0.00     0.054 A 
BRANCH  86  87
ATOM     87  S   UNL A   1      41.511  26.588  36.442  1.00  0.00     0.124 S 
ATOM     88  O   UNL A   1      40.873  25.507  35.697  1.00  0.00    -0.237 OA
ATOM     89  O   UNL A   1      42.893  26.340  36.852  1.00  0.00    -0.237 OA
ATOM     90  O   UNL A   1      40.674  27.211  37.468  1.00  0.00    -0.744 OA
ENDBRANCH  86  87
ENDBRANCH  60  81
ENDBRANCH  34  35
ENDBRANCH  26  29
ENDBRANCH  24  25
ENDBRANCH  23  24
ENDBRANCH   1  23
TORSDOF 17
ENDMDL
MODEL 2
REMARK VINA RESULT:     -11.8      1.877      3.778
REMARK SMILES CCn1ncc(CNc2ccccc2C(=O)NCCCNC(=O)c2ccc(-c3c4nc(c(-c5ccc(S(=O)(=O)[O-])cc5)c5ccc([nH]5)c(-c5ccc(S(=O)(=O)[O-])cc5)c5nc(c(-c6ccc(S(=O)(=O)[O-])cc6)c6ccc3[nH]6)C=C5)C=C4)cc2)c1C
REMARK SMILES IDX 18 1 17 2 15 3 16 4 14 6 9 7 10 8 11 9 13 10 12 11 8 12 7 14
REMARK SMILES IDX 6 15 3 16 4 17 84 18 5 19 85 20 2 21 1 22 19 23 20 24 21 25
REMARK SMILES IDX 22 26 23 28 24 29 25 30 83 31 26 32 82 33 27 34 28 35 29 36
REMARK SMILES IDX 76 37 30 38 81 39 75 40 77 41 31 42 80 43 74 44 73 45 32 47
REMARK SMILES IDX 62 48 43 49 61 50 44 51 47 52 60 53 78 54 45 55 46 56 59 58
REMARK SMILES IDX 79 59 48 60 33 61 34 62 42 63 35 64 41 65 36 66 37 67 38 68
REMARK SMILES IDX 39 69 40 70 63 71 64 72 72 73 65 74 71 75 66 76 67 77 68 78
REMARK SMILES IDX 69 79 70 80 49 81 50 82 58 83 51 84 57 85 52 86 53 87 54 88
REMARK SMILES IDX 55 89 56 90
REMARK H PARENT 17 5 8 13 21 27 77 46 47 57
REMARK Flexibility Score: inf
ROOT
ATOM      1  C   UNL A   1      37.361  23.286  25.915  1.00  0.00     0.118 C 
ENDROOT
BRANCH   1   2
ATOM      2  N   UNL A   1      37.403  23.180  24.465  1.00  0.00    -0.352 N 
ATOM      3  C   UNL A   1      36.359  22.991  23.587  1.00  0.00     0.253 C 
ATOM      4  O   UNL A   1      36.582  22.948  22.379  1.00  0.00    -0.269 OA
ATOM      5  H   UNL A   1      38.296  23.255  24.057  1.00  0.00     0.163 HD
BRANCH   3   6
ATOM      6  C   UNL A   1      34.986  22.724  24.078  1.00  0.00     0.062 A 
ATOM      7  C   UNL A   1      34.009  23.703  24.318  1.00  0.00     0.047 A 
ATOM      8  C   UNL A   1      32.820  23.277  24.948  1.00  0.00     0.026 A 
ATOM      9  C   UNL A   1      32.576  21.937  25.258  1.00  0.00     0.002 A 
ATOM     10  C   UNL A   1      34.721  21.365  24.351  1.00  0.00     0.016 A 
ATOM     11  C   UNL A   1      33.518  20.972  24.933  1.00  0.00     0.001 A 
BRANCH   7  12
ATOM     12  N   UNL A   1      34.051  25.032  23.940  1.00  0.00    -0.380 N 
ATOM     13  H   UNL A   1      34.880  25.525  24.137  1.00  0.00     0.160 HD
BRANCH  12  14
ATOM     14  C   UNL A   1      32.983  25.773  23.276  1.00  0.00     0.152 C 
BRANCH  14  15
ATOM     15  C   UNL A   1      32.844  27.143  23.864  1.00  0.00     0.012 A 
ATOM     16  N   UNL A   1      32.310  28.842  25.154  1.00  0.00    -0.270 N 
ATOM     17  N   UNL A   1      33.303  29.316  24.391  1.00  0.00    -0.181 NA
ATOM     18  C   UNL A   1      32.008  27.529  24.899  1.00  0.00     0.040 A 
ATOM     19  C   UNL A   1      33.605  28.297  23.591  1.00  0.00     0.141 A 
ATOM     20  C   UNL A   1      31.025  26.721  25.660  1.00  0.00     0.067 C 
BRANCH  16  21
ATOM     21  C   UNL A   1      31.776  29.713  26.180  1.00  0.00     0.141 C 
ATOM     22  C   UNL A   1      32.866  30.200  27.115  1.00  0.00     0.029 C 
ENDBRANCH  16  21
ENDBRANCH  14  15
ENDBRANCH  12  14
ENDBRANCH   7  12
ENDBRANCH   3   6
ENDBRANCH   1   2
BRANCH   1  23
ATOM     23  C   UNL A   1      38.159  24.441  26.518  1.00  0.00     0.042 C 
BRANCH  23  24
ATOM     24  C   UNL A   1      39.265  24.049  27.490  1.00  0.00     0.118 C 
BRANCH  24  25
ATOM     25  N   UNL A   1      40.145  22.970  27.046  1.00  0.00    -0.352 N 
ATOM     26  C   UNL A   1      41.425  23.122  26.516  1.00  0.00     0.251 C 
ATOM     27  H   UNL A   1      39.802  22.052  27.129  1.00  0.00     0.163 HD
ATOM     28  O   UNL A   1      42.039  22.206  25.986  1.00  0.00    -0.269 OA
BRANCH  26  29
ATOM     29  C   UNL A   1      42.021  24.462  26.616  1.00  0.00     0.039 A 
ATOM     30  C   UNL A   1      41.593  25.486  25.771  1.00  0.00     0.014 A 
ATOM     31  C   UNL A   1      42.688  24.722  27.804  1.00  0.00     0.014 A 
ATOM     32  C   UNL A   1      41.673  26.802  26.229  1.00  0.00     0.010 A 
ATOM     33  C   UNL A   1      42.597  25.997  28.312  1.00  0.00     0.010 A 
ATOM     34  C   UNL A   1      42.094  27.054  27.545  1.00  0.00    -0.014 A 
BRANCH  34  35
ATOM     35  C   UNL A   1      41.872  28.370  28.163  1.00  0.00     0.031 A 
ATOM     36  C   UNL A   1      42.888  29.444  27.918  1.00  0.00     0.074 A 
ATOM     37  C   UNL A   1      40.726  28.744  28.774  1.00  0.00     0.049 A 
ATOM     38  N   UNL A   1      43.728  29.932  28.774  1.00  0.00    -0.248 NA
ATOM     39  C   UNL A   1      43.024  30.020  26.572  1.00  0.00     0.031 C 
ATOM     40  C   UNL A   1      39.469  28.002  28.929  1.00  0.00     0.029 A 
ATOM     41  N   UNL A   1      40.418  29.960  29.306  1.00  0.00    -0.354 N 
ATOM     42  C   UNL A   1      44.379  30.991  28.145  1.00  0.00     0.074 A 
ATOM     43  C   UNL A   1      43.994  30.922  26.755  1.00  0.00     0.031 C 
ATOM     44  C   UNL A   1      38.474  28.850  29.258  1.00  0.00     0.029 A 
ATOM     45  C   UNL A   1      39.071  30.130  29.574  1.00  0.00     0.049 A 
ATOM     46  H   UNL A   1      41.093  30.655  29.483  1.00  0.00     0.167 HD
ATOM     47  C   UNL A   1      45.049  31.952  28.848  1.00  0.00     0.031 A 
ATOM     48  C   UNL A   1      38.464  31.220  30.087  1.00  0.00     0.031 A 
ATOM     49  C   UNL A   1      45.153  31.618  30.245  1.00  0.00     0.049 A 
ATOM     50  C   UNL A   1      39.487  31.954  30.864  1.00  0.00     0.074 A 
ATOM     51  C   UNL A   1      45.742  30.610  30.978  1.00  0.00     0.029 A 
ATOM     52  N   UNL A   1      44.249  32.222  31.088  1.00  0.00    -0.354 N 
ATOM     53  N   UNL A   1      40.062  31.459  31.926  1.00  0.00    -0.248 NA
ATOM     54  C   UNL A   1      40.172  33.084  30.262  1.00  0.00     0.031 C 
ATOM     55  C   UNL A   1      44.838  30.360  32.053  1.00  0.00     0.029 A 
ATOM     56  C   UNL A   1      43.774  31.259  31.940  1.00  0.00     0.049 A 
ATOM     57  H   UNL A   1      43.991  33.173  31.081  1.00  0.00     0.167 HD
ATOM     58  C   UNL A   1      41.369  31.916  31.873  1.00  0.00     0.074 A 
ATOM     59  C   UNL A   1      41.333  33.023  30.921  1.00  0.00     0.031 C 
ATOM     60  C   UNL A   1      42.398  31.183  32.396  1.00  0.00     0.031 A 
BRANCH  47  61
ATOM     61  C   UNL A   1      45.324  33.362  28.379  1.00  0.00    -0.014 A 
ATOM     62  C   UNL A   1      46.588  33.939  28.649  1.00  0.00     0.010 A 
ATOM     63  C   UNL A   1      44.310  34.232  27.934  1.00  0.00     0.010 A 
ATOM     64  C   UNL A   1      46.802  35.320  28.546  1.00  0.00     0.020 A 
ATOM     65  C   UNL A   1      44.526  35.608  27.789  1.00  0.00     0.020 A 
ATOM     66  C   UNL A   1      45.760  36.149  28.133  1.00  0.00     0.054 A 
BRANCH  66  67
ATOM     67  S   UNL A   1      46.005  37.944  28.130  1.00  0.00     0.124 S 
ATOM     68  O   UNL A   1      44.928  38.393  27.254  1.00  0.00    -0.237 OA
ATOM     69  O   UNL A   1      45.856  38.285  29.543  1.00  0.00    -0.237 OA
ATOM     70  O   UNL A   1      47.355  38.103  27.594  1.00  0.00    -0.744 OA
ENDBRANCH  66  67
ENDBRANCH  47  61
BRANCH  48  71
ATOM     71  C   UNL A   1      37.117  31.724  29.759  1.00  0.00    -0.014 A 
ATOM     72  C   UNL A   1      36.174  31.986  30.763  1.00  0.00     0.010 A 
ATOM     73  C   UNL A   1      36.852  32.196  28.455  1.00  0.00     0.010 A 
ATOM     74  C   UNL A   1      35.035  32.759  30.488  1.00  0.00     0.020 A 
ATOM     75  C   UNL A   1      35.717  32.961  28.172  1.00  0.00     0.020 A 
ATOM     76  C   UNL A   1      34.828  33.264  29.200  1.00  0.00     0.054 A 
BRANCH  76  77
ATOM     77  S   UNL A   1      33.472  34.436  28.912  1.00  0.00     0.124 S 
ATOM     78  O   UNL A   1      34.172  35.589  28.353  1.00  0.00    -0.237 OA
ATOM     79  O   UNL A   1      32.615  33.706  27.983  1.00  0.00    -0.237 OA
ATOM     80  O   UNL A   1      32.903  34.639  30.243  1.00  0.00    -0.744 OA
ENDBRANCH  76  77
ENDBRANCH  48  71
BRANCH  60  81
ATOM     81  C   UNL A   1      42.059  30.027  33.315  1.00  0.00    -0.014 A 
ATOM     82  C   UNL A   1      41.749  28.734  32.850  1.00  0.00     0.010 A 
ATOM     83  C   UNL A   1      42.210  30.218  34.700  1.00  0.00     0.010 A 
ATOM     84  C   UNL A   1      41.567  27.670  33.747  1.00  0.00     0.020 A 
ATOM     85  C   UNL A   1      42.048  29.159  35.598  1.00  0.00     0.020 A 
ATOM     86  C   UNL A   1      41.717  27.891  35.118  1.00  0.00     0.054 A 
BRANCH  86  87
ATOM     87  S   UNL A   1      41.535  26.499  36.270  1.00  0.00     0.124 S 
ATOM     88  O   UNL A   1      42.921  26.155  36.574  1.00  0.00    -0.237 OA
ATOM     89  O   UNL A   1      40.776  27.086  37.375  1.00  0.00    -0.237 OA
ATOM     90  O   UNL A   1      40.805  25.498  35.493  1.00  0.00    -0.744 OA
ENDBRANCH  86  87
ENDBRANCH  60  81
ENDBRANCH  34  35
ENDBRANCH  26  29
ENDBRANCH  24  25
ENDBRANCH  23  24
ENDBRANCH   1  23
TORSDOF 17
ENDMDL
MODEL 3
REMARK VINA RESULT:     -11.7      1.598      2.081
REMARK SMILES CCn1ncc(CNc2ccccc2C(=O)NCCCNC(=O)c2ccc(-c3c4nc(c(-c5ccc(S(=O)(=O)[O-])cc5)c5ccc([nH]5)c(-c5ccc(S(=O)(=O)[O-])cc5)c5nc(c(-c6ccc(S(=O)(=O)[O-])cc6)c6ccc3[nH]6)C=C5)C=C4)cc2)c1C
REMARK SMILES IDX 18 1 17 2 15 3 16 4 14 6 9 7 10 8 11 9 13 10 12 11 8 12 7 14
REMARK SMILES IDX 6 15 3 16 4 17 84 18 5 19 85 20 2 21 1 22 19 23 20 24 21 25
REMARK SMILES IDX 22 26 23 28 24 29 25 30 83 31 26 32 82 33 27 34 28 35 29 36
REMARK SMILES IDX 76 37 30 38 81 39 75 40 77 41 31 42 80 43 74 44 73 45 32 47
REMARK SMILES IDX 62 48 43 49 61 50 44 51 47 52 60 53 78 54 45 55 46 56 59 58
REMARK SMILES IDX 79 59 48 60 33 61 34 62 42 63 35 64 41 65 36 66 37 67 38 68
REMARK SMILES IDX 39 69 40 70 63 71 64 72 72 73 65 74 71 75 66 76 67 77 68 78
REMARK SMILES IDX 69 79 70 80 49 81 50 82 58 83 51 84 57 85 52 86 53 87 54 88
REMARK SMILES IDX 55 89 56 90
REMARK H PARENT 17 5 8 13 21 27 77 46 47 57
REMARK Flexibility Score: inf
ROOT
ATOM      1  C   UNL A   1      35.918  23.177  24.540  1.00  0.00     0.118 C 
ENDROOT
BRANCH   1   2
ATOM      2  N   UNL A   1      35.261  23.308  23.249  1.00  0.00    -0.352 N 
ATOM      3  C   UNL A   1      34.009  23.807  22.969  1.00  0.00     0.253 C 
ATOM      4  O   UNL A   1      33.624  23.863  21.803  1.00  0.00    -0.269 OA
ATOM      5  H   UNL A   1      35.781  23.000  22.471  1.00  0.00     0.163 HD
BRANCH   3   6
ATOM      6  C   UNL A   1      33.072  24.175  24.057  1.00  0.00     0.062 A 
ATOM      7  C   UNL A   1      32.376  23.263  24.867  1.00  0.00     0.047 A 
ATOM      8  C   UNL A   1      31.399  23.797  25.734  1.00  0.00     0.026 A 
ATOM      9  C   UNL A   1      31.171  25.171  25.851  1.00  0.00     0.002 A 
ATOM     10  C   UNL A   1      32.873  25.564  24.208  1.00  0.00     0.016 A 
ATOM     11  C   UNL A   1      31.931  26.060  25.105  1.00  0.00     0.001 A 
BRANCH   7  12
ATOM     12  N   UNL A   1      32.592  21.902  24.964  1.00  0.00    -0.380 N 
ATOM     13  H   UNL A   1      32.973  21.570  25.809  1.00  0.00     0.160 HD
BRANCH  12  14
ATOM     14  C   UNL A   1      32.307  20.909  23.933  1.00  0.00     0.152 C 
BRANCH  14  15
ATOM     15  C   UNL A   1      32.509  19.523  24.462  1.00  0.00     0.012 A 
ATOM     16  N   UNL A   1      32.890  17.364  24.633  1.00  0.00    -0.270 N 
ATOM     17  N   UNL A   1      33.037  17.817  25.884  1.00  0.00    -0.181 NA
ATOM     18  C   UNL A   1      32.598  18.351  23.728  1.00  0.00     0.040 A 
ATOM     19  C   UNL A   1      32.777  19.118  25.784  1.00  0.00     0.141 A 
ATOM     20  C   UNL A   1      32.482  18.153  22.263  1.00  0.00     0.067 C 
BRANCH  16  21
ATOM     21  C   UNL A   1      33.151  15.960  24.391  1.00  0.00     0.141 C 
ATOM     22  C   UNL A   1      32.484  15.086  25.436  1.00  0.00     0.029 C 
ENDBRANCH  16  21
ENDBRANCH  14  15
ENDBRANCH  12  14
ENDBRANCH   7  12
ENDBRANCH   3   6
ENDBRANCH   1   2
BRANCH   1  23
ATOM     23  C   UNL A   1      36.983  22.085  24.633  1.00  0.00     0.042 C 
BRANCH  23  24
ATOM     24  C   UNL A   1      37.972  22.217  25.784  1.00  0.00     0.118 C 
BRANCH  24  25
ATOM     25  N   UNL A   1      39.344  21.806  25.491  1.00  0.00    -0.352 N 
ATOM     26  C   UNL A   1      40.498  22.333  26.068  1.00  0.00     0.251 C 
ATOM     27  H   UNL A   1      39.464  21.093  24.824  1.00  0.00     0.163 HD
ATOM     28  O   UNL A   1      41.622  22.090  25.650  1.00  0.00    -0.269 OA
BRANCH  26  29
ATOM     29  C   UNL A   1      40.306  23.220  27.225  1.00  0.00     0.039 A 
ATOM     30  C   UNL A   1      41.325  23.378  28.165  1.00  0.00     0.014 A 
ATOM     31  C   UNL A   1      39.278  24.141  27.097  1.00  0.00     0.014 A 
ATOM     32  C   UNL A   1      41.408  24.587  28.857  1.00  0.00     0.010 A 
ATOM     33  C   UNL A   1      39.473  25.385  27.649  1.00  0.00     0.010 A 
ATOM     34  C   UNL A   1      40.529  25.634  28.532  1.00  0.00    -0.014 A 
BRANCH  34  35
ATOM     35  C   UNL A   1      40.798  27.006  28.989  1.00  0.00     0.031 A 
ATOM     36  C   UNL A   1      41.867  27.785  28.285  1.00  0.00     0.074 A 
ATOM     37  C   UNL A   1      40.025  27.686  29.863  1.00  0.00     0.049 A 
ATOM     38  N   UNL A   1      43.026  28.118  28.756  1.00  0.00    -0.248 NA
ATOM     39  C   UNL A   1      41.656  28.214  26.894  1.00  0.00     0.031 C 
ATOM     40  C   UNL A   1      38.770  27.279  30.509  1.00  0.00     0.029 A 
ATOM     41  N   UNL A   1      40.166  28.975  30.280  1.00  0.00    -0.354 N 
ATOM     42  C   UNL A   1      43.628  28.943  27.808  1.00  0.00     0.074 A 
ATOM     43  C   UNL A   1      42.793  28.869  26.633  1.00  0.00     0.031 C 
ATOM     44  C   UNL A   1      38.137  28.362  31.003  1.00  0.00     0.029 A 
ATOM     45  C   UNL A   1      39.051  29.481  30.926  1.00  0.00     0.049 A 
ATOM     46  H   UNL A   1      40.987  29.500  30.135  1.00  0.00     0.167 HD
ATOM     47  C   UNL A   1      44.674  29.764  28.119  1.00  0.00     0.031 A 
ATOM     48  C   UNL A   1      38.886  30.719  31.437  1.00  0.00     0.031 A 
ATOM     49  C   UNL A   1      45.172  29.517  29.448  1.00  0.00     0.049 A 
ATOM     50  C   UNL A   1      40.236  31.241  31.742  1.00  0.00     0.074 A 
ATOM     51  C   UNL A   1      45.757  28.453  30.100  1.00  0.00     0.029 A 
ATOM     52  N   UNL A   1      44.746  30.378  30.431  1.00  0.00    -0.354 N 
ATOM     53  N   UNL A   1      41.022  30.701  32.632  1.00  0.00    -0.248 NA
ATOM     54  C   UNL A   1      40.893  32.128  30.797  1.00  0.00     0.031 C 
ATOM     55  C   UNL A   1      45.236  28.504  31.427  1.00  0.00     0.029 A 
ATOM     56  C   UNL A   1      44.400  29.620  31.520  1.00  0.00     0.049 A 
ATOM     57  H   UNL A   1      44.698  31.360  30.366  1.00  0.00     0.167 HD
ATOM     58  C   UNL A   1      42.298  30.827  32.109  1.00  0.00     0.074 A 
ATOM     59  C   UNL A   1      42.170  31.839  31.064  1.00  0.00     0.031 C 
ATOM     60  C   UNL A   1      43.273  29.908  32.388  1.00  0.00     0.031 A 
BRANCH  47  61
ATOM     61  C   UNL A   1      45.055  31.031  27.386  1.00  0.00    -0.014 A 
ATOM     62  C   UNL A   1      46.377  31.170  26.902  1.00  0.00     0.010 A 
ATOM     63  C   UNL A   1      44.256  32.189  27.397  1.00  0.00     0.010 A 
ATOM     64  C   UNL A   1      46.891  32.415  26.516  1.00  0.00     0.020 A 
ATOM     65  C   UNL A   1      44.748  33.431  26.975  1.00  0.00     0.020 A 
ATOM     66  C   UNL A   1      46.074  33.544  26.574  1.00  0.00     0.054 A 
BRANCH  66  67
ATOM     67  S   UNL A   1      46.783  35.169  26.202  1.00  0.00     0.124 S 
ATOM     68  O   UNL A   1      47.518  34.901  24.969  1.00  0.00    -0.237 OA
ATOM     69  O   UNL A   1      45.595  36.007  26.061  1.00  0.00    -0.237 OA
ATOM     70  O   UNL A   1      47.609  35.458  27.372  1.00  0.00    -0.744 OA
ENDBRANCH  66  67
ENDBRANCH  47  61
BRANCH  48  71
ATOM     71  C   UNL A   1      37.638  31.506  31.474  1.00  0.00    -0.014 A 
ATOM     72  C   UNL A   1      36.805  31.495  32.601  1.00  0.00     0.010 A 
ATOM     73  C   UNL A   1      37.403  32.481  30.480  1.00  0.00     0.010 A 
ATOM     74  C   UNL A   1      35.812  32.474  32.765  1.00  0.00     0.020 A 
ATOM     75  C   UNL A   1      36.414  33.456  30.633  1.00  0.00     0.020 A 
ATOM     76  C   UNL A   1      35.642  33.464  31.791  1.00  0.00     0.054 A 
BRANCH  76  77
ATOM     77  S   UNL A   1      34.508  34.844  32.116  1.00  0.00     0.124 S 
ATOM     78  O   UNL A   1      35.333  35.741  32.919  1.00  0.00    -0.237 OA
ATOM     79  O   UNL A   1      34.189  35.314  30.771  1.00  0.00    -0.237 OA
ATOM     80  O   UNL A   1      33.396  34.217  32.828  1.00  0.00    -0.744 OA
ENDBRANCH  76  77
ENDBRANCH  48  71
BRANCH  60  81
ATOM     81  C   UNL A   1      43.037  28.936  33.525  1.00  0.00    -0.014 A 
ATOM     82  C   UNL A   1      43.589  29.098  34.810  1.00  0.00     0.010 A 
ATOM     83  C   UNL A   1      42.099  27.906  33.329  1.00  0.00     0.010 A 
ATOM     84  C   UNL A   1      43.236  28.238  35.861  1.00  0.00     0.020 A 
ATOM     85  C   UNL A   1      41.729  27.056  34.375  1.00  0.00     0.020 A 
ATOM     86  C   UNL A   1      42.307  27.219  35.635  1.00  0.00     0.054 A 
BRANCH  86  87
ATOM     87  S   UNL A   1      41.812  26.143  37.011  1.00  0.00     0.124 S 
ATOM     88  O   UNL A   1      42.924  26.292  37.946  1.00  0.00    -0.237 OA
ATOM     89  O   UNL A   1      40.544  26.728  37.445  1.00  0.00    -0.237 OA
ATOM     90  O   UNL A   1      41.695  24.822  36.395  1.00  0.00    -0.744 OA
ENDBRANCH  86  87
ENDBRANCH  60  81
ENDBRANCH  34  35
ENDBRANCH  26  29
ENDBRANCH  24  25
ENDBRANCH  23  24
ENDBRANCH   1  23
TORSDOF 17
ENDMDL
