MODEL 1
REMARK VINA RESULT:     -10.8      0.000      0.000
REMARK SMILES CC[C@@](O)(C(=O)NCCCNC(=O)c1ccc(-c2c3nc(c(-c4ccc(S(=O)(=O)[O-])cc4)c4ccc([nH]4)c(-c4ccc(S(=O)(=O)[O-])cc4)c4nc(c(-c5ccc(S(=O)(=O)[O-])cc5)c5ccc2[nH]5)C=C4)C=C3)cc1)[C@H]1CCOc2ccccc21
REMARK SMILES IDX 10 1 9 2 8 3 7 4 5 5 6 6 3 8 2 9 1 10 4 11 74 13 75 14 83 15
REMARK SMILES IDX 76 16 78 17 82 18 77 19 79 20 81 21 80 22 11 23 12 24 13 26
REMARK SMILES IDX 14 27 15 28 73 29 16 30 72 31 17 32 18 33 19 34 66 35 20 36
REMARK SMILES IDX 71 37 65 38 67 39 21 40 70 41 64 42 63 43 22 45 52 46 33 47
REMARK SMILES IDX 51 48 34 49 37 50 50 51 68 52 35 53 36 54 49 56 69 57 38 58
REMARK SMILES IDX 23 59 24 60 32 61 25 62 31 63 26 64 27 65 28 66 29 67 30 68
REMARK SMILES IDX 53 69 54 70 62 71 55 72 61 73 56 74 57 75 58 76 59 77 60 78
REMARK SMILES IDX 39 79 40 80 48 81 41 82 47 83 42 84 43 85 44 86 45 87 46 88
REMARK H PARENT 7 7 4 12 11 25 67 44 37 55
REMARK Flexibility Score: inf
ROOT
ATOM      1  C   UNL A   1      33.638  28.262  27.039  1.00  0.00     0.118 C 
ENDROOT
BRANCH   1   2
ATOM      2  C   UNL A   1      33.551  28.011  25.535  1.00  0.00     0.042 C 
BRANCH   2   3
ATOM      3  C   UNL A   1      33.660  26.542  25.126  1.00  0.00     0.117 C 
BRANCH   3   4
ATOM      4  N   UNL A   1      33.737  26.403  23.686  1.00  0.00    -0.354 N 
ATOM      5  C   UNL A   1      33.494  25.359  22.849  1.00  0.00     0.252 C 
ATOM      6  O   UNL A   1      33.804  25.585  21.677  1.00  0.00    -0.272 OA
ATOM      7  H   UNL A   1      34.020  27.225  23.224  1.00  0.00     0.163 HD
BRANCH   5   8
ATOM      8  C   UNL A   1      32.909  23.989  23.354  1.00  0.00     0.149 C 
BRANCH   8   9
ATOM      9  C   UNL A   1      31.356  24.087  23.313  1.00  0.00     0.043 C 
ATOM     10  C   UNL A   1      30.779  25.493  23.171  1.00  0.00     0.007 C 
ENDBRANCH   8   9
BRANCH   8  11
ATOM     11  O   UNL A   1      33.308  22.979  22.403  1.00  0.00    -0.379 OA
ATOM     12  H   UNL A   1      33.735  23.403  21.642  1.00  0.00     0.212 HD
ENDBRANCH   8  11
BRANCH   8  13
ATOM     13  C   UNL A   1      33.438  23.547  24.788  1.00  0.00     0.068 C 
ATOM     14  C   UNL A   1      32.410  22.766  25.629  1.00  0.00     0.053 C 
ATOM     15  C   UNL A   1      34.737  22.767  24.823  1.00  0.00     0.001 A 
ATOM     16  C   UNL A   1      32.358  21.317  25.195  1.00  0.00     0.230 C 
ATOM     17  C   UNL A   1      34.727  21.380  25.049  1.00  0.00     0.122 A 
ATOM     18  C   UNL A   1      35.969  23.401  24.595  1.00  0.00     0.008 A 
ATOM     19  O   UNL A   1      33.610  20.653  25.364  1.00  0.00    -0.493 OA
ATOM     20  C   UNL A   1      35.909  20.641  24.971  1.00  0.00     0.047 A 
ATOM     21  C   UNL A   1      37.148  22.657  24.516  1.00  0.00     0.001 A 
ATOM     22  C   UNL A   1      37.116  21.275  24.686  1.00  0.00     0.004 A 
ENDBRANCH   8  13
ENDBRANCH   5   8
ENDBRANCH   3   4
ENDBRANCH   2   3
ENDBRANCH   1   2
BRANCH   1  23
ATOM     23  N   UNL A   1      33.515  29.669  27.384  1.00  0.00    -0.352 N 
ATOM     24  C   UNL A   1      34.395  30.497  28.031  1.00  0.00     0.251 C 
ATOM     25  H   UNL A   1      32.669  30.092  27.111  1.00  0.00     0.163 HD
ATOM     26  O   UNL A   1      34.016  31.613  28.391  1.00  0.00    -0.269 OA
BRANCH  24  27
ATOM     27  C   UNL A   1      35.779  30.063  28.318  1.00  0.00     0.039 A 
ATOM     28  C   UNL A   1      36.733  30.154  27.301  1.00  0.00     0.014 A 
ATOM     29  C   UNL A   1      36.138  29.533  29.561  1.00  0.00     0.014 A 
ATOM     30  C   UNL A   1      38.053  29.767  27.546  1.00  0.00     0.010 A 
ATOM     31  C   UNL A   1      37.470  29.216  29.828  1.00  0.00     0.010 A 
ATOM     32  C   UNL A   1      38.441  29.324  28.821  1.00  0.00    -0.014 A 
BRANCH  32  33
ATOM     33  C   UNL A   1      39.857  28.976  29.107  1.00  0.00     0.031 A 
ATOM     34  C   UNL A   1      40.784  29.986  29.730  1.00  0.00     0.074 A 
ATOM     35  C   UNL A   1      40.322  27.755  28.769  1.00  0.00     0.049 A 
ATOM     36  N   UNL A   1      42.050  29.862  30.038  1.00  0.00    -0.248 NA
ATOM     37  C   UNL A   1      40.223  31.314  30.026  1.00  0.00     0.031 C 
ATOM     38  C   UNL A   1      39.540  26.703  28.116  1.00  0.00     0.029 A 
ATOM     39  N   UNL A   1      41.565  27.194  28.928  1.00  0.00    -0.354 N 
ATOM     40  C   UNL A   1      42.438  31.092  30.558  1.00  0.00     0.074 A 
ATOM     41  C   UNL A   1      41.288  31.966  30.471  1.00  0.00     0.031 C 
ATOM     42  C   UNL A   1      40.312  25.617  27.955  1.00  0.00     0.029 A 
ATOM     43  C   UNL A   1      41.651  25.904  28.461  1.00  0.00     0.049 A 
ATOM     44  H   UNL A   1      42.322  27.671  29.338  1.00  0.00     0.167 HD
ATOM     45  C   UNL A   1      43.634  31.457  31.081  1.00  0.00     0.031 A 
ATOM     46  C   UNL A   1      42.690  25.047  28.437  1.00  0.00     0.031 A 
ATOM     47  C   UNL A   1      44.777  30.587  31.168  1.00  0.00     0.049 A 
ATOM     48  C   UNL A   1      44.007  25.474  29.024  1.00  0.00     0.074 A 
ATOM     49  C   UNL A   1      46.020  30.852  31.718  1.00  0.00     0.029 A 
ATOM     50  N   UNL A   1      44.818  29.284  30.696  1.00  0.00    -0.354 N 
ATOM     51  N   UNL A   1      44.335  26.623  29.565  1.00  0.00    -0.248 NA
ATOM     52  C   UNL A   1      45.091  24.481  29.012  1.00  0.00     0.031 C 
ATOM     53  C   UNL A   1      46.827  29.723  31.537  1.00  0.00     0.029 A 
ATOM     54  C   UNL A   1      46.070  28.737  30.927  1.00  0.00     0.049 A 
ATOM     55  H   UNL A   1      44.070  28.816  30.263  1.00  0.00     0.167 HD
ATOM     56  C   UNL A   1      45.654  26.483  29.978  1.00  0.00     0.074 A 
ATOM     57  C   UNL A   1      46.058  25.132  29.643  1.00  0.00     0.031 C 
ATOM     58  C   UNL A   1      46.461  27.393  30.581  1.00  0.00     0.031 A 
BRANCH  45  59
ATOM     59  C   UNL A   1      43.762  32.864  31.603  1.00  0.00    -0.014 A 
ATOM     60  C   UNL A   1      44.155  33.917  30.755  1.00  0.00     0.010 A 
ATOM     61  C   UNL A   1      43.449  33.150  32.945  1.00  0.00     0.010 A 
ATOM     62  C   UNL A   1      44.277  35.218  31.249  1.00  0.00     0.020 A 
ATOM     63  C   UNL A   1      43.542  34.456  33.435  1.00  0.00     0.020 A 
ATOM     64  C   UNL A   1      43.974  35.479  32.588  1.00  0.00     0.054 A 
BRANCH  64  65
ATOM     65  S   UNL A   1      44.121  37.181  33.195  1.00  0.00     0.124 S 
ATOM     66  O   UNL A   1      44.234  37.936  31.950  1.00  0.00    -0.237 OA
ATOM     67  O   UNL A   1      42.873  37.369  33.931  1.00  0.00    -0.237 OA
ATOM     68  O   UNL A   1      45.328  37.154  34.018  1.00  0.00    -0.744 OA
ENDBRANCH  64  65
ENDBRANCH  45  59
BRANCH  46  69
ATOM     69  C   UNL A   1      42.518  23.691  27.848  1.00  0.00    -0.014 A 
ATOM     70  C   UNL A   1      42.782  23.460  26.487  1.00  0.00     0.010 A 
ATOM     71  C   UNL A   1      42.102  22.616  28.655  1.00  0.00     0.010 A 
ATOM     72  C   UNL A   1      42.613  22.186  25.937  1.00  0.00     0.020 A 
ATOM     73  C   UNL A   1      41.960  21.334  28.116  1.00  0.00     0.020 A 
ATOM     74  C   UNL A   1      42.205  21.130  26.757  1.00  0.00     0.054 A 
BRANCH  74  75
ATOM     75  S   UNL A   1      42.043  19.472  26.037  1.00  0.00     0.124 S 
ATOM     76  O   UNL A   1      42.554  18.624  27.108  1.00  0.00    -0.237 OA
ATOM     77  O   UNL A   1      40.606  19.377  25.783  1.00  0.00    -0.237 OA
ATOM     78  O   UNL A   1      42.875  19.539  24.838  1.00  0.00    -0.744 OA
ENDBRANCH  74  75
ENDBRANCH  46  69
BRANCH  58  79
ATOM     79  C   UNL A   1      47.852  26.947  30.943  1.00  0.00    -0.014 A 
ATOM     80  C   UNL A   1      48.116  26.302  32.165  1.00  0.00     0.010 A 
ATOM     81  C   UNL A   1      48.906  27.146  30.033  1.00  0.00     0.010 A 
ATOM     82  C   UNL A   1      49.417  25.901  32.486  1.00  0.00     0.020 A 
ATOM     83  C   UNL A   1      50.201  26.722  30.338  1.00  0.00     0.020 A 
ATOM     84  C   UNL A   1      50.452  26.118  31.572  1.00  0.00     0.054 A 
BRANCH  84  85
ATOM     85  S   UNL A   1      52.125  25.567  32.000  1.00  0.00     0.124 S 
ATOM     86  O   UNL A   1      52.874  25.904  30.793  1.00  0.00    -0.237 OA
ATOM     87  O   UNL A   1      52.437  26.373  33.178  1.00  0.00    -0.237 OA
ATOM     88  O   UNL A   1      51.965  24.137  32.255  1.00  0.00    -0.744 OA
ENDBRANCH  84  85
ENDBRANCH  58  79
ENDBRANCH  32  33
ENDBRANCH  24  27
ENDBRANCH   1  23
TORSDOF 16
ENDMDL
MODEL 2
REMARK VINA RESULT:     -10.8      3.077      3.947
REMARK SMILES CC[C@@](O)(C(=O)NCCCNC(=O)c1ccc(-c2c3nc(c(-c4ccc(S(=O)(=O)[O-])cc4)c4ccc([nH]4)c(-c4ccc(S(=O)(=O)[O-])cc4)c4nc(c(-c5ccc(S(=O)(=O)[O-])cc5)c5ccc2[nH]5)C=C4)C=C3)cc1)[C@H]1CCOc2ccccc21
REMARK SMILES IDX 10 1 9 2 8 3 7 4 5 5 6 6 3 8 2 9 1 10 4 11 74 13 75 14 83 15
REMARK SMILES IDX 76 16 78 17 82 18 77 19 79 20 81 21 80 22 11 23 12 24 13 26
REMARK SMILES IDX 14 27 15 28 73 29 16 30 72 31 17 32 18 33 19 34 66 35 20 36
REMARK SMILES IDX 71 37 65 38 67 39 21 40 70 41 64 42 63 43 22 45 52 46 33 47
REMARK SMILES IDX 51 48 34 49 37 50 50 51 68 52 35 53 36 54 49 56 69 57 38 58
REMARK SMILES IDX 23 59 24 60 32 61 25 62 31 63 26 64 27 65 28 66 29 67 30 68
REMARK SMILES IDX 53 69 54 70 62 71 55 72 61 73 56 74 57 75 58 76 59 77 60 78
REMARK SMILES IDX 39 79 40 80 48 81 41 82 47 83 42 84 43 85 44 86 45 87 46 88
REMARK H PARENT 7 7 4 12 11 25 67 44 37 55
REMARK Flexibility Score: inf
ROOT
ATOM      1  C   UNL A   1      35.528  30.243  27.789  1.00  0.00     0.118 C 
ENDROOT
BRANCH   1   2
ATOM      2  C   UNL A   1      34.678  29.125  27.191  1.00  0.00     0.042 C 
BRANCH   2   3
ATOM      3  C   UNL A   1      33.455  29.601  26.406  1.00  0.00     0.117 C 
BRANCH   3   4
ATOM      4  N   UNL A   1      33.692  29.541  24.979  1.00  0.00    -0.354 N 
ATOM      5  C   UNL A   1      33.179  28.755  23.994  1.00  0.00     0.252 C 
ATOM      6  O   UNL A   1      33.731  28.910  22.902  1.00  0.00    -0.272 OA
ATOM      7  H   UNL A   1      34.351  30.199  24.659  1.00  0.00     0.163 HD
BRANCH   5   8
ATOM      8  C   UNL A   1      32.019  27.725  24.253  1.00  0.00     0.149 C 
BRANCH   8   9
ATOM      9  C   UNL A   1      30.667  28.491  24.158  1.00  0.00     0.043 C 
ATOM     10  C   UNL A   1      29.804  28.174  22.939  1.00  0.00     0.007 C 
ENDBRANCH   8   9
BRANCH   8  11
ATOM     11  O   UNL A   1      32.054  26.765  23.176  1.00  0.00    -0.379 OA
ATOM     12  H   UNL A   1      32.857  26.901  22.648  1.00  0.00     0.212 HD
ENDBRANCH   8  11
BRANCH   8  13
ATOM     13  C   UNL A   1      32.153  26.928  25.624  1.00  0.00     0.068 C 
ATOM     14  C   UNL A   1      30.810  26.630  26.317  1.00  0.00     0.053 C 
ATOM     15  C   UNL A   1      32.939  25.633  25.583  1.00  0.00     0.001 A 
ATOM     16  C   UNL A   1      30.137  25.433  25.680  1.00  0.00     0.230 C 
ATOM     17  C   UNL A   1      32.271  24.396  25.609  1.00  0.00     0.122 A 
ATOM     18  C   UNL A   1      34.339  25.637  25.482  1.00  0.00     0.008 A 
ATOM     19  O   UNL A   1      30.921  24.246  25.787  1.00  0.00    -0.493 OA
ATOM     20  C   UNL A   1      32.983  23.204  25.459  1.00  0.00     0.047 A 
ATOM     21  C   UNL A   1      35.046  24.442  25.330  1.00  0.00     0.001 A 
ATOM     22  C   UNL A   1      34.366  23.227  25.300  1.00  0.00     0.004 A 
ENDBRANCH   8  13
ENDBRANCH   5   8
ENDBRANCH   3   4
ENDBRANCH   2   3
ENDBRANCH   1   2
BRANCH   1  23
ATOM     23  N   UNL A   1      35.491  30.264  29.242  1.00  0.00    -0.352 N 
ATOM     24  C   UNL A   1      36.455  29.921  30.154  1.00  0.00     0.251 C 
ATOM     25  H   UNL A   1      34.640  30.571  29.632  1.00  0.00     0.163 HD
ATOM     26  O   UNL A   1      36.152  29.832  31.345  1.00  0.00    -0.269 OA
BRANCH  24  27
ATOM     27  C   UNL A   1      37.842  29.637  29.724  1.00  0.00     0.039 A 
ATOM     28  C   UNL A   1      38.792  29.321  30.698  1.00  0.00     0.014 A 
ATOM     29  C   UNL A   1      38.223  29.717  28.381  1.00  0.00     0.014 A 
ATOM     30  C   UNL A   1      40.106  29.031  30.322  1.00  0.00     0.010 A 
ATOM     31  C   UNL A   1      39.515  29.357  27.999  1.00  0.00     0.010 A 
ATOM     32  C   UNL A   1      40.473  29.016  28.966  1.00  0.00    -0.014 A 
BRANCH  32  33
ATOM     33  C   UNL A   1      41.852  28.643  28.555  1.00  0.00     0.031 A 
ATOM     34  C   UNL A   1      42.944  29.678  28.506  1.00  0.00     0.074 A 
ATOM     35  C   UNL A   1      42.114  27.371  28.189  1.00  0.00     0.049 A 
ATOM     36  N   UNL A   1      44.199  29.536  28.161  1.00  0.00    -0.248 NA
ATOM     37  C   UNL A   1      42.575  31.055  28.871  1.00  0.00     0.031 C 
ATOM     38  C   UNL A   1      41.134  26.284  28.146  1.00  0.00     0.029 A 
ATOM     39  N   UNL A   1      43.283  26.779  27.782  1.00  0.00    -0.354 N 
ATOM     40  C   UNL A   1      44.767  30.801  28.261  1.00  0.00     0.074 A 
ATOM     41  C   UNL A   1      43.707  31.708  28.645  1.00  0.00     0.031 C 
ATOM     42  C   UNL A   1      41.747  25.153  27.762  1.00  0.00     0.029 A 
ATOM     43  C   UNL A   1      43.154  25.440  27.499  1.00  0.00     0.049 A 
ATOM     44  H   UNL A   1      44.134  27.268  27.700  1.00  0.00     0.167 HD
ATOM     45  C   UNL A   1      46.057  31.173  28.074  1.00  0.00     0.031 A 
ATOM     46  C   UNL A   1      44.062  24.541  27.072  1.00  0.00     0.031 A 
ATOM     47  C   UNL A   1      47.111  30.270  27.694  1.00  0.00     0.049 A 
ATOM     48  C   UNL A   1      45.487  24.976  26.872  1.00  0.00     0.074 A 
ATOM     49  C   UNL A   1      48.457  30.543  27.518  1.00  0.00     0.029 A 
ATOM     50  N   UNL A   1      46.940  28.919  27.431  1.00  0.00    -0.354 N 
ATOM     51  N   UNL A   1      46.016  26.166  27.031  1.00  0.00    -0.248 NA
ATOM     52  C   UNL A   1      46.443  23.942  26.451  1.00  0.00     0.031 C 
ATOM     53  C   UNL A   1      49.092  29.367  27.105  1.00  0.00     0.029 A 
ATOM     54  C   UNL A   1      48.153  28.349  27.078  1.00  0.00     0.049 A 
ATOM     55  H   UNL A   1      46.085  28.436  27.487  1.00  0.00     0.167 HD
ATOM     56  C   UNL A   1      47.369  26.019  26.752  1.00  0.00     0.074 A 
ATOM     57  C   UNL A   1      47.582  24.621  26.434  1.00  0.00     0.031 C 
ATOM     58  C   UNL A   1      48.349  26.957  26.757  1.00  0.00     0.031 A 
BRANCH  45  59
ATOM     59  C   UNL A   1      46.397  32.626  28.283  1.00  0.00    -0.014 A 
ATOM     60  C   UNL A   1      46.798  33.101  29.545  1.00  0.00     0.010 A 
ATOM     61  C   UNL A   1      46.353  33.522  27.199  1.00  0.00     0.010 A 
ATOM     62  C   UNL A   1      47.106  34.450  29.730  1.00  0.00     0.020 A 
ATOM     63  C   UNL A   1      46.689  34.868  27.375  1.00  0.00     0.020 A 
ATOM     64  C   UNL A   1      47.046  35.328  28.644  1.00  0.00     0.054 A 
BRANCH  64  65
ATOM     65  S   UNL A   1      47.471  37.070  28.910  1.00  0.00     0.124 S 
ATOM     66  O   UNL A   1      46.264  37.749  28.444  1.00  0.00    -0.237 OA
ATOM     67  O   UNL A   1      47.706  37.128  30.349  1.00  0.00    -0.237 OA
ATOM     68  O   UNL A   1      48.656  37.270  28.079  1.00  0.00    -0.744 OA
ENDBRANCH  64  65
ENDBRANCH  45  59
BRANCH  46  69
ATOM     69  C   UNL A   1      43.649  23.133  26.821  1.00  0.00    -0.014 A 
ATOM     70  C   UNL A   1      44.003  22.483  25.626  1.00  0.00     0.010 A 
ATOM     71  C   UNL A   1      42.910  22.429  27.789  1.00  0.00     0.010 A 
ATOM     72  C   UNL A   1      43.607  21.163  25.392  1.00  0.00     0.020 A 
ATOM     73  C   UNL A   1      42.537  21.099  27.572  1.00  0.00     0.020 A 
ATOM     74  C   UNL A   1      42.878  20.478  26.369  1.00  0.00     0.054 A 
BRANCH  74  75
ATOM     75  S   UNL A   1      42.420  18.748  26.071  1.00  0.00     0.124 S 
ATOM     76  O   UNL A   1      42.677  18.137  27.369  1.00  0.00    -0.237 OA
ATOM     77  O   UNL A   1      41.014  18.855  25.686  1.00  0.00    -0.237 OA
ATOM     78  O   UNL A   1      43.321  18.339  24.995  1.00  0.00    -0.744 OA
ENDBRANCH  74  75
ENDBRANCH  46  69
BRANCH  58  79
ATOM     79  C   UNL A   1      49.746  26.497  26.437  1.00  0.00    -0.014 A 
ATOM     80  C   UNL A   1      50.605  26.020  27.442  1.00  0.00     0.010 A 
ATOM     81  C   UNL A   1      50.194  26.511  25.103  1.00  0.00     0.010 A 
ATOM     82  C   UNL A   1      51.901  25.603  27.126  1.00  0.00     0.020 A 
ATOM     83  C   UNL A   1      51.478  26.068  24.779  1.00  0.00     0.020 A 
ATOM     84  C   UNL A   1      52.331  25.634  25.796  1.00  0.00     0.054 A 
BRANCH  84  85
ATOM     85  S   UNL A   1      54.008  25.065  25.406  1.00  0.00     0.124 S 
ATOM     86  O   UNL A   1      53.761  23.721  24.894  1.00  0.00    -0.237 OA
ATOM     87  O   UNL A   1      54.457  26.042  24.416  1.00  0.00    -0.237 OA
ATOM     88  O   UNL A   1      54.702  25.126  26.691  1.00  0.00    -0.744 OA
ENDBRANCH  84  85
ENDBRANCH  58  79
ENDBRANCH  32  33
ENDBRANCH  24  27
ENDBRANCH   1  23
TORSDOF 16
ENDMDL
MODEL 3
REMARK VINA RESULT:     -10.7      4.551     10.217
REMARK SMILES CC[C@@](O)(C(=O)NCCCNC(=O)c1ccc(-c2c3nc(c(-c4ccc(S(=O)(=O)[O-])cc4)c4ccc([nH]4)c(-c4ccc(S(=O)(=O)[O-])cc4)c4nc(c(-c5ccc(S(=O)(=O)[O-])cc5)c5ccc2[nH]5)C=C4)C=C3)cc1)[C@H]1CCOc2ccccc21
REMARK SMILES IDX 10 1 9 2 8 3 7 4 5 5 6 6 3 8 2 9 1 10 4 11 74 13 75 14 83 15
REMARK SMILES IDX 76 16 78 17 82 18 77 19 79 20 81 21 80 22 11 23 12 24 13 26
REMARK SMILES IDX 14 27 15 28 73 29 16 30 72 31 17 32 18 33 19 34 66 35 20 36
REMARK SMILES IDX 71 37 65 38 67 39 21 40 70 41 64 42 63 43 22 45 52 46 33 47
REMARK SMILES IDX 51 48 34 49 37 50 50 51 68 52 35 53 36 54 49 56 69 57 38 58
REMARK SMILES IDX 23 59 24 60 32 61 25 62 31 63 26 64 27 65 28 66 29 67 30 68
REMARK SMILES IDX 53 69 54 70 62 71 55 72 61 73 56 74 57 75 58 76 59 77 60 78
REMARK SMILES IDX 39 79 40 80 48 81 41 82 47 83 42 84 43 85 44 86 45 87 46 88
REMARK H PARENT 7 7 4 12 11 25 67 44 37 55
REMARK Flexibility Score: inf
ROOT
ATOM      1  C   UNL A   1      39.705  23.531  27.016  1.00  0.00     0.118 C 
ENDROOT
BRANCH   1   2
ATOM      2  C   UNL A   1      38.947  22.359  26.397  1.00  0.00     0.042 C 
BRANCH   2   3
ATOM      3  C   UNL A   1      37.517  22.681  25.963  1.00  0.00     0.117 C 
BRANCH   3   4
ATOM      4  N   UNL A   1      37.411  22.759  24.521  1.00  0.00    -0.354 N 
ATOM      5  C   UNL A   1      36.346  22.873  23.682  1.00  0.00     0.252 C 
ATOM      6  O   UNL A   1      36.645  22.772  22.490  1.00  0.00    -0.272 OA
ATOM      7  H   UNL A   1      38.279  22.723  24.057  1.00  0.00     0.163 HD
BRANCH   5   8
ATOM      8  C   UNL A   1      34.877  23.077  24.205  1.00  0.00     0.149 C 
BRANCH   8   9
ATOM      9  C   UNL A   1      34.696  24.583  24.553  1.00  0.00     0.043 C 
ATOM     10  C   UNL A   1      33.555  25.302  23.838  1.00  0.00     0.007 C 
ENDBRANCH   8   9
BRANCH   8  11
ATOM     11  O   UNL A   1      33.989  22.773  23.108  1.00  0.00    -0.379 OA
ATOM     12  H   UNL A   1      34.059  23.467  22.433  1.00  0.00     0.212 HD
ENDBRANCH   8  11
BRANCH   8  13
ATOM     13  C   UNL A   1      34.487  22.134  25.426  1.00  0.00     0.068 C 
ATOM     14  C   UNL A   1      33.287  22.635  26.253  1.00  0.00     0.053 C 
ATOM     15  C   UNL A   1      34.238  20.674  25.105  1.00  0.00     0.001 A 
ATOM     16  C   UNL A   1      31.984  22.291  25.563  1.00  0.00     0.230 C 
ATOM     17  C   UNL A   1      32.926  20.170  25.060  1.00  0.00     0.122 A 
ATOM     18  C   UNL A   1      35.301  19.805  24.811  1.00  0.00     0.008 A 
ATOM     19  O   UNL A   1      31.808  20.884  25.402  1.00  0.00    -0.493 OA
ATOM     20  C   UNL A   1      32.686  18.856  24.656  1.00  0.00     0.047 A 
ATOM     21  C   UNL A   1      35.055  18.492  24.405  1.00  0.00     0.001 A 
ATOM     22  C   UNL A   1      33.747  18.022  24.310  1.00  0.00     0.004 A 
ENDBRANCH   8  13
ENDBRANCH   5   8
ENDBRANCH   3   4
ENDBRANCH   2   3
ENDBRANCH   1   2
BRANCH   1  23
ATOM     23  N   UNL A   1      40.607  24.178  26.077  1.00  0.00    -0.352 N 
ATOM     24  C   UNL A   1      41.156  25.434  26.105  1.00  0.00     0.251 C 
ATOM     25  H   UNL A   1      40.864  23.629  25.301  1.00  0.00     0.163 HD
ATOM     26  O   UNL A   1      41.748  25.853  25.109  1.00  0.00    -0.269 OA
BRANCH  24  27
ATOM     27  C   UNL A   1      41.028  26.294  27.302  1.00  0.00     0.039 A 
ATOM     28  C   UNL A   1      41.902  27.374  27.445  1.00  0.00     0.014 A 
ATOM     29  C   UNL A   1      40.083  26.027  28.297  1.00  0.00     0.014 A 
ATOM     30  C   UNL A   1      41.795  28.214  28.556  1.00  0.00     0.010 A 
ATOM     31  C   UNL A   1      39.928  26.908  29.368  1.00  0.00     0.010 A 
ATOM     32  C   UNL A   1      40.787  28.008  29.512  1.00  0.00    -0.014 A 
BRANCH  32  33
ATOM     33  C   UNL A   1      40.624  28.939  30.660  1.00  0.00     0.031 A 
ATOM     34  C   UNL A   1      41.487  28.801  31.886  1.00  0.00     0.074 A 
ATOM     35  C   UNL A   1      39.670  29.891  30.612  1.00  0.00     0.049 A 
ATOM     36  N   UNL A   1      41.477  29.514  32.985  1.00  0.00    -0.248 NA
ATOM     37  C   UNL A   1      42.473  27.709  31.889  1.00  0.00     0.031 C 
ATOM     38  C   UNL A   1      38.737  30.099  29.503  1.00  0.00     0.029 A 
ATOM     39  N   UNL A   1      39.326  30.861  31.520  1.00  0.00    -0.354 N 
ATOM     40  C   UNL A   1      42.447  28.956  33.809  1.00  0.00     0.074 A 
ATOM     41  C   UNL A   1      42.987  27.811  33.107  1.00  0.00     0.031 C 
ATOM     42  C   UNL A   1      37.946  31.147  29.783  1.00  0.00     0.029 A 
ATOM     43  C   UNL A   1      38.291  31.664  31.104  1.00  0.00     0.049 A 
ATOM     44  H   UNL A   1      39.778  30.970  32.388  1.00  0.00     0.167 HD
ATOM     45  C   UNL A   1      42.868  29.370  35.029  1.00  0.00     0.031 A 
ATOM     46  C   UNL A   1      37.682  32.699  31.715  1.00  0.00     0.031 A 
ATOM     47  C   UNL A   1      42.332  30.509  35.726  1.00  0.00     0.049 A 
ATOM     48  C   UNL A   1      38.167  33.140  33.068  1.00  0.00     0.074 A 
ATOM     49  C   UNL A   1      42.719  31.031  36.948  1.00  0.00     0.029 A 
ATOM     50  N   UNL A   1      41.294  31.303  35.263  1.00  0.00    -0.354 N 
ATOM     51  N   UNL A   1      39.127  32.634  33.805  1.00  0.00    -0.248 NA
ATOM     52  C   UNL A   1      37.495  34.303  33.665  1.00  0.00     0.031 C 
ATOM     53  C   UNL A   1      41.885  32.115  37.245  1.00  0.00     0.029 A 
ATOM     54  C   UNL A   1      41.016  32.302  36.183  1.00  0.00     0.049 A 
ATOM     55  H   UNL A   1      40.824  31.178  34.408  1.00  0.00     0.167 HD
ATOM     56  C   UNL A   1      39.191  33.432  34.941  1.00  0.00     0.074 A 
ATOM     57  C   UNL A   1      38.186  34.465  34.786  1.00  0.00     0.031 C 
ATOM     58  C   UNL A   1      40.008  33.319  36.019  1.00  0.00     0.031 A 
BRANCH  45  59
ATOM     59  C   UNL A   1      43.970  28.580  35.687  1.00  0.00    -0.014 A 
ATOM     60  C   UNL A   1      43.676  27.494  36.533  1.00  0.00     0.010 A 
ATOM     61  C   UNL A   1      45.316  28.899  35.429  1.00  0.00     0.010 A 
ATOM     62  C   UNL A   1      44.704  26.772  37.143  1.00  0.00     0.020 A 
ATOM     63  C   UNL A   1      46.348  28.159  36.015  1.00  0.00     0.020 A 
ATOM     64  C   UNL A   1      46.035  27.111  36.884  1.00  0.00     0.054 A 
BRANCH  64  65
ATOM     65  S   UNL A   1      47.348  26.142  37.673  1.00  0.00     0.124 S 
ATOM     66  O   UNL A   1      46.644  25.551  38.809  1.00  0.00    -0.237 OA
ATOM     67  O   UNL A   1      47.735  25.207  36.620  1.00  0.00    -0.237 OA
ATOM     68  O   UNL A   1      48.357  27.140  38.019  1.00  0.00    -0.744 OA
ENDBRANCH  64  65
ENDBRANCH  45  59
BRANCH  46  69
ATOM     69  C   UNL A   1      36.554  33.398  31.041  1.00  0.00    -0.014 A 
ATOM     70  C   UNL A   1      35.304  33.520  31.672  1.00  0.00     0.010 A 
ATOM     71  C   UNL A   1      36.733  33.961  29.764  1.00  0.00     0.010 A 
ATOM     72  C   UNL A   1      34.246  34.172  31.030  1.00  0.00     0.020 A 
ATOM     73  C   UNL A   1      35.687  34.640  29.132  1.00  0.00     0.020 A 
ATOM     74  C   UNL A   1      34.446  34.730  29.765  1.00  0.00     0.054 A 
BRANCH  74  75
ATOM     75  S   UNL A   1      33.078  35.619  28.972  1.00  0.00     0.124 S 
ATOM     76  O   UNL A   1      33.780  36.655  28.224  1.00  0.00    -0.237 OA
ATOM     77  O   UNL A   1      32.444  34.575  28.169  1.00  0.00    -0.237 OA
ATOM     78  O   UNL A   1      32.280  36.093  30.102  1.00  0.00    -0.744 OA
ENDBRANCH  74  75
ENDBRANCH  46  69
BRANCH  58  79
ATOM     79  C   UNL A   1      39.869  34.356  37.101  1.00  0.00    -0.014 A 
ATOM     80  C   UNL A   1      40.629  35.539  37.080  1.00  0.00     0.010 A 
ATOM     81  C   UNL A   1      38.938  34.159  38.138  1.00  0.00     0.010 A 
ATOM     82  C   UNL A   1      40.491  36.487  38.098  1.00  0.00     0.020 A 
ATOM     83  C   UNL A   1      38.776  35.117  39.141  1.00  0.00     0.020 A 
ATOM     84  C   UNL A   1      39.567  36.268  39.124  1.00  0.00     0.054 A 
BRANCH  84  85
ATOM     85  S   UNL A   1      39.387  37.523  40.420  1.00  0.00     0.124 S 
ATOM     86  O   UNL A   1      40.623  38.285  40.278  1.00  0.00    -0.237 OA
ATOM     87  O   UNL A   1      38.168  38.223  40.022  1.00  0.00    -0.237 OA
ATOM     88  O   UNL A   1      39.275  36.739  41.649  1.00  0.00    -0.744 OA
ENDBRANCH  84  85
ENDBRANCH  58  79
ENDBRANCH  32  33
ENDBRANCH  24  27
ENDBRANCH   1  23
TORSDOF 16
ENDMDL
