MODEL 1
REMARK VINA RESULT:     -10.9      0.000      0.000
REMARK SMILES CSCc1ccc(C(=O)N[C@H]2C=C[C@@H](C(=O)NCCCNC(=O)c3ccc(-c4c5nc(c(-c6ccc(S(=O)(=O)[O-])cc6)c6ccc([nH]6)c(-c6ccc(S(=O)(=O)[O-])cc6)c6nc(c(-c7ccc(S(=O)(=O)[O-])cc7)c7ccc4[nH]7)C=C6)C=C5)cc3)C2)o1
REMARK SMILES IDX 18 1 17 2 15 3 16 4 14 6 11 7 12 8 84 9 13 10 10 11 8 12
REMARK SMILES IDX 9 13 7 15 4 16 5 17 85 18 6 19 3 20 2 21 1 22 19 23 20 24
REMARK SMILES IDX 21 25 22 26 23 28 24 29 25 30 83 31 26 32 82 33 27 34 28 35
REMARK SMILES IDX 29 36 76 37 30 38 81 39 75 40 77 41 31 42 80 43 74 44 73 45
REMARK SMILES IDX 32 47 62 48 43 49 61 50 44 51 47 52 60 53 78 54 45 55 46 56
REMARK SMILES IDX 59 58 79 59 48 60 33 61 34 62 42 63 35 64 41 65 36 66 37 67
REMARK SMILES IDX 38 68 39 69 40 70 63 71 64 72 72 73 65 74 71 75 66 76 67 77
REMARK SMILES IDX 68 78 69 79 70 80 49 81 50 82 58 83 51 84 57 85 52 86 53 87
REMARK SMILES IDX 54 88 55 89 56 90
REMARK H PARENT 17 5 10 14 21 27 77 46 47 57
REMARK Flexibility Score: inf
ROOT
ATOM      1  C   UNL A   1      31.549  28.560  25.578  1.00  0.00     0.117 C 
ENDROOT
BRANCH   1   2
ATOM      2  N   UNL A   1      32.621  28.543  24.598  1.00  0.00    -0.356 N 
ATOM      3  C   UNL A   1      32.933  27.627  23.643  1.00  0.00     0.227 C 
ATOM      4  O   UNL A   1      33.915  27.853  22.930  1.00  0.00    -0.274 OA
ATOM      5  H   UNL A   1      33.221  29.323  24.631  1.00  0.00     0.163 HD
BRANCH   3   6
ATOM      6  C   UNL A   1      32.127  26.347  23.449  1.00  0.00     0.103 C 
ATOM      7  C   UNL A   1      30.771  24.680  24.526  1.00  0.00     0.106 C 
ATOM      8  C   UNL A   1      29.908  25.654  23.793  1.00  0.00    -0.006 C 
ATOM      9  C   UNL A   1      32.077  25.462  24.690  1.00  0.00     0.047 C 
ATOM     10  C   UNL A   1      30.669  26.537  23.129  1.00  0.00    -0.016 C 
BRANCH   7  11
ATOM     11  N   UNL A   1      30.206  24.241  25.765  1.00  0.00    -0.343 N 
ATOM     12  C   UNL A   1      30.617  23.174  26.547  1.00  0.00     0.287 C 
ATOM     13  O   UNL A   1      29.998  23.004  27.597  1.00  0.00    -0.266 OA
ATOM     14  H   UNL A   1      29.437  24.756  26.099  1.00  0.00     0.164 HD
BRANCH  12  15
ATOM     15  C   UNL A   1      31.735  22.330  26.130  1.00  0.00     0.191 A 
ATOM     16  C   UNL A   1      32.609  20.586  25.066  1.00  0.00     0.114 A 
ATOM     17  C   UNL A   1      33.653  21.211  25.706  1.00  0.00     0.047 A 
ATOM     18  O   UNL A   1      31.449  21.261  25.307  1.00  0.00    -0.455 OA
ATOM     19  C   UNL A   1      33.102  22.336  26.352  1.00  0.00     0.056 A 
BRANCH  16  20
ATOM     20  C   UNL A   1      32.546  19.419  24.152  1.00  0.00     0.144 C 
BRANCH  20  21
ATOM     21  S   UNL A   1      33.713  18.084  24.574  1.00  0.00    -0.157 SA
ATOM     22  C   UNL A   1      32.658  17.007  25.574  1.00  0.00     0.085 C 
ENDBRANCH  20  21
ENDBRANCH  16  20
ENDBRANCH  12  15
ENDBRANCH   7  11
ENDBRANCH   3   6
ENDBRANCH   1   2
BRANCH   1  23
ATOM     23  C   UNL A   1      32.018  28.101  26.949  1.00  0.00     0.042 C 
BRANCH  23  24
ATOM     24  C   UNL A   1      33.417  28.586  27.299  1.00  0.00     0.118 C 
BRANCH  24  25
ATOM     25  N   UNL A   1      33.446  30.014  27.591  1.00  0.00    -0.352 N 
ATOM     26  C   UNL A   1      34.414  30.767  28.211  1.00  0.00     0.251 C 
ATOM     27  H   UNL A   1      32.652  30.516  27.298  1.00  0.00     0.163 HD
ATOM     28  O   UNL A   1      34.149  31.904  28.588  1.00  0.00    -0.269 OA
BRANCH  26  29
ATOM     29  C   UNL A   1      35.759  30.199  28.432  1.00  0.00     0.039 A 
ATOM     30  C   UNL A   1      36.673  30.181  27.376  1.00  0.00     0.014 A 
ATOM     31  C   UNL A   1      36.118  29.687  29.681  1.00  0.00     0.014 A 
ATOM     32  C   UNL A   1      37.975  29.729  27.600  1.00  0.00     0.010 A 
ATOM     33  C   UNL A   1      37.437  29.324  29.926  1.00  0.00     0.010 A 
ATOM     34  C   UNL A   1      38.380  29.345  28.889  1.00  0.00    -0.014 A 
BRANCH  34  35
ATOM     35  C   UNL A   1      39.791  28.994  29.188  1.00  0.00     0.031 A 
ATOM     36  C   UNL A   1      40.727  30.027  29.753  1.00  0.00     0.074 A 
ATOM     37  C   UNL A   1      40.248  27.767  28.866  1.00  0.00     0.049 A 
ATOM     38  N   UNL A   1      42.009  29.933  29.991  1.00  0.00    -0.248 NA
ATOM     39  C   UNL A   1      40.152  31.346  30.068  1.00  0.00     0.031 C 
ATOM     40  C   UNL A   1      39.445  26.692  28.275  1.00  0.00     0.029 A 
ATOM     41  N   UNL A   1      41.502  27.220  28.976  1.00  0.00    -0.354 N 
ATOM     42  C   UNL A   1      42.397  31.180  30.468  1.00  0.00     0.074 A 
ATOM     43  C   UNL A   1      41.226  32.028  30.439  1.00  0.00     0.031 C 
ATOM     44  C   UNL A   1      40.220  25.610  28.099  1.00  0.00     0.029 A 
ATOM     45  C   UNL A   1      41.583  25.928  28.510  1.00  0.00     0.049 A 
ATOM     46  H   UNL A   1      42.271  27.706  29.353  1.00  0.00     0.167 HD
ATOM     47  C   UNL A   1      43.616  31.576  30.905  1.00  0.00     0.031 A 
ATOM     48  C   UNL A   1      42.639  25.097  28.406  1.00  0.00     0.031 A 
ATOM     49  C   UNL A   1      44.776  30.726  30.930  1.00  0.00     0.049 A 
ATOM     50  C   UNL A   1      43.990  25.575  28.861  1.00  0.00     0.074 A 
ATOM     51  C   UNL A   1      46.042  31.014  31.411  1.00  0.00     0.029 A 
ATOM     52  N   UNL A   1      44.817  29.426  30.448  1.00  0.00    -0.354 N 
ATOM     53  N   UNL A   1      44.320  26.732  29.386  1.00  0.00    -0.248 NA
ATOM     54  C   UNL A   1      45.112  24.637  28.713  1.00  0.00     0.031 C 
ATOM     55  C   UNL A   1      46.865  29.914  31.156  1.00  0.00     0.029 A 
ATOM     56  C   UNL A   1      46.097  28.912  30.581  1.00  0.00     0.049 A 
ATOM     57  H   UNL A   1      44.051  28.940  30.067  1.00  0.00     0.167 HD
ATOM     58  C   UNL A   1      45.684  26.652  29.648  1.00  0.00     0.074 A 
ATOM     59  C   UNL A   1      46.111  25.329  29.245  1.00  0.00     0.031 C 
ATOM     60  C   UNL A   1      46.508  27.593  30.171  1.00  0.00     0.031 A 
BRANCH  47  61
ATOM     61  C   UNL A   1      43.762  32.999  31.381  1.00  0.00    -0.014 A 
ATOM     62  C   UNL A   1      44.038  34.043  30.478  1.00  0.00     0.010 A 
ATOM     63  C   UNL A   1      43.571  33.305  32.740  1.00  0.00     0.010 A 
ATOM     64  C   UNL A   1      44.159  35.359  30.935  1.00  0.00     0.020 A 
ATOM     65  C   UNL A   1      43.660  34.624  33.195  1.00  0.00     0.020 A 
ATOM     66  C   UNL A   1      43.969  35.640  32.290  1.00  0.00     0.054 A 
BRANCH  66  67
ATOM     67  S   UNL A   1      44.106  37.362  32.846  1.00  0.00     0.124 S 
ATOM     68  O   UNL A   1      42.985  37.468  33.776  1.00  0.00    -0.237 OA
ATOM     69  O   UNL A   1      45.432  37.396  33.456  1.00  0.00    -0.237 OA
ATOM     70  O   UNL A   1      43.969  38.137  31.616  1.00  0.00    -0.744 OA
ENDBRANCH  66  67
ENDBRANCH  47  61
BRANCH  48  71
ATOM     71  C   UNL A   1      42.458  23.730  27.844  1.00  0.00    -0.014 A 
ATOM     72  C   UNL A   1      42.526  23.514  26.456  1.00  0.00     0.010 A 
ATOM     73  C   UNL A   1      42.232  22.631  28.695  1.00  0.00     0.010 A 
ATOM     74  C   UNL A   1      42.353  22.231  25.929  1.00  0.00     0.020 A 
ATOM     75  C   UNL A   1      42.089  21.342  28.174  1.00  0.00     0.020 A 
ATOM     76  C   UNL A   1      42.138  21.152  26.792  1.00  0.00     0.054 A 
BRANCH  76  77
ATOM     77  S   UNL A   1      41.962  19.492  26.081  1.00  0.00     0.124 S 
ATOM     78  O   UNL A   1      42.434  18.644  27.171  1.00  0.00    -0.237 OA
ATOM     79  O   UNL A   1      40.531  19.422  25.799  1.00  0.00    -0.237 OA
ATOM     80  O   UNL A   1      42.822  19.530  24.901  1.00  0.00    -0.744 OA
ENDBRANCH  76  77
ENDBRANCH  48  71
BRANCH  60  81
ATOM     81  C   UNL A   1      47.956  27.226  30.359  1.00  0.00    -0.014 A 
ATOM     82  C   UNL A   1      48.876  27.342  29.302  1.00  0.00     0.010 A 
ATOM     83  C   UNL A   1      48.417  26.838  31.630  1.00  0.00     0.010 A 
ATOM     84  C   UNL A   1      50.229  27.064  29.511  1.00  0.00     0.020 A 
ATOM     85  C   UNL A   1      49.774  26.589  31.850  1.00  0.00     0.020 A 
ATOM     86  C   UNL A   1      50.671  26.696  30.786  1.00  0.00     0.054 A 
BRANCH  86  87
ATOM     87  S   UNL A   1      52.444  26.414  31.045  1.00  0.00     0.124 S 
ATOM     88  O   UNL A   1      52.966  26.489  29.684  1.00  0.00    -0.237 OA
ATOM     89  O   UNL A   1      52.817  27.521  31.923  1.00  0.00    -0.237 OA
ATOM     90  O   UNL A   1      52.499  25.091  31.662  1.00  0.00    -0.744 OA
ENDBRANCH  86  87
ENDBRANCH  60  81
ENDBRANCH  34  35
ENDBRANCH  26  29
ENDBRANCH  24  25
ENDBRANCH  23  24
ENDBRANCH   1  23
TORSDOF 17
ENDMDL
MODEL 2
REMARK VINA RESULT:     -10.7      4.978     10.600
REMARK SMILES CSCc1ccc(C(=O)N[C@H]2C=C[C@@H](C(=O)NCCCNC(=O)c3ccc(-c4c5nc(c(-c6ccc(S(=O)(=O)[O-])cc6)c6ccc([nH]6)c(-c6ccc(S(=O)(=O)[O-])cc6)c6nc(c(-c7ccc(S(=O)(=O)[O-])cc7)c7ccc4[nH]7)C=C6)C=C5)cc3)C2)o1
REMARK SMILES IDX 18 1 17 2 15 3 16 4 14 6 11 7 12 8 84 9 13 10 10 11 8 12
REMARK SMILES IDX 9 13 7 15 4 16 5 17 85 18 6 19 3 20 2 21 1 22 19 23 20 24
REMARK SMILES IDX 21 25 22 26 23 28 24 29 25 30 83 31 26 32 82 33 27 34 28 35
REMARK SMILES IDX 29 36 76 37 30 38 81 39 75 40 77 41 31 42 80 43 74 44 73 45
REMARK SMILES IDX 32 47 62 48 43 49 61 50 44 51 47 52 60 53 78 54 45 55 46 56
REMARK SMILES IDX 59 58 79 59 48 60 33 61 34 62 42 63 35 64 41 65 36 66 37 67
REMARK SMILES IDX 38 68 39 69 40 70 63 71 64 72 72 73 65 74 71 75 66 76 67 77
REMARK SMILES IDX 68 78 69 79 70 80 49 81 50 82 58 83 51 84 57 85 52 86 53 87
REMARK SMILES IDX 54 88 55 89 56 90
REMARK H PARENT 17 5 10 14 21 27 77 46 47 57
REMARK Flexibility Score: inf
ROOT
ATOM      1  C   UNL A   1      39.139  22.664  26.386  1.00  0.00     0.117 C 
ENDROOT
BRANCH   1   2
ATOM      2  N   UNL A   1      38.203  21.691  25.851  1.00  0.00    -0.356 N 
ATOM      3  C   UNL A   1      37.026  21.864  25.192  1.00  0.00     0.227 C 
ATOM      4  O   UNL A   1      36.410  20.852  24.843  1.00  0.00    -0.274 OA
ATOM      5  H   UNL A   1      38.462  20.752  25.990  1.00  0.00     0.163 HD
BRANCH   3   6
ATOM      6  C   UNL A   1      36.454  23.247  24.897  1.00  0.00     0.103 C 
ATOM      7  C   UNL A   1      34.578  24.465  24.019  1.00  0.00     0.106 C 
ATOM      8  C   UNL A   1      34.548  24.475  25.512  1.00  0.00    -0.006 C 
ATOM      9  C   UNL A   1      35.484  23.268  23.720  1.00  0.00     0.047 C 
ATOM     10  C   UNL A   1      35.637  23.862  26.000  1.00  0.00    -0.016 C 
BRANCH   7  11
ATOM     11  N   UNL A   1      33.280  24.363  23.426  1.00  0.00    -0.343 N 
ATOM     12  C   UNL A   1      32.435  25.400  23.063  1.00  0.00     0.287 C 
ATOM     13  O   UNL A   1      31.374  25.072  22.535  1.00  0.00    -0.266 OA
ATOM     14  H   UNL A   1      32.949  23.452  23.257  1.00  0.00     0.164 HD
BRANCH  12  15
ATOM     15  C   UNL A   1      32.820  26.791  23.293  1.00  0.00     0.191 A 
ATOM     16  C   UNL A   1      32.624  28.758  24.308  1.00  0.00     0.114 A 
ATOM     17  C   UNL A   1      33.616  28.905  23.368  1.00  0.00     0.047 A 
ATOM     18  O   UNL A   1      32.146  27.481  24.278  1.00  0.00    -0.455 OA
ATOM     19  C   UNL A   1      33.763  27.648  22.748  1.00  0.00     0.056 A 
BRANCH  16  20
ATOM     20  C   UNL A   1      32.072  29.672  25.338  1.00  0.00     0.144 C 
BRANCH  20  21
ATOM     21  S   UNL A   1      32.443  29.169  27.050  1.00  0.00    -0.157 SA
ATOM     22  C   UNL A   1      34.130  28.540  26.868  1.00  0.00     0.085 C 
ENDBRANCH  20  21
ENDBRANCH  16  20
ENDBRANCH  12  15
ENDBRANCH   7  11
ENDBRANCH   3   6
ENDBRANCH   1   2
BRANCH   1  23
ATOM     23  C   UNL A   1      40.378  22.005  26.972  1.00  0.00     0.042 C 
BRANCH  23  24
ATOM     24  C   UNL A   1      41.506  22.987  27.251  1.00  0.00     0.118 C 
BRANCH  24  25
ATOM     25  N   UNL A   1      41.739  23.889  26.130  1.00  0.00    -0.352 N 
ATOM     26  C   UNL A   1      41.659  25.260  26.071  1.00  0.00     0.251 C 
ATOM     27  H   UNL A   1      41.993  23.451  25.286  1.00  0.00     0.163 HD
ATOM     28  O   UNL A   1      41.645  25.821  24.980  1.00  0.00    -0.269 OA
BRANCH  26  29
ATOM     29  C   UNL A   1      41.575  26.046  27.319  1.00  0.00     0.039 A 
ATOM     30  C   UNL A   1      42.642  26.874  27.675  1.00  0.00     0.014 A 
ATOM     31  C   UNL A   1      40.444  25.969  28.134  1.00  0.00     0.014 A 
ATOM     32  C   UNL A   1      42.535  27.689  28.804  1.00  0.00     0.010 A 
ATOM     33  C   UNL A   1      40.300  26.844  29.203  1.00  0.00     0.010 A 
ATOM     34  C   UNL A   1      41.343  27.717  29.546  1.00  0.00    -0.014 A 
BRANCH  34  35
ATOM     35  C   UNL A   1      41.147  28.672  30.666  1.00  0.00     0.031 A 
ATOM     36  C   UNL A   1      41.979  28.558  31.913  1.00  0.00     0.074 A 
ATOM     37  C   UNL A   1      40.158  29.584  30.589  1.00  0.00     0.049 A 
ATOM     38  N   UNL A   1      41.891  29.239  33.026  1.00  0.00    -0.248 NA
ATOM     39  C   UNL A   1      43.032  27.528  31.921  1.00  0.00     0.031 C 
ATOM     40  C   UNL A   1      39.258  29.766  29.447  1.00  0.00     0.029 A 
ATOM     41  N   UNL A   1      39.733  30.524  31.496  1.00  0.00    -0.354 N 
ATOM     42  C   UNL A   1      42.862  28.712  33.870  1.00  0.00     0.074 A 
ATOM     43  C   UNL A   1      43.495  27.623  33.159  1.00  0.00     0.031 C 
ATOM     44  C   UNL A   1      38.407  30.769  29.711  1.00  0.00     0.029 A 
ATOM     45  C   UNL A   1      38.660  31.266  31.059  1.00  0.00     0.049 A 
ATOM     46  H   UNL A   1      40.156  30.654  32.375  1.00  0.00     0.167 HD
ATOM     47  C   UNL A   1      43.205  29.111  35.118  1.00  0.00     0.031 A 
ATOM     48  C   UNL A   1      37.946  32.226  31.679  1.00  0.00     0.031 A 
ATOM     49  C   UNL A   1      42.569  30.196  35.817  1.00  0.00     0.049 A 
ATOM     50  C   UNL A   1      38.322  32.624  33.080  1.00  0.00     0.074 A 
ATOM     51  C   UNL A   1      42.883  30.717  37.061  1.00  0.00     0.029 A 
ATOM     52  N   UNL A   1      41.486  30.920  35.342  1.00  0.00    -0.354 N 
ATOM     53  N   UNL A   1      39.298  32.169  33.831  1.00  0.00    -0.248 NA
ATOM     54  C   UNL A   1      37.503  33.665  33.718  1.00  0.00     0.031 C 
ATOM     55  C   UNL A   1      41.947  31.709  37.366  1.00  0.00     0.029 A 
ATOM     56  C   UNL A   1      41.093  31.856  36.284  1.00  0.00     0.049 A 
ATOM     57  H   UNL A   1      41.059  30.788  34.465  1.00  0.00     0.167 HD
ATOM     58  C   UNL A   1      39.221  32.883  35.022  1.00  0.00     0.074 A 
ATOM     59  C   UNL A   1      38.119  33.813  34.884  1.00  0.00     0.031 C 
ATOM     60  C   UNL A   1      39.991  32.773  36.132  1.00  0.00     0.031 A 
BRANCH  47  61
ATOM     61  C   UNL A   1      44.311  28.361  35.814  1.00  0.00    -0.014 A 
ATOM     62  C   UNL A   1      45.654  28.766  35.693  1.00  0.00     0.010 A 
ATOM     63  C   UNL A   1      44.000  27.267  36.642  1.00  0.00     0.010 A 
ATOM     64  C   UNL A   1      46.666  28.065  36.355  1.00  0.00     0.020 A 
ATOM     65  C   UNL A   1      45.007  26.584  37.331  1.00  0.00     0.020 A 
ATOM     66  C   UNL A   1      46.336  26.978  37.169  1.00  0.00     0.054 A 
BRANCH  66  67
ATOM     67  S   UNL A   1      47.671  26.108  38.036  1.00  0.00     0.124 S 
ATOM     68  O   UNL A   1      48.192  27.153  38.913  1.00  0.00    -0.237 OA
ATOM     69  O   UNL A   1      46.961  25.023  38.707  1.00  0.00    -0.237 OA
ATOM     70  O   UNL A   1      48.570  25.692  36.963  1.00  0.00    -0.744 OA
ENDBRANCH  66  67
ENDBRANCH  47  61
BRANCH  48  71
ATOM     71  C   UNL A   1      36.803  32.874  30.978  1.00  0.00    -0.014 A 
ATOM     72  C   UNL A   1      35.482  32.484  31.257  1.00  0.00     0.010 A 
ATOM     73  C   UNL A   1      37.028  33.898  30.037  1.00  0.00     0.010 A 
ATOM     74  C   UNL A   1      34.409  33.091  30.596  1.00  0.00     0.020 A 
ATOM     75  C   UNL A   1      35.957  34.527  29.397  1.00  0.00     0.020 A 
ATOM     76  C   UNL A   1      34.654  34.110  29.672  1.00  0.00     0.054 A 
BRANCH  76  77
ATOM     77  S   UNL A   1      33.239  34.909  28.864  1.00  0.00     0.124 S 
ATOM     78  O   UNL A   1      32.773  33.860  27.962  1.00  0.00    -0.237 OA
ATOM     79  O   UNL A   1      32.362  35.211  29.992  1.00  0.00    -0.237 OA
ATOM     80  O   UNL A   1      33.830  36.076  28.212  1.00  0.00    -0.744 OA
ENDBRANCH  76  77
ENDBRANCH  48  71
BRANCH  60  81
ATOM     81  C   UNL A   1      39.688  33.693  37.285  1.00  0.00    -0.014 A 
ATOM     82  C   UNL A   1      38.837  33.290  38.329  1.00  0.00     0.010 A 
ATOM     83  C   UNL A   1      40.327  34.944  37.366  1.00  0.00     0.010 A 
ATOM     84  C   UNL A   1      38.620  34.128  39.426  1.00  0.00     0.020 A 
ATOM     85  C   UNL A   1      40.137  35.771  38.475  1.00  0.00     0.020 A 
ATOM     86  C   UNL A   1      39.277  35.361  39.496  1.00  0.00     0.054 A 
BRANCH  86  87
ATOM     87  S   UNL A   1      39.037  36.394  40.967  1.00  0.00     0.124 S 
ATOM     88  O   UNL A   1      37.942  35.707  41.646  1.00  0.00    -0.237 OA
ATOM     89  O   UNL A   1      40.336  36.313  41.629  1.00  0.00    -0.237 OA
ATOM     90  O   UNL A   1      38.704  37.707  40.418  1.00  0.00    -0.744 OA
ENDBRANCH  86  87
ENDBRANCH  60  81
ENDBRANCH  34  35
ENDBRANCH  26  29
ENDBRANCH  24  25
ENDBRANCH  23  24
ENDBRANCH   1  23
TORSDOF 17
ENDMDL
MODEL 3
REMARK VINA RESULT:     -10.4      2.916      3.918
REMARK SMILES CSCc1ccc(C(=O)N[C@H]2C=C[C@@H](C(=O)NCCCNC(=O)c3ccc(-c4c5nc(c(-c6ccc(S(=O)(=O)[O-])cc6)c6ccc([nH]6)c(-c6ccc(S(=O)(=O)[O-])cc6)c6nc(c(-c7ccc(S(=O)(=O)[O-])cc7)c7ccc4[nH]7)C=C6)C=C5)cc3)C2)o1
REMARK SMILES IDX 18 1 17 2 15 3 16 4 14 6 11 7 12 8 84 9 13 10 10 11 8 12
REMARK SMILES IDX 9 13 7 15 4 16 5 17 85 18 6 19 3 20 2 21 1 22 19 23 20 24
REMARK SMILES IDX 21 25 22 26 23 28 24 29 25 30 83 31 26 32 82 33 27 34 28 35
REMARK SMILES IDX 29 36 76 37 30 38 81 39 75 40 77 41 31 42 80 43 74 44 73 45
REMARK SMILES IDX 32 47 62 48 43 49 61 50 44 51 47 52 60 53 78 54 45 55 46 56
REMARK SMILES IDX 59 58 79 59 48 60 33 61 34 62 42 63 35 64 41 65 36 66 37 67
REMARK SMILES IDX 38 68 39 69 40 70 63 71 64 72 72 73 65 74 71 75 66 76 67 77
REMARK SMILES IDX 68 78 69 79 70 80 49 81 50 82 58 83 51 84 57 85 52 86 53 87
REMARK SMILES IDX 54 88 55 89 56 90
REMARK H PARENT 17 5 10 14 21 27 77 46 47 57
REMARK Flexibility Score: inf
ROOT
ATOM      1  C   UNL A   1      34.586  31.208  27.660  1.00  0.00     0.117 C 
ENDROOT
BRANCH   1   2
ATOM      2  N   UNL A   1      33.212  31.583  27.377  1.00  0.00    -0.356 N 
ATOM      3  C   UNL A   1      32.222  30.903  26.739  1.00  0.00     0.227 C 
ATOM      4  O   UNL A   1      31.125  31.459  26.625  1.00  0.00    -0.274 OA
ATOM      5  H   UNL A   1      32.954  32.476  27.700  1.00  0.00     0.163 HD
BRANCH   3   6
ATOM      6  C   UNL A   1      32.436  29.509  26.158  1.00  0.00     0.103 C 
ATOM      7  C   UNL A   1      31.635  27.244  26.104  1.00  0.00     0.106 C 
ATOM      8  C   UNL A   1      31.192  27.979  24.881  1.00  0.00    -0.006 C 
ATOM      9  C   UNL A   1      31.955  28.386  27.071  1.00  0.00     0.047 C 
ATOM     10  C   UNL A   1      31.705  29.219  24.876  1.00  0.00    -0.016 C 
BRANCH   7  11
ATOM     11  N   UNL A   1      30.655  26.329  26.602  1.00  0.00    -0.343 N 
ATOM     12  C   UNL A   1      30.422  25.030  26.178  1.00  0.00     0.287 C 
ATOM     13  O   UNL A   1      29.544  24.415  26.780  1.00  0.00    -0.266 OA
ATOM     14  H   UNL A   1      30.079  26.660  27.328  1.00  0.00     0.164 HD
BRANCH  12  15
ATOM     15  C   UNL A   1      31.206  24.449  25.089  1.00  0.00     0.191 A 
ATOM     16  C   UNL A   1      32.780  23.105  24.281  1.00  0.00     0.114 A 
ATOM     17  C   UNL A   1      32.268  23.791  23.206  1.00  0.00     0.047 A 
ATOM     18  O   UNL A   1      32.137  23.488  25.421  1.00  0.00    -0.455 OA
ATOM     19  C   UNL A   1      31.246  24.618  23.715  1.00  0.00     0.056 A 
BRANCH  16  20
ATOM     20  C   UNL A   1      33.797  22.032  24.396  1.00  0.00     0.144 C 
BRANCH  20  21
ATOM     21  S   UNL A   1      35.513  22.612  24.195  1.00  0.00    -0.157 SA
ATOM     22  C   UNL A   1      35.480  24.134  25.173  1.00  0.00     0.085 C 
ENDBRANCH  20  21
ENDBRANCH  16  20
ENDBRANCH  12  15
ENDBRANCH   7  11
ENDBRANCH   3   6
ENDBRANCH   1   2
BRANCH   1  23
ATOM     23  C   UNL A   1      35.500  32.419  27.768  1.00  0.00     0.042 C 
BRANCH  23  24
ATOM     24  C   UNL A   1      36.584  32.262  28.822  1.00  0.00     0.118 C 
BRANCH  24  25
ATOM     25  N   UNL A   1      36.107  31.547  30.000  1.00  0.00    -0.352 N 
ATOM     26  C   UNL A   1      36.557  30.377  30.562  1.00  0.00     0.251 C 
ATOM     27  H   UNL A   1      35.347  31.966  30.463  1.00  0.00     0.163 HD
ATOM     28  O   UNL A   1      35.870  29.802  31.401  1.00  0.00    -0.269 OA
BRANCH  26  29
ATOM     29  C   UNL A   1      37.856  29.811  30.143  1.00  0.00     0.039 A 
ATOM     30  C   UNL A   1      38.144  29.701  28.781  1.00  0.00     0.014 A 
ATOM     31  C   UNL A   1      38.788  29.391  31.095  1.00  0.00     0.014 A 
ATOM     32  C   UNL A   1      39.403  29.252  28.378  1.00  0.00     0.010 A 
ATOM     33  C   UNL A   1      40.070  29.032  30.695  1.00  0.00     0.010 A 
ATOM     34  C   UNL A   1      40.391  28.964  29.332  1.00  0.00    -0.014 A 
BRANCH  34  35
ATOM     35  C   UNL A   1      41.779  28.619  28.934  1.00  0.00     0.031 A 
ATOM     36  C   UNL A   1      42.839  29.685  28.878  1.00  0.00     0.074 A 
ATOM     37  C   UNL A   1      42.059  27.361  28.538  1.00  0.00     0.049 A 
ATOM     38  N   UNL A   1      44.077  29.593  28.467  1.00  0.00    -0.248 NA
ATOM     39  C   UNL A   1      42.450  31.036  29.317  1.00  0.00     0.031 C 
ATOM     40  C   UNL A   1      41.105  26.249  28.510  1.00  0.00     0.029 A 
ATOM     41  N   UNL A   1      43.225  26.806  28.069  1.00  0.00    -0.354 N 
ATOM     42  C   UNL A   1      44.610  30.872  28.583  1.00  0.00     0.074 A 
ATOM     43  C   UNL A   1      43.547  31.732  29.056  1.00  0.00     0.031 C 
ATOM     44  C   UNL A   1      41.729  25.144  28.074  1.00  0.00     0.029 A 
ATOM     45  C   UNL A   1      43.109  25.477  27.738  1.00  0.00     0.049 A 
ATOM     46  H   UNL A   1      44.064  27.313  27.979  1.00  0.00     0.167 HD
ATOM     47  C   UNL A   1      45.874  31.288  28.333  1.00  0.00     0.031 A 
ATOM     48  C   UNL A   1      44.005  24.624  27.204  1.00  0.00     0.031 A 
ATOM     49  C   UNL A   1      46.925  30.425  27.863  1.00  0.00     0.049 A 
ATOM     50  C   UNL A   1      45.392  25.120  26.899  1.00  0.00     0.074 A 
ATOM     51  C   UNL A   1      48.255  30.736  27.637  1.00  0.00     0.029 A 
ATOM     52  N   UNL A   1      46.766  29.086  27.537  1.00  0.00    -0.354 N 
ATOM     53  N   UNL A   1      45.899  26.315  27.093  1.00  0.00    -0.248 NA
ATOM     54  C   UNL A   1      46.327  24.155  26.304  1.00  0.00     0.031 C 
ATOM     55  C   UNL A   1      48.883  29.605  27.110  1.00  0.00     0.029 A 
ATOM     56  C   UNL A   1      47.964  28.568  27.073  1.00  0.00     0.049 A 
ATOM     57  H   UNL A   1      45.927  28.580  27.623  1.00  0.00     0.167 HD
ATOM     58  C   UNL A   1      47.219  26.238  26.661  1.00  0.00     0.074 A 
ATOM     59  C   UNL A   1      47.437  24.877  26.218  1.00  0.00     0.031 C 
ATOM     60  C   UNL A   1      48.164  27.210  26.632  1.00  0.00     0.031 A 
BRANCH  47  61
ATOM     61  C   UNL A   1      46.188  32.745  28.551  1.00  0.00    -0.014 A 
ATOM     62  C   UNL A   1      46.663  33.211  29.792  1.00  0.00     0.010 A 
ATOM     63  C   UNL A   1      46.055  33.656  27.487  1.00  0.00     0.010 A 
ATOM     64  C   UNL A   1      46.960  34.564  29.974  1.00  0.00     0.020 A 
ATOM     65  C   UNL A   1      46.382  35.005  27.656  1.00  0.00     0.020 A 
ATOM     66  C   UNL A   1      46.817  35.453  28.904  1.00  0.00     0.054 A 
BRANCH  66  67
ATOM     67  S   UNL A   1      47.238  37.198  29.165  1.00  0.00     0.124 S 
ATOM     68  O   UNL A   1      48.329  37.390  28.213  1.00  0.00    -0.237 OA
ATOM     69  O   UNL A   1      45.990  37.880  28.833  1.00  0.00    -0.237 OA
ATOM     70  O   UNL A   1      47.623  37.257  30.572  1.00  0.00    -0.744 OA
ENDBRANCH  66  67
ENDBRANCH  47  61
BRANCH  48  71
ATOM     71  C   UNL A   1      43.616  23.214  26.924  1.00  0.00    -0.014 A 
ATOM     72  C   UNL A   1      43.922  22.622  25.686  1.00  0.00     0.010 A 
ATOM     73  C   UNL A   1      42.949  22.448  27.900  1.00  0.00     0.010 A 
ATOM     74  C   UNL A   1      43.553  21.299  25.422  1.00  0.00     0.020 A 
ATOM     75  C   UNL A   1      42.607  21.116  27.651  1.00  0.00     0.020 A 
ATOM     76  C   UNL A   1      42.900  20.554  26.407  1.00  0.00     0.054 A 
BRANCH  76  77
ATOM     77  S   UNL A   1      42.474  18.826  26.052  1.00  0.00     0.124 S 
ATOM     78  O   UNL A   1      43.381  18.510  24.952  1.00  0.00    -0.237 OA
ATOM     79  O   UNL A   1      42.763  18.164  27.321  1.00  0.00    -0.237 OA
ATOM     80  O   UNL A   1      41.058  18.887  25.697  1.00  0.00    -0.744 OA
ENDBRANCH  76  77
ENDBRANCH  48  71
BRANCH  60  81
ATOM     81  C   UNL A   1      49.530  26.839  26.120  1.00  0.00    -0.014 A 
ATOM     82  C   UNL A   1      50.413  26.071  26.900  1.00  0.00     0.010 A 
ATOM     83  C   UNL A   1      49.904  27.193  24.810  1.00  0.00     0.010 A 
ATOM     84  C   UNL A   1      51.649  25.677  26.384  1.00  0.00     0.020 A 
ATOM     85  C   UNL A   1      51.126  26.774  24.280  1.00  0.00     0.020 A 
ATOM     86  C   UNL A   1      51.996  26.024  25.074  1.00  0.00     0.054 A 
BRANCH  86  87
ATOM     87  S   UNL A   1      53.574  25.434  24.404  1.00  0.00     0.124 S 
ATOM     88  O   UNL A   1      53.443  25.758  22.986  1.00  0.00    -0.237 OA
ATOM     89  O   UNL A   1      54.551  26.231  25.143  1.00  0.00    -0.237 OA
ATOM     90  O   UNL A   1      53.575  24.008  24.720  1.00  0.00    -0.744 OA
ENDBRANCH  86  87
ENDBRANCH  60  81
ENDBRANCH  34  35
ENDBRANCH  26  29
ENDBRANCH  24  25
ENDBRANCH  23  24
ENDBRANCH   1  23
TORSDOF 17
ENDMDL
