MODEL 1
REMARK VINA RESULT:      -8.6      0.000      0.000
REMARK SMILES COc1ccc(NCc2ccc(C(=O)NCCCNC(=O)c3ccc(-c4c5nc(c(-c6ccc(S(=O)(=O)[O-])cc6)c6ccc([nH]6)c(-c6ccc(S(=O)(=O)[O-])cc6)c6nc(c(-c7ccc(S(=O)(=O)[O-])cc7)c7ccc4[nH]7)C=C6)C=C5)cc3)o2)cc1
REMARK SMILES IDX 16 1 15 2 13 3 14 4 12 6 9 7 10 8 82 9 11 10 8 11 7 12 6 14
REMARK SMILES IDX 3 15 4 16 84 17 5 18 83 19 2 20 1 21 17 22 18 23 19 24 20 25
REMARK SMILES IDX 21 27 22 28 23 29 81 30 24 31 80 32 25 33 26 34 27 35 74 36
REMARK SMILES IDX 28 37 79 38 73 39 75 40 29 41 78 42 72 43 71 44 30 46 60 47
REMARK SMILES IDX 41 48 59 49 42 50 45 51 58 52 76 53 43 54 44 55 57 57 77 58
REMARK SMILES IDX 46 59 31 60 32 61 40 62 33 63 39 64 34 65 35 66 36 67 37 68
REMARK SMILES IDX 38 69 61 70 62 71 70 72 63 73 69 74 64 75 65 76 66 77 67 78
REMARK SMILES IDX 68 79 47 80 48 81 56 82 49 83 55 84 50 85 51 86 52 87 53 88
REMARK SMILES IDX 54 89
REMARK H PARENT 15 5 7 13 19 26 75 45 45 56
REMARK Flexibility Score: inf
ROOT
ATOM      1  C   UNL A   1      42.805  22.094  25.814  1.00  0.00     0.118 C 
ENDROOT
BRANCH   1   2
ATOM      2  N   UNL A   1      44.111  21.609  25.419  1.00  0.00    -0.349 N 
ATOM      3  C   UNL A   1      45.372  22.094  25.682  1.00  0.00     0.286 C 
ATOM      4  O   UNL A   1      46.304  21.368  25.327  1.00  0.00    -0.266 OA
ATOM      5  H   UNL A   1      44.094  20.793  24.868  1.00  0.00     0.163 HD
BRANCH   3   6
ATOM      6  C   UNL A   1      45.570  23.368  26.351  1.00  0.00     0.191 A 
ATOM      7  C   UNL A   1      45.824  25.572  26.335  1.00  0.00     0.124 A 
ATOM      8  C   UNL A   1      45.845  25.191  27.658  1.00  0.00     0.048 A 
ATOM      9  O   UNL A   1      45.665  24.476  25.543  1.00  0.00    -0.454 OA
ATOM     10  C   UNL A   1      45.654  23.787  27.668  1.00  0.00     0.056 A 
BRANCH   7  11
ATOM     11  C   UNL A   1      45.876  26.900  25.655  1.00  0.00     0.188 C 
BRANCH  11  12
ATOM     12  N   UNL A   1      46.421  27.981  26.460  1.00  0.00    -0.378 N 
ATOM     13  H   UNL A   1      47.392  27.967  26.624  1.00  0.00     0.161 HD
BRANCH  12  14
ATOM     14  C   UNL A   1      45.711  29.026  27.018  1.00  0.00     0.035 A 
ATOM     15  C   UNL A   1      44.134  31.143  28.059  1.00  0.00     0.119 A 
ATOM     16  C   UNL A   1      45.511  31.119  28.256  1.00  0.00     0.048 A 
ATOM     17  C   UNL A   1      43.542  30.133  27.308  1.00  0.00     0.048 A 
ATOM     18  C   UNL A   1      46.289  30.076  27.738  1.00  0.00     0.029 A 
ATOM     19  C   UNL A   1      44.328  29.092  26.794  1.00  0.00     0.029 A 
BRANCH  15  20
ATOM     20  O   UNL A   1      43.479  32.211  28.605  1.00  0.00    -0.497 OA
ATOM     21  C   UNL A   1      44.198  33.439  28.581  1.00  0.00     0.278 C 
ENDBRANCH  15  20
ENDBRANCH  12  14
ENDBRANCH  11  12
ENDBRANCH   7  11
ENDBRANCH   3   6
ENDBRANCH   1   2
BRANCH   1  22
ATOM     22  C   UNL A   1      41.903  20.967  26.312  1.00  0.00     0.042 C 
BRANCH  22  23
ATOM     23  C   UNL A   1      40.716  21.459  27.139  1.00  0.00     0.118 C 
BRANCH  23  24
ATOM     24  N   UNL A   1      39.571  21.794  26.303  1.00  0.00    -0.352 N 
ATOM     25  C   UNL A   1      38.820  22.942  26.237  1.00  0.00     0.251 C 
ATOM     26  H   UNL A   1      39.290  21.082  25.684  1.00  0.00     0.163 HD
ATOM     27  O   UNL A   1      37.752  22.921  25.628  1.00  0.00    -0.269 OA
BRANCH  25  28
ATOM     28  C   UNL A   1      39.273  24.191  26.887  1.00  0.00     0.039 A 
ATOM     29  C   UNL A   1      38.863  24.455  28.198  1.00  0.00     0.014 A 
ATOM     30  C   UNL A   1      40.042  25.132  26.197  1.00  0.00     0.014 A 
ATOM     31  C   UNL A   1      39.263  25.635  28.831  1.00  0.00     0.010 A 
ATOM     32  C   UNL A   1      40.495  26.278  26.850  1.00  0.00     0.010 A 
ATOM     33  C   UNL A   1      40.106  26.544  28.172  1.00  0.00    -0.014 A 
BRANCH  33  34
ATOM     34  C   UNL A   1      40.587  27.779  28.844  1.00  0.00     0.031 A 
ATOM     35  C   UNL A   1      41.960  27.823  29.460  1.00  0.00     0.074 A 
ATOM     36  C   UNL A   1      39.762  28.840  28.955  1.00  0.00     0.049 A 
ATOM     37  N   UNL A   1      42.521  28.777  30.156  1.00  0.00    -0.248 NA
ATOM     38  C   UNL A   1      42.805  26.628  29.292  1.00  0.00     0.031 C 
ATOM     39  C   UNL A   1      38.395  28.911  28.432  1.00  0.00     0.029 A 
ATOM     40  N   UNL A   1      39.949  30.059  29.558  1.00  0.00    -0.354 N 
ATOM     41  C   UNL A   1      43.771  28.292  30.529  1.00  0.00     0.074 A 
ATOM     42  C   UNL A   1      43.871  26.945  30.013  1.00  0.00     0.031 C 
ATOM     43  C   UNL A   1      37.876  30.115  28.720  1.00  0.00     0.029 A 
ATOM     44  C   UNL A   1      38.853  30.886  29.480  1.00  0.00     0.049 A 
ATOM     45  H   UNL A   1      40.787  30.317  30.003  1.00  0.00     0.167 HD
ATOM     46  C   UNL A   1      44.749  28.918  31.225  1.00  0.00     0.031 A 
ATOM     47  C   UNL A   1      38.652  32.124  29.975  1.00  0.00     0.031 A 
ATOM     48  C   UNL A   1      44.656  30.267  31.716  1.00  0.00     0.049 A 
ATOM     49  C   UNL A   1      39.758  32.797  30.741  1.00  0.00     0.074 A 
ATOM     50  C   UNL A   1      45.619  31.009  32.379  1.00  0.00     0.029 A 
ATOM     51  N   UNL A   1      43.539  31.079  31.595  1.00  0.00    -0.354 N 
ATOM     52  N   UNL A   1      40.954  32.341  31.031  1.00  0.00    -0.248 NA
ATOM     53  C   UNL A   1      39.491  34.154  31.236  1.00  0.00     0.031 C 
ATOM     54  C   UNL A   1      45.069  32.255  32.697  1.00  0.00     0.029 A 
ATOM     55  C   UNL A   1      43.781  32.307  32.187  1.00  0.00     0.049 A 
ATOM     56  H   UNL A   1      42.697  30.820  31.155  1.00  0.00     0.167 HD
ATOM     57  C   UNL A   1      41.592  33.369  31.717  1.00  0.00     0.074 A 
ATOM     58  C   UNL A   1      40.656  34.472  31.786  1.00  0.00     0.031 C 
ATOM     59  C   UNL A   1      42.842  33.397  32.240  1.00  0.00     0.031 A 
BRANCH  46  60
ATOM     60  C   UNL A   1      46.015  28.149  31.503  1.00  0.00    -0.014 A 
ATOM     61  C   UNL A   1      46.257  27.582  32.767  1.00  0.00     0.010 A 
ATOM     62  C   UNL A   1      46.944  27.937  30.468  1.00  0.00     0.010 A 
ATOM     63  C   UNL A   1      47.420  26.843  32.999  1.00  0.00     0.020 A 
ATOM     64  C   UNL A   1      48.097  27.177  30.690  1.00  0.00     0.020 A 
ATOM     65  C   UNL A   1      48.334  26.647  31.959  1.00  0.00     0.054 A 
BRANCH  65  66
ATOM     66  S   UNL A   1      49.815  25.650  32.279  1.00  0.00     0.124 S 
ATOM     67  O   UNL A   1      50.302  25.392  30.925  1.00  0.00    -0.237 OA
ATOM     68  O   UNL A   1      50.641  26.549  33.081  1.00  0.00    -0.237 OA
ATOM     69  O   UNL A   1      49.300  24.482  32.989  1.00  0.00    -0.744 OA
ENDBRANCH  65  66
ENDBRANCH  46  60
BRANCH  47  70
ATOM     70  C   UNL A   1      37.352  32.814  29.756  1.00  0.00    -0.014 A 
ATOM     71  C   UNL A   1      36.367  32.813  30.760  1.00  0.00     0.010 A 
ATOM     72  C   UNL A   1      37.088  33.469  28.539  1.00  0.00     0.010 A 
ATOM     73  C   UNL A   1      35.132  33.430  30.541  1.00  0.00     0.020 A 
ATOM     74  C   UNL A   1      35.864  34.111  28.327  1.00  0.00     0.020 A 
ATOM     75  C   UNL A   1      34.888  34.074  29.325  1.00  0.00     0.054 A 
BRANCH  75  76
ATOM     76  S   UNL A   1      33.292  34.898  29.073  1.00  0.00     0.124 S 
ATOM     77  O   UNL A   1      32.648  34.022  28.099  1.00  0.00    -0.237 OA
ATOM     78  O   UNL A   1      32.713  34.887  30.415  1.00  0.00    -0.237 OA
ATOM     79  O   UNL A   1      33.667  36.221  28.577  1.00  0.00    -0.744 OA
ENDBRANCH  75  76
ENDBRANCH  47  70
BRANCH  59  80
ATOM     80  C   UNL A   1      43.289  34.675  32.897  1.00  0.00    -0.014 A 
ATOM     81  C   UNL A   1      43.912  35.695  32.158  1.00  0.00     0.010 A 
ATOM     82  C   UNL A   1      43.028  34.877  34.265  1.00  0.00     0.010 A 
ATOM     83  C   UNL A   1      44.296  36.884  32.784  1.00  0.00     0.020 A 
ATOM     84  C   UNL A   1      43.387  36.075  34.888  1.00  0.00     0.020 A 
ATOM     85  C   UNL A   1      44.032  37.066  34.145  1.00  0.00     0.054 A 
BRANCH  85  86
ATOM     86  S   UNL A   1      44.500  38.635  34.926  1.00  0.00     0.124 S 
ATOM     87  O   UNL A   1      44.380  38.315  36.345  1.00  0.00    -0.237 OA
ATOM     88  O   UNL A   1      45.862  38.842  34.441  1.00  0.00    -0.237 OA
ATOM     89  O   UNL A   1      43.513  39.583  34.415  1.00  0.00    -0.744 OA
ENDBRANCH  85  86
ENDBRANCH  59  80
ENDBRANCH  33  34
ENDBRANCH  25  28
ENDBRANCH  23  24
ENDBRANCH  22  23
ENDBRANCH   1  22
TORSDOF 17
ENDMDL
MODEL 2
REMARK VINA RESULT:      -8.5      4.490     11.684
REMARK SMILES COc1ccc(NCc2ccc(C(=O)NCCCNC(=O)c3ccc(-c4c5nc(c(-c6ccc(S(=O)(=O)[O-])cc6)c6ccc([nH]6)c(-c6ccc(S(=O)(=O)[O-])cc6)c6nc(c(-c7ccc(S(=O)(=O)[O-])cc7)c7ccc4[nH]7)C=C6)C=C5)cc3)o2)cc1
REMARK SMILES IDX 16 1 15 2 13 3 14 4 12 6 9 7 10 8 82 9 11 10 8 11 7 12 6 14
REMARK SMILES IDX 3 15 4 16 84 17 5 18 83 19 2 20 1 21 17 22 18 23 19 24 20 25
REMARK SMILES IDX 21 27 22 28 23 29 81 30 24 31 80 32 25 33 26 34 27 35 74 36
REMARK SMILES IDX 28 37 79 38 73 39 75 40 29 41 78 42 72 43 71 44 30 46 60 47
REMARK SMILES IDX 41 48 59 49 42 50 45 51 58 52 76 53 43 54 44 55 57 57 77 58
REMARK SMILES IDX 46 59 31 60 32 61 40 62 33 63 39 64 34 65 35 66 36 67 37 68
REMARK SMILES IDX 38 69 61 70 62 71 70 72 63 73 69 74 64 75 65 76 66 77 67 78
REMARK SMILES IDX 68 79 47 80 48 81 56 82 49 83 55 84 50 85 51 86 52 87 53 88
REMARK SMILES IDX 54 89
REMARK H PARENT 15 5 7 13 19 26 75 45 45 56
REMARK Flexibility Score: inf
ROOT
ATOM      1  C   UNL A   1      32.889  28.546  24.433  1.00  0.00     0.118 C 
ENDROOT
BRANCH   1   2
ATOM      2  N   UNL A   1      31.525  28.070  24.540  1.00  0.00    -0.349 N 
ATOM      3  C   UNL A   1      30.950  26.882  24.151  1.00  0.00     0.286 C 
ATOM      4  O   UNL A   1      29.784  26.712  24.515  1.00  0.00    -0.266 OA
ATOM      5  H   UNL A   1      30.903  28.705  24.963  1.00  0.00     0.163 HD
BRANCH   3   6
ATOM      6  C   UNL A   1      31.690  25.899  23.378  1.00  0.00     0.191 A 
ATOM      7  C   UNL A   1      32.702  23.937  23.156  1.00  0.00     0.124 A 
ATOM      8  C   UNL A   1      32.793  24.558  21.932  1.00  0.00     0.048 A 
ATOM      9  O   UNL A   1      32.044  24.744  24.034  1.00  0.00    -0.454 OA
ATOM     10  C   UNL A   1      32.121  25.799  22.066  1.00  0.00     0.056 A 
BRANCH   7  11
ATOM     11  C   UNL A   1      33.115  22.590  23.651  1.00  0.00     0.188 C 
BRANCH  11  12
ATOM     12  N   UNL A   1      32.191  21.512  23.338  1.00  0.00    -0.378 N 
ATOM     13  H   UNL A   1      31.339  21.766  22.914  1.00  0.00     0.161 HD
BRANCH  12  14
ATOM     14  C   UNL A   1      32.388  20.166  23.577  1.00  0.00     0.035 A 
ATOM     15  C   UNL A   1      32.873  17.442  24.208  1.00  0.00     0.119 A 
ATOM     16  C   UNL A   1      32.603  17.832  22.900  1.00  0.00     0.048 A 
ATOM     17  C   UNL A   1      32.942  18.413  25.200  1.00  0.00     0.048 A 
ATOM     18  C   UNL A   1      32.368  19.178  22.590  1.00  0.00     0.029 A 
ATOM     19  C   UNL A   1      32.705  19.758  24.882  1.00  0.00     0.029 A 
BRANCH  15  20
ATOM     20  O   UNL A   1      33.091  16.105  24.390  1.00  0.00    -0.497 OA
ATOM     21  C   UNL A   1      34.122  15.781  25.316  1.00  0.00     0.278 C 
ENDBRANCH  15  20
ENDBRANCH  12  14
ENDBRANCH  11  12
ENDBRANCH   7  11
ENDBRANCH   3   6
ENDBRANCH   1   2
BRANCH   1  22
ATOM     22  C   UNL A   1      33.850  27.722  25.288  1.00  0.00     0.042 C 
BRANCH  22  23
ATOM     23  C   UNL A   1      33.699  27.976  26.787  1.00  0.00     0.118 C 
BRANCH  23  24
ATOM     24  N   UNL A   1      33.498  29.388  27.083  1.00  0.00    -0.352 N 
ATOM     25  C   UNL A   1      34.295  30.280  27.757  1.00  0.00     0.251 C 
ATOM     26  H   UNL A   1      32.654  29.764  26.744  1.00  0.00     0.163 HD
ATOM     27  O   UNL A   1      33.822  31.363  28.096  1.00  0.00    -0.269 OA
BRANCH  25  28
ATOM     28  C   UNL A   1      35.701  29.956  28.082  1.00  0.00     0.039 A 
ATOM     29  C   UNL A   1      36.021  29.577  29.389  1.00  0.00     0.014 A 
ATOM     30  C   UNL A   1      36.716  30.086  27.128  1.00  0.00     0.014 A 
ATOM     31  C   UNL A   1      37.344  29.280  29.727  1.00  0.00     0.010 A 
ATOM     32  C   UNL A   1      38.024  29.727  27.449  1.00  0.00     0.010 A 
ATOM     33  C   UNL A   1      38.353  29.326  28.753  1.00  0.00    -0.014 A 
BRANCH  33  34
ATOM     34  C   UNL A   1      39.757  28.964  29.077  1.00  0.00     0.031 A 
ATOM     35  C   UNL A   1      40.680  29.982  29.695  1.00  0.00     0.074 A 
ATOM     36  C   UNL A   1      40.220  27.740  28.756  1.00  0.00     0.049 A 
ATOM     37  N   UNL A   1      41.954  29.877  29.973  1.00  0.00    -0.248 NA
ATOM     38  C   UNL A   1      40.102  31.295  30.023  1.00  0.00     0.031 C 
ATOM     39  C   UNL A   1      39.437  26.676  28.122  1.00  0.00     0.029 A 
ATOM     40  N   UNL A   1      41.467  27.185  28.907  1.00  0.00    -0.354 N 
ATOM     41  C   UNL A   1      42.335  31.114  30.483  1.00  0.00     0.074 A 
ATOM     42  C   UNL A   1      41.165  31.965  30.443  1.00  0.00     0.031 C 
ATOM     43  C   UNL A   1      40.215  25.594  27.957  1.00  0.00     0.029 A 
ATOM     44  C   UNL A   1      41.560  25.897  28.434  1.00  0.00     0.049 A 
ATOM     45  H   UNL A   1      42.223  27.664  29.316  1.00  0.00     0.167 HD
ATOM     46  C   UNL A   1      43.544  31.501  30.954  1.00  0.00     0.031 A 
ATOM     47  C   UNL A   1      42.612  25.057  28.380  1.00  0.00     0.031 A 
ATOM     48  C   UNL A   1      44.699  30.645  31.016  1.00  0.00     0.049 A 
ATOM     49  C   UNL A   1      43.943  25.511  28.915  1.00  0.00     0.074 A 
ATOM     50  C   UNL A   1      45.951  30.928  31.535  1.00  0.00     0.029 A 
ATOM     51  N   UNL A   1      44.744  29.340  30.549  1.00  0.00    -0.354 N 
ATOM     52  N   UNL A   1      44.264  26.666  29.448  1.00  0.00    -0.248 NA
ATOM     53  C   UNL A   1      45.048  24.545  28.852  1.00  0.00     0.031 C 
ATOM     54  C   UNL A   1      46.766  29.808  31.342  1.00  0.00     0.029 A 
ATOM     55  C   UNL A   1      46.007  28.811  30.750  1.00  0.00     0.049 A 
ATOM     56  H   UNL A   1      43.990  28.863  30.135  1.00  0.00     0.167 HD
ATOM     57  C   UNL A   1      45.602  26.554  29.810  1.00  0.00     0.074 A 
ATOM     58  C   UNL A   1      46.024  25.216  29.449  1.00  0.00     0.031 C 
ATOM     59  C   UNL A   1      46.408  27.475  30.392  1.00  0.00     0.031 A 
BRANCH  46  60
ATOM     60  C   UNL A   1      43.685  32.919  31.445  1.00  0.00    -0.014 A 
ATOM     61  C   UNL A   1      43.384  33.259  32.776  1.00  0.00     0.010 A 
ATOM     62  C   UNL A   1      44.187  33.909  30.581  1.00  0.00     0.010 A 
ATOM     63  C   UNL A   1      43.551  34.572  33.225  1.00  0.00     0.020 A 
ATOM     64  C   UNL A   1      44.380  35.219  31.034  1.00  0.00     0.020 A 
ATOM     65  C   UNL A   1      44.047  35.544  32.350  1.00  0.00     0.054 A 
BRANCH  65  66
ATOM     66  S   UNL A   1      44.293  37.230  32.973  1.00  0.00     0.124 S 
ATOM     67  O   UNL A   1      45.661  37.165  33.485  1.00  0.00    -0.237 OA
ATOM     68  O   UNL A   1      44.111  38.044  31.774  1.00  0.00    -0.237 OA
ATOM     69  O   UNL A   1      43.254  37.380  33.988  1.00  0.00    -0.744 OA
ENDBRANCH  65  66
ENDBRANCH  46  60
BRANCH  47  70
ATOM     70  C   UNL A   1      42.451  23.695  27.803  1.00  0.00    -0.014 A 
ATOM     71  C   UNL A   1      42.062  22.617  28.619  1.00  0.00     0.010 A 
ATOM     72  C   UNL A   1      42.693  23.466  26.436  1.00  0.00     0.010 A 
ATOM     73  C   UNL A   1      41.946  21.331  28.085  1.00  0.00     0.020 A 
ATOM     74  C   UNL A   1      42.551  22.186  25.893  1.00  0.00     0.020 A 
ATOM     75  C   UNL A   1      42.193  21.123  26.725  1.00  0.00     0.054 A 
BRANCH  75  76
ATOM     76  S   UNL A   1      42.004  19.452  26.044  1.00  0.00     0.124 S 
ATOM     77  O   UNL A   1      40.567  19.386  25.798  1.00  0.00    -0.237 OA
ATOM     78  O   UNL A   1      42.849  19.496  24.853  1.00  0.00    -0.237 OA
ATOM     79  O   UNL A   1      42.497  18.590  27.116  1.00  0.00    -0.744 OA
ENDBRANCH  75  76
ENDBRANCH  47  70
BRANCH  59  80
ATOM     80  C   UNL A   1      47.817  27.056  30.715  1.00  0.00    -0.014 A 
ATOM     81  C   UNL A   1      48.867  27.269  29.805  1.00  0.00     0.010 A 
ATOM     82  C   UNL A   1      48.100  26.493  31.973  1.00  0.00     0.010 A 
ATOM     83  C   UNL A   1      50.173  26.896  30.136  1.00  0.00     0.020 A 
ATOM     84  C   UNL A   1      49.408  26.143  32.317  1.00  0.00     0.020 A 
ATOM     85  C   UNL A   1      50.434  26.334  31.390  1.00  0.00     0.054 A 
BRANCH  85  86
ATOM     86  S   UNL A   1      52.143  25.898  31.814  1.00  0.00     0.124 S 
ATOM     87  O   UNL A   1      52.415  26.792  32.935  1.00  0.00    -0.237 OA
ATOM     88  O   UNL A   1      52.039  24.480  32.152  1.00  0.00    -0.237 OA
ATOM     89  O   UNL A   1      52.888  26.186  30.590  1.00  0.00    -0.744 OA
ENDBRANCH  85  86
ENDBRANCH  59  80
ENDBRANCH  33  34
ENDBRANCH  25  28
ENDBRANCH  23  24
ENDBRANCH  22  23
ENDBRANCH   1  22
TORSDOF 17
ENDMDL
MODEL 3
REMARK VINA RESULT:      -8.4      4.075     11.178
REMARK SMILES COc1ccc(NCc2ccc(C(=O)NCCCNC(=O)c3ccc(-c4c5nc(c(-c6ccc(S(=O)(=O)[O-])cc6)c6ccc([nH]6)c(-c6ccc(S(=O)(=O)[O-])cc6)c6nc(c(-c7ccc(S(=O)(=O)[O-])cc7)c7ccc4[nH]7)C=C6)C=C5)cc3)o2)cc1
REMARK SMILES IDX 16 1 15 2 13 3 14 4 12 6 9 7 10 8 82 9 11 10 8 11 7 12 6 14
REMARK SMILES IDX 3 15 4 16 84 17 5 18 83 19 2 20 1 21 17 22 18 23 19 24 20 25
REMARK SMILES IDX 21 27 22 28 23 29 81 30 24 31 80 32 25 33 26 34 27 35 74 36
REMARK SMILES IDX 28 37 79 38 73 39 75 40 29 41 78 42 72 43 71 44 30 46 60 47
REMARK SMILES IDX 41 48 59 49 42 50 45 51 58 52 76 53 43 54 44 55 57 57 77 58
REMARK SMILES IDX 46 59 31 60 32 61 40 62 33 63 39 64 34 65 35 66 36 67 37 68
REMARK SMILES IDX 38 69 61 70 62 71 70 72 63 73 69 74 64 75 65 76 66 77 67 78
REMARK SMILES IDX 68 79 47 80 48 81 56 82 49 83 55 84 50 85 51 86 52 87 53 88
REMARK SMILES IDX 54 89
REMARK H PARENT 15 5 7 13 19 26 75 45 45 56
REMARK Flexibility Score: inf
ROOT
ATOM      1  C   UNL A   1      33.241  29.082  24.365  1.00  0.00     0.118 C 
ENDROOT
BRANCH   1   2
ATOM      2  N   UNL A   1      31.869  29.329  23.970  1.00  0.00    -0.349 N 
ATOM      3  C   UNL A   1      30.945  28.513  23.359  1.00  0.00     0.286 C 
ATOM      4  O   UNL A   1      29.801  28.969  23.286  1.00  0.00    -0.266 OA
ATOM      5  H   UNL A   1      31.543  30.235  24.174  1.00  0.00     0.163 HD
BRANCH   3   6
ATOM      6  C   UNL A   1      31.307  27.200  22.855  1.00  0.00     0.191 A 
ATOM      7  C   UNL A   1      31.340  24.985  22.997  1.00  0.00     0.124 A 
ATOM      8  C   UNL A   1      31.971  25.306  21.817  1.00  0.00     0.048 A 
ATOM      9  O   UNL A   1      30.944  26.124  23.631  1.00  0.00    -0.454 OA
ATOM     10  C   UNL A   1      31.925  26.718  21.713  1.00  0.00     0.056 A 
BRANCH   7  11
ATOM     11  C   UNL A   1      30.975  23.688  23.641  1.00  0.00     0.188 C 
BRANCH  11  12
ATOM     12  N   UNL A   1      31.800  23.314  24.778  1.00  0.00    -0.378 N 
ATOM     13  H   UNL A   1      31.329  23.078  25.610  1.00  0.00     0.161 HD
BRANCH  12  14
ATOM     14  C   UNL A   1      33.180  23.258  24.807  1.00  0.00     0.035 A 
ATOM     15  C   UNL A   1      36.012  23.265  24.975  1.00  0.00     0.119 A 
ATOM     16  C   UNL A   1      35.367  22.710  23.875  1.00  0.00     0.048 A 
ATOM     17  C   UNL A   1      35.251  23.856  25.977  1.00  0.00     0.048 A 
ATOM     18  C   UNL A   1      33.968  22.710  23.792  1.00  0.00     0.029 A 
ATOM     19  C   UNL A   1      33.851  23.852  25.886  1.00  0.00     0.029 A 
BRANCH  15  20
ATOM     20  O   UNL A   1      37.378  23.213  24.945  1.00  0.00    -0.497 OA
ATOM     21  C   UNL A   1      37.941  21.936  25.226  1.00  0.00     0.278 C 
ENDBRANCH  15  20
ENDBRANCH  12  14
ENDBRANCH  11  12
ENDBRANCH   7  11
ENDBRANCH   3   6
ENDBRANCH   1   2
BRANCH   1  22
ATOM     22  C   UNL A   1      33.367  27.841  25.246  1.00  0.00     0.042 C 
BRANCH  22  23
ATOM     23  C   UNL A   1      33.708  28.161  26.701  1.00  0.00     0.118 C 
BRANCH  23  24
ATOM     24  N   UNL A   1      33.521  29.574  27.006  1.00  0.00    -0.352 N 
ATOM     25  C   UNL A   1      34.309  30.445  27.715  1.00  0.00     0.251 C 
ATOM     26  H   UNL A   1      32.694  29.967  26.644  1.00  0.00     0.163 HD
ATOM     27  O   UNL A   1      33.844  31.532  28.050  1.00  0.00    -0.269 OA
BRANCH  25  28
ATOM     28  C   UNL A   1      35.700  30.094  28.081  1.00  0.00     0.039 A 
ATOM     29  C   UNL A   1      35.968  29.683  29.390  1.00  0.00     0.014 A 
ATOM     30  C   UNL A   1      36.748  30.229  27.166  1.00  0.00     0.014 A 
ATOM     31  C   UNL A   1      37.274  29.360  29.767  1.00  0.00     0.010 A 
ATOM     32  C   UNL A   1      38.039  29.845  27.524  1.00  0.00     0.010 A 
ATOM     33  C   UNL A   1      38.317  29.413  28.829  1.00  0.00    -0.014 A 
BRANCH  33  34
ATOM     34  C   UNL A   1      39.705  29.024  29.194  1.00  0.00     0.031 A 
ATOM     35  C   UNL A   1      40.620  30.016  29.863  1.00  0.00     0.074 A 
ATOM     36  C   UNL A   1      40.161  27.799  28.866  1.00  0.00     0.049 A 
ATOM     37  N   UNL A   1      41.882  29.887  30.181  1.00  0.00    -0.248 NA
ATOM     38  C   UNL A   1      40.049  31.332  30.195  1.00  0.00     0.031 C 
ATOM     39  C   UNL A   1      39.384  26.759  28.185  1.00  0.00     0.029 A 
ATOM     40  N   UNL A   1      41.394  27.223  29.049  1.00  0.00    -0.354 N 
ATOM     41  C   UNL A   1      42.263  31.109  30.728  1.00  0.00     0.074 A 
ATOM     42  C   UNL A   1      41.107  31.977  30.664  1.00  0.00     0.031 C 
ATOM     43  C   UNL A   1      40.153  25.669  28.026  1.00  0.00     0.029 A 
ATOM     44  C   UNL A   1      41.484  25.943  28.554  1.00  0.00     0.049 A 
ATOM     45  H   UNL A   1      42.142  27.683  29.492  1.00  0.00     0.167 HD
ATOM     46  C   UNL A   1      43.460  31.469  31.247  1.00  0.00     0.031 A 
ATOM     47  C   UNL A   1      42.526  25.089  28.520  1.00  0.00     0.031 A 
ATOM     48  C   UNL A   1      44.600  30.595  31.332  1.00  0.00     0.049 A 
ATOM     49  C   UNL A   1      43.844  25.513  29.108  1.00  0.00     0.074 A 
ATOM     50  C   UNL A   1      45.838  30.849  31.898  1.00  0.00     0.029 A 
ATOM     51  N   UNL A   1      44.643  29.299  30.842  1.00  0.00    -0.354 N 
ATOM     52  N   UNL A   1      44.163  26.653  29.674  1.00  0.00    -0.248 NA
ATOM     53  C   UNL A   1      44.936  24.532  29.065  1.00  0.00     0.031 C 
ATOM     54  C   UNL A   1      46.643  29.721  31.711  1.00  0.00     0.029 A 
ATOM     55  C   UNL A   1      45.891  28.747  31.075  1.00  0.00     0.049 A 
ATOM     56  H   UNL A   1      43.897  28.840  30.393  1.00  0.00     0.167 HD
ATOM     57  C   UNL A   1      45.486  26.514  30.079  1.00  0.00     0.074 A 
ATOM     58  C   UNL A   1      45.901  25.177  29.707  1.00  0.00     0.031 C 
ATOM     59  C   UNL A   1      46.285  27.412  30.706  1.00  0.00     0.031 A 
BRANCH  46  60
ATOM     60  C   UNL A   1      43.605  32.875  31.769  1.00  0.00    -0.014 A 
ATOM     61  C   UNL A   1      44.097  33.906  30.949  1.00  0.00     0.010 A 
ATOM     62  C   UNL A   1      43.184  33.181  33.076  1.00  0.00     0.010 A 
ATOM     63  C   UNL A   1      44.195  35.212  31.437  1.00  0.00     0.020 A 
ATOM     64  C   UNL A   1      43.257  34.492  33.560  1.00  0.00     0.020 A 
ATOM     65  C   UNL A   1      43.775  35.496  32.740  1.00  0.00     0.054 A 
BRANCH  65  66
ATOM     66  S   UNL A   1      43.876  37.208  33.332  1.00  0.00     0.124 S 
ATOM     67  O   UNL A   1      42.719  37.286  34.223  1.00  0.00    -0.237 OA
ATOM     68  O   UNL A   1      45.179  37.243  33.992  1.00  0.00    -0.237 OA
ATOM     69  O   UNL A   1      43.776  38.004  32.112  1.00  0.00    -0.744 OA
ENDBRANCH  65  66
ENDBRANCH  46  60
BRANCH  47  70
ATOM     70  C   UNL A   1      42.365  23.740  27.912  1.00  0.00    -0.014 A 
ATOM     71  C   UNL A   1      41.978  22.643  28.702  1.00  0.00     0.010 A 
ATOM     72  C   UNL A   1      42.607  23.543  26.540  1.00  0.00     0.010 A 
ATOM     73  C   UNL A   1      41.862  21.370  28.139  1.00  0.00     0.020 A 
ATOM     74  C   UNL A   1      42.466  22.275  25.967  1.00  0.00     0.020 A 
ATOM     75  C   UNL A   1      42.109  21.193  26.774  1.00  0.00     0.054 A 
BRANCH  75  76
ATOM     76  S   UNL A   1      41.920  19.539  26.055  1.00  0.00     0.124 S 
ATOM     77  O   UNL A   1      40.489  19.492  25.773  1.00  0.00    -0.237 OA
ATOM     78  O   UNL A   1      42.795  19.598  24.887  1.00  0.00    -0.237 OA
ATOM     79  O   UNL A   1      42.378  18.650  27.122  1.00  0.00    -0.744 OA
ENDBRANCH  75  76
ENDBRANCH  47  70
BRANCH  59  80
ATOM     80  C   UNL A   1      47.676  26.967  31.068  1.00  0.00    -0.014 A 
ATOM     81  C   UNL A   1      47.926  26.246  32.249  1.00  0.00     0.010 A 
ATOM     82  C   UNL A   1      48.738  27.228  30.184  1.00  0.00     0.010 A 
ATOM     83  C   UNL A   1      49.222  25.820  32.553  1.00  0.00     0.020 A 
ATOM     84  C   UNL A   1      50.030  26.781  30.472  1.00  0.00     0.020 A 
ATOM     85  C   UNL A   1      50.266  26.092  31.663  1.00  0.00     0.054 A 
BRANCH  85  86
ATOM     86  S   UNL A   1      51.931  25.492  32.058  1.00  0.00     0.124 S 
ATOM     87  O   UNL A   1      52.169  26.094  33.367  1.00  0.00    -0.237 OA
ATOM     88  O   UNL A   1      51.759  24.041  32.056  1.00  0.00    -0.237 OA
ATOM     89  O   UNL A   1      52.755  26.016  30.972  1.00  0.00    -0.744 OA
ENDBRANCH  85  86
ENDBRANCH  59  80
ENDBRANCH  33  34
ENDBRANCH  25  28
ENDBRANCH  23  24
ENDBRANCH  22  23
ENDBRANCH   1  22
TORSDOF 17
ENDMDL
