MODEL 1
REMARK VINA RESULT:      -9.7      0.000      0.000
REMARK SMILES CC[N@@H+](C[C@@H]1CCCO1)[C@@H](C)c1ccc(C(=O)NCCCNC(=O)c2ccc(-c3c4nc(c(-c5ccc(S(=O)(=O)[O-])cc5)c5ccc([nH]5)c(-c5ccc(S(=O)(=O)[O-])cc5)c5nc(c(-c6ccc(S(=O)(=O)[O-])cc6)c6ccc3[nH]6)C=C5)C=C4)cc2)o1
REMARK SMILES IDX 19 1 18 2 16 3 17 4 15 6 12 7 13 8 85 9 14 10 10 11 11 12
REMARK SMILES IDX 3 13 2 15 1 16 4 17 5 18 6 19 9 20 7 21 8 22 20 23 21 24
REMARK SMILES IDX 22 25 23 26 24 28 25 29 26 30 84 31 27 32 83 33 28 34 29 35
REMARK SMILES IDX 30 36 77 37 31 38 82 39 76 40 78 41 32 42 81 43 75 44 74 45
REMARK SMILES IDX 33 47 63 48 44 49 62 50 45 51 48 52 61 53 79 54 46 55 47 56
REMARK SMILES IDX 60 58 80 59 49 60 34 61 35 62 43 63 36 64 42 65 37 66 38 67
REMARK SMILES IDX 39 68 40 69 41 70 64 71 65 72 73 73 66 74 72 75 67 76 68 77
REMARK SMILES IDX 69 78 70 79 71 80 50 81 51 82 59 83 52 84 58 85 53 86 54 87
REMARK SMILES IDX 55 88 56 89 57 90
REMARK H PARENT 18 5 3 14 22 27 78 46 48 57
REMARK Flexibility Score: inf
ROOT
ATOM      1  C   UNL A   1      42.163  19.672  27.098  1.00  0.00     0.118 C 
ENDROOT
BRANCH   1   2
ATOM      2  N   UNL A   1      42.900  18.797  26.211  1.00  0.00    -0.349 N 
ATOM      3  C   UNL A   1      43.921  19.083  25.335  1.00  0.00     0.287 C 
ATOM      4  O   UNL A   1      44.436  18.118  24.773  1.00  0.00    -0.266 OA
ATOM      5  H   UNL A   1      42.629  17.852  26.240  1.00  0.00     0.163 HD
BRANCH   3   6
ATOM      6  C   UNL A   1      44.378  20.446  25.155  1.00  0.00     0.191 A 
ATOM      7  C   UNL A   1      44.355  22.588  25.707  1.00  0.00     0.161 A 
ATOM      8  C   UNL A   1      45.162  22.488  24.597  1.00  0.00     0.053 A 
ATOM      9  O   UNL A   1      43.915  21.352  26.068  1.00  0.00    -0.450 OA
ATOM     10  C   UNL A   1      45.191  21.112  24.255  1.00  0.00     0.057 A 
BRANCH   7  11
ATOM     11  C   UNL A   1      43.902  23.739  26.556  1.00  0.00     0.248 C 
ATOM     12  C   UNL A   1      43.680  24.993  25.698  1.00  0.00     0.084 C 
BRANCH  11  13
ATOM     13  N   UNL A   1      44.732  23.893  27.780  1.00  0.00    -0.324 N 
ATOM     14  H   UNL A   1      44.573  24.872  28.020  1.00  0.00     0.348 HD
BRANCH  13  15
ATOM     15  C   UNL A   1      44.296  23.205  29.002  1.00  0.00     0.259 C 
ATOM     16  C   UNL A   1      42.811  22.880  29.114  1.00  0.00     0.071 C 
ENDBRANCH  13  15
BRANCH  13  17
ATOM     17  C   UNL A   1      46.172  23.677  27.507  1.00  0.00     0.295 C 
BRANCH  17  18
ATOM     18  C   UNL A   1      47.142  24.857  27.727  1.00  0.00     0.173 C 
ATOM     19  C   UNL A   1      46.939  26.072  26.839  1.00  0.00     0.040 C 
ATOM     20  O   UNL A   1      48.500  24.445  27.473  1.00  0.00    -0.372 OA
ATOM     21  C   UNL A   1      48.269  26.767  27.018  1.00  0.00     0.031 C 
ATOM     22  C   UNL A   1      49.243  25.607  27.072  1.00  0.00     0.161 C 
ENDBRANCH  17  18
ENDBRANCH  13  17
ENDBRANCH  11  13
ENDBRANCH   7  11
ENDBRANCH   3   6
ENDBRANCH   1   2
BRANCH   1  23
ATOM     23  C   UNL A   1      40.817  20.062  26.496  1.00  0.00     0.042 C 
BRANCH  23  24
ATOM     24  C   UNL A   1      40.576  21.569  26.505  1.00  0.00     0.118 C 
BRANCH  24  25
ATOM     25  N   UNL A   1      39.340  21.922  25.823  1.00  0.00    -0.352 N 
ATOM     26  C   UNL A   1      38.556  23.041  25.948  1.00  0.00     0.251 C 
ATOM     27  H   UNL A   1      39.016  21.257  25.174  1.00  0.00     0.163 HD
ATOM     28  O   UNL A   1      37.428  23.039  25.463  1.00  0.00    -0.269 OA
BRANCH  26  29
ATOM     29  C   UNL A   1      39.056  24.237  26.659  1.00  0.00     0.039 A 
ATOM     30  C   UNL A   1      38.657  24.451  27.982  1.00  0.00     0.014 A 
ATOM     31  C   UNL A   1      39.866  25.178  26.014  1.00  0.00     0.014 A 
ATOM     32  C   UNL A   1      39.099  25.585  28.667  1.00  0.00     0.010 A 
ATOM     33  C   UNL A   1      40.366  26.268  26.722  1.00  0.00     0.010 A 
ATOM     34  C   UNL A   1      39.973  26.493  28.049  1.00  0.00    -0.014 A 
BRANCH  34  35
ATOM     35  C   UNL A   1      40.457  27.702  28.760  1.00  0.00     0.031 A 
ATOM     36  C   UNL A   1      41.838  27.717  29.363  1.00  0.00     0.074 A 
ATOM     37  C   UNL A   1      39.640  28.762  28.912  1.00  0.00     0.049 A 
ATOM     38  N   UNL A   1      42.416  28.648  30.078  1.00  0.00    -0.248 NA
ATOM     39  C   UNL A   1      42.668  26.518  29.157  1.00  0.00     0.031 C 
ATOM     40  C   UNL A   1      38.269  28.855  28.407  1.00  0.00     0.029 A 
ATOM     41  N   UNL A   1      39.842  29.963  29.545  1.00  0.00    -0.354 N 
ATOM     42  C   UNL A   1      43.662  28.138  30.426  1.00  0.00     0.074 A 
ATOM     43  C   UNL A   1      43.740  26.800  29.882  1.00  0.00     0.031 C 
ATOM     44  C   UNL A   1      37.762  30.057  28.728  1.00  0.00     0.029 A 
ATOM     45  C   UNL A   1      38.756  30.804  29.494  1.00  0.00     0.049 A 
ATOM     46  H   UNL A   1      40.686  30.200  29.994  1.00  0.00     0.167 HD
ATOM     47  C   UNL A   1      44.661  28.736  31.120  1.00  0.00     0.031 A 
ATOM     48  C   UNL A   1      38.576  32.035  30.008  1.00  0.00     0.031 A 
ATOM     49  C   UNL A   1      44.588  30.075  31.640  1.00  0.00     0.049 A 
ATOM     50  C   UNL A   1      39.705  32.684  30.763  1.00  0.00     0.074 A 
ATOM     51  C   UNL A   1      45.563  30.792  32.313  1.00  0.00     0.029 A 
ATOM     52  N   UNL A   1      43.480  30.903  31.542  1.00  0.00    -0.354 N 
ATOM     53  N   UNL A   1      40.895  32.205  31.038  1.00  0.00    -0.248 NA
ATOM     54  C   UNL A   1      39.471  34.046  31.262  1.00  0.00     0.031 C 
ATOM     55  C   UNL A   1      45.030  32.038  32.655  1.00  0.00     0.029 A 
ATOM     56  C   UNL A   1      43.742  32.118  32.151  1.00  0.00     0.049 A 
ATOM     57  H   UNL A   1      42.632  30.661  31.104  1.00  0.00     0.167 HD
ATOM     58  C   UNL A   1      41.563  33.220  31.713  1.00  0.00     0.074 A 
ATOM     59  C   UNL A   1      40.649  34.340  31.797  1.00  0.00     0.031 C 
ATOM     60  C   UNL A   1      42.821  33.224  32.217  1.00  0.00     0.031 A 
BRANCH  47  61
ATOM     61  C   UNL A   1      45.917  27.940  31.357  1.00  0.00    -0.014 A 
ATOM     62  C   UNL A   1      47.001  28.009  30.461  1.00  0.00     0.010 A 
ATOM     63  C   UNL A   1      46.032  27.138  32.507  1.00  0.00     0.010 A 
ATOM     64  C   UNL A   1      48.157  27.257  30.688  1.00  0.00     0.020 A 
ATOM     65  C   UNL A   1      47.198  26.407  32.753  1.00  0.00     0.020 A 
ATOM     66  C   UNL A   1      48.245  26.457  31.831  1.00  0.00     0.054 A 
BRANCH  66  67
ATOM     67  S   UNL A   1      49.765  25.507  32.111  1.00  0.00     0.124 S 
ATOM     68  O   UNL A   1      50.066  25.020  30.767  1.00  0.00    -0.237 OA
ATOM     69  O   UNL A   1      50.684  26.515  32.633  1.00  0.00    -0.237 OA
ATOM     70  O   UNL A   1      49.361  24.481  33.069  1.00  0.00    -0.744 OA
ENDBRANCH  66  67
ENDBRANCH  47  61
BRANCH  48  71
ATOM     71  C   UNL A   1      37.285  32.744  29.805  1.00  0.00    -0.014 A 
ATOM     72  C   UNL A   1      36.214  32.542  30.694  1.00  0.00     0.010 A 
ATOM     73  C   UNL A   1      37.122  33.637  28.731  1.00  0.00     0.010 A 
ATOM     74  C   UNL A   1      34.998  33.204  30.502  1.00  0.00     0.020 A 
ATOM     75  C   UNL A   1      35.916  34.321  28.549  1.00  0.00     0.020 A 
ATOM     76  C   UNL A   1      34.858  34.091  29.430  1.00  0.00     0.054 A 
BRANCH  76  77
ATOM     77  S   UNL A   1      33.287  34.978  29.227  1.00  0.00     0.124 S 
ATOM     78  O   UNL A   1      32.770  34.993  30.592  1.00  0.00    -0.237 OA
ATOM     79  O   UNL A   1      33.719  36.270  28.700  1.00  0.00    -0.237 OA
ATOM     80  O   UNL A   1      32.546  34.145  28.284  1.00  0.00    -0.744 OA
ENDBRANCH  76  77
ENDBRANCH  48  71
BRANCH  60  81
ATOM     81  C   UNL A   1      43.303  34.496  32.863  1.00  0.00    -0.014 A 
ATOM     82  C   UNL A   1      43.927  35.506  32.111  1.00  0.00     0.010 A 
ATOM     83  C   UNL A   1      43.079  34.700  34.237  1.00  0.00     0.010 A 
ATOM     84  C   UNL A   1      44.348  36.686  32.730  1.00  0.00     0.020 A 
ATOM     85  C   UNL A   1      43.475  35.888  34.853  1.00  0.00     0.020 A 
ATOM     86  C   UNL A   1      44.122  36.869  34.098  1.00  0.00     0.054 A 
BRANCH  86  87
ATOM     87  S   UNL A   1      44.642  38.425  34.872  1.00  0.00     0.124 S 
ATOM     88  O   UNL A   1      46.076  38.434  34.600  1.00  0.00    -0.237 OA
ATOM     89  O   UNL A   1      43.858  39.422  34.148  1.00  0.00    -0.237 OA
ATOM     90  O   UNL A   1      44.275  38.252  36.275  1.00  0.00    -0.744 OA
ENDBRANCH  86  87
ENDBRANCH  60  81
ENDBRANCH  34  35
ENDBRANCH  26  29
ENDBRANCH  24  25
ENDBRANCH  23  24
ENDBRANCH   1  23
TORSDOF 18
ENDMDL
MODEL 2
REMARK VINA RESULT:      -9.4      4.404     11.802
REMARK SMILES CC[N@@H+](C[C@@H]1CCCO1)[C@@H](C)c1ccc(C(=O)NCCCNC(=O)c2ccc(-c3c4nc(c(-c5ccc(S(=O)(=O)[O-])cc5)c5ccc([nH]5)c(-c5ccc(S(=O)(=O)[O-])cc5)c5nc(c(-c6ccc(S(=O)(=O)[O-])cc6)c6ccc3[nH]6)C=C5)C=C4)cc2)o1
REMARK SMILES IDX 19 1 18 2 16 3 17 4 15 6 12 7 13 8 85 9 14 10 10 11 11 12
REMARK SMILES IDX 3 13 2 15 1 16 4 17 5 18 6 19 9 20 7 21 8 22 20 23 21 24
REMARK SMILES IDX 22 25 23 26 24 28 25 29 26 30 84 31 27 32 83 33 28 34 29 35
REMARK SMILES IDX 30 36 77 37 31 38 82 39 76 40 78 41 32 42 81 43 75 44 74 45
REMARK SMILES IDX 33 47 63 48 44 49 62 50 45 51 48 52 61 53 79 54 46 55 47 56
REMARK SMILES IDX 60 58 80 59 49 60 34 61 35 62 43 63 36 64 42 65 37 66 38 67
REMARK SMILES IDX 39 68 40 69 41 70 64 71 65 72 73 73 66 74 72 75 67 76 68 77
REMARK SMILES IDX 69 78 70 79 71 80 50 81 51 82 59 83 52 84 58 85 53 86 54 87
REMARK SMILES IDX 55 88 56 89 57 90
REMARK H PARENT 18 5 3 14 22 27 78 46 48 57
REMARK Flexibility Score: inf
ROOT
ATOM      1  C   UNL A   1      33.756  29.993  26.858  1.00  0.00     0.118 C 
ENDROOT
BRANCH   1   2
ATOM      2  N   UNL A   1      32.702  29.332  27.597  1.00  0.00    -0.349 N 
ATOM      3  C   UNL A   1      31.779  28.402  27.180  1.00  0.00     0.287 C 
ATOM      4  O   UNL A   1      31.054  27.930  28.055  1.00  0.00    -0.266 OA
ATOM      5  H   UNL A   1      32.636  29.588  28.545  1.00  0.00     0.163 HD
BRANCH   3   6
ATOM      6  C   UNL A   1      31.731  27.981  25.795  1.00  0.00     0.191 A 
ATOM      7  C   UNL A   1      32.591  26.903  24.064  1.00  0.00     0.161 A 
ATOM      8  C   UNL A   1      31.476  27.557  23.592  1.00  0.00     0.053 A 
ATOM      9  O   UNL A   1      32.723  27.125  25.400  1.00  0.00    -0.450 OA
ATOM     10  C   UNL A   1      30.914  28.232  24.706  1.00  0.00     0.057 A 
BRANCH   7  11
ATOM     11  C   UNL A   1      33.628  26.029  23.421  1.00  0.00     0.248 C 
ATOM     12  C   UNL A   1      33.369  25.899  21.913  1.00  0.00     0.084 C 
BRANCH  11  13
ATOM     13  N   UNL A   1      33.850  24.771  24.182  1.00  0.00    -0.324 N 
ATOM     14  H   UNL A   1      34.415  25.097  24.966  1.00  0.00     0.348 HD
BRANCH  13  15
ATOM     15  C   UNL A   1      32.700  24.165  24.866  1.00  0.00     0.259 C 
ATOM     16  C   UNL A   1      32.911  23.733  26.312  1.00  0.00     0.071 C 
ENDBRANCH  13  15
BRANCH  13  17
ATOM     17  C   UNL A   1      34.615  23.774  23.398  1.00  0.00     0.295 C 
BRANCH  17  18
ATOM     18  C   UNL A   1      36.004  23.346  23.918  1.00  0.00     0.173 C 
ATOM     19  C   UNL A   1      36.136  21.906  24.383  1.00  0.00     0.040 C 
ATOM     20  O   UNL A   1      36.375  24.133  25.068  1.00  0.00    -0.372 OA
ATOM     21  C   UNL A   1      37.408  21.995  25.194  1.00  0.00     0.031 C 
ATOM     22  C   UNL A   1      37.279  23.350  25.863  1.00  0.00     0.161 C 
ENDBRANCH  17  18
ENDBRANCH  13  17
ENDBRANCH  11  13
ENDBRANCH   7  11
ENDBRANCH   3   6
ENDBRANCH   1   2
BRANCH   1  23
ATOM     23  C   UNL A   1      35.131  29.616  27.398  1.00  0.00     0.042 C 
BRANCH  23  24
ATOM     24  C   UNL A   1      35.805  30.753  28.161  1.00  0.00     0.118 C 
BRANCH  24  25
ATOM     25  N   UNL A   1      35.719  30.563  29.601  1.00  0.00    -0.352 N 
ATOM     26  C   UNL A   1      36.589  29.938  30.458  1.00  0.00     0.251 C 
ATOM     27  H   UNL A   1      34.915  30.940  30.026  1.00  0.00     0.163 HD
ATOM     28  O   UNL A   1      36.219  29.672  31.598  1.00  0.00    -0.269 OA
BRANCH  26  29
ATOM     29  C   UNL A   1      37.956  29.582  30.019  1.00  0.00     0.039 A 
ATOM     30  C   UNL A   1      38.289  29.724  28.668  1.00  0.00     0.014 A 
ATOM     31  C   UNL A   1      38.892  29.056  30.917  1.00  0.00     0.014 A 
ATOM     32  C   UNL A   1      39.567  29.374  28.227  1.00  0.00     0.010 A 
ATOM     33  C   UNL A   1      40.187  28.779  30.489  1.00  0.00     0.010 A 
ATOM     34  C   UNL A   1      40.533  28.916  29.137  1.00  0.00    -0.014 A 
BRANCH  34  35
ATOM     35  C   UNL A   1      41.898  28.543  28.690  1.00  0.00     0.031 A 
ATOM     36  C   UNL A   1      42.977  29.592  28.614  1.00  0.00     0.074 A 
ATOM     37  C   UNL A   1      42.152  27.280  28.299  1.00  0.00     0.049 A 
ATOM     38  N   UNL A   1      44.208  29.479  28.186  1.00  0.00    -0.248 NA
ATOM     39  C   UNL A   1      42.618  30.950  29.055  1.00  0.00     0.031 C 
ATOM     40  C   UNL A   1      41.181  26.183  28.290  1.00  0.00     0.029 A 
ATOM     41  N   UNL A   1      43.305  26.705  27.824  1.00  0.00    -0.354 N 
ATOM     42  C   UNL A   1      44.760  30.751  28.281  1.00  0.00     0.074 A 
ATOM     43  C   UNL A   1      43.718  31.630  28.766  1.00  0.00     0.031 C 
ATOM     44  C   UNL A   1      41.785  25.064  27.857  1.00  0.00     0.029 A 
ATOM     45  C   UNL A   1      43.172  25.371  27.521  1.00  0.00     0.049 A 
ATOM     46  H   UNL A   1      44.147  27.202  27.712  1.00  0.00     0.167 HD
ATOM     47  C   UNL A   1      46.026  31.151  28.008  1.00  0.00     0.031 A 
ATOM     48  C   UNL A   1      44.064  24.493  27.023  1.00  0.00     0.031 A 
ATOM     49  C   UNL A   1      47.065  30.269  27.547  1.00  0.00     0.049 A 
ATOM     50  C   UNL A   1      45.467  24.957  26.741  1.00  0.00     0.074 A 
ATOM     51  C   UNL A   1      48.393  30.565  27.290  1.00  0.00     0.029 A 
ATOM     52  N   UNL A   1      46.896  28.920  27.279  1.00  0.00    -0.354 N 
ATOM     53  N   UNL A   1      45.984  26.154  26.886  1.00  0.00    -0.248 NA
ATOM     54  C   UNL A   1      46.412  23.947  26.244  1.00  0.00     0.031 C 
ATOM     55  C   UNL A   1      49.017  29.401  26.829  1.00  0.00     0.029 A 
ATOM     56  C   UNL A   1      48.092  28.370  26.849  1.00  0.00     0.049 A 
ATOM     57  H   UNL A   1      46.051  28.426  27.380  1.00  0.00     0.167 HD
ATOM     58  C   UNL A   1      47.322  26.034  26.530  1.00  0.00     0.074 A 
ATOM     59  C   UNL A   1      47.537  24.646  26.171  1.00  0.00     0.031 C 
ATOM     60  C   UNL A   1      48.287  26.985  26.503  1.00  0.00     0.031 A 
BRANCH  47  61
ATOM     61  C   UNL A   1      46.353  32.608  28.200  1.00  0.00    -0.014 A 
ATOM     62  C   UNL A   1      46.834  33.089  29.432  1.00  0.00     0.010 A 
ATOM     63  C   UNL A   1      46.209  33.506  27.126  1.00  0.00     0.010 A 
ATOM     64  C   UNL A   1      47.123  34.446  29.599  1.00  0.00     0.020 A 
ATOM     65  C   UNL A   1      46.524  34.859  27.281  1.00  0.00     0.020 A 
ATOM     66  C   UNL A   1      46.962  35.323  28.523  1.00  0.00     0.054 A 
BRANCH  66  67
ATOM     67  S   UNL A   1      47.364  37.076  28.762  1.00  0.00     0.124 S 
ATOM     68  O   UNL A   1      48.404  37.008  29.786  1.00  0.00    -0.237 OA
ATOM     69  O   UNL A   1      47.815  37.487  27.436  1.00  0.00    -0.237 OA
ATOM     70  O   UNL A   1      46.100  37.665  29.198  1.00  0.00    -0.744 OA
ENDBRANCH  66  67
ENDBRANCH  47  61
BRANCH  48  71
ATOM     71  C   UNL A   1      43.663  23.081  26.784  1.00  0.00    -0.014 A 
ATOM     72  C   UNL A   1      44.098  22.403  25.631  1.00  0.00     0.010 A 
ATOM     73  C   UNL A   1      42.856  22.401  27.713  1.00  0.00     0.010 A 
ATOM     74  C   UNL A   1      43.718  21.078  25.403  1.00  0.00     0.020 A 
ATOM     75  C   UNL A   1      42.495  21.067  27.502  1.00  0.00     0.020 A 
ATOM     76  C   UNL A   1      42.918  20.418  26.341  1.00  0.00     0.054 A 
BRANCH  76  77
ATOM     77  S   UNL A   1      42.478  18.681  26.049  1.00  0.00     0.124 S 
ATOM     78  O   UNL A   1      42.777  18.072  27.342  1.00  0.00    -0.237 OA
ATOM     79  O   UNL A   1      41.062  18.768  25.702  1.00  0.00    -0.237 OA
ATOM     80  O   UNL A   1      43.357  18.288  24.951  1.00  0.00    -0.744 OA
ENDBRANCH  76  77
ENDBRANCH  48  71
BRANCH  60  81
ATOM     81  C   UNL A   1      49.676  26.551  26.119  1.00  0.00    -0.014 A 
ATOM     82  C   UNL A   1      50.178  26.767  24.824  1.00  0.00     0.010 A 
ATOM     83  C   UNL A   1      50.509  25.963  27.089  1.00  0.00     0.010 A 
ATOM     84  C   UNL A   1      51.477  26.373  24.496  1.00  0.00     0.020 A 
ATOM     85  C   UNL A   1      51.817  25.592  26.773  1.00  0.00     0.020 A 
ATOM     86  C   UNL A   1      52.289  25.785  25.472  1.00  0.00     0.054 A 
BRANCH  86  87
ATOM     87  S   UNL A   1      53.985  25.316  25.035  1.00  0.00     0.124 S 
ATOM     88  O   UNL A   1      53.878  23.865  24.917  1.00  0.00    -0.237 OA
ATOM     89  O   UNL A   1      54.205  26.035  23.783  1.00  0.00    -0.237 OA
ATOM     90  O   UNL A   1      54.778  25.792  26.167  1.00  0.00    -0.744 OA
ENDBRANCH  86  87
ENDBRANCH  60  81
ENDBRANCH  34  35
ENDBRANCH  26  29
ENDBRANCH  24  25
ENDBRANCH  23  24
ENDBRANCH   1  23
TORSDOF 18
ENDMDL
MODEL 3
REMARK VINA RESULT:      -9.2      4.989     11.401
REMARK SMILES CC[N@@H+](C[C@@H]1CCCO1)[C@@H](C)c1ccc(C(=O)NCCCNC(=O)c2ccc(-c3c4nc(c(-c5ccc(S(=O)(=O)[O-])cc5)c5ccc([nH]5)c(-c5ccc(S(=O)(=O)[O-])cc5)c5nc(c(-c6ccc(S(=O)(=O)[O-])cc6)c6ccc3[nH]6)C=C5)C=C4)cc2)o1
REMARK SMILES IDX 19 1 18 2 16 3 17 4 15 6 12 7 13 8 85 9 14 10 10 11 11 12
REMARK SMILES IDX 3 13 2 15 1 16 4 17 5 18 6 19 9 20 7 21 8 22 20 23 21 24
REMARK SMILES IDX 22 25 23 26 24 28 25 29 26 30 84 31 27 32 83 33 28 34 29 35
REMARK SMILES IDX 30 36 77 37 31 38 82 39 76 40 78 41 32 42 81 43 75 44 74 45
REMARK SMILES IDX 33 47 63 48 44 49 62 50 45 51 48 52 61 53 79 54 46 55 47 56
REMARK SMILES IDX 60 58 80 59 49 60 34 61 35 62 43 63 36 64 42 65 37 66 38 67
REMARK SMILES IDX 39 68 40 69 41 70 64 71 65 72 73 73 66 74 72 75 67 76 68 77
REMARK SMILES IDX 69 78 70 79 71 80 50 81 51 82 59 83 52 84 58 85 53 86 54 87
REMARK SMILES IDX 55 88 56 89 57 90
REMARK H PARENT 18 5 3 14 22 27 78 46 48 57
REMARK Flexibility Score: inf
ROOT
ATOM      1  C   UNL A   1      36.797  23.603  25.435  1.00  0.00     0.118 C 
ENDROOT
BRANCH   1   2
ATOM      2  N   UNL A   1      35.642  23.158  26.184  1.00  0.00    -0.349 N 
ATOM      3  C   UNL A   1      34.313  23.133  25.829  1.00  0.00     0.287 C 
ATOM      4  O   UNL A   1      33.549  22.604  26.636  1.00  0.00    -0.266 OA
ATOM      5  H   UNL A   1      35.838  22.820  27.088  1.00  0.00     0.163 HD
BRANCH   3   6
ATOM      6  C   UNL A   1      33.882  23.654  24.549  1.00  0.00     0.191 A 
ATOM      7  C   UNL A   1      33.081  25.287  23.290  1.00  0.00     0.161 A 
ATOM      8  C   UNL A   1      33.169  24.183  22.474  1.00  0.00     0.053 A 
ATOM      9  O   UNL A   1      33.549  24.980  24.530  1.00  0.00    -0.450 OA
ATOM     10  C   UNL A   1      33.700  23.141  23.276  1.00  0.00     0.057 A 
BRANCH   7  11
ATOM     11  C   UNL A   1      32.603  26.694  23.080  1.00  0.00     0.248 C 
ATOM     12  C   UNL A   1      33.737  27.697  23.337  1.00  0.00     0.084 C 
BRANCH  11  13
ATOM     13  N   UNL A   1      31.304  26.951  23.757  1.00  0.00    -0.324 N 
ATOM     14  H   UNL A   1      31.116  26.052  24.200  1.00  0.00     0.348 HD
BRANCH  13  15
ATOM     15  C   UNL A   1      31.293  27.866  24.905  1.00  0.00     0.259 C 
ATOM     16  C   UNL A   1      31.197  27.231  26.287  1.00  0.00     0.071 C 
ENDBRANCH  13  15
BRANCH  13  17
ATOM     17  C   UNL A   1      30.225  27.263  22.791  1.00  0.00     0.295 C 
BRANCH  17  18
ATOM     18  C   UNL A   1      29.512  28.627  22.908  1.00  0.00     0.173 C 
ATOM     19  C   UNL A   1      28.007  28.587  23.107  1.00  0.00     0.040 C 
ATOM     20  O   UNL A   1      29.698  29.397  21.703  1.00  0.00    -0.372 OA
ATOM     21  C   UNL A   1      27.643  30.005  22.733  1.00  0.00     0.031 C 
ATOM     22  C   UNL A   1      28.583  30.294  21.580  1.00  0.00     0.161 C 
ENDBRANCH  17  18
ENDBRANCH  13  17
ENDBRANCH  11  13
ENDBRANCH   7  11
ENDBRANCH   3   6
ENDBRANCH   1   2
BRANCH   1  23
ATOM     23  C   UNL A   1      38.088  23.047  26.026  1.00  0.00     0.042 C 
BRANCH  23  24
ATOM     24  C   UNL A   1      38.912  24.104  26.756  1.00  0.00     0.118 C 
BRANCH  24  25
ATOM     25  N   UNL A   1      40.099  24.479  26.002  1.00  0.00    -0.352 N 
ATOM     26  C   UNL A   1      40.918  25.571  26.139  1.00  0.00     0.251 C 
ATOM     27  H   UNL A   1      40.353  23.855  25.284  1.00  0.00     0.163 HD
ATOM     28  O   UNL A   1      41.724  25.830  25.250  1.00  0.00    -0.269 OA
BRANCH  26  29
ATOM     29  C   UNL A   1      40.834  26.432  27.339  1.00  0.00     0.039 A 
ATOM     30  C   UNL A   1      39.939  26.085  28.356  1.00  0.00     0.014 A 
ATOM     31  C   UNL A   1      41.586  27.607  27.442  1.00  0.00     0.014 A 
ATOM     32  C   UNL A   1      39.826  26.895  29.489  1.00  0.00     0.010 A 
ATOM     33  C   UNL A   1      41.528  28.371  28.604  1.00  0.00     0.010 A 
ATOM     34  C   UNL A   1      40.634  28.035  29.631  1.00  0.00    -0.014 A 
BRANCH  34  35
ATOM     35  C   UNL A   1      40.533  28.906  30.827  1.00  0.00     0.031 A 
ATOM     36  C   UNL A   1      39.499  30.002  30.875  1.00  0.00     0.074 A 
ATOM     37  C   UNL A   1      41.404  28.752  31.843  1.00  0.00     0.049 A 
ATOM     38  N   UNL A   1      39.299  30.907  31.798  1.00  0.00    -0.248 NA
ATOM     39  C   UNL A   1      38.588  30.108  29.723  1.00  0.00     0.031 C 
ATOM     40  C   UNL A   1      42.474  27.753  31.898  1.00  0.00     0.029 A 
ATOM     41  N   UNL A   1      41.533  29.441  33.023  1.00  0.00    -0.354 N 
ATOM     42  C   UNL A   1      38.260  31.703  31.328  1.00  0.00     0.074 A 
ATOM     43  C   UNL A   1      37.901  31.201  30.020  1.00  0.00     0.031 C 
ATOM     44  C   UNL A   1      43.133  27.878  33.062  1.00  0.00     0.029 A 
ATOM     45  C   UNL A   1      42.560  28.988  33.818  1.00  0.00     0.049 A 
ATOM     46  H   UNL A   1      40.945  30.189  33.277  1.00  0.00     0.167 HD
ATOM     47  C   UNL A   1      37.646  32.745  31.938  1.00  0.00     0.031 A 
ATOM     48  C   UNL A   1      42.995  29.419  35.017  1.00  0.00     0.031 A 
ATOM     49  C   UNL A   1      37.992  33.226  33.249  1.00  0.00     0.049 A 
ATOM     50  C   UNL A   1      42.288  30.570  35.680  1.00  0.00     0.074 A 
ATOM     51  C   UNL A   1      37.397  34.243  33.977  1.00  0.00     0.029 A 
ATOM     52  N   UNL A   1      39.019  32.722  34.032  1.00  0.00    -0.354 N 
ATOM     53  N   UNL A   1      41.273  31.277  35.242  1.00  0.00    -0.248 NA
ATOM     54  C   UNL A   1      42.774  30.970  37.008  1.00  0.00     0.031 C 
ATOM     55  C   UNL A   1      38.091  34.378  35.184  1.00  0.00     0.029 A 
ATOM     56  C   UNL A   1      39.084  33.412  35.229  1.00  0.00     0.049 A 
ATOM     57  H   UNL A   1      39.614  31.982  33.773  1.00  0.00     0.167 HD
ATOM     58  C   UNL A   1      40.979  32.184  36.254  1.00  0.00     0.074 A 
ATOM     59  C   UNL A   1      41.916  31.929  37.329  1.00  0.00     0.031 C 
ATOM     60  C   UNL A   1      40.019  33.140  36.291  1.00  0.00     0.031 A 
BRANCH  47  61
ATOM     61  C   UNL A   1      36.538  33.436  31.188  1.00  0.00    -0.014 A 
ATOM     62  C   UNL A   1      36.731  33.903  29.874  1.00  0.00     0.010 A 
ATOM     63  C   UNL A   1      35.276  33.593  31.790  1.00  0.00     0.010 A 
ATOM     64  C   UNL A   1      35.697  34.552  29.194  1.00  0.00     0.020 A 
ATOM     65  C   UNL A   1      34.231  34.216  31.101  1.00  0.00     0.020 A 
ATOM     66  C   UNL A   1      34.454  34.708  29.814  1.00  0.00     0.054 A 
BRANCH  66  67
ATOM     67  S   UNL A   1      33.125  35.536  28.900  1.00  0.00     0.124 S 
ATOM     68  O   UNL A   1      33.870  36.495  28.088  1.00  0.00    -0.237 OA
ATOM     69  O   UNL A   1      32.508  34.436  28.162  1.00  0.00    -0.237 OA
ATOM     70  O   UNL A   1      32.295  36.122  29.949  1.00  0.00    -0.744 OA
ENDBRANCH  66  67
ENDBRANCH  47  61
BRANCH  48  71
ATOM     71  C   UNL A   1      44.143  28.744  35.677  1.00  0.00    -0.014 A 
ATOM     72  C   UNL A   1      45.449  29.239  35.515  1.00  0.00     0.010 A 
ATOM     73  C   UNL A   1      43.937  27.611  36.484  1.00  0.00     0.010 A 
ATOM     74  C   UNL A   1      46.530  28.603  36.132  1.00  0.00     0.020 A 
ATOM     75  C   UNL A   1      45.012  26.986  37.124  1.00  0.00     0.020 A 
ATOM     76  C   UNL A   1      46.304  27.480  36.933  1.00  0.00     0.054 A 
BRANCH  76  77
ATOM     77  S   UNL A   1      47.715  26.698  37.765  1.00  0.00     0.124 S 
ATOM     78  O   UNL A   1      48.749  26.770  36.737  1.00  0.00    -0.237 OA
ATOM     79  O   UNL A   1      47.916  27.561  38.926  1.00  0.00    -0.237 OA
ATOM     80  O   UNL A   1      47.228  25.356  38.073  1.00  0.00    -0.744 OA
ENDBRANCH  76  77
ENDBRANCH  48  71
BRANCH  60  81
ATOM     81  C   UNL A   1      39.900  33.951  37.553  1.00  0.00    -0.014 A 
ATOM     82  C   UNL A   1      40.700  35.085  37.771  1.00  0.00     0.010 A 
ATOM     83  C   UNL A   1      38.931  33.599  38.510  1.00  0.00     0.010 A 
ATOM     84  C   UNL A   1      40.557  35.834  38.942  1.00  0.00     0.020 A 
ATOM     85  C   UNL A   1      38.767  34.360  39.670  1.00  0.00     0.020 A 
ATOM     86  C   UNL A   1      39.592  35.465  39.886  1.00  0.00     0.054 A 
BRANCH  86  87
ATOM     87  S   UNL A   1      39.398  36.474  41.380  1.00  0.00     0.124 S 
ATOM     88  O   UNL A   1      38.862  37.719  40.837  1.00  0.00    -0.237 OA
ATOM     89  O   UNL A   1      38.467  35.686  42.183  1.00  0.00    -0.237 OA
ATOM     90  O   UNL A   1      40.754  36.562  41.917  1.00  0.00    -0.744 OA
ENDBRANCH  86  87
ENDBRANCH  60  81
ENDBRANCH  34  35
ENDBRANCH  26  29
ENDBRANCH  24  25
ENDBRANCH  23  24
ENDBRANCH   1  23
TORSDOF 18
ENDMDL
