MODEL 1
REMARK VINA RESULT:     -12.2      0.000      0.000
REMARK SMILES O=C(NCCCNC(=O)[C@H]1C[C@H](O)CN1C(=O)/C=C/c1c(F)cccc1Cl)c1ccc(-c2c3nc(c(-c4ccc(S(=O)(=O)[O-])cc4)c4ccc([nH]4)c(-c4ccc(S(=O)(=O)[O-])cc4)c4nc(c(-c5ccc(S(=O)(=O)[O-])cc5)c5ccc2[nH]5)C=C4)C=C3)cc1
REMARK SMILES IDX 5 1 4 2 3 3 1 4 2 5 28 7 29 8 87 9 30 10 86 11 31 12 32 13
REMARK SMILES IDX 33 14 80 15 34 16 85 17 79 18 81 19 35 20 84 21 78 22 77 23
REMARK SMILES IDX 36 25 66 26 47 27 65 28 48 29 51 30 64 31 82 32 49 33 50 34
REMARK SMILES IDX 63 36 83 37 52 38 37 39 38 40 46 41 39 42 45 43 40 44 41 45
REMARK SMILES IDX 42 46 43 47 44 48 67 49 68 50 76 51 69 52 75 53 70 54 71 55
REMARK SMILES IDX 72 56 73 57 74 58 53 59 54 60 62 61 55 62 61 63 56 64 57 65
REMARK SMILES IDX 58 66 59 67 60 68 6 69 7 70 8 71 9 73 10 74 11 75 15 76
REMARK SMILES IDX 12 77 14 78 16 79 17 80 18 81 19 82 20 83 21 84 26 85 22 86
REMARK SMILES IDX 23 87 25 88 27 89 24 90 13 91
REMARK H PARENT 3 6 81 24 51 35 7 72 13 92
REMARK Flexibility Score: inf
ROOT
ATOM      1  C   UNL A   1      39.233  22.280  26.520  1.00  0.00     0.042 C 
ENDROOT
BRANCH   1   2
ATOM      2  C   UNL A   1      39.499  23.739  26.850  1.00  0.00     0.118 C 
BRANCH   2   3
ATOM      3  N   UNL A   1      40.527  24.317  25.991  1.00  0.00    -0.352 N 
ATOM      4  O   UNL A   1      41.783  25.943  25.072  1.00  0.00    -0.269 OA
ATOM      5  C   UNL A   1      41.123  25.553  26.034  1.00  0.00     0.251 C 
ATOM      6  H   UNL A   1      40.842  23.728  25.267  1.00  0.00     0.163 HD
BRANCH   5   7
ATOM      7  C   UNL A   1      40.964  26.414  27.224  1.00  0.00     0.039 A 
ATOM      8  C   UNL A   1      41.604  27.651  27.290  1.00  0.00     0.014 A 
ATOM      9  C   UNL A   1      40.144  25.998  28.278  1.00  0.00     0.014 A 
ATOM     10  C   UNL A   1      41.577  28.384  28.465  1.00  0.00     0.010 A 
ATOM     11  C   UNL A   1      40.013  26.801  29.414  1.00  0.00     0.010 A 
ATOM     12  C   UNL A   1      40.751  27.989  29.528  1.00  0.00    -0.014 A 
BRANCH  12  13
ATOM     13  C   UNL A   1      40.613  28.893  30.697  1.00  0.00     0.031 A 
ATOM     14  C   UNL A   1      41.530  28.788  31.883  1.00  0.00     0.074 A 
ATOM     15  C   UNL A   1      39.653  29.839  30.658  1.00  0.00     0.049 A 
ATOM     16  N   UNL A   1      41.544  29.514  32.972  1.00  0.00    -0.248 NA
ATOM     17  C   UNL A   1      42.554  27.733  31.852  1.00  0.00     0.031 C 
ATOM     18  C   UNL A   1      38.698  30.026  29.559  1.00  0.00     0.029 A 
ATOM     19  N   UNL A   1      39.331  30.834  31.545  1.00  0.00    -0.354 N 
ATOM     20  C   UNL A   1      42.557  28.990  33.767  1.00  0.00     0.074 A 
ATOM     21  C   UNL A   1      43.121  27.871  33.044  1.00  0.00     0.031 C 
ATOM     22  C   UNL A   1      37.939  31.102  29.810  1.00  0.00     0.029 A 
ATOM     23  C   UNL A   1      38.293  31.630  31.121  1.00  0.00     0.049 A 
ATOM     24  H   UNL A   1      39.798  30.965  32.401  1.00  0.00     0.167 HD
ATOM     25  C   UNL A   1      42.975  29.407  34.987  1.00  0.00     0.031 A 
ATOM     26  C   UNL A   1      37.669  32.656  31.726  1.00  0.00     0.031 A 
ATOM     27  C   UNL A   1      42.401  30.523  35.696  1.00  0.00     0.049 A 
ATOM     28  C   UNL A   1      38.133  33.079  33.087  1.00  0.00     0.074 A 
ATOM     29  C   UNL A   1      42.773  31.047  36.923  1.00  0.00     0.029 A 
ATOM     30  N   UNL A   1      41.329  31.283  35.247  1.00  0.00    -0.354 N 
ATOM     31  N   UNL A   1      39.116  32.591  33.807  1.00  0.00    -0.248 NA
ATOM     32  C   UNL A   1      37.409  34.188  33.718  1.00  0.00     0.031 C 
ATOM     33  C   UNL A   1      41.890  32.083  37.242  1.00  0.00     0.029 A 
ATOM     34  C   UNL A   1      41.008  32.251  36.186  1.00  0.00     0.049 A 
ATOM     35  H   UNL A   1      40.866  31.154  34.389  1.00  0.00     0.167 HD
ATOM     36  C   UNL A   1      39.136  33.343  34.974  1.00  0.00     0.074 A 
ATOM     37  C   UNL A   1      38.084  34.332  34.851  1.00  0.00     0.031 C 
ATOM     38  C   UNL A   1      39.950  33.221  36.051  1.00  0.00     0.031 A 
BRANCH  25  39
ATOM     39  C   UNL A   1      44.081  28.628  35.653  1.00  0.00    -0.014 A 
ATOM     40  C   UNL A   1      43.806  27.581  36.550  1.00  0.00     0.010 A 
ATOM     41  C   UNL A   1      45.422  28.924  35.342  1.00  0.00     0.010 A 
ATOM     42  C   UNL A   1      44.850  26.877  37.160  1.00  0.00     0.020 A 
ATOM     43  C   UNL A   1      46.468  28.204  35.926  1.00  0.00     0.020 A 
ATOM     44  C   UNL A   1      46.175  27.197  36.848  1.00  0.00     0.054 A 
BRANCH  44  45
ATOM     45  S   UNL A   1      47.508  26.263  37.648  1.00  0.00     0.124 S 
ATOM     46  O   UNL A   1      47.048  24.885  37.487  1.00  0.00    -0.237 OA
ATOM     47  O   UNL A   1      48.679  26.630  36.855  1.00  0.00    -0.237 OA
ATOM     48  O   UNL A   1      47.508  26.763  39.021  1.00  0.00    -0.744 OA
ENDBRANCH  44  45
ENDBRANCH  25  39
BRANCH  26  49
ATOM     49  C   UNL A   1      36.521  33.318  31.051  1.00  0.00    -0.014 A 
ATOM     50  C   UNL A   1      35.279  33.440  31.694  1.00  0.00     0.010 A 
ATOM     51  C   UNL A   1      36.687  33.877  29.769  1.00  0.00     0.010 A 
ATOM     52  C   UNL A   1      34.219  34.101  31.064  1.00  0.00     0.020 A 
ATOM     53  C   UNL A   1      35.642  34.564  29.149  1.00  0.00     0.020 A 
ATOM     54  C   UNL A   1      34.410  34.662  29.797  1.00  0.00     0.054 A 
BRANCH  54  55
ATOM     55  S   UNL A   1      33.040  35.567  29.024  1.00  0.00     0.124 S 
ATOM     56  O   UNL A   1      32.281  36.015  30.186  1.00  0.00    -0.237 OA
ATOM     57  O   UNL A   1      33.735  36.614  28.278  1.00  0.00    -0.237 OA
ATOM     58  O   UNL A   1      32.386  34.555  28.198  1.00  0.00    -0.744 OA
ENDBRANCH  54  55
ENDBRANCH  26  49
BRANCH  38  59
ATOM     59  C   UNL A   1      39.749  34.204  37.173  1.00  0.00    -0.014 A 
ATOM     60  C   UNL A   1      38.949  33.886  38.285  1.00  0.00     0.010 A 
ATOM     61  C   UNL A   1      40.405  35.448  37.130  1.00  0.00     0.010 A 
ATOM     62  C   UNL A   1      38.782  34.809  39.320  1.00  0.00     0.020 A 
ATOM     63  C   UNL A   1      40.265  36.360  38.177  1.00  0.00     0.020 A 
ATOM     64  C   UNL A   1      39.442  36.041  39.260  1.00  0.00     0.054 A 
BRANCH  64  65
ATOM     65  S   UNL A   1      39.245  37.205  40.636  1.00  0.00     0.124 S 
ATOM     66  O   UNL A   1      38.318  38.184  40.075  1.00  0.00    -0.237 OA
ATOM     67  O   UNL A   1      38.699  36.359  41.695  1.00  0.00    -0.237 OA
ATOM     68  O   UNL A   1      40.601  37.695  40.872  1.00  0.00    -0.744 OA
ENDBRANCH  64  65
ENDBRANCH  38  59
ENDBRANCH  12  13
ENDBRANCH   5   7
ENDBRANCH   2   3
ENDBRANCH   1   2
BRANCH   1  69
ATOM     69  C   UNL A   1      37.969  22.086  25.701  1.00  0.00     0.117 C 
BRANCH  69  70
ATOM     70  N   UNL A   1      36.800  22.663  26.340  1.00  0.00    -0.354 N 
ATOM     71  C   UNL A   1      35.468  22.606  26.086  1.00  0.00     0.242 C 
ATOM     72  H   UNL A   1      37.021  23.215  27.126  1.00  0.00     0.163 HD
ATOM     73  O   UNL A   1      34.743  23.203  26.896  1.00  0.00    -0.273 OA
BRANCH  71  74
ATOM     74  C   UNL A   1      34.832  22.012  24.806  1.00  0.00     0.177 C 
ATOM     75  C   UNL A   1      34.327  20.598  25.104  1.00  0.00     0.069 C 
ATOM     76  N   UNL A   1      33.686  22.687  24.202  1.00  0.00    -0.324 N 
ATOM     77  C   UNL A   1      32.849  20.807  25.399  1.00  0.00     0.136 C 
ATOM     78  C   UNL A   1      32.459  21.937  24.447  1.00  0.00     0.152 C 
BRANCH  76  79
ATOM     79  C   UNL A   1      33.885  23.871  23.531  1.00  0.00     0.247 C 
ATOM     80  O   UNL A   1      34.697  23.965  22.609  1.00  0.00    -0.270 OA
BRANCH  79  81
ATOM     81  C   UNL A   1      33.274  25.134  24.034  1.00  0.00     0.072 C 
ATOM     82  C   UNL A   1      33.786  26.001  24.916  1.00  0.00     0.018 C 
BRANCH  82  83
ATOM     83  C   UNL A   1      33.111  27.252  25.302  1.00  0.00     0.029 A 
ATOM     84  C   UNL A   1      32.339  27.313  26.469  1.00  0.00     0.131 A 
ATOM     85  C   UNL A   1      33.278  28.436  24.563  1.00  0.00     0.051 A 
ATOM     86  F   UNL A   1      32.145  26.212  27.210  1.00  0.00    -0.206 F 
ATOM     87  C   UNL A   1      31.773  28.509  26.908  1.00  0.00     0.040 A 
ATOM     88  C   UNL A   1      32.712  29.640  25.000  1.00  0.00     0.021 A 
ATOM     89  Cl  UNL A   1      34.171  28.464  23.079  1.00  0.00    -0.084 Cl
ATOM     90  C   UNL A   1      31.968  29.679  26.178  1.00  0.00     0.005 A 
ENDBRANCH  82  83
ENDBRANCH  79  81
ENDBRANCH  76  79
BRANCH  77  91
ATOM     91  O   UNL A   1      32.105  19.621  25.180  1.00  0.00    -0.391 OA
ATOM     92  H   UNL A   1      32.604  19.031  24.592  1.00  0.00     0.211 HD
ENDBRANCH  77  91
ENDBRANCH  71  74
ENDBRANCH  69  70
ENDBRANCH   1  69
TORSDOF 17
ENDMDL
MODEL 2
REMARK VINA RESULT:     -12.1      3.910      5.893
REMARK SMILES O=C(NCCCNC(=O)[C@H]1C[C@H](O)CN1C(=O)/C=C/c1c(F)cccc1Cl)c1ccc(-c2c3nc(c(-c4ccc(S(=O)(=O)[O-])cc4)c4ccc([nH]4)c(-c4ccc(S(=O)(=O)[O-])cc4)c4nc(c(-c5ccc(S(=O)(=O)[O-])cc5)c5ccc2[nH]5)C=C4)C=C3)cc1
REMARK SMILES IDX 5 1 4 2 3 3 1 4 2 5 28 7 29 8 87 9 30 10 86 11 31 12 32 13
REMARK SMILES IDX 33 14 80 15 34 16 85 17 79 18 81 19 35 20 84 21 78 22 77 23
REMARK SMILES IDX 36 25 66 26 47 27 65 28 48 29 51 30 64 31 82 32 49 33 50 34
REMARK SMILES IDX 63 36 83 37 52 38 37 39 38 40 46 41 39 42 45 43 40 44 41 45
REMARK SMILES IDX 42 46 43 47 44 48 67 49 68 50 76 51 69 52 75 53 70 54 71 55
REMARK SMILES IDX 72 56 73 57 74 58 53 59 54 60 62 61 55 62 61 63 56 64 57 65
REMARK SMILES IDX 58 66 59 67 60 68 6 69 7 70 8 71 9 73 10 74 11 75 15 76
REMARK SMILES IDX 12 77 14 78 16 79 17 80 18 81 19 82 20 83 21 84 26 85 22 86
REMARK SMILES IDX 23 87 25 88 27 89 24 90 13 91
REMARK H PARENT 3 6 81 24 51 35 7 72 13 92
REMARK Flexibility Score: inf
ROOT
ATOM      1  C   UNL A   1      40.151  21.842  27.099  1.00  0.00     0.042 C 
ENDROOT
BRANCH   1   2
ATOM      2  C   UNL A   1      40.262  23.326  27.408  1.00  0.00     0.118 C 
BRANCH   2   3
ATOM      3  N   UNL A   1      40.820  24.078  26.289  1.00  0.00    -0.352 N 
ATOM      4  O   UNL A   1      41.263  25.890  25.030  1.00  0.00    -0.269 OA
ATOM      5  C   UNL A   1      41.016  25.430  26.143  1.00  0.00     0.251 C 
ATOM      6  H   UNL A   1      41.098  23.532  25.519  1.00  0.00     0.163 HD
BRANCH   5   7
ATOM      7  C   UNL A   1      40.919  26.326  27.313  1.00  0.00     0.039 A 
ATOM      8  C   UNL A   1      39.918  26.136  28.265  1.00  0.00     0.014 A 
ATOM      9  C   UNL A   1      41.855  27.351  27.483  1.00  0.00     0.014 A 
ATOM     10  C   UNL A   1      39.736  27.066  29.276  1.00  0.00     0.010 A 
ATOM     11  C   UNL A   1      41.748  28.214  28.577  1.00  0.00     0.010 A 
ATOM     12  C   UNL A   1      40.671  28.095  29.468  1.00  0.00    -0.014 A 
BRANCH  12  13
ATOM     13  C   UNL A   1      40.540  28.962  30.666  1.00  0.00     0.031 A 
ATOM     14  C   UNL A   1      41.433  28.788  31.862  1.00  0.00     0.074 A 
ATOM     15  C   UNL A   1      39.610  29.938  30.644  1.00  0.00     0.049 A 
ATOM     16  N   UNL A   1      41.451  29.475  32.976  1.00  0.00    -0.248 NA
ATOM     17  C   UNL A   1      42.424  27.702  31.811  1.00  0.00     0.031 C 
ATOM     18  C   UNL A   1      38.681  30.192  29.537  1.00  0.00     0.029 A 
ATOM     19  N   UNL A   1      39.304  30.911  31.559  1.00  0.00    -0.354 N 
ATOM     20  C   UNL A   1      42.433  28.893  33.768  1.00  0.00     0.074 A 
ATOM     21  C   UNL A   1      42.975  27.782  33.015  1.00  0.00     0.031 C 
ATOM     22  C   UNL A   1      37.951  31.282  29.813  1.00  0.00     0.029 A 
ATOM     23  C   UNL A   1      38.298  31.754  31.147  1.00  0.00     0.049 A 
ATOM     24  H   UNL A   1      39.760  30.998  32.427  1.00  0.00     0.167 HD
ATOM     25  C   UNL A   1      42.843  29.255  35.009  1.00  0.00     0.031 A 
ATOM     26  C   UNL A   1      37.696  32.777  31.778  1.00  0.00     0.031 A 
ATOM     27  C   UNL A   1      42.291  30.363  35.746  1.00  0.00     0.049 A 
ATOM     28  C   UNL A   1      38.149  33.138  33.160  1.00  0.00     0.074 A 
ATOM     29  C   UNL A   1      42.658  30.833  36.996  1.00  0.00     0.029 A 
ATOM     30  N   UNL A   1      41.251  31.171  35.307  1.00  0.00    -0.354 N 
ATOM     31  N   UNL A   1      39.104  32.596  33.878  1.00  0.00    -0.248 NA
ATOM     32  C   UNL A   1      37.449  34.248  33.816  1.00  0.00     0.031 C 
ATOM     33  C   UNL A   1      41.802  31.885  37.337  1.00  0.00     0.029 A 
ATOM     34  C   UNL A   1      40.944  32.115  36.274  1.00  0.00     0.049 A 
ATOM     35  H   UNL A   1      40.799  31.086  34.437  1.00  0.00     0.167 HD
ATOM     36  C   UNL A   1      39.127  33.306  35.070  1.00  0.00     0.074 A 
ATOM     37  C   UNL A   1      38.108  34.332  34.965  1.00  0.00     0.031 C 
ATOM     38  C   UNL A   1      39.918  33.123  36.155  1.00  0.00     0.031 A 
BRANCH  25  39
ATOM     39  C   UNL A   1      43.913  28.419  35.664  1.00  0.00    -0.014 A 
ATOM     40  C   UNL A   1      43.623  27.164  36.228  1.00  0.00     0.010 A 
ATOM     41  C   UNL A   1      45.242  28.883  35.680  1.00  0.00     0.010 A 
ATOM     42  C   UNL A   1      44.632  26.410  36.836  1.00  0.00     0.020 A 
ATOM     43  C   UNL A   1      46.259  28.119  36.261  1.00  0.00     0.020 A 
ATOM     44  C   UNL A   1      45.944  26.896  36.854  1.00  0.00     0.054 A 
BRANCH  44  45
ATOM     45  S   UNL A   1      47.233  25.894  37.644  1.00  0.00     0.124 S 
ATOM     46  O   UNL A   1      47.079  26.262  39.051  1.00  0.00    -0.237 OA
ATOM     47  O   UNL A   1      46.834  24.530  37.306  1.00  0.00    -0.237 OA
ATOM     48  O   UNL A   1      48.467  26.354  37.013  1.00  0.00    -0.744 OA
ENDBRANCH  44  45
ENDBRANCH  25  39
BRANCH  26  49
ATOM     49  C   UNL A   1      36.581  33.497  31.107  1.00  0.00    -0.014 A 
ATOM     50  C   UNL A   1      36.702  33.941  29.780  1.00  0.00     0.010 A 
ATOM     51  C   UNL A   1      35.363  33.699  31.787  1.00  0.00     0.010 A 
ATOM     52  C   UNL A   1      35.632  34.581  29.148  1.00  0.00     0.020 A 
ATOM     53  C   UNL A   1      34.282  34.309  31.150  1.00  0.00     0.020 A 
ATOM     54  C   UNL A   1      34.427  34.757  29.837  1.00  0.00     0.054 A 
BRANCH  54  55
ATOM     55  S   UNL A   1      33.032  35.535  28.977  1.00  0.00     0.124 S 
ATOM     56  O   UNL A   1      32.510  34.428  28.185  1.00  0.00    -0.237 OA
ATOM     57  O   UNL A   1      32.187  35.978  30.083  1.00  0.00    -0.237 OA
ATOM     58  O   UNL A   1      33.660  36.612  28.213  1.00  0.00    -0.744 OA
ENDBRANCH  54  55
ENDBRANCH  26  49
BRANCH  38  59
ATOM     59  C   UNL A   1      39.729  34.072  37.308  1.00  0.00    -0.014 A 
ATOM     60  C   UNL A   1      39.007  33.692  38.454  1.00  0.00     0.010 A 
ATOM     61  C   UNL A   1      40.316  35.350  37.256  1.00  0.00     0.010 A 
ATOM     62  C   UNL A   1      38.850  34.585  39.516  1.00  0.00     0.020 A 
ATOM     63  C   UNL A   1      40.185  36.234  38.329  1.00  0.00     0.020 A 
ATOM     64  C   UNL A   1      39.441  35.851  39.447  1.00  0.00     0.054 A 
BRANCH  64  65
ATOM     65  S   UNL A   1      39.259  36.977  40.856  1.00  0.00     0.124 S 
ATOM     66  O   UNL A   1      38.617  36.121  41.849  1.00  0.00    -0.237 OA
ATOM     67  O   UNL A   1      40.641  37.350  41.148  1.00  0.00    -0.237 OA
ATOM     68  O   UNL A   1      38.425  38.057  40.331  1.00  0.00    -0.744 OA
ENDBRANCH  64  65
ENDBRANCH  38  59
ENDBRANCH  12  13
ENDBRANCH   5   7
ENDBRANCH   2   3
ENDBRANCH   1   2
BRANCH   1  69
ATOM     69  C   UNL A   1      41.411  21.075  27.459  1.00  0.00     0.117 C 
BRANCH  69  70
ATOM     70  N   UNL A   1      41.549  19.847  26.698  1.00  0.00    -0.354 N 
ATOM     71  C   UNL A   1      42.598  19.227  26.097  1.00  0.00     0.242 C 
ATOM     72  H   UNL A   1      40.700  19.357  26.596  1.00  0.00     0.163 HD
ATOM     73  O   UNL A   1      42.341  18.137  25.566  1.00  0.00    -0.273 OA
BRANCH  71  74
ATOM     74  C   UNL A   1      43.999  19.851  25.893  1.00  0.00     0.177 C 
ATOM     75  C   UNL A   1      44.939  18.797  25.304  1.00  0.00     0.069 C 
ATOM     76  N   UNL A   1      44.142  21.002  25.005  1.00  0.00    -0.324 N 
ATOM     77  C   UNL A   1      44.903  19.089  23.810  1.00  0.00     0.136 C 
ATOM     78  C   UNL A   1      44.785  20.611  23.755  1.00  0.00     0.152 C 
BRANCH  76  79
ATOM     79  C   UNL A   1      43.677  22.229  25.419  1.00  0.00     0.247 C 
ATOM     80  O   UNL A   1      42.906  22.896  24.729  1.00  0.00    -0.270 OA
BRANCH  79  81
ATOM     81  C   UNL A   1      44.256  22.885  26.625  1.00  0.00     0.072 C 
ATOM     82  C   UNL A   1      44.332  24.195  26.892  1.00  0.00     0.018 C 
BRANCH  82  83
ATOM     83  C   UNL A   1      44.881  24.731  28.149  1.00  0.00     0.029 A 
ATOM     84  C   UNL A   1      44.086  24.803  29.300  1.00  0.00     0.131 A 
ATOM     85  C   UNL A   1      46.229  25.114  28.259  1.00  0.00     0.051 A 
ATOM     86  F   UNL A   1      42.791  24.453  29.250  1.00  0.00    -0.206 F 
ATOM     87  C   UNL A   1      44.609  25.212  30.526  1.00  0.00     0.040 A 
ATOM     88  C   UNL A   1      46.760  25.524  29.488  1.00  0.00     0.021 A 
ATOM     89  Cl  UNL A   1      47.290  25.111  26.891  1.00  0.00    -0.084 Cl
ATOM     90  C   UNL A   1      45.952  25.564  30.624  1.00  0.00     0.005 A 
ENDBRANCH  82  83
ENDBRANCH  79  81
ENDBRANCH  76  79
BRANCH  77  91
ATOM     91  O   UNL A   1      46.065  18.602  23.161  1.00  0.00    -0.391 OA
ATOM     92  H   UNL A   1      46.060  18.888  22.234  1.00  0.00     0.211 HD
ENDBRANCH  77  91
ENDBRANCH  71  74
ENDBRANCH  69  70
ENDBRANCH   1  69
TORSDOF 17
ENDMDL
MODEL 3
REMARK VINA RESULT:     -11.9      5.349     11.652
REMARK SMILES O=C(NCCCNC(=O)[C@H]1C[C@H](O)CN1C(=O)/C=C/c1c(F)cccc1Cl)c1ccc(-c2c3nc(c(-c4ccc(S(=O)(=O)[O-])cc4)c4ccc([nH]4)c(-c4ccc(S(=O)(=O)[O-])cc4)c4nc(c(-c5ccc(S(=O)(=O)[O-])cc5)c5ccc2[nH]5)C=C4)C=C3)cc1
REMARK SMILES IDX 5 1 4 2 3 3 1 4 2 5 28 7 29 8 87 9 30 10 86 11 31 12 32 13
REMARK SMILES IDX 33 14 80 15 34 16 85 17 79 18 81 19 35 20 84 21 78 22 77 23
REMARK SMILES IDX 36 25 66 26 47 27 65 28 48 29 51 30 64 31 82 32 49 33 50 34
REMARK SMILES IDX 63 36 83 37 52 38 37 39 38 40 46 41 39 42 45 43 40 44 41 45
REMARK SMILES IDX 42 46 43 47 44 48 67 49 68 50 76 51 69 52 75 53 70 54 71 55
REMARK SMILES IDX 72 56 73 57 74 58 53 59 54 60 62 61 55 62 61 63 56 64 57 65
REMARK SMILES IDX 58 66 59 67 60 68 6 69 7 70 8 71 9 73 10 74 11 75 15 76
REMARK SMILES IDX 12 77 14 78 16 79 17 80 18 81 19 82 20 83 21 84 26 85 22 86
REMARK SMILES IDX 23 87 25 88 27 89 24 90 13 91
REMARK H PARENT 3 6 81 24 51 35 7 72 13 92
REMARK Flexibility Score: inf
ROOT
ATOM      1  C   UNL A   1      34.761  33.659  27.809  1.00  0.00     0.042 C 
ENDROOT
BRANCH   1   2
ATOM      2  C   UNL A   1      34.767  32.619  28.916  1.00  0.00     0.118 C 
BRANCH   2   3
ATOM      3  N   UNL A   1      34.089  31.390  28.517  1.00  0.00    -0.352 N 
ATOM      4  O   UNL A   1      33.884  29.339  27.612  1.00  0.00    -0.269 OA
ATOM      5  C   UNL A   1      34.608  30.170  28.157  1.00  0.00     0.251 C 
ATOM      6  H   UNL A   1      33.106  31.444  28.502  1.00  0.00     0.163 HD
BRANCH   5   7
ATOM      7  C   UNL A   1      36.030  29.862  28.415  1.00  0.00     0.039 A 
ATOM      8  C   UNL A   1      36.989  30.087  27.427  1.00  0.00     0.014 A 
ATOM      9  C   UNL A   1      36.420  29.371  29.664  1.00  0.00     0.014 A 
ATOM     10  C   UNL A   1      38.292  29.655  27.616  1.00  0.00     0.010 A 
ATOM     11  C   UNL A   1      37.761  29.057  29.899  1.00  0.00     0.010 A 
ATOM     12  C   UNL A   1      38.704  29.171  28.866  1.00  0.00    -0.014 A 
BRANCH  12  13
ATOM     13  C   UNL A   1      40.145  28.888  29.081  1.00  0.00     0.031 A 
ATOM     14  C   UNL A   1      40.758  27.579  28.671  1.00  0.00     0.074 A 
ATOM     15  C   UNL A   1      40.907  29.855  29.633  1.00  0.00     0.049 A 
ATOM     16  N   UNL A   1      42.002  27.189  28.779  1.00  0.00    -0.248 NA
ATOM     17  C   UNL A   1      39.864  26.575  28.074  1.00  0.00     0.031 C 
ATOM     18  C   UNL A   1      40.414  31.164  30.079  1.00  0.00     0.029 A 
ATOM     19  N   UNL A   1      42.251  29.904  29.894  1.00  0.00    -0.354 N 
ATOM     20  C   UNL A   1      42.039  25.888  28.290  1.00  0.00     0.074 A 
ATOM     21  C   UNL A   1      40.687  25.548  27.903  1.00  0.00     0.031 C 
ATOM     22  C   UNL A   1      41.447  31.904  30.503  1.00  0.00     0.029 A 
ATOM     23  C   UNL A   1      42.660  31.098  30.440  1.00  0.00     0.049 A 
ATOM     24  H   UNL A   1      42.865  29.157  29.709  1.00  0.00     0.167 HD
ATOM     25  C   UNL A   1      43.105  25.059  28.174  1.00  0.00     0.031 A 
ATOM     26  C   UNL A   1      43.868  31.499  30.872  1.00  0.00     0.031 A 
ATOM     27  C   UNL A   1      44.446  25.413  28.567  1.00  0.00     0.049 A 
ATOM     28  C   UNL A   1      45.024  30.551  30.759  1.00  0.00     0.074 A 
ATOM     29  C   UNL A   1      45.601  24.656  28.461  1.00  0.00     0.029 A 
ATOM     30  N   UNL A   1      44.812  26.619  29.146  1.00  0.00    -0.354 N 
ATOM     31  N   UNL A   1      45.043  29.337  30.261  1.00  0.00    -0.248 NA
ATOM     32  C   UNL A   1      46.319  31.024  31.262  1.00  0.00     0.031 C 
ATOM     33  C   UNL A   1      46.652  25.381  29.030  1.00  0.00     0.029 A 
ATOM     34  C   UNL A   1      46.168  26.616  29.431  1.00  0.00     0.049 A 
ATOM     35  H   UNL A   1      44.199  27.367  29.327  1.00  0.00     0.167 HD
ATOM     36  C   UNL A   1      46.357  28.903  30.381  1.00  0.00     0.074 A 
ATOM     37  C   UNL A   1      47.104  29.994  30.974  1.00  0.00     0.031 C 
ATOM     38  C   UNL A   1      46.893  27.708  30.033  1.00  0.00     0.031 A 
BRANCH  25  39
ATOM     39  C   UNL A   1      42.857  23.671  27.639  1.00  0.00    -0.014 A 
ATOM     40  C   UNL A   1      42.975  23.380  26.269  1.00  0.00     0.010 A 
ATOM     41  C   UNL A   1      42.538  22.630  28.532  1.00  0.00     0.010 A 
ATOM     42  C   UNL A   1      42.735  22.085  25.795  1.00  0.00     0.020 A 
ATOM     43  C   UNL A   1      42.325  21.329  28.067  1.00  0.00     0.020 A 
ATOM     44  C   UNL A   1      42.405  21.069  26.698  1.00  0.00     0.054 A 
BRANCH  44  45
ATOM     45  S   UNL A   1      42.104  19.399  26.057  1.00  0.00     0.124 S 
ATOM     46  O   UNL A   1      40.655  19.407  25.865  1.00  0.00    -0.237 OA
ATOM     47  O   UNL A   1      42.898  19.376  24.831  1.00  0.00    -0.237 OA
ATOM     48  O   UNL A   1      42.585  18.524  27.124  1.00  0.00    -0.744 OA
ENDBRANCH  44  45
ENDBRANCH  25  39
BRANCH  26  49
ATOM     49  C   UNL A   1      44.021  32.849  31.478  1.00  0.00    -0.014 A 
ATOM     50  C   UNL A   1      44.437  33.944  30.704  1.00  0.00     0.010 A 
ATOM     51  C   UNL A   1      43.698  33.052  32.834  1.00  0.00     0.010 A 
ATOM     52  C   UNL A   1      44.537  35.216  31.276  1.00  0.00     0.020 A 
ATOM     53  C   UNL A   1      43.766  34.325  33.401  1.00  0.00     0.020 A 
ATOM     54  C   UNL A   1      44.197  35.398  32.620  1.00  0.00     0.054 A 
BRANCH  54  55
ATOM     55  S   UNL A   1      44.276  37.068  33.326  1.00  0.00     0.124 S 
ATOM     56  O   UNL A   1      44.319  37.900  32.129  1.00  0.00    -0.237 OA
ATOM     57  O   UNL A   1      43.042  37.140  34.104  1.00  0.00    -0.237 OA
ATOM     58  O   UNL A   1      45.503  37.045  34.120  1.00  0.00    -0.744 OA
ENDBRANCH  54  55
ENDBRANCH  26  49
BRANCH  38  59
ATOM     59  C   UNL A   1      48.370  27.529  30.264  1.00  0.00    -0.014 A 
ATOM     60  C   UNL A   1      48.856  26.938  31.444  1.00  0.00     0.010 A 
ATOM     61  C   UNL A   1      49.280  27.923  29.266  1.00  0.00     0.010 A 
ATOM     62  C   UNL A   1      50.230  26.773  31.636  1.00  0.00     0.020 A 
ATOM     63  C   UNL A   1      50.652  27.732  29.442  1.00  0.00     0.020 A 
ATOM     64  C   UNL A   1      51.119  27.171  30.632  1.00  0.00     0.054 A 
BRANCH  64  65
ATOM     65  S   UNL A   1      52.895  26.908  30.886  1.00  0.00     0.124 S 
ATOM     66  O   UNL A   1      52.907  25.962  31.998  1.00  0.00    -0.237 OA
ATOM     67  O   UNL A   1      53.325  26.367  29.598  1.00  0.00    -0.237 OA
ATOM     68  O   UNL A   1      53.402  28.242  31.196  1.00  0.00    -0.744 OA
ENDBRANCH  64  65
ENDBRANCH  38  59
ENDBRANCH  12  13
ENDBRANCH   5   7
ENDBRANCH   2   3
ENDBRANCH   1   2
BRANCH   1  69
ATOM     69  C   UNL A   1      34.480  35.059  28.325  1.00  0.00     0.117 C 
BRANCH  69  70
ATOM     70  N   UNL A   1      33.343  35.101  29.226  1.00  0.00    -0.354 N 
ATOM     71  C   UNL A   1      33.202  35.378  30.548  1.00  0.00     0.242 C 
ATOM     72  H   UNL A   1      32.490  34.881  28.783  1.00  0.00     0.163 HD
ATOM     73  O   UNL A   1      32.038  35.362  30.976  1.00  0.00    -0.273 OA
BRANCH  71  74
ATOM     74  C   UNL A   1      34.369  35.538  31.551  1.00  0.00     0.177 C 
ATOM     75  C   UNL A   1      34.432  36.992  32.023  1.00  0.00     0.069 C 
ATOM     76  N   UNL A   1      34.359  34.756  32.784  1.00  0.00    -0.324 N 
ATOM     77  C   UNL A   1      33.675  36.966  33.344  1.00  0.00     0.136 C 
ATOM     78  C   UNL A   1      34.041  35.602  33.929  1.00  0.00     0.152 C 
BRANCH  76  79
ATOM     79  C   UNL A   1      34.621  33.406  32.723  1.00  0.00     0.247 C 
ATOM     80  O   UNL A   1      33.753  32.591  32.408  1.00  0.00    -0.270 OA
BRANCH  79  81
ATOM     81  C   UNL A   1      35.910  32.866  33.238  1.00  0.00     0.072 C 
ATOM     82  C   UNL A   1      36.942  32.385  32.532  1.00  0.00     0.018 C 
BRANCH  82  83
ATOM     83  C   UNL A   1      38.196  31.924  33.150  1.00  0.00     0.029 A 
ATOM     84  C   UNL A   1      38.434  30.557  33.343  1.00  0.00     0.131 A 
ATOM     85  C   UNL A   1      39.221  32.822  33.495  1.00  0.00     0.051 A 
ATOM     86  F   UNL A   1      37.488  29.656  33.034  1.00  0.00    -0.206 F 
ATOM     87  C   UNL A   1      39.652  30.088  33.833  1.00  0.00     0.040 A 
ATOM     88  C   UNL A   1      40.447  32.357  33.987  1.00  0.00     0.021 A 
ATOM     89  Cl  UNL A   1      39.017  34.535  33.345  1.00  0.00    -0.084 Cl
ATOM     90  C   UNL A   1      40.666  30.989  34.147  1.00  0.00     0.005 A 
ENDBRANCH  82  83
ENDBRANCH  79  81
ENDBRANCH  76  79
BRANCH  77  91
ATOM     91  O   UNL A   1      34.058  38.044  34.180  1.00  0.00    -0.391 OA
ATOM     92  H   UNL A   1      33.848  37.828  35.102  1.00  0.00     0.211 HD
ENDBRANCH  77  91
ENDBRANCH  71  74
ENDBRANCH  69  70
ENDBRANCH   1  69
TORSDOF 17
ENDMDL
