MODEL 1
REMARK VINA RESULT:     -13.4      0.000      0.000
REMARK SMILES COC(=O)c1ccc(C)c2c1[C@H]1C=CC[C@H]1[C@@H](c1ccc(C(=O)NCCCNC(=O)c3ccc(-c4c5nc(c(-c6ccc(S(=O)(=O)[O-])cc6)c6ccc([nH]6)c(-c6ccc(S(=O)(=O)[O-])cc6)c6nc(c(-c7ccc(S(=O)(=O)[O-])cc7)c7ccc4[nH]7)C=C6)C=C5)cc3)cc1)N2
REMARK SMILES IDX 26 1 25 2 24 3 22 4 23 5 21 7 18 8 19 9 92 10 20 11 91 12
REMARK SMILES IDX 17 13 5 14 6 15 11 16 7 17 10 18 12 19 8 20 93 21 13 22
REMARK SMILES IDX 16 23 9 24 14 26 15 27 3 28 4 29 2 30 1 31 27 32 28 33 29 34
REMARK SMILES IDX 30 36 31 37 32 38 90 39 33 40 89 41 34 42 35 43 36 44 83 45
REMARK SMILES IDX 37 46 88 47 82 48 84 49 38 50 87 51 81 52 80 53 39 55 69 56
REMARK SMILES IDX 50 57 68 58 51 59 54 60 67 61 85 62 52 63 53 64 66 66 86 67
REMARK SMILES IDX 55 68 40 69 41 70 49 71 42 72 48 73 43 74 44 75 45 76 46 77
REMARK SMILES IDX 47 78 70 79 71 80 79 81 72 82 78 83 73 84 74 85 75 86 76 87
REMARK SMILES IDX 77 88 56 89 57 90 65 91 58 92 64 93 59 94 60 95 61 96 62 97
REMARK SMILES IDX 63 98
REMARK H PARENT 24 6 93 25 28 35 84 54 54 65
REMARK Flexibility Score: inf
ROOT
ATOM      1  C   UNL A   1      38.343  23.664  26.352  1.00  0.00     0.042 C 
ENDROOT
BRANCH   1   2
ATOM      2  C   UNL A   1      38.093  22.330  25.651  1.00  0.00     0.118 C 
BRANCH   2   3
ATOM      3  N   UNL A   1      37.629  22.549  24.300  1.00  0.00    -0.352 N 
ATOM      4  C   UNL A   1      36.447  23.027  23.805  1.00  0.00     0.251 C 
ATOM      5  O   UNL A   1      36.348  23.113  22.580  1.00  0.00    -0.269 OA
ATOM      6  H   UNL A   1      38.285  22.308  23.606  1.00  0.00     0.163 HD
BRANCH   4   7
ATOM      7  C   UNL A   1      35.317  23.479  24.663  1.00  0.00     0.039 A 
ATOM      8  C   UNL A   1      33.108  24.536  26.109  1.00  0.00    -0.025 A 
ATOM      9  C   UNL A   1      33.857  25.331  25.229  1.00  0.00     0.006 A 
ATOM     10  C   UNL A   1      33.521  23.210  26.285  1.00  0.00     0.006 A 
ATOM     11  C   UNL A   1      34.942  24.815  24.521  1.00  0.00     0.014 A 
ATOM     12  C   UNL A   1      34.582  22.681  25.542  1.00  0.00     0.014 A 
BRANCH   8  13
ATOM     13  C   UNL A   1      31.811  25.003  26.777  1.00  0.00     0.114 C 
ATOM     14  C   UNL A   1      30.784  28.093  24.032  1.00  0.00     0.065 A 
ATOM     15  C   UNL A   1      31.430  29.326  24.159  1.00  0.00     0.016 A 
ATOM     16  C   UNL A   1      30.915  27.102  25.031  1.00  0.00    -0.003 A 
ATOM     17  C   UNL A   1      32.187  29.599  25.292  1.00  0.00     0.006 A 
ATOM     18  C   UNL A   1      31.665  27.398  26.200  1.00  0.00     0.042 A 
ATOM     19  C   UNL A   1      30.287  25.732  24.852  1.00  0.00     0.050 C 
ATOM     20  C   UNL A   1      32.310  28.652  26.321  1.00  0.00    -0.028 A 
ATOM     21  N   UNL A   1      31.881  26.408  27.149  1.00  0.00    -0.377 N 
ATOM     22  C   UNL A   1      30.808  24.905  23.699  1.00  0.00    -0.023 C 
ATOM     23  C   UNL A   1      30.484  24.753  26.028  1.00  0.00     0.031 C 
ATOM     24  C   UNL A   1      33.187  29.034  27.486  1.00  0.00     0.046 C 
ATOM     25  H   UNL A   1      32.084  26.657  28.080  1.00  0.00     0.161 HD
ATOM     26  C   UNL A   1      30.832  23.600  23.998  1.00  0.00    -0.030 C 
ATOM     27  C   UNL A   1      30.360  23.357  25.394  1.00  0.00     0.034 C 
BRANCH  14  28
ATOM     28  C   UNL A   1      29.932  27.879  22.838  1.00  0.00     0.338 C 
ATOM     29  O   UNL A   1      30.360  27.660  21.718  1.00  0.00    -0.246 OA
BRANCH  28  30
ATOM     30  O   UNL A   1      28.629  27.991  23.198  1.00  0.00    -0.465 OA
ATOM     31  C   UNL A   1      28.002  29.177  22.704  1.00  0.00     0.282 C 
ENDBRANCH  28  30
ENDBRANCH  14  28
ENDBRANCH   8  13
ENDBRANCH   4   7
ENDBRANCH   2   3
ENDBRANCH   1   2
BRANCH   1  32
ATOM     32  C   UNL A   1      39.678  23.686  27.087  1.00  0.00     0.118 C 
BRANCH  32  33
ATOM     33  N   UNL A   1      40.745  24.149  26.211  1.00  0.00    -0.352 N 
ATOM     34  C   UNL A   1      41.268  25.409  26.089  1.00  0.00     0.251 C 
ATOM     35  H   UNL A   1      41.144  23.465  25.627  1.00  0.00     0.163 HD
ATOM     36  O   UNL A   1      41.907  25.717  25.088  1.00  0.00    -0.269 OA
BRANCH  34  37
ATOM     37  C   UNL A   1      41.073  26.378  27.183  1.00  0.00     0.039 A 
ATOM     38  C   UNL A   1      41.767  27.588  27.161  1.00  0.00     0.014 A 
ATOM     39  C   UNL A   1      40.229  26.054  28.251  1.00  0.00     0.014 A 
ATOM     40  C   UNL A   1      41.592  28.495  28.206  1.00  0.00     0.010 A 
ATOM     41  C   UNL A   1      40.012  26.981  29.260  1.00  0.00     0.010 A 
ATOM     42  C   UNL A   1      40.708  28.198  29.255  1.00  0.00    -0.014 A 
BRANCH  42  43
ATOM     43  C   UNL A   1      40.536  29.111  30.403  1.00  0.00     0.031 A 
ATOM     44  C   UNL A   1      41.412  28.942  31.610  1.00  0.00     0.074 A 
ATOM     45  C   UNL A   1      39.562  30.039  30.380  1.00  0.00     0.049 A 
ATOM     46  N   UNL A   1      41.358  29.565  32.758  1.00  0.00    -0.248 NA
ATOM     47  C   UNL A   1      42.477  27.927  31.524  1.00  0.00     0.031 C 
ATOM     48  C   UNL A   1      38.653  30.284  29.258  1.00  0.00     0.029 A 
ATOM     49  N   UNL A   1      39.170  30.941  31.334  1.00  0.00    -0.354 N 
ATOM     50  C   UNL A   1      42.373  29.016  33.530  1.00  0.00     0.074 A 
ATOM     51  C   UNL A   1      43.000  27.980  32.740  1.00  0.00     0.031 C 
ATOM     52  C   UNL A   1      37.820  31.286  29.584  1.00  0.00     0.029 A 
ATOM     53  C   UNL A   1      38.111  31.725  30.946  1.00  0.00     0.049 A 
ATOM     54  H   UNL A   1      39.607  31.021  32.212  1.00  0.00     0.167 HD
ATOM     55  C   UNL A   1      42.760  29.360  34.778  1.00  0.00     0.031 A 
ATOM     56  C   UNL A   1      37.443  32.682  31.618  1.00  0.00     0.031 A 
ATOM     57  C   UNL A   1      42.134  30.396  35.554  1.00  0.00     0.049 A 
ATOM     58  C   UNL A   1      37.865  33.019  33.020  1.00  0.00     0.074 A 
ATOM     59  C   UNL A   1      42.466  30.836  36.822  1.00  0.00     0.029 A 
ATOM     60  N   UNL A   1      41.053  31.154  35.133  1.00  0.00    -0.354 N 
ATOM     61  N   UNL A   1      38.830  32.492  33.736  1.00  0.00    -0.248 NA
ATOM     62  C   UNL A   1      37.115  34.082  33.703  1.00  0.00     0.031 C 
ATOM     63  C   UNL A   1      41.557  31.833  37.186  1.00  0.00     0.029 A 
ATOM     64  C   UNL A   1      40.697  32.052  36.121  1.00  0.00     0.049 A 
ATOM     65  H   UNL A   1      40.606  31.066  34.260  1.00  0.00     0.167 HD
ATOM     66  C   UNL A   1      38.821  33.179  34.946  1.00  0.00     0.074 A 
ATOM     67  C   UNL A   1      37.756  34.158  34.863  1.00  0.00     0.031 C 
ATOM     68  C   UNL A   1      39.630  33.016  36.021  1.00  0.00     0.031 A 
BRANCH  55  69
ATOM     69  C   UNL A   1      43.917  28.618  35.384  1.00  0.00    -0.014 A 
ATOM     70  C   UNL A   1      43.708  27.437  36.119  1.00  0.00     0.010 A 
ATOM     71  C   UNL A   1      45.231  29.062  35.156  1.00  0.00     0.010 A 
ATOM     72  C   UNL A   1      44.795  26.720  36.625  1.00  0.00     0.020 A 
ATOM     73  C   UNL A   1      46.322  28.334  35.641  1.00  0.00     0.020 A 
ATOM     74  C   UNL A   1      46.094  27.167  36.374  1.00  0.00     0.054 A 
BRANCH  74  75
ATOM     75  S   UNL A   1      47.483  26.188  37.009  1.00  0.00     0.124 S 
ATOM     76  O   UNL A   1      48.632  27.008  36.633  1.00  0.00    -0.237 OA
ATOM     77  O   UNL A   1      47.193  26.128  38.439  1.00  0.00    -0.237 OA
ATOM     78  O   UNL A   1      47.369  24.919  36.295  1.00  0.00    -0.744 OA
ENDBRANCH  74  75
ENDBRANCH  55  69
BRANCH  56  79
ATOM     79  C   UNL A   1      36.330  33.401  30.947  1.00  0.00    -0.014 A 
ATOM     80  C   UNL A   1      35.082  33.523  31.582  1.00  0.00     0.010 A 
ATOM     81  C   UNL A   1      36.531  34.027  29.703  1.00  0.00     0.010 A 
ATOM     82  C   UNL A   1      34.057  34.267  30.991  1.00  0.00     0.020 A 
ATOM     83  C   UNL A   1      35.515  34.788  29.118  1.00  0.00     0.020 A 
ATOM     84  C   UNL A   1      34.285  34.907  29.770  1.00  0.00     0.054 A 
BRANCH  84  85
ATOM     85  S   UNL A   1      32.960  35.926  29.064  1.00  0.00     0.124 S 
ATOM     86  O   UNL A   1      32.190  36.296  30.249  1.00  0.00    -0.237 OA
ATOM     87  O   UNL A   1      33.711  37.008  28.433  1.00  0.00    -0.237 OA
ATOM     88  O   UNL A   1      32.284  35.020  28.139  1.00  0.00    -0.744 OA
ENDBRANCH  84  85
ENDBRANCH  56  79
BRANCH  68  89
ATOM     89  C   UNL A   1      39.427  33.936  37.193  1.00  0.00    -0.014 A 
ATOM     90  C   UNL A   1      38.800  33.488  38.368  1.00  0.00     0.010 A 
ATOM     91  C   UNL A   1      39.962  35.236  37.148  1.00  0.00     0.010 A 
ATOM     92  C   UNL A   1      38.695  34.335  39.475  1.00  0.00     0.020 A 
ATOM     93  C   UNL A   1      39.881  36.077  38.261  1.00  0.00     0.020 A 
ATOM     94  C   UNL A   1      39.243  35.622  39.415  1.00  0.00     0.054 A 
BRANCH  94  95
ATOM     95  S   UNL A   1      39.123  36.682  40.881  1.00  0.00     0.124 S 
ATOM     96  O   UNL A   1      38.723  37.963  40.303  1.00  0.00    -0.237 OA
ATOM     97  O   UNL A   1      38.102  36.005  41.675  1.00  0.00    -0.237 OA
ATOM     98  O   UNL A   1      40.470  36.651  41.445  1.00  0.00    -0.744 OA
ENDBRANCH  94  95
ENDBRANCH  68  89
ENDBRANCH  42  43
ENDBRANCH  34  37
ENDBRANCH  32  33
ENDBRANCH   1  32
TORSDOF 16
ENDMDL
MODEL 2
REMARK VINA RESULT:     -13.2      1.245      8.023
REMARK SMILES COC(=O)c1ccc(C)c2c1[C@H]1C=CC[C@H]1[C@@H](c1ccc(C(=O)NCCCNC(=O)c3ccc(-c4c5nc(c(-c6ccc(S(=O)(=O)[O-])cc6)c6ccc([nH]6)c(-c6ccc(S(=O)(=O)[O-])cc6)c6nc(c(-c7ccc(S(=O)(=O)[O-])cc7)c7ccc4[nH]7)C=C6)C=C5)cc3)cc1)N2
REMARK SMILES IDX 26 1 25 2 24 3 22 4 23 5 21 7 18 8 19 9 92 10 20 11 91 12
REMARK SMILES IDX 17 13 5 14 6 15 11 16 7 17 10 18 12 19 8 20 93 21 13 22
REMARK SMILES IDX 16 23 9 24 14 26 15 27 3 28 4 29 2 30 1 31 27 32 28 33 29 34
REMARK SMILES IDX 30 36 31 37 32 38 90 39 33 40 89 41 34 42 35 43 36 44 83 45
REMARK SMILES IDX 37 46 88 47 82 48 84 49 38 50 87 51 81 52 80 53 39 55 69 56
REMARK SMILES IDX 50 57 68 58 51 59 54 60 67 61 85 62 52 63 53 64 66 66 86 67
REMARK SMILES IDX 55 68 40 69 41 70 49 71 42 72 48 73 43 74 44 75 45 76 46 77
REMARK SMILES IDX 47 78 70 79 71 80 79 81 72 82 78 83 73 84 74 85 75 86 76 87
REMARK SMILES IDX 77 88 56 89 57 90 65 91 58 92 64 93 59 94 60 95 61 96 62 97
REMARK SMILES IDX 63 98
REMARK H PARENT 24 6 93 25 28 35 84 54 54 65
REMARK Flexibility Score: inf
ROOT
ATOM      1  C   UNL A   1      40.642  22.136  27.145  1.00  0.00     0.042 C 
ENDROOT
BRANCH   1   2
ATOM      2  C   UNL A   1      39.259  22.573  26.667  1.00  0.00     0.118 C 
BRANCH   2   3
ATOM      3  N   UNL A   1      38.768  21.673  25.649  1.00  0.00    -0.352 N 
ATOM      4  C   UNL A   1      37.516  21.461  25.143  1.00  0.00     0.251 C 
ATOM      5  O   UNL A   1      37.409  20.616  24.251  1.00  0.00    -0.269 OA
ATOM      6  H   UNL A   1      39.465  21.107  25.244  1.00  0.00     0.163 HD
BRANCH   4   7
ATOM      7  C   UNL A   1      36.311  22.218  25.580  1.00  0.00     0.039 A 
ATOM      8  C   UNL A   1      34.023  23.800  26.172  1.00  0.00    -0.025 A 
ATOM      9  C   UNL A   1      35.028  24.258  25.307  1.00  0.00     0.006 A 
ATOM     10  C   UNL A   1      34.214  22.550  26.772  1.00  0.00     0.006 A 
ATOM     11  C   UNL A   1      36.152  23.485  25.017  1.00  0.00     0.014 A 
ATOM     12  C   UNL A   1      35.320  21.756  26.447  1.00  0.00     0.014 A 
BRANCH   8  13
ATOM     13  C   UNL A   1      32.695  24.532  26.389  1.00  0.00     0.114 C 
ATOM     14  C   UNL A   1      32.719  26.913  22.859  1.00  0.00     0.065 A 
ATOM     15  C   UNL A   1      33.492  28.077  22.857  1.00  0.00     0.016 A 
ATOM     16  C   UNL A   1      32.494  26.196  24.056  1.00  0.00    -0.003 A 
ATOM     17  C   UNL A   1      34.025  28.558  24.047  1.00  0.00     0.006 A 
ATOM     18  C   UNL A   1      33.016  26.709  25.273  1.00  0.00     0.042 A 
ATOM     19  C   UNL A   1      31.729  24.886  24.044  1.00  0.00     0.050 C 
ATOM     20  C   UNL A   1      33.793  27.892  25.261  1.00  0.00    -0.028 A 
ATOM     21  N   UNL A   1      32.885  25.973  26.443  1.00  0.00    -0.377 N 
ATOM     22  C   UNL A   1      32.358  23.754  23.264  1.00  0.00    -0.023 C 
ATOM     23  C   UNL A   1      31.534  24.219  25.422  1.00  0.00     0.031 C 
ATOM     24  C   UNL A   1      34.450  28.476  26.485  1.00  0.00     0.046 C 
ATOM     25  H   UNL A   1      32.920  26.429  27.315  1.00  0.00     0.161 HD
ATOM     26  C   UNL A   1      32.133  22.568  23.844  1.00  0.00    -0.030 C 
ATOM     27  C   UNL A   1      31.348  22.726  25.105  1.00  0.00     0.034 C 
BRANCH  14  28
ATOM     28  C   UNL A   1      32.115  26.482  21.575  1.00  0.00     0.338 C 
ATOM     29  O   UNL A   1      30.940  26.625  21.286  1.00  0.00    -0.246 OA
BRANCH  28  30
ATOM     30  O   UNL A   1      33.070  25.895  20.811  1.00  0.00    -0.465 OA
ATOM     31  C   UNL A   1      32.570  25.366  19.582  1.00  0.00     0.282 C 
ENDBRANCH  28  30
ENDBRANCH  14  28
ENDBRANCH   8  13
ENDBRANCH   4   7
ENDBRANCH   2   3
ENDBRANCH   1   2
BRANCH   1  32
ATOM     32  C   UNL A   1      41.542  23.324  27.464  1.00  0.00     0.118 C 
BRANCH  32  33
ATOM     33  N   UNL A   1      41.662  24.208  26.313  1.00  0.00    -0.352 N 
ATOM     34  C   UNL A   1      41.312  25.528  26.206  1.00  0.00     0.251 C 
ATOM     35  H   UNL A   1      42.044  23.803  25.503  1.00  0.00     0.163 HD
ATOM     36  O   UNL A   1      41.151  26.035  25.101  1.00  0.00    -0.269 OA
BRANCH  34  37
ATOM     37  C   UNL A   1      41.156  26.333  27.432  1.00  0.00     0.039 A 
ATOM     38  C   UNL A   1      40.076  26.088  28.281  1.00  0.00     0.014 A 
ATOM     39  C   UNL A   1      42.066  27.360  27.706  1.00  0.00     0.014 A 
ATOM     40  C   UNL A   1      39.922  26.862  29.431  1.00  0.00     0.010 A 
ATOM     41  C   UNL A   1      41.944  28.091  28.878  1.00  0.00     0.010 A 
ATOM     42  C   UNL A   1      40.860  27.861  29.737  1.00  0.00    -0.014 A 
BRANCH  42  43
ATOM     43  C   UNL A   1      40.702  28.733  30.918  1.00  0.00     0.031 A 
ATOM     44  C   UNL A   1      39.673  29.825  30.889  1.00  0.00     0.074 A 
ATOM     45  C   UNL A   1      41.518  28.581  31.977  1.00  0.00     0.049 A 
ATOM     46  N   UNL A   1      39.443  30.761  31.771  1.00  0.00    -0.248 NA
ATOM     47  C   UNL A   1      38.799  29.886  29.704  1.00  0.00     0.031 C 
ATOM     48  C   UNL A   1      42.554  27.553  32.106  1.00  0.00     0.029 A 
ATOM     49  N   UNL A   1      41.608  29.297  33.142  1.00  0.00    -0.354 N 
ATOM     50  C   UNL A   1      38.406  31.523  31.248  1.00  0.00     0.074 A 
ATOM     51  C   UNL A   1      38.079  30.970  29.952  1.00  0.00     0.031 C 
ATOM     52  C   UNL A   1      43.163  27.697  33.294  1.00  0.00     0.029 A 
ATOM     53  C   UNL A   1      42.589  28.845  33.990  1.00  0.00     0.049 A 
ATOM     54  H   UNL A   1      41.024  30.062  33.350  1.00  0.00     0.167 HD
ATOM     55  C   UNL A   1      37.771  32.576  31.808  1.00  0.00     0.031 A 
ATOM     56  C   UNL A   1      42.986  29.312  35.189  1.00  0.00     0.031 A 
ATOM     57  C   UNL A   1      38.099  33.115  33.100  1.00  0.00     0.049 A 
ATOM     58  C   UNL A   1      42.292  30.509  35.774  1.00  0.00     0.074 A 
ATOM     59  C   UNL A   1      37.500  34.168  33.766  1.00  0.00     0.029 A 
ATOM     60  N   UNL A   1      39.111  32.641  33.920  1.00  0.00    -0.354 N 
ATOM     61  N   UNL A   1      41.311  31.217  35.267  1.00  0.00    -0.248 NA
ATOM     62  C   UNL A   1      42.753  30.967  37.092  1.00  0.00     0.031 C 
ATOM     63  C   UNL A   1      38.177  34.359  34.973  1.00  0.00     0.029 A 
ATOM     64  C   UNL A   1      39.161  33.387  35.082  1.00  0.00     0.049 A 
ATOM     65  H   UNL A   1      39.704  31.885  33.707  1.00  0.00     0.167 HD
ATOM     66  C   UNL A   1      41.017  32.190  36.217  1.00  0.00     0.074 A 
ATOM     67  C   UNL A   1      41.924  31.977  37.327  1.00  0.00     0.031 C 
ATOM     68  C   UNL A   1      40.074  33.163  36.174  1.00  0.00     0.031 A 
BRANCH  55  69
ATOM     69  C   UNL A   1      36.653  33.214  31.034  1.00  0.00    -0.014 A 
ATOM     70  C   UNL A   1      35.361  33.307  31.582  1.00  0.00     0.010 A 
ATOM     71  C   UNL A   1      36.910  33.791  29.777  1.00  0.00     0.010 A 
ATOM     72  C   UNL A   1      34.343  33.957  30.880  1.00  0.00     0.020 A 
ATOM     73  C   UNL A   1      35.899  34.462  29.083  1.00  0.00     0.020 A 
ATOM     74  C   UNL A   1      34.621  34.539  29.641  1.00  0.00     0.054 A 
BRANCH  74  75
ATOM     75  S   UNL A   1      33.286  35.413  28.778  1.00  0.00     0.124 S 
ATOM     76  O   UNL A   1      34.023  36.410  28.006  1.00  0.00    -0.237 OA
ATOM     77  O   UNL A   1      32.668  34.344  27.999  1.00  0.00    -0.237 OA
ATOM     78  O   UNL A   1      32.466  35.951  29.860  1.00  0.00    -0.744 OA
ENDBRANCH  74  75
ENDBRANCH  55  69
BRANCH  56  79
ATOM     79  C   UNL A   1      44.076  28.612  35.918  1.00  0.00    -0.014 A 
ATOM     80  C   UNL A   1      43.778  27.539  36.775  1.00  0.00     0.010 A 
ATOM     81  C   UNL A   1      45.420  28.969  35.706  1.00  0.00     0.010 A 
ATOM     82  C   UNL A   1      44.805  26.827  37.400  1.00  0.00     0.020 A 
ATOM     83  C   UNL A   1      46.451  28.247  36.314  1.00  0.00     0.020 A 
ATOM     84  C   UNL A   1      46.136  27.176  37.154  1.00  0.00     0.054 A 
BRANCH  84  85
ATOM     85  S   UNL A   1      47.448  26.186  37.921  1.00  0.00     0.124 S 
ATOM     86  O   UNL A   1      47.855  25.309  36.826  1.00  0.00    -0.237 OA
ATOM     87  O   UNL A   1      48.417  27.209  38.306  1.00  0.00    -0.237 OA
ATOM     88  O   UNL A   1      46.774  25.523  39.034  1.00  0.00    -0.744 OA
ENDBRANCH  84  85
ENDBRANCH  56  79
BRANCH  68  89
ATOM     89  C   UNL A   1      39.941  34.060  37.373  1.00  0.00    -0.014 A 
ATOM     90  C   UNL A   1      40.726  35.218  37.504  1.00  0.00     0.010 A 
ATOM     91  C   UNL A   1      38.946  33.788  38.330  1.00  0.00     0.010 A 
ATOM     92  C   UNL A   1      40.528  36.081  38.586  1.00  0.00     0.020 A 
ATOM     93  C   UNL A   1      38.729  34.660  39.398  1.00  0.00     0.020 A 
ATOM     94  C   UNL A   1      39.526  35.799  39.521  1.00  0.00     0.054 A 
BRANCH  94  95
ATOM     95  S   UNL A   1      39.271  36.959  40.892  1.00  0.00     0.124 S 
ATOM     96  O   UNL A   1      38.757  36.085  41.943  1.00  0.00    -0.237 OA
ATOM     97  O   UNL A   1      40.615  37.484  41.113  1.00  0.00    -0.237 OA
ATOM     98  O   UNL A   1      38.308  37.921  40.360  1.00  0.00    -0.744 OA
ENDBRANCH  94  95
ENDBRANCH  68  89
ENDBRANCH  42  43
ENDBRANCH  34  37
ENDBRANCH  32  33
ENDBRANCH   1  32
TORSDOF 16
ENDMDL
MODEL 3
REMARK VINA RESULT:     -13.0      6.180     11.416
REMARK SMILES COC(=O)c1ccc(C)c2c1[C@H]1C=CC[C@H]1[C@@H](c1ccc(C(=O)NCCCNC(=O)c3ccc(-c4c5nc(c(-c6ccc(S(=O)(=O)[O-])cc6)c6ccc([nH]6)c(-c6ccc(S(=O)(=O)[O-])cc6)c6nc(c(-c7ccc(S(=O)(=O)[O-])cc7)c7ccc4[nH]7)C=C6)C=C5)cc3)cc1)N2
REMARK SMILES IDX 26 1 25 2 24 3 22 4 23 5 21 7 18 8 19 9 92 10 20 11 91 12
REMARK SMILES IDX 17 13 5 14 6 15 11 16 7 17 10 18 12 19 8 20 93 21 13 22
REMARK SMILES IDX 16 23 9 24 14 26 15 27 3 28 4 29 2 30 1 31 27 32 28 33 29 34
REMARK SMILES IDX 30 36 31 37 32 38 90 39 33 40 89 41 34 42 35 43 36 44 83 45
REMARK SMILES IDX 37 46 88 47 82 48 84 49 38 50 87 51 81 52 80 53 39 55 69 56
REMARK SMILES IDX 50 57 68 58 51 59 54 60 67 61 85 62 52 63 53 64 66 66 86 67
REMARK SMILES IDX 55 68 40 69 41 70 49 71 42 72 48 73 43 74 44 75 45 76 46 77
REMARK SMILES IDX 47 78 70 79 71 80 79 81 72 82 78 83 73 84 74 85 75 86 76 87
REMARK SMILES IDX 77 88 56 89 57 90 65 91 58 92 64 93 59 94 60 95 61 96 62 97
REMARK SMILES IDX 63 98
REMARK H PARENT 24 6 93 25 28 35 84 54 54 65
REMARK Flexibility Score: inf
ROOT
ATOM      1  C   UNL A   1      34.916  29.821  27.494  1.00  0.00     0.042 C 
ENDROOT
BRANCH   1   2
ATOM      2  C   UNL A   1      33.545  30.413  27.173  1.00  0.00     0.118 C 
BRANCH   2   3
ATOM      3  N   UNL A   1      32.494  29.549  27.658  1.00  0.00    -0.352 N 
ATOM      4  C   UNL A   1      32.039  28.333  27.229  1.00  0.00     0.251 C 
ATOM      5  O   UNL A   1      31.117  27.824  27.868  1.00  0.00    -0.269 OA
ATOM      6  H   UNL A   1      32.016  29.900  28.444  1.00  0.00     0.163 HD
BRANCH   4   7
ATOM      7  C   UNL A   1      32.626  27.594  26.077  1.00  0.00     0.039 A 
ATOM      8  C   UNL A   1      33.711  25.949  24.026  1.00  0.00    -0.025 A 
ATOM      9  C   UNL A   1      33.777  25.577  25.377  1.00  0.00     0.006 A 
ATOM     10  C   UNL A   1      33.131  27.188  23.730  1.00  0.00     0.006 A 
ATOM     11  C   UNL A   1      33.247  26.383  26.384  1.00  0.00     0.014 A 
ATOM     12  C   UNL A   1      32.561  27.977  24.736  1.00  0.00     0.014 A 
BRANCH   8  13
ATOM     13  C   UNL A   1      34.121  25.028  22.873  1.00  0.00     0.114 C 
ATOM     14  C   UNL A   1      33.627  21.295  24.862  1.00  0.00     0.065 A 
ATOM     15  C   UNL A   1      34.645  20.867  25.719  1.00  0.00     0.016 A 
ATOM     16  C   UNL A   1      33.817  22.408  24.011  1.00  0.00    -0.003 A 
ATOM     17  C   UNL A   1      35.872  21.520  25.717  1.00  0.00     0.006 A 
ATOM     18  C   UNL A   1      35.082  23.051  23.993  1.00  0.00     0.042 A 
ATOM     19  C   UNL A   1      32.683  22.926  23.146  1.00  0.00     0.050 C 
ATOM     20  C   UNL A   1      36.109  22.606  24.860  1.00  0.00    -0.028 A 
ATOM     21  N   UNL A   1      35.261  24.200  23.233  1.00  0.00    -0.377 N 
ATOM     22  C   UNL A   1      31.474  23.458  23.881  1.00  0.00    -0.023 C 
ATOM     23  C   UNL A   1      33.032  24.130  22.246  1.00  0.00     0.031 C 
ATOM     24  C   UNL A   1      37.460  23.267  24.969  1.00  0.00     0.046 C 
ATOM     25  H   UNL A   1      36.164  24.456  22.937  1.00  0.00     0.161 HD
ATOM     26  C   UNL A   1      30.922  24.495  23.239  1.00  0.00    -0.030 C 
ATOM     27  C   UNL A   1      31.686  24.832  22.001  1.00  0.00     0.034 C 
BRANCH  14  28
ATOM     28  C   UNL A   1      32.363  20.521  24.851  1.00  0.00     0.338 C 
ATOM     29  O   UNL A   1      31.381  20.797  25.519  1.00  0.00    -0.246 OA
BRANCH  28  30
ATOM     30  O   UNL A   1      32.496  19.466  24.007  1.00  0.00    -0.465 OA
ATOM     31  C   UNL A   1      32.318  18.201  24.646  1.00  0.00     0.282 C 
ENDBRANCH  28  30
ENDBRANCH  14  28
ENDBRANCH   8  13
ENDBRANCH   4   7
ENDBRANCH   2   3
ENDBRANCH   1   2
BRANCH   1  32
ATOM     32  C   UNL A   1      35.820  30.818  28.208  1.00  0.00     0.118 C 
BRANCH  32  33
ATOM     33  N   UNL A   1      35.757  30.635  29.651  1.00  0.00    -0.352 N 
ATOM     34  C   UNL A   1      36.597  29.920  30.462  1.00  0.00     0.251 C 
ATOM     35  H   UNL A   1      35.010  31.086  30.105  1.00  0.00     0.163 HD
ATOM     36  O   UNL A   1      36.229  29.577  31.581  1.00  0.00    -0.269 OA
BRANCH  34  37
ATOM     37  C   UNL A   1      37.951  29.588  29.983  1.00  0.00     0.039 A 
ATOM     38  C   UNL A   1      38.944  29.254  30.904  1.00  0.00     0.014 A 
ATOM     39  C   UNL A   1      38.236  29.657  28.614  1.00  0.00     0.014 A 
ATOM     40  C   UNL A   1      40.227  28.956  30.448  1.00  0.00     0.010 A 
ATOM     41  C   UNL A   1      39.498  29.306  28.157  1.00  0.00     0.010 A 
ATOM     42  C   UNL A   1      40.507  28.974  29.072  1.00  0.00    -0.014 A 
BRANCH  42  43
ATOM     43  C   UNL A   1      41.866  28.715  28.556  1.00  0.00     0.031 A 
ATOM     44  C   UNL A   1      42.232  27.326  28.122  1.00  0.00     0.074 A 
ATOM     45  C   UNL A   1      42.776  29.707  28.541  1.00  0.00     0.049 A 
ATOM     46  N   UNL A   1      43.393  26.864  27.739  1.00  0.00    -0.248 NA
ATOM     47  C   UNL A   1      41.157  26.318  28.137  1.00  0.00     0.031 C 
ATOM     48  C   UNL A   1      42.526  31.092  28.945  1.00  0.00     0.029 A 
ATOM     49  N   UNL A   1      44.097  29.696  28.177  1.00  0.00    -0.354 N 
ATOM     50  C   UNL A   1      43.190  25.516  27.474  1.00  0.00     0.074 A 
ATOM     51  C   UNL A   1      41.808  25.221  27.781  1.00  0.00     0.031 C 
ATOM     52  C   UNL A   1      43.655  31.802  28.788  1.00  0.00     0.029 A 
ATOM     53  C   UNL A   1      44.714  30.916  28.312  1.00  0.00     0.049 A 
ATOM     54  H   UNL A   1      44.560  28.891  27.849  1.00  0.00     0.167 HD
ATOM     55  C   UNL A   1      44.074  24.610  26.999  1.00  0.00     0.031 A 
ATOM     56  C   UNL A   1      45.992  31.275  28.087  1.00  0.00     0.031 A 
ATOM     57  C   UNL A   1      45.444  24.914  26.691  1.00  0.00     0.049 A 
ATOM     58  C   UNL A   1      46.966  30.242  27.598  1.00  0.00     0.074 A 
ATOM     59  C   UNL A   1      46.415  24.071  26.182  1.00  0.00     0.029 A 
ATOM     60  N   UNL A   1      46.035  26.156  26.859  1.00  0.00    -0.354 N 
ATOM     61  N   UNL A   1      46.758  28.971  27.349  1.00  0.00    -0.248 NA
ATOM     62  C   UNL A   1      48.344  30.690  27.352  1.00  0.00     0.031 C 
ATOM     63  C   UNL A   1      47.607  24.793  26.083  1.00  0.00     0.029 A 
ATOM     64  C   UNL A   1      47.362  26.101  26.475  1.00  0.00     0.049 A 
ATOM     65  H   UNL A   1      45.578  26.959  27.199  1.00  0.00     0.167 HD
ATOM     66  C   UNL A   1      47.973  28.472  26.890  1.00  0.00     0.074 A 
ATOM     67  C   UNL A   1      48.908  29.578  26.896  1.00  0.00     0.031 C 
ATOM     68  C   UNL A   1      48.278  27.213  26.492  1.00  0.00     0.031 A 
BRANCH  55  69
ATOM     69  C   UNL A   1      43.587  23.207  26.773  1.00  0.00    -0.014 A 
ATOM     70  C   UNL A   1      43.665  22.615  25.500  1.00  0.00     0.010 A 
ATOM     71  C   UNL A   1      43.115  22.446  27.858  1.00  0.00     0.010 A 
ATOM     72  C   UNL A   1      43.269  21.289  25.314  1.00  0.00     0.020 A 
ATOM     73  C   UNL A   1      42.740  21.112  27.679  1.00  0.00     0.020 A 
ATOM     74  C   UNL A   1      42.818  20.543  26.406  1.00  0.00     0.054 A 
BRANCH  74  75
ATOM     75  S   UNL A   1      42.353  18.811  26.136  1.00  0.00     0.124 S 
ATOM     76  O   UNL A   1      43.320  18.389  25.125  1.00  0.00    -0.237 OA
ATOM     77  O   UNL A   1      42.536  18.229  27.463  1.00  0.00    -0.237 OA
ATOM     78  O   UNL A   1      40.970  18.889  25.674  1.00  0.00    -0.744 OA
ENDBRANCH  74  75
ENDBRANCH  55  69
BRANCH  56  79
ATOM     79  C   UNL A   1      46.399  32.689  28.297  1.00  0.00    -0.014 A 
ATOM     80  C   UNL A   1      46.941  33.092  29.529  1.00  0.00     0.010 A 
ATOM     81  C   UNL A   1      46.310  33.621  27.248  1.00  0.00     0.010 A 
ATOM     82  C   UNL A   1      47.399  34.401  29.706  1.00  0.00     0.020 A 
ATOM     83  C   UNL A   1      46.785  34.926  27.414  1.00  0.00     0.020 A 
ATOM     84  C   UNL A   1      47.331  35.305  28.642  1.00  0.00     0.054 A 
BRANCH  84  85
ATOM     85  S   UNL A   1      48.001  36.975  28.878  1.00  0.00     0.124 S 
ATOM     86  O   UNL A   1      48.163  37.441  27.504  1.00  0.00    -0.237 OA
ATOM     87  O   UNL A   1      46.940  37.623  29.646  1.00  0.00    -0.237 OA
ATOM     88  O   UNL A   1      49.244  36.748  29.611  1.00  0.00    -0.744 OA
ENDBRANCH  84  85
ENDBRANCH  56  79
BRANCH  68  89
ATOM     89  C   UNL A   1      49.674  26.957  25.994  1.00  0.00    -0.014 A 
ATOM     90  C   UNL A   1      50.628  26.315  26.803  1.00  0.00     0.010 A 
ATOM     91  C   UNL A   1      49.999  27.277  24.663  1.00  0.00     0.010 A 
ATOM     92  C   UNL A   1      51.893  26.014  26.291  1.00  0.00     0.020 A 
ATOM     93  C   UNL A   1      51.254  26.955  24.141  1.00  0.00     0.020 A 
ATOM     94  C   UNL A   1      52.195  26.330  24.961  1.00  0.00     0.054 A 
BRANCH  94  95
ATOM     95  S   UNL A   1      53.832  25.893  24.318  1.00  0.00     0.124 S 
ATOM     96  O   UNL A   1      54.678  26.934  24.895  1.00  0.00    -0.237 OA
ATOM     97  O   UNL A   1      54.032  24.550  24.855  1.00  0.00    -0.237 OA
ATOM     98  O   UNL A   1      53.667  25.963  22.867  1.00  0.00    -0.744 OA
ENDBRANCH  94  95
ENDBRANCH  68  89
ENDBRANCH  42  43
ENDBRANCH  34  37
ENDBRANCH  32  33
ENDBRANCH   1  32
TORSDOF 16
ENDMDL
