MODEL 1
REMARK VINA RESULT:      -9.6      0.000      0.000
REMARK SMILES CC1(C)S[C@H](c2ccc(Br)cc2)[NH2+][C@H]1C(=O)NCCCNC(=O)c1ccc(-c2c3nc(c(-c4ccc(S(=O)(=O)[O-])cc4)c4ccc([nH]4)c(-c4ccc(S(=O)(=O)[O-])cc4)c4nc(c(-c5ccc(S(=O)(=O)[O-])cc5)c5ccc2[nH]5)C=C4)C=C3)cc1
REMARK SMILES IDX 20 1 19 2 18 3 17 4 15 5 16 6 14 8 1 9 2 10 3 11 4 12 5 13
REMARK SMILES IDX 13 14 6 17 7 18 12 19 8 20 11 21 9 22 10 23 21 24 22 25
REMARK SMILES IDX 23 27 24 28 25 29 83 30 26 31 82 32 27 33 28 34 29 35 76 36
REMARK SMILES IDX 30 37 81 38 75 39 77 40 31 41 80 42 74 43 73 44 32 46 62 47
REMARK SMILES IDX 43 48 61 49 44 50 47 51 60 52 78 53 45 54 46 55 59 57 79 58
REMARK SMILES IDX 48 59 33 60 34 61 42 62 35 63 41 64 36 65 37 66 38 67 39 68
REMARK SMILES IDX 40 69 63 70 64 71 72 72 65 73 71 74 66 75 67 76 68 77 69 78
REMARK SMILES IDX 70 79 49 80 50 81 58 82 51 83 57 84 52 85 53 86 54 87 55 88
REMARK SMILES IDX 56 89
REMARK H PARENT 17 7 13 15 13 16 21 26 77 45 47 56
REMARK Flexibility Score: inf
ROOT
ATOM      1  C   UNL A   1      34.865  32.877  28.299  1.00  0.00     0.118 C 
ENDROOT
BRANCH   1   2
ATOM      2  C   UNL A   1      34.435  33.536  29.601  1.00  0.00     0.042 C 
BRANCH   2   3
ATOM      3  C   UNL A   1      35.370  33.265  30.778  1.00  0.00     0.118 C 
BRANCH   3   4
ATOM      4  N   UNL A   1      36.585  34.068  30.725  1.00  0.00    -0.351 N 
ATOM      5  C   UNL A   1      37.756  34.095  31.416  1.00  0.00     0.279 C 
ATOM      6  O   UNL A   1      38.542  34.995  31.087  1.00  0.00    -0.268 OA
ATOM      7  H   UNL A   1      36.549  34.756  30.022  1.00  0.00     0.163 HD
BRANCH   5   8
ATOM      8  C   UNL A   1      38.141  33.147  32.568  1.00  0.00     0.289 C 
ATOM      9  C   UNL A   1      36.425  34.275  34.183  1.00  0.00     0.030 C 
ATOM     10  C   UNL A   1      37.809  33.669  33.979  1.00  0.00     0.077 C 
ATOM     11  C   UNL A   1      38.873  34.657  34.473  1.00  0.00     0.030 C 
ATOM     12  S   UNL A   1      37.884  32.156  34.997  1.00  0.00    -0.081 SA
ATOM     13  C   UNL A   1      37.931  31.004  33.591  1.00  0.00     0.274 C 
ATOM     14  N   UNL A   1      37.671  31.755  32.357  1.00  0.00    -0.320 N 
ATOM     15  H   UNL A   1      36.672  31.753  32.152  1.00  0.00     0.348 HD
ATOM     16  H   UNL A   1      38.160  31.328  31.570  1.00  0.00     0.348 HD
BRANCH  13  17
ATOM     17  C   UNL A   1      39.205  30.177  33.598  1.00  0.00     0.020 A 
ATOM     18  C   UNL A   1      39.189  28.911  32.977  1.00  0.00     0.012 A 
ATOM     19  C   UNL A   1      40.403  30.604  34.192  1.00  0.00     0.012 A 
ATOM     20  C   UNL A   1      40.318  28.089  32.978  1.00  0.00     0.016 A 
ATOM     21  C   UNL A   1      41.537  29.783  34.193  1.00  0.00     0.016 A 
ATOM     22  C   UNL A   1      41.485  28.528  33.591  1.00  0.00     0.018 A 
ATOM     23  Br  UNL A   1      43.011  27.412  33.608  1.00  0.00    -0.051 Br
ENDBRANCH  13  17
ENDBRANCH   5   8
ENDBRANCH   3   4
ENDBRANCH   2   3
ENDBRANCH   1   2
BRANCH   1  24
ATOM     24  N   UNL A   1      34.107  31.669  28.021  1.00  0.00    -0.352 N 
ATOM     25  C   UNL A   1      34.546  30.378  27.840  1.00  0.00     0.251 C 
ATOM     26  H   UNL A   1      33.133  31.793  27.952  1.00  0.00     0.163 HD
ATOM     27  O   UNL A   1      33.772  29.544  27.377  1.00  0.00    -0.269 OA
BRANCH  25  28
ATOM     28  C   UNL A   1      35.937  29.991  28.174  1.00  0.00     0.039 A 
ATOM     29  C   UNL A   1      36.220  29.521  29.460  1.00  0.00     0.014 A 
ATOM     30  C   UNL A   1      36.976  30.130  27.248  1.00  0.00     0.014 A 
ATOM     31  C   UNL A   1      37.524  29.145  29.797  1.00  0.00     0.010 A 
ATOM     32  C   UNL A   1      38.254  29.669  27.555  1.00  0.00     0.010 A 
ATOM     33  C   UNL A   1      38.549  29.189  28.839  1.00  0.00    -0.014 A 
BRANCH  33  34
ATOM     34  C   UNL A   1      39.941  28.782  29.168  1.00  0.00     0.031 A 
ATOM     35  C   UNL A   1      40.863  29.747  29.871  1.00  0.00     0.074 A 
ATOM     36  C   UNL A   1      40.398  27.570  28.794  1.00  0.00     0.049 A 
ATOM     37  N   UNL A   1      42.126  29.603  30.182  1.00  0.00    -0.248 NA
ATOM     38  C   UNL A   1      40.299  31.054  30.247  1.00  0.00     0.031 C 
ATOM     39  C   UNL A   1      39.623  26.555  28.075  1.00  0.00     0.029 A 
ATOM     40  N   UNL A   1      41.628  26.987  28.965  1.00  0.00    -0.354 N 
ATOM     41  C   UNL A   1      42.513  30.806  30.764  1.00  0.00     0.074 A 
ATOM     42  C   UNL A   1      41.365  31.684  30.719  1.00  0.00     0.031 C 
ATOM     43  C   UNL A   1      40.387  25.465  27.896  1.00  0.00     0.029 A 
ATOM     44  C   UNL A   1      41.713  25.714  28.453  1.00  0.00     0.049 A 
ATOM     45  H   UNL A   1      42.380  27.438  29.414  1.00  0.00     0.167 HD
ATOM     46  C   UNL A   1      43.705  31.146  31.309  1.00  0.00     0.031 A 
ATOM     47  C   UNL A   1      42.742  24.844  28.431  1.00  0.00     0.031 A 
ATOM     48  C   UNL A   1      44.839  30.265  31.383  1.00  0.00     0.049 A 
ATOM     49  C   UNL A   1      44.052  25.235  29.055  1.00  0.00     0.074 A 
ATOM     50  C   UNL A   1      46.074  30.497  31.964  1.00  0.00     0.029 A 
ATOM     51  N   UNL A   1      44.875  28.978  30.869  1.00  0.00    -0.354 N 
ATOM     52  N   UNL A   1      44.381  26.362  29.640  1.00  0.00    -0.248 NA
ATOM     53  C   UNL A   1      45.126  24.232  29.027  1.00  0.00     0.031 C 
ATOM     54  C   UNL A   1      46.868  29.361  31.771  1.00  0.00     0.029 A 
ATOM     55  C   UNL A   1      46.113  28.406  31.109  1.00  0.00     0.049 A 
ATOM     56  H   UNL A   1      44.129  28.535  30.402  1.00  0.00     0.167 HD
ATOM     57  C   UNL A   1      45.692  26.195  30.071  1.00  0.00     0.074 A 
ATOM     58  C   UNL A   1      46.092  24.855  29.690  1.00  0.00     0.031 C 
ATOM     59  C   UNL A   1      46.494  27.073  30.723  1.00  0.00     0.031 A 
BRANCH  46  60
ATOM     60  C   UNL A   1      43.839  32.536  31.872  1.00  0.00    -0.014 A 
ATOM     61  C   UNL A   1      43.591  32.792  33.232  1.00  0.00     0.010 A 
ATOM     62  C   UNL A   1      44.237  33.595  31.036  1.00  0.00     0.010 A 
ATOM     63  C   UNL A   1      43.694  34.091  33.738  1.00  0.00     0.020 A 
ATOM     64  C   UNL A   1      44.366  34.891  31.544  1.00  0.00     0.020 A 
ATOM     65  C   UNL A   1      44.074  35.134  32.888  1.00  0.00     0.054 A 
BRANCH  65  66
ATOM     66  S   UNL A   1      44.209  36.808  33.571  1.00  0.00     0.124 S 
ATOM     67  O   UNL A   1      45.364  37.335  32.846  1.00  0.00    -0.237 OA
ATOM     68  O   UNL A   1      42.923  37.406  33.219  1.00  0.00    -0.237 OA
ATOM     69  O   UNL A   1      44.419  36.584  34.999  1.00  0.00    -0.744 OA
ENDBRANCH  65  66
ENDBRANCH  46  60
BRANCH  47  70
ATOM     70  C   UNL A   1      42.562  23.500  27.819  1.00  0.00    -0.014 A 
ATOM     71  C   UNL A   1      43.190  23.186  26.600  1.00  0.00     0.010 A 
ATOM     72  C   UNL A   1      41.782  22.521  28.460  1.00  0.00     0.010 A 
ATOM     73  C   UNL A   1      43.028  21.923  26.026  1.00  0.00     0.020 A 
ATOM     74  C   UNL A   1      41.636  21.249  27.899  1.00  0.00     0.020 A 
ATOM     75  C   UNL A   1      42.254  20.961  26.680  1.00  0.00     0.054 A 
BRANCH  75  76
ATOM     76  S   UNL A   1      42.108  19.307  25.948  1.00  0.00     0.124 S 
ATOM     77  O   UNL A   1      42.660  18.460  27.000  1.00  0.00    -0.237 OA
ATOM     78  O   UNL A   1      40.670  19.184  25.725  1.00  0.00    -0.237 OA
ATOM     79  O   UNL A   1      42.912  19.402  24.732  1.00  0.00    -0.744 OA
ENDBRANCH  75  76
ENDBRANCH  47  70
BRANCH  59  80
ATOM     80  C   UNL A   1      47.873  26.603  31.093  1.00  0.00    -0.014 A 
ATOM     81  C   UNL A   1      48.969  26.820  30.239  1.00  0.00     0.010 A 
ATOM     82  C   UNL A   1      48.084  25.980  32.337  1.00  0.00     0.010 A 
ATOM     83  C   UNL A   1      50.247  26.396  30.611  1.00  0.00     0.020 A 
ATOM     84  C   UNL A   1      49.364  25.575  32.721  1.00  0.00     0.020 A 
ATOM     85  C   UNL A   1      50.436  25.773  31.848  1.00  0.00     0.054 A 
BRANCH  85  86
ATOM     86  S   UNL A   1      52.110  25.267  32.328  1.00  0.00     0.124 S 
ATOM     87  O   UNL A   1      52.286  25.968  33.598  1.00  0.00    -0.237 OA
ATOM     88  O   UNL A   1      51.996  23.814  32.423  1.00  0.00    -0.237 OA
ATOM     89  O   UNL A   1      52.944  25.749  31.229  1.00  0.00    -0.744 OA
ENDBRANCH  85  86
ENDBRANCH  59  80
ENDBRANCH  33  34
ENDBRANCH  25  28
ENDBRANCH   1  24
TORSDOF 14
ENDMDL
MODEL 2
REMARK VINA RESULT:      -9.4      3.336      5.993
REMARK SMILES CC1(C)S[C@H](c2ccc(Br)cc2)[NH2+][C@H]1C(=O)NCCCNC(=O)c1ccc(-c2c3nc(c(-c4ccc(S(=O)(=O)[O-])cc4)c4ccc([nH]4)c(-c4ccc(S(=O)(=O)[O-])cc4)c4nc(c(-c5ccc(S(=O)(=O)[O-])cc5)c5ccc2[nH]5)C=C4)C=C3)cc1
REMARK SMILES IDX 20 1 19 2 18 3 17 4 15 5 16 6 14 8 1 9 2 10 3 11 4 12 5 13
REMARK SMILES IDX 13 14 6 17 7 18 12 19 8 20 11 21 9 22 10 23 21 24 22 25
REMARK SMILES IDX 23 27 24 28 25 29 83 30 26 31 82 32 27 33 28 34 29 35 76 36
REMARK SMILES IDX 30 37 81 38 75 39 77 40 31 41 80 42 74 43 73 44 32 46 62 47
REMARK SMILES IDX 43 48 61 49 44 50 47 51 60 52 78 53 45 54 46 55 59 57 79 58
REMARK SMILES IDX 48 59 33 60 34 61 42 62 35 63 41 64 36 65 37 66 38 67 39 68
REMARK SMILES IDX 40 69 63 70 64 71 72 72 65 73 71 74 66 75 67 76 68 77 69 78
REMARK SMILES IDX 70 79 49 80 50 81 58 82 51 83 57 84 52 85 53 86 54 87 55 88
REMARK SMILES IDX 56 89
REMARK H PARENT 17 7 13 15 13 16 21 26 77 45 47 56
REMARK Flexibility Score: inf
ROOT
ATOM      1  C   UNL A   1      33.948  28.345  26.523  1.00  0.00     0.118 C 
ENDROOT
BRANCH   1   2
ATOM      2  C   UNL A   1      32.762  27.451  26.849  1.00  0.00     0.042 C 
BRANCH   2   3
ATOM      3  C   UNL A   1      31.431  27.949  26.292  1.00  0.00     0.118 C 
BRANCH   3   4
ATOM      4  N   UNL A   1      31.422  28.020  24.837  1.00  0.00    -0.351 N 
ATOM      5  C   UNL A   1      31.780  27.184  23.826  1.00  0.00     0.279 C 
ATOM      6  O   UNL A   1      31.661  27.654  22.685  1.00  0.00    -0.268 OA
ATOM      7  H   UNL A   1      31.074  28.880  24.507  1.00  0.00     0.163 HD
BRANCH   5   8
ATOM      8  C   UNL A   1      32.346  25.761  23.995  1.00  0.00     0.289 C 
ATOM      9  C   UNL A   1      30.085  24.682  23.255  1.00  0.00     0.030 C 
ATOM     10  C   UNL A   1      31.288  24.659  24.191  1.00  0.00     0.077 C 
ATOM     11  C   UNL A   1      30.799  24.606  25.643  1.00  0.00     0.030 C 
ATOM     12  S   UNL A   1      32.221  23.134  23.823  1.00  0.00    -0.081 SA
ATOM     13  C   UNL A   1      33.664  23.982  23.111  1.00  0.00     0.274 C 
ATOM     14  N   UNL A   1      33.345  25.406  22.956  1.00  0.00    -0.320 N 
ATOM     15  H   UNL A   1      32.956  25.576  22.028  1.00  0.00     0.348 HD
ATOM     16  H   UNL A   1      34.186  25.973  23.059  1.00  0.00     0.348 HD
BRANCH  13  17
ATOM     17  C   UNL A   1      34.927  23.676  23.899  1.00  0.00     0.020 A 
ATOM     18  C   UNL A   1      35.912  22.864  23.301  1.00  0.00     0.012 A 
ATOM     19  C   UNL A   1      35.168  24.158  25.195  1.00  0.00     0.012 A 
ATOM     20  C   UNL A   1      37.080  22.520  23.983  1.00  0.00     0.016 A 
ATOM     21  C   UNL A   1      36.339  23.816  25.881  1.00  0.00     0.016 A 
ATOM     22  C   UNL A   1      37.285  22.994  25.274  1.00  0.00     0.018 A 
ATOM     23  Br  UNL A   1      38.857  22.518  26.208  1.00  0.00    -0.051 Br
ENDBRANCH  13  17
ENDBRANCH   5   8
ENDBRANCH   3   4
ENDBRANCH   2   3
ENDBRANCH   1   2
BRANCH   1  24
ATOM     24  N   UNL A   1      33.755  29.705  26.999  1.00  0.00    -0.352 N 
ATOM     25  C   UNL A   1      34.545  30.467  27.827  1.00  0.00     0.251 C 
ATOM     26  H   UNL A   1      32.935  30.146  26.680  1.00  0.00     0.163 HD
ATOM     27  O   UNL A   1      34.086  31.503  28.301  1.00  0.00    -0.269 OA
BRANCH  25  28
ATOM     28  C   UNL A   1      35.924  30.044  28.169  1.00  0.00     0.039 A 
ATOM     29  C   UNL A   1      36.925  30.147  27.198  1.00  0.00     0.014 A 
ATOM     30  C   UNL A   1      36.232  29.503  29.421  1.00  0.00     0.014 A 
ATOM     31  C   UNL A   1      38.234  29.759  27.499  1.00  0.00     0.010 A 
ATOM     32  C   UNL A   1      37.552  29.204  29.749  1.00  0.00     0.010 A 
ATOM     33  C   UNL A   1      38.567  29.310  28.787  1.00  0.00    -0.014 A 
BRANCH  33  34
ATOM     34  C   UNL A   1      39.954  28.904  29.136  1.00  0.00     0.031 A 
ATOM     35  C   UNL A   1      40.870  29.874  29.840  1.00  0.00     0.074 A 
ATOM     36  C   UNL A   1      40.414  27.689  28.778  1.00  0.00     0.049 A 
ATOM     37  N   UNL A   1      42.129  29.732  30.166  1.00  0.00    -0.248 NA
ATOM     38  C   UNL A   1      40.304  31.186  30.198  1.00  0.00     0.031 C 
ATOM     39  C   UNL A   1      39.647  26.668  28.059  1.00  0.00     0.029 A 
ATOM     40  N   UNL A   1      41.642  27.106  28.968  1.00  0.00    -0.354 N 
ATOM     41  C   UNL A   1      42.511  30.940  30.742  1.00  0.00     0.074 A 
ATOM     42  C   UNL A   1      41.364  31.819  30.676  1.00  0.00     0.031 C 
ATOM     43  C   UNL A   1      40.411  25.576  27.898  1.00  0.00     0.029 A 
ATOM     44  C   UNL A   1      41.731  25.828  28.468  1.00  0.00     0.049 A 
ATOM     45  H   UNL A   1      42.389  27.560  29.421  1.00  0.00     0.167 HD
ATOM     46  C   UNL A   1      43.698  31.283  31.297  1.00  0.00     0.031 A 
ATOM     47  C   UNL A   1      42.759  24.957  28.465  1.00  0.00     0.031 A 
ATOM     48  C   UNL A   1      44.829  30.402  31.392  1.00  0.00     0.049 A 
ATOM     49  C   UNL A   1      44.062  25.352  29.101  1.00  0.00     0.074 A 
ATOM     50  C   UNL A   1      46.058  30.638  31.984  1.00  0.00     0.029 A 
ATOM     51  N   UNL A   1      44.869  29.110  30.889  1.00  0.00    -0.354 N 
ATOM     52  N   UNL A   1      44.386  26.484  29.680  1.00  0.00    -0.248 NA
ATOM     53  C   UNL A   1      45.135  24.348  29.094  1.00  0.00     0.031 C 
ATOM     54  C   UNL A   1      46.853  29.499  31.810  1.00  0.00     0.029 A 
ATOM     55  C   UNL A   1      46.104  28.540  31.148  1.00  0.00     0.049 A 
ATOM     56  H   UNL A   1      44.129  28.664  30.418  1.00  0.00     0.167 HD
ATOM     57  C   UNL A   1      45.692  26.320  30.126  1.00  0.00     0.074 A 
ATOM     58  C   UNL A   1      46.095  24.976  29.762  1.00  0.00     0.031 C 
ATOM     59  C   UNL A   1      46.488  27.202  30.779  1.00  0.00     0.031 A 
BRANCH  46  60
ATOM     60  C   UNL A   1      43.826  32.678  31.849  1.00  0.00    -0.014 A 
ATOM     61  C   UNL A   1      43.529  32.954  33.195  1.00  0.00     0.010 A 
ATOM     62  C   UNL A   1      44.270  33.722  31.017  1.00  0.00     0.010 A 
ATOM     63  C   UNL A   1      43.628  34.257  33.689  1.00  0.00     0.020 A 
ATOM     64  C   UNL A   1      44.396  35.023  31.515  1.00  0.00     0.020 A 
ATOM     65  C   UNL A   1      44.054  35.286  32.843  1.00  0.00     0.054 A 
BRANCH  65  66
ATOM     66  S   UNL A   1      44.184  36.966  33.512  1.00  0.00     0.124 S 
ATOM     67  O   UNL A   1      44.186  37.774  32.293  1.00  0.00    -0.237 OA
ATOM     68  O   UNL A   1      42.983  37.079  34.337  1.00  0.00    -0.237 OA
ATOM     69  O   UNL A   1      45.444  36.949  34.250  1.00  0.00    -0.744 OA
ENDBRANCH  65  66
ENDBRANCH  46  60
BRANCH  47  70
ATOM     70  C   UNL A   1      42.585  23.607  27.864  1.00  0.00    -0.014 A 
ATOM     71  C   UNL A   1      42.953  23.374  26.527  1.00  0.00     0.010 A 
ATOM     72  C   UNL A   1      42.071  22.545  28.628  1.00  0.00     0.010 A 
ATOM     73  C   UNL A   1      42.796  22.107  25.960  1.00  0.00     0.020 A 
ATOM     74  C   UNL A   1      41.934  21.270  28.071  1.00  0.00     0.020 A 
ATOM     75  C   UNL A   1      42.289  21.061  26.737  1.00  0.00     0.054 A 
BRANCH  75  76
ATOM     76  S   UNL A   1      42.152  19.408  26.001  1.00  0.00     0.124 S 
ATOM     77  O   UNL A   1      40.716  19.300  25.763  1.00  0.00    -0.237 OA
ATOM     78  O   UNL A   1      42.985  19.523  24.807  1.00  0.00    -0.237 OA
ATOM     79  O   UNL A   1      42.684  18.529  27.040  1.00  0.00    -0.744 OA
ENDBRANCH  75  76
ENDBRANCH  47  70
BRANCH  59  80
ATOM     80  C   UNL A   1      47.862  26.734  31.169  1.00  0.00    -0.014 A 
ATOM     81  C   UNL A   1      48.073  26.008  32.354  1.00  0.00     0.010 A 
ATOM     82  C   UNL A   1      48.950  26.981  30.311  1.00  0.00     0.010 A 
ATOM     83  C   UNL A   1      49.354  25.562  32.689  1.00  0.00     0.020 A 
ATOM     84  C   UNL A   1      50.227  26.517  30.631  1.00  0.00     0.020 A 
ATOM     85  C   UNL A   1      50.424  25.823  31.827  1.00  0.00     0.054 A 
BRANCH  85  86
ATOM     86  S   UNL A   1      52.070  25.199  32.261  1.00  0.00     0.124 S 
ATOM     87  O   UNL A   1      52.328  25.879  33.528  1.00  0.00    -0.237 OA
ATOM     88  O   UNL A   1      51.856  23.756  32.356  1.00  0.00    -0.237 OA
ATOM     89  O   UNL A   1      52.908  25.624  31.142  1.00  0.00    -0.744 OA
ENDBRANCH  85  86
ENDBRANCH  59  80
ENDBRANCH  33  34
ENDBRANCH  25  28
ENDBRANCH   1  24
TORSDOF 14
ENDMDL
MODEL 3
REMARK VINA RESULT:      -9.3      4.207     10.881
REMARK SMILES CC1(C)S[C@H](c2ccc(Br)cc2)[NH2+][C@H]1C(=O)NCCCNC(=O)c1ccc(-c2c3nc(c(-c4ccc(S(=O)(=O)[O-])cc4)c4ccc([nH]4)c(-c4ccc(S(=O)(=O)[O-])cc4)c4nc(c(-c5ccc(S(=O)(=O)[O-])cc5)c5ccc2[nH]5)C=C4)C=C3)cc1
REMARK SMILES IDX 20 1 19 2 18 3 17 4 15 5 16 6 14 8 1 9 2 10 3 11 4 12 5 13
REMARK SMILES IDX 13 14 6 17 7 18 12 19 8 20 11 21 9 22 10 23 21 24 22 25
REMARK SMILES IDX 23 27 24 28 25 29 83 30 26 31 82 32 27 33 28 34 29 35 76 36
REMARK SMILES IDX 30 37 81 38 75 39 77 40 31 41 80 42 74 43 73 44 32 46 62 47
REMARK SMILES IDX 43 48 61 49 44 50 47 51 60 52 78 53 45 54 46 55 59 57 79 58
REMARK SMILES IDX 48 59 33 60 34 61 42 62 35 63 41 64 36 65 37 66 38 67 39 68
REMARK SMILES IDX 40 69 63 70 64 71 72 72 65 73 71 74 66 75 67 76 68 77 69 78
REMARK SMILES IDX 70 79 49 80 50 81 58 82 51 83 57 84 52 85 53 86 54 87 55 88
REMARK SMILES IDX 56 89
REMARK H PARENT 17 7 13 15 13 16 21 26 77 45 47 56
REMARK Flexibility Score: inf
ROOT
ATOM      1  C   UNL A   1      36.571  23.840  25.914  1.00  0.00     0.118 C 
ENDROOT
BRANCH   1   2
ATOM      2  C   UNL A   1      35.902  23.904  24.549  1.00  0.00     0.042 C 
BRANCH   2   3
ATOM      3  C   UNL A   1      35.495  22.544  23.986  1.00  0.00     0.118 C 
BRANCH   3   4
ATOM      4  N   UNL A   1      34.365  21.959  24.696  1.00  0.00    -0.351 N 
ATOM      5  C   UNL A   1      33.169  22.416  25.153  1.00  0.00     0.279 C 
ATOM      6  O   UNL A   1      32.488  21.586  25.772  1.00  0.00    -0.268 OA
ATOM      7  H   UNL A   1      34.501  21.004  24.892  1.00  0.00     0.163 HD
BRANCH   5   8
ATOM      8  C   UNL A   1      32.639  23.855  24.999  1.00  0.00     0.289 C 
ATOM      9  C   UNL A   1      30.802  23.089  23.306  1.00  0.00     0.030 C 
ATOM     10  C   UNL A   1      31.849  24.123  23.704  1.00  0.00     0.077 C 
ATOM     11  C   UNL A   1      32.790  24.373  22.519  1.00  0.00     0.030 C 
ATOM     12  S   UNL A   1      30.955  25.667  24.089  1.00  0.00    -0.081 SA
ATOM     13  C   UNL A   1      31.314  25.634  25.871  1.00  0.00     0.274 C 
ATOM     14  N   UNL A   1      31.925  24.342  26.206  1.00  0.00    -0.320 N 
ATOM     15  H   UNL A   1      31.202  23.675  26.475  1.00  0.00     0.348 HD
ATOM     16  H   UNL A   1      32.572  24.446  26.987  1.00  0.00     0.348 HD
BRANCH  13  17
ATOM     17  C   UNL A   1      32.101  26.861  26.298  1.00  0.00     0.020 A 
ATOM     18  C   UNL A   1      31.431  27.876  27.012  1.00  0.00     0.012 A 
ATOM     19  C   UNL A   1      33.464  27.043  26.019  1.00  0.00     0.012 A 
ATOM     20  C   UNL A   1      32.089  29.042  27.405  1.00  0.00     0.016 A 
ATOM     21  C   UNL A   1      34.128  28.211  26.413  1.00  0.00     0.016 A 
ATOM     22  C   UNL A   1      33.435  29.206  27.098  1.00  0.00     0.018 A 
ATOM     23  Br  UNL A   1      34.327  30.790  27.614  1.00  0.00    -0.051 Br
ENDBRANCH  13  17
ENDBRANCH   5   8
ENDBRANCH   3   4
ENDBRANCH   2   3
ENDBRANCH   1   2
BRANCH   1  24
ATOM     24  N   UNL A   1      37.674  22.893  25.939  1.00  0.00    -0.352 N 
ATOM     25  C   UNL A   1      38.986  23.081  26.303  1.00  0.00     0.251 C 
ATOM     26  H   UNL A   1      37.446  21.980  25.651  1.00  0.00     0.163 HD
ATOM     27  O   UNL A   1      39.812  22.216  26.025  1.00  0.00    -0.269 OA
BRANCH  25  28
ATOM     28  C   UNL A   1      39.415  24.316  27.003  1.00  0.00     0.039 A 
ATOM     29  C   UNL A   1      40.141  25.279  26.295  1.00  0.00     0.014 A 
ATOM     30  C   UNL A   1      39.151  24.513  28.361  1.00  0.00     0.014 A 
ATOM     31  C   UNL A   1      40.551  26.454  26.933  1.00  0.00     0.010 A 
ATOM     32  C   UNL A   1      39.479  25.723  28.970  1.00  0.00     0.010 A 
ATOM     33  C   UNL A   1      40.200  26.700  28.269  1.00  0.00    -0.014 A 
BRANCH  33  34
ATOM     34  C   UNL A   1      40.613  27.947  28.966  1.00  0.00     0.031 A 
ATOM     35  C   UNL A   1      41.987  28.049  29.581  1.00  0.00     0.074 A 
ATOM     36  C   UNL A   1      39.745  28.970  29.094  1.00  0.00     0.049 A 
ATOM     37  N   UNL A   1      42.506  29.022  30.285  1.00  0.00    -0.248 NA
ATOM     38  C   UNL A   1      42.883  26.893  29.406  1.00  0.00     0.031 C 
ATOM     39  C   UNL A   1      38.373  28.989  28.580  1.00  0.00     0.029 A 
ATOM     40  N   UNL A   1      39.887  30.192  29.701  1.00  0.00    -0.354 N 
ATOM     41  C   UNL A   1      43.774  28.587  30.657  1.00  0.00     0.074 A 
ATOM     42  C   UNL A   1      43.927  27.244  30.142  1.00  0.00     0.031 C 
ATOM     43  C   UNL A   1      37.812  30.175  28.866  1.00  0.00     0.029 A 
ATOM     44  C   UNL A   1      38.768  30.987  29.613  1.00  0.00     0.049 A 
ATOM     45  H   UNL A   1      40.713  30.475  30.157  1.00  0.00     0.167 HD
ATOM     46  C   UNL A   1      44.735  29.248  31.345  1.00  0.00     0.031 A 
ATOM     47  C   UNL A   1      38.536  32.229  30.081  1.00  0.00     0.031 A 
ATOM     48  C   UNL A   1      44.599  30.594  31.831  1.00  0.00     0.049 A 
ATOM     49  C   UNL A   1      39.622  32.952  30.827  1.00  0.00     0.074 A 
ATOM     50  C   UNL A   1      45.535  31.371  32.491  1.00  0.00     0.029 A 
ATOM     51  N   UNL A   1      43.456  31.369  31.703  1.00  0.00    -0.354 N 
ATOM     52  N   UNL A   1      40.829  32.537  31.128  1.00  0.00    -0.248 NA
ATOM     53  C   UNL A   1      39.318  34.315  31.285  1.00  0.00     0.031 C 
ATOM     54  C   UNL A   1      44.946  32.605  32.791  1.00  0.00     0.029 A 
ATOM     55  C   UNL A   1      43.658  32.611  32.279  1.00  0.00     0.049 A 
ATOM     56  H   UNL A   1      42.623  31.079  31.265  1.00  0.00     0.167 HD
ATOM     57  C   UNL A   1      41.438  33.597  31.791  1.00  0.00     0.074 A 
ATOM     58  C   UNL A   1      40.471  34.675  31.836  1.00  0.00     0.031 C 
ATOM     59  C   UNL A   1      42.685  33.672  32.316  1.00  0.00     0.031 A 
BRANCH  46  60
ATOM     60  C   UNL A   1      46.026  28.518  31.606  1.00  0.00    -0.014 A 
ATOM     61  C   UNL A   1      46.187  27.722  32.754  1.00  0.00     0.010 A 
ATOM     62  C   UNL A   1      47.083  28.612  30.682  1.00  0.00     0.010 A 
ATOM     63  C   UNL A   1      47.399  27.070  32.998  1.00  0.00     0.020 A 
ATOM     64  C   UNL A   1      48.288  27.939  30.911  1.00  0.00     0.020 A 
ATOM     65  C   UNL A   1      48.444  27.189  32.078  1.00  0.00     0.054 A 
BRANCH  65  66
ATOM     66  S   UNL A   1      50.002  26.324  32.413  1.00  0.00     0.124 S 
ATOM     67  O   UNL A   1      50.691  27.275  33.284  1.00  0.00    -0.237 OA
ATOM     68  O   UNL A   1      49.556  25.092  33.060  1.00  0.00    -0.237 OA
ATOM     69  O   UNL A   1      50.594  26.150  31.089  1.00  0.00    -0.744 OA
ENDBRANCH  65  66
ENDBRANCH  46  60
BRANCH  47  70
ATOM     70  C   UNL A   1      37.222  32.882  29.830  1.00  0.00    -0.014 A 
ATOM     71  C   UNL A   1      36.204  32.823  30.798  1.00  0.00     0.010 A 
ATOM     72  C   UNL A   1      36.989  33.581  28.632  1.00  0.00     0.010 A 
ATOM     73  C   UNL A   1      34.972  33.439  30.568  1.00  0.00     0.020 A 
ATOM     74  C   UNL A   1      35.765  34.218  28.408  1.00  0.00     0.020 A 
ATOM     75  C   UNL A   1      34.761  34.135  29.374  1.00  0.00     0.054 A 
BRANCH  75  76
ATOM     76  S   UNL A   1      33.175  34.981  29.122  1.00  0.00     0.124 S 
ATOM     77  O   UNL A   1      33.604  36.307  28.689  1.00  0.00    -0.237 OA
ATOM     78  O   UNL A   1      32.535  34.157  28.100  1.00  0.00    -0.237 OA
ATOM     79  O   UNL A   1      32.547  34.924  30.440  1.00  0.00    -0.744 OA
ENDBRANCH  75  76
ENDBRANCH  47  70
BRANCH  59  80
ATOM     80  C   UNL A   1      43.088  34.970  32.958  1.00  0.00    -0.014 A 
ATOM     81  C   UNL A   1      42.939  35.174  34.341  1.00  0.00     0.010 A 
ATOM     82  C   UNL A   1      43.671  35.982  32.172  1.00  0.00     0.010 A 
ATOM     83  C   UNL A   1      43.340  36.379  34.922  1.00  0.00     0.020 A 
ATOM     84  C   UNL A   1      44.092  37.179  32.754  1.00  0.00     0.020 A 
ATOM     85  C   UNL A   1      43.910  37.376  34.124  1.00  0.00     0.054 A 
BRANCH  85  86
ATOM     86  S   UNL A   1      44.461  38.917  34.907  1.00  0.00     0.124 S 
ATOM     87  O   UNL A   1      43.622  39.911  34.242  1.00  0.00    -0.237 OA
ATOM     88  O   UNL A   1      44.163  38.687  36.319  1.00  0.00    -0.237 OA
ATOM     89  O   UNL A   1      45.884  38.981  34.581  1.00  0.00    -0.744 OA
ENDBRANCH  85  86
ENDBRANCH  59  80
ENDBRANCH  33  34
ENDBRANCH  25  28
ENDBRANCH   1  24
TORSDOF 14
ENDMDL
