MODEL 1
REMARK VINA RESULT:     -13.0      0.000      0.000
REMARK SMILES Cc1nsc(NC(=O)N2CCC[C@@H](C)C2)c1C(=O)NCCCNC(=O)c1ccc(-c2c3nc(c(-c4ccc(S(=O)(=O)[O-])cc4)c4ccc([nH]4)c(-c4ccc(S(=O)(=O)[O-])cc4)c4nc(c(-c5ccc(S(=O)(=O)[O-])cc5)c5ccc2[nH]5)C=C4)C=C3)cc1
REMARK SMILES IDX 21 1 20 2 19 3 17 4 18 5 16 7 1 8 2 9 3 10 4 11 5 12 6 13
REMARK SMILES IDX 7 14 8 16 9 17 10 18 15 19 11 20 13 21 12 22 14 23 22 24
REMARK SMILES IDX 23 25 24 26 25 28 26 29 27 30 85 31 28 32 84 33 29 34 30 35
REMARK SMILES IDX 31 36 78 37 32 38 83 39 77 40 79 41 33 42 82 43 76 44 75 45
REMARK SMILES IDX 34 47 64 48 45 49 63 50 46 51 49 52 62 53 80 54 47 55 48 56
REMARK SMILES IDX 61 58 81 59 50 60 35 61 36 62 44 63 37 64 43 65 38 66 39 67
REMARK SMILES IDX 40 68 41 69 42 70 65 71 66 72 74 73 67 74 73 75 68 76 69 77
REMARK SMILES IDX 70 78 71 79 72 80 51 81 52 82 60 83 53 84 59 85 54 86 55 87
REMARK SMILES IDX 56 88 57 89 58 90
REMARK H PARENT 19 6 6 15 23 27 79 46 49 57
REMARK Flexibility Score: inf
ROOT
ATOM      1  C   UNL A   1      36.598  22.042  24.872  1.00  0.00     0.042 C 
ENDROOT
BRANCH   1   2
ATOM      2  C   UNL A   1      35.499  23.025  24.477  1.00  0.00     0.118 C 
BRANCH   2   3
ATOM      3  N   UNL A   1      34.338  22.407  23.886  1.00  0.00    -0.352 N 
ATOM      4  C   UNL A   1      32.997  22.467  24.147  1.00  0.00     0.256 C 
ATOM      5  O   UNL A   1      32.294  22.111  23.192  1.00  0.00    -0.269 OA
ATOM      6  H   UNL A   1      34.559  21.814  23.130  1.00  0.00     0.163 HD
BRANCH   4   7
ATOM      7  C   UNL A   1      32.373  22.786  25.439  1.00  0.00     0.097 A 
ATOM      8  C   UNL A   1      33.988  22.353  27.563  1.00  0.00     0.069 C 
ATOM      9  C   UNL A   1      32.714  22.627  26.853  1.00  0.00     0.066 A 
ATOM     10  N   UNL A   1      31.693  22.738  27.711  1.00  0.00    -0.195 NA
ATOM     11  S   UNL A   1      30.335  23.081  26.875  1.00  0.00    -0.017 S 
ATOM     12  C   UNL A   1      31.129  23.438  25.420  1.00  0.00     0.130 A 
BRANCH  12  13
ATOM     13  N   UNL A   1      30.468  24.077  24.383  1.00  0.00    -0.297 N 
ATOM     14  C   UNL A   1      30.382  25.416  24.119  1.00  0.00     0.322 C 
ATOM     15  H   UNL A   1      29.997  23.488  23.750  1.00  0.00     0.172 HD
ATOM     16  O   UNL A   1      29.398  25.855  23.524  1.00  0.00    -0.248 OA
BRANCH  14  17
ATOM     17  N   UNL A   1      31.410  26.245  24.512  1.00  0.00    -0.324 N 
ATOM     18  C   UNL A   1      32.675  26.356  23.789  1.00  0.00     0.121 C 
ATOM     19  C   UNL A   1      31.119  27.336  25.426  1.00  0.00     0.124 C 
ATOM     20  C   UNL A   1      33.870  26.594  24.718  1.00  0.00     0.022 C 
ATOM     21  C   UNL A   1      32.199  27.351  26.511  1.00  0.00     0.005 C 
ATOM     22  C   UNL A   1      33.583  27.562  25.873  1.00  0.00     0.007 C 
ATOM     23  C   UNL A   1      31.905  28.391  27.584  1.00  0.00     0.009 C 
ENDBRANCH  14  17
ENDBRANCH  12  13
ENDBRANCH   4   7
ENDBRANCH   2   3
ENDBRANCH   1   2
BRANCH   1  24
ATOM     24  C   UNL A   1      37.855  22.720  25.376  1.00  0.00     0.118 C 
BRANCH  24  25
ATOM     25  N   UNL A   1      38.602  21.855  26.294  1.00  0.00    -0.352 N 
ATOM     26  C   UNL A   1      39.723  22.165  27.044  1.00  0.00     0.251 C 
ATOM     27  H   UNL A   1      38.263  20.935  26.390  1.00  0.00     0.163 HD
ATOM     28  O   UNL A   1      40.443  21.289  27.485  1.00  0.00    -0.269 OA
BRANCH  26  29
ATOM     29  C   UNL A   1      40.017  23.590  27.275  1.00  0.00     0.039 A 
ATOM     30  C   UNL A   1      39.040  24.571  27.095  1.00  0.00     0.014 A 
ATOM     31  C   UNL A   1      41.269  23.906  27.787  1.00  0.00     0.014 A 
ATOM     32  C   UNL A   1      39.307  25.862  27.542  1.00  0.00     0.010 A 
ATOM     33  C   UNL A   1      41.454  25.120  28.392  1.00  0.00     0.010 A 
ATOM     34  C   UNL A   1      40.504  26.121  28.230  1.00  0.00    -0.014 A 
BRANCH  34  35
ATOM     35  C   UNL A   1      40.740  27.403  28.883  1.00  0.00     0.031 A 
ATOM     36  C   UNL A   1      41.914  28.165  28.383  1.00  0.00     0.074 A 
ATOM     37  C   UNL A   1      39.868  27.965  29.749  1.00  0.00     0.049 A 
ATOM     38  N   UNL A   1      43.040  28.328  28.992  1.00  0.00    -0.248 NA
ATOM     39  C   UNL A   1      41.901  28.686  27.008  1.00  0.00     0.031 C 
ATOM     40  C   UNL A   1      38.539  27.490  30.156  1.00  0.00     0.029 A 
ATOM     41  N   UNL A   1      39.954  29.168  30.372  1.00  0.00    -0.354 N 
ATOM     42  C   UNL A   1      43.805  29.158  28.182  1.00  0.00     0.074 A 
ATOM     43  C   UNL A   1      43.132  29.199  26.907  1.00  0.00     0.031 C 
ATOM     44  C   UNL A   1      37.858  28.496  30.748  1.00  0.00     0.029 A 
ATOM     45  C   UNL A   1      38.764  29.612  30.936  1.00  0.00     0.049 A 
ATOM     46  H   UNL A   1      40.791  29.684  30.420  1.00  0.00     0.167 HD
ATOM     47  C   UNL A   1      44.808  29.924  28.698  1.00  0.00     0.031 A 
ATOM     48  C   UNL A   1      38.540  30.813  31.523  1.00  0.00     0.031 A 
ATOM     49  C   UNL A   1      45.095  29.567  30.065  1.00  0.00     0.049 A 
ATOM     50  C   UNL A   1      39.862  31.328  31.954  1.00  0.00     0.074 A 
ATOM     51  C   UNL A   1      45.519  28.417  30.701  1.00  0.00     0.029 A 
ATOM     52  N   UNL A   1      44.532  30.358  31.042  1.00  0.00    -0.354 N 
ATOM     53  N   UNL A   1      40.575  30.753  32.884  1.00  0.00    -0.248 NA
ATOM     54  C   UNL A   1      40.607  32.185  31.045  1.00  0.00     0.031 C 
ATOM     55  C   UNL A   1      44.759  28.366  31.907  1.00  0.00     0.029 A 
ATOM     56  C   UNL A   1      43.980  29.524  31.983  1.00  0.00     0.049 A 
ATOM     57  H   UNL A   1      44.526  31.343  31.062  1.00  0.00     0.167 HD
ATOM     58  C   UNL A   1      41.877  30.798  32.409  1.00  0.00     0.074 A 
ATOM     59  C   UNL A   1      41.852  31.789  31.334  1.00  0.00     0.031 C 
ATOM     60  C   UNL A   1      42.785  29.831  32.743  1.00  0.00     0.031 A 
BRANCH  47  61
ATOM     61  C   UNL A   1      45.269  31.236  28.118  1.00  0.00    -0.014 A 
ATOM     62  C   UNL A   1      44.314  32.248  27.885  1.00  0.00     0.010 A 
ATOM     63  C   UNL A   1      46.545  31.412  27.547  1.00  0.00     0.010 A 
ATOM     64  C   UNL A   1      44.605  33.347  27.067  1.00  0.00     0.020 A 
ATOM     65  C   UNL A   1      46.857  32.526  26.763  1.00  0.00     0.020 A 
ATOM     66  C   UNL A   1      45.873  33.470  26.500  1.00  0.00     0.054 A 
BRANCH  66  67
ATOM     67  S   UNL A   1      46.203  34.837  25.362  1.00  0.00     0.124 S 
ATOM     68  O   UNL A   1      45.311  34.525  24.249  1.00  0.00    -0.237 OA
ATOM     69  O   UNL A   1      45.835  36.002  26.163  1.00  0.00    -0.237 OA
ATOM     70  O   UNL A   1      47.631  34.708  25.078  1.00  0.00    -0.744 OA
ENDBRANCH  66  67
ENDBRANCH  47  61
BRANCH  48  71
ATOM     71  C   UNL A   1      37.308  31.634  31.514  1.00  0.00    -0.014 A 
ATOM     72  C   UNL A   1      36.418  31.618  32.603  1.00  0.00     0.010 A 
ATOM     73  C   UNL A   1      37.156  32.661  30.558  1.00  0.00     0.010 A 
ATOM     74  C   UNL A   1      35.462  32.635  32.771  1.00  0.00     0.020 A 
ATOM     75  C   UNL A   1      36.203  33.675  30.716  1.00  0.00     0.020 A 
ATOM     76  C   UNL A   1      35.379  33.672  31.840  1.00  0.00     0.054 A 
BRANCH  76  77
ATOM     77  S   UNL A   1      34.287  35.088  32.175  1.00  0.00     0.124 S 
ATOM     78  O   UNL A   1      34.011  35.592  30.834  1.00  0.00    -0.237 OA
ATOM     79  O   UNL A   1      33.160  34.463  32.862  1.00  0.00    -0.237 OA
ATOM     80  O   UNL A   1      35.108  35.963  33.012  1.00  0.00    -0.744 OA
ENDBRANCH  76  77
ENDBRANCH  48  71
BRANCH  60  81
ATOM     81  C   UNL A   1      42.420  28.858  33.846  1.00  0.00    -0.014 A 
ATOM     82  C   UNL A   1      41.677  27.677  33.639  1.00  0.00     0.010 A 
ATOM     83  C   UNL A   1      42.971  29.082  35.119  1.00  0.00     0.010 A 
ATOM     84  C   UNL A   1      41.460  26.771  34.689  1.00  0.00     0.020 A 
ATOM     85  C   UNL A   1      42.775  28.174  36.163  1.00  0.00     0.020 A 
ATOM     86  C   UNL A   1      42.008  27.029  35.947  1.00  0.00     0.054 A 
BRANCH  86  87
ATOM     87  S   UNL A   1      41.745  25.846  37.299  1.00  0.00     0.124 S 
ATOM     88  O   UNL A   1      41.989  24.561  36.648  1.00  0.00    -0.237 OA
ATOM     89  O   UNL A   1      42.744  26.251  38.286  1.00  0.00    -0.237 OA
ATOM     90  O   UNL A   1      40.360  26.080  37.703  1.00  0.00    -0.744 OA
ENDBRANCH  86  87
ENDBRANCH  60  81
ENDBRANCH  34  35
ENDBRANCH  26  29
ENDBRANCH  24  25
ENDBRANCH   1  24
TORSDOF 15
ENDMDL
MODEL 2
REMARK VINA RESULT:     -12.5      1.435      2.169
REMARK SMILES Cc1nsc(NC(=O)N2CCC[C@@H](C)C2)c1C(=O)NCCCNC(=O)c1ccc(-c2c3nc(c(-c4ccc(S(=O)(=O)[O-])cc4)c4ccc([nH]4)c(-c4ccc(S(=O)(=O)[O-])cc4)c4nc(c(-c5ccc(S(=O)(=O)[O-])cc5)c5ccc2[nH]5)C=C4)C=C3)cc1
REMARK SMILES IDX 21 1 20 2 19 3 17 4 18 5 16 7 1 8 2 9 3 10 4 11 5 12 6 13
REMARK SMILES IDX 7 14 8 16 9 17 10 18 15 19 11 20 13 21 12 22 14 23 22 24
REMARK SMILES IDX 23 25 24 26 25 28 26 29 27 30 85 31 28 32 84 33 29 34 30 35
REMARK SMILES IDX 31 36 78 37 32 38 83 39 77 40 79 41 33 42 82 43 76 44 75 45
REMARK SMILES IDX 34 47 64 48 45 49 63 50 46 51 49 52 62 53 80 54 47 55 48 56
REMARK SMILES IDX 61 58 81 59 50 60 35 61 36 62 44 63 37 64 43 65 38 66 39 67
REMARK SMILES IDX 40 68 41 69 42 70 65 71 66 72 74 73 67 74 73 75 68 76 69 77
REMARK SMILES IDX 70 78 71 79 72 80 51 81 52 82 60 83 53 84 59 85 54 86 55 87
REMARK SMILES IDX 56 88 57 89 58 90
REMARK H PARENT 19 6 6 15 23 27 79 46 49 57
REMARK Flexibility Score: inf
ROOT
ATOM      1  C   UNL A   1      37.235  21.699  24.636  1.00  0.00     0.042 C 
ENDROOT
BRANCH   1   2
ATOM      2  C   UNL A   1      36.067  21.064  25.387  1.00  0.00     0.118 C 
BRANCH   2   3
ATOM      3  N   UNL A   1      35.392  21.957  26.295  1.00  0.00    -0.352 N 
ATOM      4  C   UNL A   1      34.279  22.745  26.195  1.00  0.00     0.256 C 
ATOM      5  O   UNL A   1      33.799  23.059  27.292  1.00  0.00    -0.269 OA
ATOM      6  H   UNL A   1      35.827  22.011  27.177  1.00  0.00     0.163 HD
BRANCH   4   7
ATOM      7  C   UNL A   1      33.719  23.312  24.960  1.00  0.00     0.097 A 
ATOM      8  C   UNL A   1      32.519  21.484  23.371  1.00  0.00     0.069 C 
ATOM      9  C   UNL A   1      33.109  22.796  23.733  1.00  0.00     0.066 A 
ATOM     10  N   UNL A   1      33.062  23.652  22.706  1.00  0.00    -0.195 NA
ATOM     11  S   UNL A   1      33.685  25.083  23.181  1.00  0.00    -0.017 S 
ATOM     12  C   UNL A   1      33.696  24.711  24.835  1.00  0.00     0.130 A 
BRANCH  12  13
ATOM     13  N   UNL A   1      33.885  25.699  25.789  1.00  0.00    -0.297 N 
ATOM     14  C   UNL A   1      33.257  26.908  25.903  1.00  0.00     0.322 C 
ATOM     15  H   UNL A   1      34.562  25.505  26.476  1.00  0.00     0.172 HD
ATOM     16  O   UNL A   1      33.845  27.849  26.436  1.00  0.00    -0.248 OA
BRANCH  14  17
ATOM     17  N   UNL A   1      31.968  27.042  25.435  1.00  0.00    -0.324 N 
ATOM     18  C   UNL A   1      30.832  26.301  25.981  1.00  0.00     0.121 C 
ATOM     19  C   UNL A   1      31.625  28.220  24.657  1.00  0.00     0.124 C 
ATOM     20  C   UNL A   1      29.793  25.941  24.915  1.00  0.00     0.022 C 
ATOM     21  C   UNL A   1      30.820  27.767  23.436  1.00  0.00     0.005 C 
ATOM     22  C   UNL A   1      29.536  27.051  23.889  1.00  0.00     0.007 C 
ATOM     23  C   UNL A   1      30.520  28.928  22.497  1.00  0.00     0.009 C 
ENDBRANCH  14  17
ENDBRANCH  12  13
ENDBRANCH   4   7
ENDBRANCH   2   3
ENDBRANCH   1   2
BRANCH   1  24
ATOM     24  C   UNL A   1      38.105  22.575  25.513  1.00  0.00     0.118 C 
BRANCH  24  25
ATOM     25  N   UNL A   1      38.911  21.776  26.441  1.00  0.00    -0.352 N 
ATOM     26  C   UNL A   1      40.010  22.173  27.183  1.00  0.00     0.251 C 
ATOM     27  H   UNL A   1      38.635  20.837  26.551  1.00  0.00     0.163 HD
ATOM     28  O   UNL A   1      40.788  21.353  27.634  1.00  0.00    -0.269 OA
BRANCH  26  29
ATOM     29  C   UNL A   1      40.207  23.617  27.393  1.00  0.00     0.039 A 
ATOM     30  C   UNL A   1      39.137  24.512  27.333  1.00  0.00     0.014 A 
ATOM     31  C   UNL A   1      41.479  24.039  27.761  1.00  0.00     0.014 A 
ATOM     32  C   UNL A   1      39.343  25.821  27.760  1.00  0.00     0.010 A 
ATOM     33  C   UNL A   1      41.628  25.265  28.353  1.00  0.00     0.010 A 
ATOM     34  C   UNL A   1      40.585  26.181  28.308  1.00  0.00    -0.014 A 
BRANCH  34  35
ATOM     35  C   UNL A   1      40.785  27.479  28.943  1.00  0.00     0.031 A 
ATOM     36  C   UNL A   1      41.844  28.326  28.336  1.00  0.00     0.074 A 
ATOM     37  C   UNL A   1      39.960  27.975  29.891  1.00  0.00     0.049 A 
ATOM     38  N   UNL A   1      43.009  28.576  28.835  1.00  0.00    -0.248 NA
ATOM     39  C   UNL A   1      41.660  28.842  26.971  1.00  0.00     0.031 C 
ATOM     40  C   UNL A   1      38.716  27.402  30.422  1.00  0.00     0.029 A 
ATOM     41  N   UNL A   1      40.014  29.183  30.509  1.00  0.00    -0.354 N 
ATOM     42  C   UNL A   1      43.627  29.459  27.960  1.00  0.00     0.074 A 
ATOM     43  C   UNL A   1      42.833  29.446  26.755  1.00  0.00     0.031 C 
ATOM     44  C   UNL A   1      38.021  28.355  31.080  1.00  0.00     0.029 A 
ATOM     45  C   UNL A   1      38.854  29.537  31.187  1.00  0.00     0.049 A 
ATOM     46  H   UNL A   1      40.810  29.760  30.479  1.00  0.00     0.167 HD
ATOM     47  C   UNL A   1      44.614  30.300  28.381  1.00  0.00     0.031 A 
ATOM     48  C   UNL A   1      38.597  30.719  31.799  1.00  0.00     0.031 A 
ATOM     49  C   UNL A   1      45.057  29.969  29.713  1.00  0.00     0.049 A 
ATOM     50  C   UNL A   1      39.912  31.333  32.104  1.00  0.00     0.074 A 
ATOM     51  C   UNL A   1      45.626  28.856  30.299  1.00  0.00     0.029 A 
ATOM     52  N   UNL A   1      44.532  30.717  30.743  1.00  0.00    -0.354 N 
ATOM     53  N   UNL A   1      40.752  30.815  32.957  1.00  0.00    -0.248 NA
ATOM     54  C   UNL A   1      40.499  32.242  31.131  1.00  0.00     0.031 C 
ATOM     55  C   UNL A   1      44.992  28.751  31.572  1.00  0.00     0.029 A 
ATOM     56  C   UNL A   1      44.138  29.846  31.728  1.00  0.00     0.049 A 
ATOM     57  H   UNL A   1      44.454  31.698  30.768  1.00  0.00     0.167 HD
ATOM     58  C   UNL A   1      41.996  30.958  32.360  1.00  0.00     0.074 A 
ATOM     59  C   UNL A   1      41.792  31.942  31.298  1.00  0.00     0.031 C 
ATOM     60  C   UNL A   1      43.002  30.063  32.601  1.00  0.00     0.031 A 
BRANCH  47  61
ATOM     61  C   UNL A   1      44.917  31.642  27.766  1.00  0.00    -0.014 A 
ATOM     62  C   UNL A   1      46.081  31.782  26.982  1.00  0.00     0.010 A 
ATOM     63  C   UNL A   1      44.252  32.824  28.149  1.00  0.00     0.010 A 
ATOM     64  C   UNL A   1      46.589  33.045  26.656  1.00  0.00     0.020 A 
ATOM     65  C   UNL A   1      44.729  34.088  27.793  1.00  0.00     0.020 A 
ATOM     66  C   UNL A   1      45.915  34.191  27.077  1.00  0.00     0.054 A 
BRANCH  66  67
ATOM     67  S   UNL A   1      46.637  35.816  26.739  1.00  0.00     0.124 S 
ATOM     68  O   UNL A   1      47.414  36.058  27.951  1.00  0.00    -0.237 OA
ATOM     69  O   UNL A   1      47.413  35.563  25.528  1.00  0.00    -0.237 OA
ATOM     70  O   UNL A   1      45.470  36.677  26.558  1.00  0.00    -0.744 OA
ENDBRANCH  66  67
ENDBRANCH  47  61
BRANCH  48  71
ATOM     71  C   UNL A   1      37.311  31.444  31.911  1.00  0.00    -0.014 A 
ATOM     72  C   UNL A   1      36.862  31.934  33.152  1.00  0.00     0.010 A 
ATOM     73  C   UNL A   1      36.666  31.913  30.748  1.00  0.00     0.010 A 
ATOM     74  C   UNL A   1      35.858  32.915  33.220  1.00  0.00     0.020 A 
ATOM     75  C   UNL A   1      35.661  32.887  30.809  1.00  0.00     0.020 A 
ATOM     76  C   UNL A   1      35.282  33.405  32.046  1.00  0.00     0.054 A 
BRANCH  76  77
ATOM     77  S   UNL A   1      34.139  34.817  32.133  1.00  0.00     0.124 S 
ATOM     78  O   UNL A   1      34.919  35.803  32.874  1.00  0.00    -0.237 OA
ATOM     79  O   UNL A   1      33.905  35.124  30.725  1.00  0.00    -0.237 OA
ATOM     80  O   UNL A   1      32.981  34.277  32.845  1.00  0.00    -0.744 OA
ENDBRANCH  76  77
ENDBRANCH  48  71
BRANCH  60  81
ATOM     81  C   UNL A   1      42.819  29.068  33.729  1.00  0.00    -0.014 A 
ATOM     82  C   UNL A   1      43.157  29.330  35.072  1.00  0.00     0.010 A 
ATOM     83  C   UNL A   1      42.150  27.867  33.433  1.00  0.00     0.010 A 
ATOM     84  C   UNL A   1      42.869  28.398  36.082  1.00  0.00     0.020 A 
ATOM     85  C   UNL A   1      41.843  26.944  34.436  1.00  0.00     0.020 A 
ATOM     86  C   UNL A   1      42.216  27.207  35.754  1.00  0.00     0.054 A 
BRANCH  86  87
ATOM     87  S   UNL A   1      41.824  26.011  37.063  1.00  0.00     0.124 S 
ATOM     88  O   UNL A   1      41.937  24.731  36.369  1.00  0.00    -0.237 OA
ATOM     89  O   UNL A   1      42.854  26.277  38.066  1.00  0.00    -0.237 OA
ATOM     90  O   UNL A   1      40.468  26.374  37.472  1.00  0.00    -0.744 OA
ENDBRANCH  86  87
ENDBRANCH  60  81
ENDBRANCH  34  35
ENDBRANCH  26  29
ENDBRANCH  24  25
ENDBRANCH   1  24
TORSDOF 15
ENDMDL
MODEL 3
REMARK VINA RESULT:     -12.5      2.750      9.373
REMARK SMILES Cc1nsc(NC(=O)N2CCC[C@@H](C)C2)c1C(=O)NCCCNC(=O)c1ccc(-c2c3nc(c(-c4ccc(S(=O)(=O)[O-])cc4)c4ccc([nH]4)c(-c4ccc(S(=O)(=O)[O-])cc4)c4nc(c(-c5ccc(S(=O)(=O)[O-])cc5)c5ccc2[nH]5)C=C4)C=C3)cc1
REMARK SMILES IDX 21 1 20 2 19 3 17 4 18 5 16 7 1 8 2 9 3 10 4 11 5 12 6 13
REMARK SMILES IDX 7 14 8 16 9 17 10 18 15 19 11 20 13 21 12 22 14 23 22 24
REMARK SMILES IDX 23 25 24 26 25 28 26 29 27 30 85 31 28 32 84 33 29 34 30 35
REMARK SMILES IDX 31 36 78 37 32 38 83 39 77 40 79 41 33 42 82 43 76 44 75 45
REMARK SMILES IDX 34 47 64 48 45 49 63 50 46 51 49 52 62 53 80 54 47 55 48 56
REMARK SMILES IDX 61 58 81 59 50 60 35 61 36 62 44 63 37 64 43 65 38 66 39 67
REMARK SMILES IDX 40 68 41 69 42 70 65 71 66 72 74 73 67 74 73 75 68 76 69 77
REMARK SMILES IDX 70 78 71 79 72 80 51 81 52 82 60 83 53 84 59 85 54 86 55 87
REMARK SMILES IDX 56 88 57 89 58 90
REMARK H PARENT 19 6 6 15 23 27 79 46 49 57
REMARK Flexibility Score: inf
ROOT
ATOM      1  C   UNL A   1      32.228  30.114  26.525  1.00  0.00     0.042 C 
ENDROOT
BRANCH   1   2
ATOM      2  C   UNL A   1      31.866  28.847  27.295  1.00  0.00     0.118 C 
BRANCH   2   3
ATOM      3  N   UNL A   1      32.734  27.727  27.031  1.00  0.00    -0.352 N 
ATOM      4  C   UNL A   1      32.950  26.933  25.938  1.00  0.00     0.256 C 
ATOM      5  O   UNL A   1      34.034  26.338  25.968  1.00  0.00    -0.269 OA
ATOM      6  H   UNL A   1      33.293  27.480  27.804  1.00  0.00     0.163 HD
BRANCH   4   7
ATOM      7  C   UNL A   1      31.993  26.659  24.856  1.00  0.00     0.097 A 
ATOM      8  C   UNL A   1      32.939  27.241  22.392  1.00  0.00     0.069 C 
ATOM      9  C   UNL A   1      31.920  26.897  23.414  1.00  0.00     0.066 A 
ATOM     10  N   UNL A   1      30.701  26.799  22.871  1.00  0.00    -0.195 NA
ATOM     11  S   UNL A   1      29.637  26.377  24.034  1.00  0.00    -0.017 S 
ATOM     12  C   UNL A   1      30.813  25.972  25.187  1.00  0.00     0.130 A 
BRANCH  12  13
ATOM     13  N   UNL A   1      30.478  25.265  26.331  1.00  0.00    -0.297 N 
ATOM     14  C   UNL A   1      30.718  23.951  26.626  1.00  0.00     0.322 C 
ATOM     15  H   UNL A   1      30.005  25.777  27.026  1.00  0.00     0.172 HD
ATOM     16  O   UNL A   1      29.958  23.352  27.386  1.00  0.00    -0.248 OA
BRANCH  14  17
ATOM     17  N   UNL A   1      31.818  23.330  26.076  1.00  0.00    -0.324 N 
ATOM     18  C   UNL A   1      32.943  22.836  26.868  1.00  0.00     0.121 C 
ATOM     19  C   UNL A   1      31.714  22.783  24.734  1.00  0.00     0.124 C 
ATOM     20  C   UNL A   1      34.284  22.972  26.141  1.00  0.00     0.022 C 
ATOM     21  C   UNL A   1      32.965  23.196  23.953  1.00  0.00     0.005 C 
ATOM     22  C   UNL A   1      34.223  22.643  24.644  1.00  0.00     0.007 C 
ATOM     23  C   UNL A   1      32.885  22.766  22.494  1.00  0.00     0.009 C 
ENDBRANCH  14  17
ENDBRANCH  12  13
ENDBRANCH   4   7
ENDBRANCH   2   3
ENDBRANCH   1   2
BRANCH   1  24
ATOM     24  C   UNL A   1      33.607  30.644  26.857  1.00  0.00     0.118 C 
BRANCH  24  25
ATOM     25  N   UNL A   1      33.548  31.700  27.872  1.00  0.00    -0.352 N 
ATOM     26  C   UNL A   1      34.461  31.978  28.875  1.00  0.00     0.251 C 
ATOM     27  H   UNL A   1      32.758  32.287  27.837  1.00  0.00     0.163 HD
ATOM     28  O   UNL A   1      34.140  32.635  29.848  1.00  0.00    -0.269 OA
BRANCH  26  29
ATOM     29  C   UNL A   1      35.823  31.438  28.727  1.00  0.00     0.039 A 
ATOM     30  C   UNL A   1      36.944  32.268  28.793  1.00  0.00     0.014 A 
ATOM     31  C   UNL A   1      35.954  30.058  28.631  1.00  0.00     0.014 A 
ATOM     32  C   UNL A   1      38.202  31.677  28.872  1.00  0.00     0.010 A 
ATOM     33  C   UNL A   1      37.167  29.483  28.899  1.00  0.00     0.010 A 
ATOM     34  C   UNL A   1      38.304  30.279  28.967  1.00  0.00    -0.014 A 
BRANCH  34  35
ATOM     35  C   UNL A   1      39.580  29.631  29.246  1.00  0.00     0.031 A 
ATOM     36  C   UNL A   1      39.892  29.436  30.685  1.00  0.00     0.074 A 
ATOM     37  C   UNL A   1      40.352  29.073  28.288  1.00  0.00     0.049 A 
ATOM     38  N   UNL A   1      40.758  30.094  31.380  1.00  0.00    -0.248 NA
ATOM     39  C   UNL A   1      39.067  28.515  31.483  1.00  0.00     0.031 C 
ATOM     40  C   UNL A   1      40.081  28.932  26.852  1.00  0.00     0.029 A 
ATOM     41  N   UNL A   1      41.523  28.400  28.434  1.00  0.00    -0.354 N 
ATOM     42  C   UNL A   1      40.753  29.527  32.649  1.00  0.00     0.074 A 
ATOM     43  C   UNL A   1      39.579  28.690  32.705  1.00  0.00     0.031 C 
ATOM     44  C   UNL A   1      40.923  28.019  26.317  1.00  0.00     0.029 A 
ATOM     45  C   UNL A   1      41.909  27.665  27.319  1.00  0.00     0.049 A 
ATOM     46  H   UNL A   1      42.055  28.431  29.261  1.00  0.00     0.167 HD
ATOM     47  C   UNL A   1      41.837  29.616  33.469  1.00  0.00     0.031 A 
ATOM     48  C   UNL A   1      42.969  26.826  27.225  1.00  0.00     0.031 A 
ATOM     49  C   UNL A   1      42.816  30.541  32.953  1.00  0.00     0.049 A 
ATOM     50  C   UNL A   1      43.933  27.241  28.273  1.00  0.00     0.074 A 
ATOM     51  C   UNL A   1      42.815  31.889  32.653  1.00  0.00     0.029 A 
ATOM     52  N   UNL A   1      43.881  29.998  32.269  1.00  0.00    -0.354 N 
ATOM     53  N   UNL A   1      44.551  28.389  28.249  1.00  0.00    -0.248 NA
ATOM     54  C   UNL A   1      43.858  26.606  29.580  1.00  0.00     0.031 C 
ATOM     55  C   UNL A   1      43.559  31.993  31.441  1.00  0.00     0.029 A 
ATOM     56  C   UNL A   1      44.044  30.723  31.115  1.00  0.00     0.049 A 
ATOM     57  H   UNL A   1      44.426  29.230  32.556  1.00  0.00     0.167 HD
ATOM     58  C   UNL A   1      44.531  28.830  29.564  1.00  0.00     0.074 A 
ATOM     59  C   UNL A   1      44.196  27.644  30.352  1.00  0.00     0.031 C 
ATOM     60  C   UNL A   1      44.511  30.165  29.861  1.00  0.00     0.031 A 
BRANCH  47  61
ATOM     61  C   UNL A   1      42.199  28.603  34.525  1.00  0.00    -0.014 A 
ATOM     62  C   UNL A   1      42.559  29.062  35.809  1.00  0.00     0.010 A 
ATOM     63  C   UNL A   1      42.458  27.250  34.229  1.00  0.00     0.010 A 
ATOM     64  C   UNL A   1      43.206  28.223  36.725  1.00  0.00     0.020 A 
ATOM     65  C   UNL A   1      43.065  26.395  35.151  1.00  0.00     0.020 A 
ATOM     66  C   UNL A   1      43.468  26.897  36.382  1.00  0.00     0.054 A 
BRANCH  66  67
ATOM     67  S   UNL A   1      44.396  25.853  37.532  1.00  0.00     0.124 S 
ATOM     68  O   UNL A   1      43.880  26.296  38.824  1.00  0.00    -0.237 OA
ATOM     69  O   UNL A   1      44.001  24.509  37.118  1.00  0.00    -0.237 OA
ATOM     70  O   UNL A   1      45.789  26.200  37.261  1.00  0.00    -0.744 OA
ENDBRANCH  66  67
ENDBRANCH  47  61
BRANCH  48  71
ATOM     71  C   UNL A   1      43.087  25.563  26.461  1.00  0.00    -0.014 A 
ATOM     72  C   UNL A   1      43.943  25.466  25.348  1.00  0.00     0.010 A 
ATOM     73  C   UNL A   1      42.581  24.364  27.006  1.00  0.00     0.010 A 
ATOM     74  C   UNL A   1      44.338  24.214  24.847  1.00  0.00     0.020 A 
ATOM     75  C   UNL A   1      42.967  23.113  26.509  1.00  0.00     0.020 A 
ATOM     76  C   UNL A   1      43.868  23.044  25.449  1.00  0.00     0.054 A 
BRANCH  76  77
ATOM     77  S   UNL A   1      44.548  21.438  24.930  1.00  0.00     0.124 S 
ATOM     78  O   UNL A   1      43.553  20.500  25.439  1.00  0.00    -0.237 OA
ATOM     79  O   UNL A   1      44.605  21.573  23.477  1.00  0.00    -0.237 OA
ATOM     80  O   UNL A   1      45.849  21.387  25.593  1.00  0.00    -0.744 OA
ENDBRANCH  76  77
ENDBRANCH  48  71
BRANCH  60  81
ATOM     81  C   UNL A   1      44.777  31.151  28.742  1.00  0.00    -0.014 A 
ATOM     82  C   UNL A   1      43.798  31.578  27.821  1.00  0.00     0.010 A 
ATOM     83  C   UNL A   1      46.037  31.773  28.710  1.00  0.00     0.010 A 
ATOM     84  C   UNL A   1      44.089  32.569  26.870  1.00  0.00     0.020 A 
ATOM     85  C   UNL A   1      46.326  32.775  27.779  1.00  0.00     0.020 A 
ATOM     86  C   UNL A   1      45.355  33.158  26.854  1.00  0.00     0.054 A 
BRANCH  86  87
ATOM     87  S   UNL A   1      45.723  34.456  25.639  1.00  0.00     0.124 S 
ATOM     88  O   UNL A   1      47.158  34.288  25.420  1.00  0.00    -0.237 OA
ATOM     89  O   UNL A   1      44.868  34.097  24.509  1.00  0.00    -0.237 OA
ATOM     90  O   UNL A   1      45.343  35.692  26.322  1.00  0.00    -0.744 OA
ENDBRANCH  86  87
ENDBRANCH  60  81
ENDBRANCH  34  35
ENDBRANCH  26  29
ENDBRANCH  24  25
ENDBRANCH   1  24
TORSDOF 15
ENDMDL
