MODEL 1
REMARK VINA RESULT:      -7.6      0.000      0.000
REMARK SMILES CCCCCCNC(=O)Oc1cccc(-c2ccc([C@H](C)C(=O)NCCCNC(=O)c3ccc(-c4c5nc(c(-c6ccc(S(=O)(=O)[O-])cc6)c6ccc([nH]6)c(-c6ccc(S(=O)(=O)[O-])cc6)c6nc(c(-c7ccc(S(=O)(=O)[O-])cc7)c7ccc4[nH]7)C=C6)C=C5)cc3)cc2F)c1
REMARK SMILES IDX 20 1 21 2 19 3 16 4 17 5 92 6 18 7 91 8 93 9 15 10 11 11
REMARK SMILES IDX 12 12 94 13 13 14 14 15 10 16 8 17 7 18 9 20 6 21 5 22 4 23
REMARK SMILES IDX 3 24 2 25 1 26 22 27 23 28 24 29 25 31 26 32 27 33 28 34
REMARK SMILES IDX 29 35 30 37 31 38 32 39 90 40 33 41 89 42 34 43 35 44 36 45
REMARK SMILES IDX 83 46 37 47 88 48 82 49 84 50 38 51 87 52 81 53 80 54 39 56
REMARK SMILES IDX 69 57 50 58 68 59 51 60 54 61 67 62 85 63 52 64 53 65 66 67
REMARK SMILES IDX 86 68 55 69 40 70 41 71 49 72 42 73 48 74 43 75 44 76 45 77
REMARK SMILES IDX 46 78 47 79 70 80 71 81 79 82 72 83 78 84 73 85 74 86 75 87
REMARK SMILES IDX 76 88 77 89 56 90 57 91 65 92 58 93 64 94 59 95 60 96 61 97
REMARK SMILES IDX 62 98 63 99
REMARK H PARENT 7 19 24 30 28 36 84 55 54 66
REMARK Flexibility Score: inf
ROOT
ATOM      1  C   UNL A   1      45.420  25.638  26.979  1.00  0.00     0.105 C 
ATOM      2  C   UNL A   1      46.834  25.163  27.327  1.00  0.00     0.023 C 
ENDROOT
BRANCH   1   3
ATOM      3  C   UNL A   1      45.109  27.107  27.242  1.00  0.00    -0.033 A 
ATOM      4  C   UNL A   1      44.499  29.858  27.633  1.00  0.00     0.018 A 
ATOM      5  C   UNL A   1      45.693  29.306  28.118  1.00  0.00     0.012 A 
ATOM      6  C   UNL A   1      43.614  29.005  26.965  1.00  0.00     0.131 A 
ATOM      7  C   UNL A   1      45.989  27.951  27.937  1.00  0.00     0.005 A 
ATOM      8  C   UNL A   1      43.903  27.655  26.777  1.00  0.00     0.044 A 
ATOM      9  F   UNL A   1      42.452  29.476  26.483  1.00  0.00    -0.206 F 
BRANCH   4  10
ATOM     10  C   UNL A   1      44.174  31.265  27.886  1.00  0.00    -0.012 A 
ATOM     11  C   UNL A   1      43.945  33.536  27.068  1.00  0.00     0.133 A 
ATOM     12  C   UNL A   1      43.458  33.960  28.302  1.00  0.00     0.047 A 
ATOM     13  C   UNL A   1      44.329  32.212  26.865  1.00  0.00     0.056 A 
ATOM     14  C   UNL A   1      43.319  33.034  29.334  1.00  0.00     0.004 A 
ATOM     15  C   UNL A   1      43.669  31.695  29.126  1.00  0.00     0.009 A 
BRANCH  11  16
ATOM     16  O   UNL A   1      44.125  34.507  26.073  1.00  0.00    -0.410 OA
BRANCH  16  17
ATOM     17  C   UNL A   1      43.816  35.820  26.394  1.00  0.00     0.412 C 
ATOM     18  N   UNL A   1      44.906  36.554  26.766  1.00  0.00    -0.321 N 
ATOM     19  H   UNL A   1      44.743  37.493  27.010  1.00  0.00     0.167 HD
ATOM     20  O   UNL A   1      42.700  36.332  26.376  1.00  0.00    -0.224 OA
BRANCH  18  21
ATOM     21  C   UNL A   1      46.277  36.093  26.838  1.00  0.00     0.119 C 
BRANCH  21  22
ATOM     22  C   UNL A   1      46.679  35.716  28.263  1.00  0.00     0.021 C 
BRANCH  22  23
ATOM     23  C   UNL A   1      47.095  34.252  28.449  1.00  0.00     0.002 C 
BRANCH  23  24
ATOM     24  C   UNL A   1      47.100  33.745  29.895  1.00  0.00    -0.000 C 
BRANCH  24  25
ATOM     25  C   UNL A   1      47.266  32.232  30.059  1.00  0.00    -0.003 C 
ATOM     26  C   UNL A   1      48.382  31.850  31.019  1.00  0.00     0.004 C 
ENDBRANCH  24  25
ENDBRANCH  23  24
ENDBRANCH  22  23
ENDBRANCH  21  22
ENDBRANCH  18  21
ENDBRANCH  16  17
ENDBRANCH  11  16
ENDBRANCH   4  10
ENDBRANCH   1   3
BRANCH   1  27
ATOM     27  C   UNL A   1      45.072  25.184  25.558  1.00  0.00     0.227 C 
ATOM     28  O   UNL A   1      45.685  25.636  24.586  1.00  0.00    -0.274 OA
ATOM     29  N   UNL A   1      44.076  24.287  25.314  1.00  0.00    -0.356 N 
ATOM     30  H   UNL A   1      43.895  24.120  24.361  1.00  0.00     0.163 HD
BRANCH  29  31
ATOM     31  C   UNL A   1      43.237  23.540  26.235  1.00  0.00     0.117 C 
BRANCH  31  32
ATOM     32  C   UNL A   1      42.295  22.583  25.519  1.00  0.00     0.042 C 
BRANCH  32  33
ATOM     33  C   UNL A   1      41.146  22.078  26.382  1.00  0.00     0.118 C 
BRANCH  33  34
ATOM     34  N   UNL A   1      39.842  22.356  25.801  1.00  0.00    -0.352 N 
ATOM     35  C   UNL A   1      38.961  23.381  26.038  1.00  0.00     0.251 C 
ATOM     36  H   UNL A   1      39.542  21.701  25.129  1.00  0.00     0.163 HD
ATOM     37  O   UNL A   1      37.827  23.315  25.568  1.00  0.00    -0.269 OA
BRANCH  35  38
ATOM     38  C   UNL A   1      39.353  24.547  26.862  1.00  0.00     0.039 A 
ATOM     39  C   UNL A   1      38.941  24.593  28.196  1.00  0.00     0.014 A 
ATOM     40  C   UNL A   1      40.085  25.610  26.325  1.00  0.00     0.014 A 
ATOM     41  C   UNL A   1      39.309  25.673  29.002  1.00  0.00     0.010 A 
ATOM     42  C   UNL A   1      40.525  26.642  27.150  1.00  0.00     0.010 A 
ATOM     43  C   UNL A   1      40.133  26.691  28.495  1.00  0.00    -0.014 A 
BRANCH  43  44
ATOM     44  C   UNL A   1      40.581  27.816  29.356  1.00  0.00     0.031 A 
ATOM     45  C   UNL A   1      39.707  29.028  29.543  1.00  0.00     0.074 A 
ATOM     46  C   UNL A   1      41.798  27.765  29.935  1.00  0.00     0.049 A 
ATOM     47  N   UNL A   1      39.943  30.114  30.235  1.00  0.00    -0.248 NA
ATOM     48  C   UNL A   1      38.413  29.034  28.842  1.00  0.00     0.031 C 
ATOM     49  C   UNL A   1      42.758  26.668  29.793  1.00  0.00     0.029 A 
ATOM     50  N   UNL A   1      42.437  28.660  30.756  1.00  0.00    -0.354 N 
ATOM     51  C   UNL A   1      38.838  30.935  30.040  1.00  0.00     0.074 A 
ATOM     52  C   UNL A   1      37.956  30.246  29.125  1.00  0.00     0.031 C 
ATOM     53  C   UNL A   1      43.848  26.940  30.529  1.00  0.00     0.029 A 
ATOM     54  C   UNL A   1      43.684  28.244  31.162  1.00  0.00     0.049 A 
ATOM     55  H   UNL A   1      42.041  29.519  31.029  1.00  0.00     0.167 HD
ATOM     56  C   UNL A   1      38.570  32.145  30.589  1.00  0.00     0.031 A 
ATOM     57  C   UNL A   1      44.594  28.844  31.953  1.00  0.00     0.031 A 
ATOM     58  C   UNL A   1      39.442  32.823  31.510  1.00  0.00     0.049 A 
ATOM     59  C   UNL A   1      44.273  30.185  32.554  1.00  0.00     0.074 A 
ATOM     60  C   UNL A   1      39.235  34.023  32.167  1.00  0.00     0.029 A 
ATOM     61  N   UNL A   1      40.690  32.362  31.905  1.00  0.00    -0.354 N 
ATOM     62  N   UNL A   1      43.190  30.912  32.412  1.00  0.00    -0.248 NA
ATOM     63  C   UNL A   1      45.288  30.776  33.434  1.00  0.00     0.031 C 
ATOM     64  C   UNL A   1      40.378  34.313  32.919  1.00  0.00     0.029 A 
ATOM     65  C   UNL A   1      41.273  33.265  32.778  1.00  0.00     0.049 A 
ATOM     66  H   UNL A   1      41.099  31.517  31.608  1.00  0.00     0.167 HD
ATOM     67  C   UNL A   1      43.384  32.037  33.206  1.00  0.00     0.074 A 
ATOM     68  C   UNL A   1      44.679  31.883  33.838  1.00  0.00     0.031 C 
ATOM     69  C   UNL A   1      42.565  33.100  33.397  1.00  0.00     0.031 A 
BRANCH  56  70
ATOM     70  C   UNL A   1      37.277  32.815  30.202  1.00  0.00    -0.014 A 
ATOM     71  C   UNL A   1      36.105  32.628  30.958  1.00  0.00     0.010 A 
ATOM     72  C   UNL A   1      37.240  33.677  29.090  1.00  0.00     0.010 A 
ATOM     73  C   UNL A   1      34.913  33.255  30.585  1.00  0.00     0.020 A 
ATOM     74  C   UNL A   1      36.058  34.329  28.731  1.00  0.00     0.020 A 
ATOM     75  C   UNL A   1      34.896  34.100  29.472  1.00  0.00     0.054 A 
BRANCH  75  76
ATOM     76  S   UNL A   1      33.341  34.919  29.026  1.00  0.00     0.124 S 
ATOM     77  O   UNL A   1      33.814  36.201  28.508  1.00  0.00    -0.237 OA
ATOM     78  O   UNL A   1      32.775  34.011  28.030  1.00  0.00    -0.237 OA
ATOM     79  O   UNL A   1      32.609  34.988  30.288  1.00  0.00    -0.744 OA
ENDBRANCH  75  76
ENDBRANCH  56  70
BRANCH  57  80
ATOM     80  C   UNL A   1      45.890  28.169  32.237  1.00  0.00    -0.014 A 
ATOM     81  C   UNL A   1      46.012  27.284  33.323  1.00  0.00     0.010 A 
ATOM     82  C   UNL A   1      47.007  28.396  31.412  1.00  0.00     0.010 A 
ATOM     83  C   UNL A   1      47.230  26.654  33.590  1.00  0.00     0.020 A 
ATOM     84  C   UNL A   1      48.219  27.746  31.659  1.00  0.00     0.020 A 
ATOM     85  C   UNL A   1      48.327  26.888  32.754  1.00  0.00     0.054 A 
BRANCH  85  86
ATOM     86  S   UNL A   1      49.883  26.018  33.088  1.00  0.00     0.124 S 
ATOM     87  O   UNL A   1      50.237  25.508  31.769  1.00  0.00    -0.237 OA
ATOM     88  O   UNL A   1      50.737  27.084  33.607  1.00  0.00    -0.237 OA
ATOM     89  O   UNL A   1      49.503  25.004  34.071  1.00  0.00    -0.744 OA
ENDBRANCH  85  86
ENDBRANCH  57  80
BRANCH  69  90
ATOM     90  C   UNL A   1      43.028  34.168  34.352  1.00  0.00    -0.014 A 
ATOM     91  C   UNL A   1      42.834  34.041  35.739  1.00  0.00     0.010 A 
ATOM     92  C   UNL A   1      43.706  35.296  33.855  1.00  0.00     0.010 A 
ATOM     93  C   UNL A   1      43.274  35.043  36.607  1.00  0.00     0.020 A 
ATOM     94  C   UNL A   1      44.174  36.285  34.722  1.00  0.00     0.020 A 
ATOM     95  C   UNL A   1      43.940  36.161  36.093  1.00  0.00     0.054 A 
BRANCH  95  96
ATOM     96  S   UNL A   1      44.528  37.433  37.244  1.00  0.00     0.124 S 
ATOM     97  O   UNL A   1      45.528  36.702  38.018  1.00  0.00    -0.237 OA
ATOM     98  O   UNL A   1      45.054  38.459  36.347  1.00  0.00    -0.237 OA
ATOM     99  O   UNL A   1      43.327  37.816  37.982  1.00  0.00    -0.744 OA
ENDBRANCH  95  96
ENDBRANCH  69  90
ENDBRANCH  43  44
ENDBRANCH  35  38
ENDBRANCH  33  34
ENDBRANCH  32  33
ENDBRANCH  31  32
ENDBRANCH  29  31
ENDBRANCH   1  27
TORSDOF 22
ENDMDL
MODEL 2
REMARK VINA RESULT:      -7.6      4.720     12.127
REMARK SMILES CCCCCCNC(=O)Oc1cccc(-c2ccc([C@H](C)C(=O)NCCCNC(=O)c3ccc(-c4c5nc(c(-c6ccc(S(=O)(=O)[O-])cc6)c6ccc([nH]6)c(-c6ccc(S(=O)(=O)[O-])cc6)c6nc(c(-c7ccc(S(=O)(=O)[O-])cc7)c7ccc4[nH]7)C=C6)C=C5)cc3)cc2F)c1
REMARK SMILES IDX 20 1 21 2 19 3 16 4 17 5 92 6 18 7 91 8 93 9 15 10 11 11
REMARK SMILES IDX 12 12 94 13 13 14 14 15 10 16 8 17 7 18 9 20 6 21 5 22 4 23
REMARK SMILES IDX 3 24 2 25 1 26 22 27 23 28 24 29 25 31 26 32 27 33 28 34
REMARK SMILES IDX 29 35 30 37 31 38 32 39 90 40 33 41 89 42 34 43 35 44 36 45
REMARK SMILES IDX 83 46 37 47 88 48 82 49 84 50 38 51 87 52 81 53 80 54 39 56
REMARK SMILES IDX 69 57 50 58 68 59 51 60 54 61 67 62 85 63 52 64 53 65 66 67
REMARK SMILES IDX 86 68 55 69 40 70 41 71 49 72 42 73 48 74 43 75 44 76 45 77
REMARK SMILES IDX 46 78 47 79 70 80 71 81 79 82 72 83 78 84 73 85 74 86 75 87
REMARK SMILES IDX 76 88 77 89 56 90 57 91 65 92 58 93 64 94 59 95 60 96 61 97
REMARK SMILES IDX 62 98 63 99
REMARK H PARENT 7 19 24 30 28 36 84 55 54 66
REMARK Flexibility Score: inf
ROOT
ATOM      1  C   UNL A   1      35.318  33.784  28.890  1.00  0.00     0.105 C 
ATOM      2  C   UNL A   1      36.840  33.690  29.026  1.00  0.00     0.023 C 
ENDROOT
BRANCH   1   3
ATOM      3  C   UNL A   1      34.614  32.590  28.255  1.00  0.00    -0.033 A 
ATOM      4  C   UNL A   1      33.388  30.340  27.017  1.00  0.00     0.018 A 
ATOM      5  C   UNL A   1      32.720  31.569  27.107  1.00  0.00     0.012 A 
ATOM      6  C   UNL A   1      34.671  30.257  27.571  1.00  0.00     0.131 A 
ATOM      7  C   UNL A   1      33.317  32.673  27.726  1.00  0.00     0.005 A 
ATOM      8  C   UNL A   1      35.274  31.352  28.185  1.00  0.00     0.044 A 
ATOM      9  F   UNL A   1      35.357  29.103  27.519  1.00  0.00    -0.206 F 
BRANCH   4  10
ATOM     10  C   UNL A   1      32.725  29.176  26.422  1.00  0.00    -0.012 A 
ATOM     11  C   UNL A   1      32.442  27.665  24.548  1.00  0.00     0.133 A 
ATOM     12  C   UNL A   1      31.553  26.882  25.279  1.00  0.00     0.047 A 
ATOM     13  C   UNL A   1      33.003  28.816  25.097  1.00  0.00     0.056 A 
ATOM     14  C   UNL A   1      31.251  27.239  26.591  1.00  0.00     0.004 A 
ATOM     15  C   UNL A   1      31.837  28.374  27.161  1.00  0.00     0.009 A 
BRANCH  11  16
ATOM     16  O   UNL A   1      32.678  27.306  23.213  1.00  0.00    -0.410 OA
BRANCH  16  17
ATOM     17  C   UNL A   1      31.584  26.929  22.448  1.00  0.00     0.412 C 
ATOM     18  N   UNL A   1      31.663  25.643  21.994  1.00  0.00    -0.321 N 
ATOM     19  H   UNL A   1      30.914  25.324  21.439  1.00  0.00     0.167 HD
ATOM     20  O   UNL A   1      30.617  27.629  22.162  1.00  0.00    -0.224 OA
BRANCH  18  21
ATOM     21  C   UNL A   1      32.734  24.700  22.243  1.00  0.00     0.119 C 
BRANCH  21  22
ATOM     22  C   UNL A   1      32.232  23.439  22.944  1.00  0.00     0.021 C 
BRANCH  22  23
ATOM     23  C   UNL A   1      33.130  22.932  24.079  1.00  0.00     0.002 C 
BRANCH  23  24
ATOM     24  C   UNL A   1      32.675  23.296  25.496  1.00  0.00    -0.000 C 
BRANCH  24  25
ATOM     25  C   UNL A   1      33.645  24.171  26.293  1.00  0.00    -0.003 C 
ATOM     26  C   UNL A   1      34.742  24.786  25.437  1.00  0.00     0.004 C 
ENDBRANCH  24  25
ENDBRANCH  23  24
ENDBRANCH  22  23
ENDBRANCH  21  22
ENDBRANCH  18  21
ENDBRANCH  16  17
ENDBRANCH  11  16
ENDBRANCH   4  10
ENDBRANCH   1   3
BRANCH   1  27
ATOM     27  C   UNL A   1      34.718  34.202  30.237  1.00  0.00     0.227 C 
ATOM     28  O   UNL A   1      33.501  34.374  30.356  1.00  0.00    -0.274 OA
ATOM     29  N   UNL A   1      35.496  34.413  31.335  1.00  0.00    -0.356 N 
ATOM     30  H   UNL A   1      35.013  34.743  32.126  1.00  0.00     0.163 HD
BRANCH  29  31
ATOM     31  C   UNL A   1      36.924  34.229  31.525  1.00  0.00     0.117 C 
BRANCH  31  32
ATOM     32  C   UNL A   1      37.290  33.965  32.978  1.00  0.00     0.042 C 
BRANCH  32  33
ATOM     33  C   UNL A   1      37.794  32.554  33.248  1.00  0.00     0.118 C 
BRANCH  33  34
ATOM     34  N   UNL A   1      36.852  31.529  32.822  1.00  0.00    -0.352 N 
ATOM     35  C   UNL A   1      36.977  30.540  31.880  1.00  0.00     0.251 C 
ATOM     36  H   UNL A   1      35.983  31.550  33.286  1.00  0.00     0.163 HD
ATOM     37  O   UNL A   1      35.981  29.901  31.549  1.00  0.00    -0.269 OA
BRANCH  35  38
ATOM     38  C   UNL A   1      38.285  30.250  31.249  1.00  0.00     0.039 A 
ATOM     39  C   UNL A   1      39.301  29.702  32.037  1.00  0.00     0.014 A 
ATOM     40  C   UNL A   1      38.533  30.550  29.907  1.00  0.00     0.014 A 
ATOM     41  C   UNL A   1      40.540  29.403  31.465  1.00  0.00     0.010 A 
ATOM     42  C   UNL A   1      39.737  30.172  29.318  1.00  0.00     0.010 A 
ATOM     43  C   UNL A   1      40.758  29.605  30.093  1.00  0.00    -0.014 A 
BRANCH  43  44
ATOM     44  C   UNL A   1      42.051  29.237  29.460  1.00  0.00     0.031 A 
ATOM     45  C   UNL A   1      43.151  30.257  29.324  1.00  0.00     0.074 A 
ATOM     46  C   UNL A   1      42.218  27.994  28.963  1.00  0.00     0.049 A 
ATOM     47  N   UNL A   1      44.334  30.125  28.779  1.00  0.00    -0.248 NA
ATOM     48  C   UNL A   1      42.880  31.606  29.846  1.00  0.00     0.031 C 
ATOM     49  C   UNL A   1      41.211  26.930  28.988  1.00  0.00     0.029 A 
ATOM     50  N   UNL A   1      43.294  27.417  28.336  1.00  0.00    -0.354 N 
ATOM     51  C   UNL A   1      44.938  31.373  28.877  1.00  0.00     0.074 A 
ATOM     52  C   UNL A   1      43.974  32.262  29.487  1.00  0.00     0.031 C 
ATOM     53  C   UNL A   1      41.730  25.822  28.435  1.00  0.00     0.029 A 
ATOM     54  C   UNL A   1      43.087  26.105  27.980  1.00  0.00     0.049 A 
ATOM     55  H   UNL A   1      44.135  27.896  28.160  1.00  0.00     0.167 HD
ATOM     56  C   UNL A   1      46.190  31.743  28.512  1.00  0.00     0.031 A 
ATOM     57  C   UNL A   1      43.896  25.228  27.356  1.00  0.00     0.031 A 
ATOM     58  C   UNL A   1      47.152  30.853  27.919  1.00  0.00     0.049 A 
ATOM     59  C   UNL A   1      45.282  25.660  26.965  1.00  0.00     0.074 A 
ATOM     60  C   UNL A   1      48.465  31.115  27.568  1.00  0.00     0.029 A 
ATOM     61  N   UNL A   1      46.906  29.529  27.585  1.00  0.00    -0.354 N 
ATOM     62  N   UNL A   1      45.859  26.826  27.131  1.00  0.00    -0.248 NA
ATOM     63  C   UNL A   1      46.132  24.652  26.317  1.00  0.00     0.031 C 
ATOM     64  C   UNL A   1      48.997  29.966  26.976  1.00  0.00     0.029 A 
ATOM     65  C   UNL A   1      48.036  28.968  27.012  1.00  0.00     0.049 A 
ATOM     66  H   UNL A   1      46.055  29.058  27.735  1.00  0.00     0.167 HD
ATOM     67  C   UNL A   1      47.149  26.685  26.630  1.00  0.00     0.074 A 
ATOM     68  C   UNL A   1      47.271  25.315  26.173  1.00  0.00     0.031 C 
ATOM     69  C   UNL A   1      48.142  27.604  26.558  1.00  0.00     0.031 A 
BRANCH  56  70
ATOM     70  C   UNL A   1      46.589  33.177  28.745  1.00  0.00    -0.014 A 
ATOM     71  C   UNL A   1      47.038  33.613  30.005  1.00  0.00     0.010 A 
ATOM     72  C   UNL A   1      46.553  34.095  27.679  1.00  0.00     0.010 A 
ATOM     73  C   UNL A   1      47.402  34.947  30.205  1.00  0.00     0.020 A 
ATOM     74  C   UNL A   1      46.945  35.423  27.867  1.00  0.00     0.020 A 
ATOM     75  C   UNL A   1      47.351  35.845  29.135  1.00  0.00     0.054 A 
BRANCH  75  76
ATOM     76  S   UNL A   1      47.853  37.565  29.418  1.00  0.00     0.124 S 
ATOM     77  O   UNL A   1      47.674  37.696  30.863  1.00  0.00    -0.237 OA
ATOM     78  O   UNL A   1      49.238  37.576  28.954  1.00  0.00    -0.237 OA
ATOM     79  O   UNL A   1      46.919  38.338  28.602  1.00  0.00    -0.744 OA
ENDBRANCH  75  76
ENDBRANCH  56  70
BRANCH  57  80
ATOM     80  C   UNL A   1      43.419  23.845  27.081  1.00  0.00    -0.014 A 
ATOM     81  C   UNL A   1      43.382  22.884  28.107  1.00  0.00     0.010 A 
ATOM     82  C   UNL A   1      42.985  23.484  25.792  1.00  0.00     0.010 A 
ATOM     83  C   UNL A   1      42.937  21.585  27.846  1.00  0.00     0.020 A 
ATOM     84  C   UNL A   1      42.512  22.195  25.534  1.00  0.00     0.020 A 
ATOM     85  C   UNL A   1      42.503  21.249  26.560  1.00  0.00     0.054 A 
BRANCH  85  86
ATOM     86  S   UNL A   1      41.880  19.572  26.257  1.00  0.00     0.124 S 
ATOM     87  O   UNL A   1      40.444  19.798  26.139  1.00  0.00    -0.237 OA
ATOM     88  O   UNL A   1      42.567  19.197  25.024  1.00  0.00    -0.237 OA
ATOM     89  O   UNL A   1      42.303  18.832  27.445  1.00  0.00    -0.744 OA
ENDBRANCH  85  86
ENDBRANCH  57  80
BRANCH  69  90
ATOM     90  C   UNL A   1      49.462  27.153  25.992  1.00  0.00    -0.014 A 
ATOM     91  C   UNL A   1      50.391  26.446  26.777  1.00  0.00     0.010 A 
ATOM     92  C   UNL A   1      49.759  27.404  24.640  1.00  0.00     0.010 A 
ATOM     93  C   UNL A   1      51.608  26.035  26.230  1.00  0.00     0.020 A 
ATOM     94  C   UNL A   1      50.962  26.968  24.081  1.00  0.00     0.020 A 
ATOM     95  C   UNL A   1      51.888  26.300  24.886  1.00  0.00     0.054 A 
BRANCH  95  96
ATOM     96  S   UNL A   1      53.462  25.729  24.191  1.00  0.00     0.124 S 
ATOM     97  O   UNL A   1      53.520  24.348  24.666  1.00  0.00    -0.237 OA
ATOM     98  O   UNL A   1      53.258  25.892  22.754  1.00  0.00    -0.237 OA
ATOM     99  O   UNL A   1      54.450  26.632  24.780  1.00  0.00    -0.744 OA
ENDBRANCH  95  96
ENDBRANCH  69  90
ENDBRANCH  43  44
ENDBRANCH  35  38
ENDBRANCH  33  34
ENDBRANCH  32  33
ENDBRANCH  31  32
ENDBRANCH  29  31
ENDBRANCH   1  27
TORSDOF 22
ENDMDL
MODEL 3
REMARK VINA RESULT:      -7.4      5.111      8.952
REMARK SMILES CCCCCCNC(=O)Oc1cccc(-c2ccc([C@H](C)C(=O)NCCCNC(=O)c3ccc(-c4c5nc(c(-c6ccc(S(=O)(=O)[O-])cc6)c6ccc([nH]6)c(-c6ccc(S(=O)(=O)[O-])cc6)c6nc(c(-c7ccc(S(=O)(=O)[O-])cc7)c7ccc4[nH]7)C=C6)C=C5)cc3)cc2F)c1
REMARK SMILES IDX 20 1 21 2 19 3 16 4 17 5 92 6 18 7 91 8 93 9 15 10 11 11
REMARK SMILES IDX 12 12 94 13 13 14 14 15 10 16 8 17 7 18 9 20 6 21 5 22 4 23
REMARK SMILES IDX 3 24 2 25 1 26 22 27 23 28 24 29 25 31 26 32 27 33 28 34
REMARK SMILES IDX 29 35 30 37 31 38 32 39 90 40 33 41 89 42 34 43 35 44 36 45
REMARK SMILES IDX 83 46 37 47 88 48 82 49 84 50 38 51 87 52 81 53 80 54 39 56
REMARK SMILES IDX 69 57 50 58 68 59 51 60 54 61 67 62 85 63 52 64 53 65 66 67
REMARK SMILES IDX 86 68 55 69 40 70 41 71 49 72 42 73 48 74 43 75 44 76 45 77
REMARK SMILES IDX 46 78 47 79 70 80 71 81 79 82 72 83 78 84 73 85 74 86 75 87
REMARK SMILES IDX 76 88 77 89 56 90 57 91 65 92 58 93 64 94 59 95 60 96 61 97
REMARK SMILES IDX 62 98 63 99
REMARK H PARENT 7 19 24 30 28 36 84 55 54 66
REMARK Flexibility Score: inf
ROOT
ATOM      1  C   UNL A   1      32.526  21.827  25.880  1.00  0.00     0.105 C 
ATOM      2  C   UNL A   1      33.507  22.030  27.038  1.00  0.00     0.023 C 
ENDROOT
BRANCH   1   3
ATOM      3  C   UNL A   1      31.714  23.045  25.452  1.00  0.00    -0.033 A 
ATOM      4  C   UNL A   1      30.278  25.346  24.594  1.00  0.00     0.018 A 
ATOM      5  C   UNL A   1      30.301  24.970  25.945  1.00  0.00     0.012 A 
ATOM      6  C   UNL A   1      30.973  24.541  23.685  1.00  0.00     0.131 A 
ATOM      7  C   UNL A   1      30.996  23.832  26.366  1.00  0.00     0.005 A 
ATOM      8  C   UNL A   1      31.672  23.409  24.097  1.00  0.00     0.044 A 
ATOM      9  F   UNL A   1      30.982  24.850  22.377  1.00  0.00    -0.206 F 
BRANCH   4  10
ATOM     10  C   UNL A   1      29.493  26.505  24.160  1.00  0.00    -0.012 A 
ATOM     11  C   UNL A   1      29.411  28.798  23.378  1.00  0.00     0.133 A 
ATOM     12  C   UNL A   1      28.030  28.723  23.217  1.00  0.00     0.047 A 
ATOM     13  C   UNL A   1      30.136  27.716  23.871  1.00  0.00     0.056 A 
ATOM     14  C   UNL A   1      27.373  27.532  23.520  1.00  0.00     0.004 A 
ATOM     15  C   UNL A   1      28.100  26.429  23.982  1.00  0.00     0.009 A 
BRANCH  11  16
ATOM     16  O   UNL A   1      30.028  30.030  23.118  1.00  0.00    -0.410 OA
BRANCH  16  17
ATOM     17  C   UNL A   1      29.701  31.099  23.940  1.00  0.00     0.412 C 
ATOM     18  N   UNL A   1      30.532  31.224  25.016  1.00  0.00    -0.321 N 
ATOM     19  H   UNL A   1      30.341  31.964  25.637  1.00  0.00     0.167 HD
ATOM     20  O   UNL A   1      28.769  31.882  23.780  1.00  0.00    -0.224 OA
BRANCH  18  21
ATOM     21  C   UNL A   1      31.664  30.381  25.340  1.00  0.00     0.119 C 
BRANCH  21  22
ATOM     22  C   UNL A   1      31.768  30.115  26.841  1.00  0.00     0.021 C 
BRANCH  22  23
ATOM     23  C   UNL A   1      32.845  29.100  27.243  1.00  0.00     0.002 C 
BRANCH  23  24
ATOM     24  C   UNL A   1      32.602  27.660  26.778  1.00  0.00    -0.000 C 
BRANCH  24  25
ATOM     25  C   UNL A   1      33.411  27.220  25.555  1.00  0.00    -0.003 C 
ATOM     26  C   UNL A   1      34.074  25.863  25.730  1.00  0.00     0.004 C 
ENDBRANCH  24  25
ENDBRANCH  23  24
ENDBRANCH  22  23
ENDBRANCH  21  22
ENDBRANCH  18  21
ENDBRANCH  16  17
ENDBRANCH  11  16
ENDBRANCH   4  10
ENDBRANCH   1   3
BRANCH   1  27
ATOM     27  C   UNL A   1      33.254  21.139  24.720  1.00  0.00     0.227 C 
ATOM     28  O   UNL A   1      32.849  20.060  24.276  1.00  0.00    -0.274 OA
ATOM     29  N   UNL A   1      34.371  21.676  24.154  1.00  0.00    -0.356 N 
ATOM     30  H   UNL A   1      34.793  21.116  23.463  1.00  0.00     0.163 HD
BRANCH  29  31
ATOM     31  C   UNL A   1      35.037  22.942  24.406  1.00  0.00     0.117 C 
BRANCH  31  32
ATOM     32  C   UNL A   1      36.554  22.815  24.392  1.00  0.00     0.042 C 
BRANCH  32  33
ATOM     33  C   UNL A   1      37.197  22.881  25.771  1.00  0.00     0.118 C 
BRANCH  33  34
ATOM     34  N   UNL A   1      38.173  21.824  25.988  1.00  0.00    -0.352 N 
ATOM     35  C   UNL A   1      39.490  21.891  26.365  1.00  0.00     0.251 C 
ATOM     36  H   UNL A   1      37.832  20.912  25.840  1.00  0.00     0.163 HD
ATOM     37  O   UNL A   1      40.181  20.876  26.305  1.00  0.00    -0.269 OA
BRANCH  35  38
ATOM     38  C   UNL A   1      40.087  23.166  26.823  1.00  0.00     0.039 A 
ATOM     39  C   UNL A   1      40.786  23.181  28.033  1.00  0.00     0.014 A 
ATOM     40  C   UNL A   1      39.931  24.350  26.097  1.00  0.00     0.014 A 
ATOM     41  C   UNL A   1      41.374  24.366  28.483  1.00  0.00     0.010 A 
ATOM     42  C   UNL A   1      40.589  25.509  26.502  1.00  0.00     0.010 A 
ATOM     43  C   UNL A   1      41.309  25.533  27.704  1.00  0.00    -0.014 A 
BRANCH  43  44
ATOM     44  C   UNL A   1      41.979  26.785  28.141  1.00  0.00     0.031 A 
ATOM     45  C   UNL A   1      41.166  27.946  28.654  1.00  0.00     0.074 A 
ATOM     46  C   UNL A   1      43.319  26.895  28.033  1.00  0.00     0.049 A 
ATOM     47  N   UNL A   1      41.575  29.124  29.054  1.00  0.00    -0.248 NA
ATOM     48  C   UNL A   1      39.706  27.772  28.698  1.00  0.00     0.031 C 
ATOM     49  C   UNL A   1      44.213  25.861  27.508  1.00  0.00     0.029 A 
ATOM     50  N   UNL A   1      44.162  27.928  28.356  1.00  0.00    -0.354 N 
ATOM     51  C   UNL A   1      40.424  29.833  29.381  1.00  0.00     0.074 A 
ATOM     52  C   UNL A   1      39.300  28.973  29.084  1.00  0.00     0.031 C 
ATOM     53  C   UNL A   1      45.480  26.299  27.576  1.00  0.00     0.029 A 
ATOM     54  C   UNL A   1      45.488  27.657  28.111  1.00  0.00     0.049 A 
ATOM     55  H   UNL A   1      43.848  28.784  28.729  1.00  0.00     0.167 HD
ATOM     56  C   UNL A   1      40.313  31.079  29.902  1.00  0.00     0.031 A 
ATOM     57  C   UNL A   1      46.586  28.414  28.293  1.00  0.00     0.031 A 
ATOM     58  C   UNL A   1      41.433  31.927  30.210  1.00  0.00     0.049 A 
ATOM     59  C   UNL A   1      46.438  29.792  28.876  1.00  0.00     0.074 A 
ATOM     60  C   UNL A   1      41.428  33.181  30.794  1.00  0.00     0.029 A 
ATOM     61  N   UNL A   1      42.760  31.609  29.957  1.00  0.00    -0.354 N 
ATOM     62  N   UNL A   1      45.344  30.417  29.244  1.00  0.00    -0.248 NA
ATOM     63  C   UNL A   1      47.672  30.560  29.083  1.00  0.00     0.031 C 
ATOM     64  C   UNL A   1      42.747  33.643  30.848  1.00  0.00     0.029 A 
ATOM     65  C   UNL A   1      43.580  32.653  30.353  1.00  0.00     0.049 A 
ATOM     66  H   UNL A   1      43.072  30.766  29.557  1.00  0.00     0.167 HD
ATOM     67  C   UNL A   1      45.762  31.643  29.751  1.00  0.00     0.074 A 
ATOM     68  C   UNL A   1      47.209  31.662  29.657  1.00  0.00     0.031 C 
ATOM     69  C   UNL A   1      45.017  32.660  30.250  1.00  0.00     0.031 A 
BRANCH  56  70
ATOM     70  C   UNL A   1      38.925  31.601  30.169  1.00  0.00    -0.014 A 
ATOM     71  C   UNL A   1      38.233  32.358  29.206  1.00  0.00     0.010 A 
ATOM     72  C   UNL A   1      38.284  31.296  31.385  1.00  0.00     0.010 A 
ATOM     73  C   UNL A   1      36.947  32.837  29.470  1.00  0.00     0.020 A 
ATOM     74  C   UNL A   1      36.987  31.747  31.642  1.00  0.00     0.020 A 
ATOM     75  C   UNL A   1      36.332  32.530  30.688  1.00  0.00     0.054 A 
BRANCH  75  76
ATOM     76  S   UNL A   1      34.654  33.145  30.994  1.00  0.00     0.124 S 
ATOM     77  O   UNL A   1      34.890  34.572  31.203  1.00  0.00    -0.237 OA
ATOM     78  O   UNL A   1      33.956  32.800  29.758  1.00  0.00    -0.237 OA
ATOM     79  O   UNL A   1      34.223  32.404  32.177  1.00  0.00    -0.744 OA
ENDBRANCH  75  76
ENDBRANCH  56  70
BRANCH  57  80
ATOM     80  C   UNL A   1      47.927  27.874  27.936  1.00  0.00    -0.014 A 
ATOM     81  C   UNL A   1      48.677  27.146  28.876  1.00  0.00     0.010 A 
ATOM     82  C   UNL A   1      48.454  28.073  26.647  1.00  0.00     0.010 A 
ATOM     83  C   UNL A   1      49.937  26.643  28.540  1.00  0.00     0.020 A 
ATOM     84  C   UNL A   1      49.701  27.547  26.298  1.00  0.00     0.020 A 
ATOM     85  C   UNL A   1      50.441  26.845  27.251  1.00  0.00     0.054 A 
BRANCH  85  86
ATOM     86  S   UNL A   1      52.055  26.138  26.822  1.00  0.00     0.124 S 
ATOM     87  O   UNL A   1      52.795  26.288  28.070  1.00  0.00    -0.237 OA
ATOM     88  O   UNL A   1      51.712  24.768  26.447  1.00  0.00    -0.237 OA
ATOM     89  O   UNL A   1      52.513  26.979  25.717  1.00  0.00    -0.744 OA
ENDBRANCH  85  86
ENDBRANCH  57  80
BRANCH  69  90
ATOM     90  C   UNL A   1      45.754  33.868  30.764  1.00  0.00    -0.014 A 
ATOM     91  C   UNL A   1      46.152  33.963  32.110  1.00  0.00     0.010 A 
ATOM     92  C   UNL A   1      46.088  34.906  29.876  1.00  0.00     0.010 A 
ATOM     93  C   UNL A   1      46.835  35.093  32.565  1.00  0.00     0.020 A 
ATOM     94  C   UNL A   1      46.799  36.023  30.320  1.00  0.00     0.020 A 
ATOM     95  C   UNL A   1      47.153  36.118  31.668  1.00  0.00     0.054 A 
BRANCH  95  96
ATOM     96  S   UNL A   1      48.069  37.560  32.276  1.00  0.00     0.124 S 
ATOM     97  O   UNL A   1      49.123  36.936  33.071  1.00  0.00    -0.237 OA
ATOM     98  O   UNL A   1      48.509  38.205  31.042  1.00  0.00    -0.237 OA
ATOM     99  O   UNL A   1      47.071  38.306  33.041  1.00  0.00    -0.744 OA
ENDBRANCH  95  96
ENDBRANCH  69  90
ENDBRANCH  43  44
ENDBRANCH  35  38
ENDBRANCH  33  34
ENDBRANCH  32  33
ENDBRANCH  31  32
ENDBRANCH  29  31
ENDBRANCH   1  27
TORSDOF 22
ENDMDL
