MODEL 1
REMARK VINA RESULT:     -10.1      0.000      0.000
REMARK SMILES O=C(NCCCNC(=O)[C@H]1[NH2+][C@@H]2CC[C@H]1CC2(F)F)c1ccc(-c2c3nc(c(-c4ccc(S(=O)(=O)[O-])cc4)c4ccc([nH]4)c(-c4ccc(S(=O)(=O)[O-])cc4)c4nc(c(-c5ccc(S(=O)(=O)[O-])cc5)c5ccc2[nH]5)C=C4)C=C3)cc1
REMARK SMILES IDX 1 1 2 2 3 3 20 5 21 6 79 7 22 8 78 9 23 10 24 11 25 12 72 13
REMARK SMILES IDX 26 14 77 15 71 16 73 17 27 18 76 19 70 20 69 21 28 23 58 24
REMARK SMILES IDX 39 25 57 26 40 27 43 28 56 29 74 30 41 31 42 32 55 34 75 35
REMARK SMILES IDX 44 36 29 37 30 38 38 39 31 40 37 41 32 42 33 43 34 44 35 45
REMARK SMILES IDX 36 46 59 47 60 48 68 49 61 50 67 51 62 52 63 53 64 54 65 55
REMARK SMILES IDX 66 56 45 57 46 58 54 59 47 60 53 61 48 62 49 63 50 64 51 65
REMARK SMILES IDX 52 66 4 67 5 68 6 69 7 70 8 71 9 73 10 74 11 75 15 76 12 77
REMARK SMILES IDX 14 80 16 81 13 82 17 83 18 84 19 85
REMARK H PARENT 3 4 73 22 43 33 7 72 11 78 11 79
REMARK Flexibility Score: inf
ROOT
ATOM      1  O   UNL A   1      33.588  29.404  27.498  1.00  0.00    -0.269 OA
ATOM      2  C   UNL A   1      34.351  30.267  27.933  1.00  0.00     0.251 C 
ATOM      3  N   UNL A   1      33.883  31.542  28.129  1.00  0.00    -0.352 N 
ATOM      4  H   UNL A   1      32.904  31.641  28.097  1.00  0.00     0.163 HD
ENDROOT
BRANCH   2   5
ATOM      5  C   UNL A   1      35.762  29.931  28.230  1.00  0.00     0.039 A 
ATOM      6  C   UNL A   1      36.759  30.128  27.273  1.00  0.00     0.014 A 
ATOM      7  C   UNL A   1      36.098  29.453  29.500  1.00  0.00     0.014 A 
ATOM      8  C   UNL A   1      38.065  29.730  27.539  1.00  0.00     0.010 A 
ATOM      9  C   UNL A   1      37.428  29.136  29.796  1.00  0.00     0.010 A 
ATOM     10  C   UNL A   1      38.421  29.252  28.811  1.00  0.00    -0.014 A 
BRANCH  10  11
ATOM     11  C   UNL A   1      39.847  28.963  29.109  1.00  0.00     0.031 A 
ATOM     12  C   UNL A   1      40.727  29.977  29.788  1.00  0.00     0.074 A 
ATOM     13  C   UNL A   1      40.344  27.754  28.773  1.00  0.00     0.049 A 
ATOM     14  N   UNL A   1      41.985  29.870  30.134  1.00  0.00    -0.248 NA
ATOM     15  C   UNL A   1      40.122  31.278  30.117  1.00  0.00     0.031 C 
ATOM     16  C   UNL A   1      39.589  26.691  28.102  1.00  0.00     0.029 A 
ATOM     17  N   UNL A   1      41.587  27.208  28.961  1.00  0.00    -0.354 N 
ATOM     18  C   UNL A   1      42.330  31.091  30.705  1.00  0.00     0.074 A 
ATOM     19  C   UNL A   1      41.154  31.933  30.634  1.00  0.00     0.031 C 
ATOM     20  C   UNL A   1      40.368  25.607  27.980  1.00  0.00     0.029 A 
ATOM     21  C   UNL A   1      41.696  25.918  28.497  1.00  0.00     0.049 A 
ATOM     22  H   UNL A   1      42.331  27.691  29.388  1.00  0.00     0.167 HD
ATOM     23  C   UNL A   1      43.515  31.470  31.241  1.00  0.00     0.031 A 
ATOM     24  C   UNL A   1      42.748  25.079  28.468  1.00  0.00     0.031 A 
ATOM     25  C   UNL A   1      44.683  30.628  31.300  1.00  0.00     0.049 A 
ATOM     26  C   UNL A   1      44.061  25.541  29.031  1.00  0.00     0.074 A 
ATOM     27  C   UNL A   1      45.922  30.912  31.850  1.00  0.00     0.029 A 
ATOM     28  N   UNL A   1      44.763  29.342  30.783  1.00  0.00    -0.354 N 
ATOM     29  N   UNL A   1      44.353  26.686  29.601  1.00  0.00    -0.248 NA
ATOM     30  C   UNL A   1      45.183  24.599  28.949  1.00  0.00     0.031 C 
ATOM     31  C   UNL A   1      46.767  29.823  31.613  1.00  0.00     0.029 A 
ATOM     32  C   UNL A   1      46.037  28.833  30.975  1.00  0.00     0.049 A 
ATOM     33  H   UNL A   1      44.023  28.863  30.346  1.00  0.00     0.167 HD
ATOM     34  C   UNL A   1      45.692  26.594  29.963  1.00  0.00     0.074 A 
ATOM     35  C   UNL A   1      46.142  25.275  29.567  1.00  0.00     0.031 C 
ATOM     36  C   UNL A   1      46.475  27.521  30.568  1.00  0.00     0.031 A 
BRANCH  23  37
ATOM     37  C   UNL A   1      43.623  32.874  31.784  1.00  0.00    -0.014 A 
ATOM     38  C   UNL A   1      44.007  33.949  30.962  1.00  0.00     0.010 A 
ATOM     39  C   UNL A   1      43.282  33.131  33.125  1.00  0.00     0.010 A 
ATOM     40  C   UNL A   1      44.088  35.245  31.481  1.00  0.00     0.020 A 
ATOM     41  C   UNL A   1      43.335  34.429  33.641  1.00  0.00     0.020 A 
ATOM     42  C   UNL A   1      43.754  35.476  32.819  1.00  0.00     0.054 A 
BRANCH  42  43
ATOM     43  S   UNL A   1      43.854  37.171  33.461  1.00  0.00     0.124 S 
ATOM     44  O   UNL A   1      43.873  37.957  32.230  1.00  0.00    -0.237 OA
ATOM     45  O   UNL A   1      42.634  37.283  34.258  1.00  0.00    -0.237 OA
ATOM     46  O   UNL A   1      45.098  37.181  34.226  1.00  0.00    -0.744 OA
ENDBRANCH  42  43
ENDBRANCH  23  37
BRANCH  24  47
ATOM     47  C   UNL A   1      42.598  23.727  27.864  1.00  0.00    -0.014 A 
ATOM     48  C   UNL A   1      42.914  23.505  26.513  1.00  0.00     0.010 A 
ATOM     49  C   UNL A   1      42.163  22.644  28.652  1.00  0.00     0.010 A 
ATOM     50  C   UNL A   1      42.783  22.228  25.957  1.00  0.00     0.020 A 
ATOM     51  C   UNL A   1      42.062  21.362  28.110  1.00  0.00     0.020 A 
ATOM     52  C   UNL A   1      42.362  21.165  26.761  1.00  0.00     0.054 A 
BRANCH  52  53
ATOM     53  S   UNL A   1      42.248  19.507  26.032  1.00  0.00     0.124 S 
ATOM     54  O   UNL A   1      43.148  19.618  24.887  1.00  0.00    -0.237 OA
ATOM     55  O   UNL A   1      42.712  18.652  27.122  1.00  0.00    -0.237 OA
ATOM     56  O   UNL A   1      40.831  19.373  25.706  1.00  0.00    -0.744 OA
ENDBRANCH  52  53
ENDBRANCH  24  47
BRANCH  36  57
ATOM     57  C   UNL A   1      47.898  27.128  30.866  1.00  0.00    -0.014 A 
ATOM     58  C   UNL A   1      48.236  26.455  32.054  1.00  0.00     0.010 A 
ATOM     59  C   UNL A   1      48.906  27.401  29.923  1.00  0.00     0.010 A 
ATOM     60  C   UNL A   1      49.562  26.094  32.308  1.00  0.00     0.020 A 
ATOM     61  C   UNL A   1      50.227  27.015  30.158  1.00  0.00     0.020 A 
ATOM     62  C   UNL A   1      50.549  26.375  31.357  1.00  0.00     0.054 A 
BRANCH  62  63
ATOM     63  S   UNL A   1      52.255  25.860  31.692  1.00  0.00     0.124 S 
ATOM     64  O   UNL A   1      52.641  26.767  32.770  1.00  0.00    -0.237 OA
ATOM     65  O   UNL A   1      52.096  24.459  32.076  1.00  0.00    -0.237 OA
ATOM     66  O   UNL A   1      52.940  26.077  30.420  1.00  0.00    -0.744 OA
ENDBRANCH  62  63
ENDBRANCH  36  57
ENDBRANCH  10  11
ENDBRANCH   2   5
BRANCH   3  67
ATOM     67  C   UNL A   1      34.624  32.771  28.378  1.00  0.00     0.118 C 
BRANCH  67  68
ATOM     68  C   UNL A   1      33.712  33.997  28.389  1.00  0.00     0.042 C 
BRANCH  68  69
ATOM     69  C   UNL A   1      33.954  34.927  29.577  1.00  0.00     0.118 C 
BRANCH  69  70
ATOM     70  N   UNL A   1      33.661  34.264  30.832  1.00  0.00    -0.351 N 
ATOM     71  C   UNL A   1      34.425  33.958  31.908  1.00  0.00     0.278 C 
ATOM     72  H   UNL A   1      32.722  33.981  30.921  1.00  0.00     0.163 HD
ATOM     73  O   UNL A   1      33.876  33.287  32.793  1.00  0.00    -0.268 OA
BRANCH  71  74
ATOM     74  C   UNL A   1      35.881  34.474  32.108  1.00  0.00     0.276 C 
ATOM     75  N   UNL A   1      36.259  34.209  33.541  1.00  0.00    -0.328 N 
ATOM     76  C   UNL A   1      36.984  33.914  31.180  1.00  0.00     0.064 C 
ATOM     77  C   UNL A   1      37.437  33.305  33.625  1.00  0.00     0.253 C 
ATOM     78  H   UNL A   1      35.470  33.774  34.020  1.00  0.00     0.347 HD
ATOM     79  H   UNL A   1      36.500  35.098  33.982  1.00  0.00     0.347 HD
ATOM     80  C   UNL A   1      38.335  34.521  31.631  1.00  0.00     0.017 C 
ATOM     81  C   UNL A   1      37.069  32.383  31.312  1.00  0.00     0.094 C 
ATOM     82  C   UNL A   1      38.627  34.108  33.082  1.00  0.00     0.072 C 
ATOM     83  C   UNL A   1      37.287  32.019  32.775  1.00  0.00     0.298 C 
ATOM     84  F   UNL A   1      38.390  31.240  32.895  1.00  0.00    -0.200 F 
ATOM     85  F   UNL A   1      36.241  31.282  33.224  1.00  0.00    -0.200 F 
ENDBRANCH  71  74
ENDBRANCH  69  70
ENDBRANCH  68  69
ENDBRANCH  67  68
ENDBRANCH   3  67
TORSDOF 13
ENDMDL
MODEL 2
REMARK VINA RESULT:     -10.0      3.172     11.239
REMARK SMILES O=C(NCCCNC(=O)[C@H]1[NH2+][C@@H]2CC[C@H]1CC2(F)F)c1ccc(-c2c3nc(c(-c4ccc(S(=O)(=O)[O-])cc4)c4ccc([nH]4)c(-c4ccc(S(=O)(=O)[O-])cc4)c4nc(c(-c5ccc(S(=O)(=O)[O-])cc5)c5ccc2[nH]5)C=C4)C=C3)cc1
REMARK SMILES IDX 1 1 2 2 3 3 20 5 21 6 79 7 22 8 78 9 23 10 24 11 25 12 72 13
REMARK SMILES IDX 26 14 77 15 71 16 73 17 27 18 76 19 70 20 69 21 28 23 58 24
REMARK SMILES IDX 39 25 57 26 40 27 43 28 56 29 74 30 41 31 42 32 55 34 75 35
REMARK SMILES IDX 44 36 29 37 30 38 38 39 31 40 37 41 32 42 33 43 34 44 35 45
REMARK SMILES IDX 36 46 59 47 60 48 68 49 61 50 67 51 62 52 63 53 64 54 65 55
REMARK SMILES IDX 66 56 45 57 46 58 54 59 47 60 53 61 48 62 49 63 50 64 51 65
REMARK SMILES IDX 52 66 4 67 5 68 6 69 7 70 8 71 9 73 10 74 11 75 15 76 12 77
REMARK SMILES IDX 14 80 16 81 13 82 17 83 18 84 19 85
REMARK H PARENT 3 4 73 22 43 33 7 72 11 78 11 79
REMARK Flexibility Score: inf
ROOT
ATOM      1  O   UNL A   1      37.559  23.018  25.547  1.00  0.00    -0.269 OA
ATOM      2  C   UNL A   1      38.692  23.051  26.026  1.00  0.00     0.251 C 
ATOM      3  N   UNL A   1      39.518  21.964  25.876  1.00  0.00    -0.352 N 
ATOM      4  H   UNL A   1      39.219  21.296  25.216  1.00  0.00     0.163 HD
ENDROOT
BRANCH   2   5
ATOM      5  C   UNL A   1      39.154  24.247  26.765  1.00  0.00     0.039 A 
ATOM      6  C   UNL A   1      38.840  24.418  28.114  1.00  0.00     0.014 A 
ATOM      7  C   UNL A   1      39.951  25.191  26.109  1.00  0.00     0.014 A 
ATOM      8  C   UNL A   1      39.211  25.587  28.771  1.00  0.00     0.010 A 
ATOM      9  C   UNL A   1      40.398  26.324  26.796  1.00  0.00     0.010 A 
ATOM     10  C   UNL A   1      40.014  26.543  28.128  1.00  0.00    -0.014 A 
BRANCH  10  11
ATOM     11  C   UNL A   1      40.508  27.715  28.896  1.00  0.00     0.031 A 
ATOM     12  C   UNL A   1      41.894  27.741  29.481  1.00  0.00     0.074 A 
ATOM     13  C   UNL A   1      39.691  28.778  29.046  1.00  0.00     0.049 A 
ATOM     14  N   UNL A   1      42.480  28.695  30.159  1.00  0.00    -0.248 NA
ATOM     15  C   UNL A   1      42.728  26.544  29.287  1.00  0.00     0.031 C 
ATOM     16  C   UNL A   1      38.321  28.866  28.531  1.00  0.00     0.029 A 
ATOM     17  N   UNL A   1      39.892  29.989  29.657  1.00  0.00    -0.354 N 
ATOM     18  C   UNL A   1      43.742  28.212  30.489  1.00  0.00     0.074 A 
ATOM     19  C   UNL A   1      43.826  26.867  29.958  1.00  0.00     0.031 C 
ATOM     20  C   UNL A   1      37.825  30.081  28.803  1.00  0.00     0.029 A 
ATOM     21  C   UNL A   1      38.809  30.832  29.573  1.00  0.00     0.049 A 
ATOM     22  H   UNL A   1      40.730  30.232  30.113  1.00  0.00     0.167 HD
ATOM     23  C   UNL A   1      44.737  28.834  31.166  1.00  0.00     0.031 A 
ATOM     24  C   UNL A   1      38.615  32.067  30.073  1.00  0.00     0.031 A 
ATOM     25  C   UNL A   1      44.641  30.170  31.698  1.00  0.00     0.049 A 
ATOM     26  C   UNL A   1      39.719  32.716  30.856  1.00  0.00     0.074 A 
ATOM     27  C   UNL A   1      45.606  30.898  32.374  1.00  0.00     0.029 A 
ATOM     28  N   UNL A   1      43.514  30.976  31.625  1.00  0.00    -0.354 N 
ATOM     29  N   UNL A   1      40.918  32.254  31.122  1.00  0.00    -0.248 NA
ATOM     30  C   UNL A   1      39.446  34.049  31.404  1.00  0.00     0.031 C 
ATOM     31  C   UNL A   1      45.043  32.119  32.761  1.00  0.00     0.029 A 
ATOM     32  C   UNL A   1      43.749  32.180  32.269  1.00  0.00     0.049 A 
ATOM     33  H   UNL A   1      42.671  30.728  31.180  1.00  0.00     0.167 HD
ATOM     34  C   UNL A   1      41.551  33.252  31.854  1.00  0.00     0.074 A 
ATOM     35  C   UNL A   1      40.609  34.347  31.969  1.00  0.00     0.031 C 
ATOM     36  C   UNL A   1      42.799  33.258  32.384  1.00  0.00     0.031 A 
BRANCH  23  37
ATOM     37  C   UNL A   1      46.014  28.065  31.400  1.00  0.00    -0.014 A 
ATOM     38  C   UNL A   1      46.200  27.293  32.562  1.00  0.00     0.010 A 
ATOM     39  C   UNL A   1      47.022  28.071  30.418  1.00  0.00     0.010 A 
ATOM     40  C   UNL A   1      47.386  26.577  32.755  1.00  0.00     0.020 A 
ATOM     41  C   UNL A   1      48.197  27.334  30.594  1.00  0.00     0.020 A 
ATOM     42  C   UNL A   1      48.378  26.605  31.771  1.00  0.00     0.054 A 
BRANCH  42  43
ATOM     43  S   UNL A   1      49.900  25.654  32.041  1.00  0.00     0.124 S 
ATOM     44  O   UNL A   1      49.472  24.683  33.046  1.00  0.00    -0.237 OA
ATOM     45  O   UNL A   1      50.173  25.104  30.715  1.00  0.00    -0.237 OA
ATOM     46  O   UNL A   1      50.858  26.653  32.509  1.00  0.00    -0.744 OA
ENDBRANCH  42  43
ENDBRANCH  23  37
BRANCH  24  47
ATOM     47  C   UNL A   1      37.311  32.753  29.861  1.00  0.00    -0.014 A 
ATOM     48  C   UNL A   1      36.303  32.697  30.839  1.00  0.00     0.010 A 
ATOM     49  C   UNL A   1      37.084  33.492  28.685  1.00  0.00     0.010 A 
ATOM     50  C   UNL A   1      35.085  33.354  30.637  1.00  0.00     0.020 A 
ATOM     51  C   UNL A   1      35.883  34.178  28.494  1.00  0.00     0.020 A 
ATOM     52  C   UNL A   1      34.886  34.095  29.467  1.00  0.00     0.054 A 
BRANCH  52  53
ATOM     53  S   UNL A   1      33.319  34.983  29.250  1.00  0.00     0.124 S 
ATOM     54  O   UNL A   1      32.751  34.928  30.594  1.00  0.00    -0.237 OA
ATOM     55  O   UNL A   1      33.764  36.301  28.803  1.00  0.00    -0.237 OA
ATOM     56  O   UNL A   1      32.617  34.196  28.240  1.00  0.00    -0.744 OA
ENDBRANCH  52  53
ENDBRANCH  24  47
BRANCH  36  57
ATOM     57  C   UNL A   1      43.230  34.504  33.113  1.00  0.00    -0.014 A 
ATOM     58  C   UNL A   1      43.823  35.580  32.431  1.00  0.00     0.010 A 
ATOM     59  C   UNL A   1      42.999  34.612  34.496  1.00  0.00     0.010 A 
ATOM     60  C   UNL A   1      44.209  36.730  33.126  1.00  0.00     0.020 A 
ATOM     61  C   UNL A   1      43.355  35.771  35.190  1.00  0.00     0.020 A 
ATOM     62  C   UNL A   1      43.972  36.818  34.502  1.00  0.00     0.054 A 
BRANCH  62  63
ATOM     63  S   UNL A   1      44.445  38.335  35.373  1.00  0.00     0.124 S 
ATOM     64  O   UNL A   1      45.901  38.309  35.262  1.00  0.00    -0.237 OA
ATOM     65  O   UNL A   1      43.773  39.374  34.595  1.00  0.00    -0.237 OA
ATOM     66  O   UNL A   1      43.920  38.139  36.723  1.00  0.00    -0.744 OA
ENDBRANCH  62  63
ENDBRANCH  36  57
ENDBRANCH  10  11
ENDBRANCH   2   5
BRANCH   3  67
ATOM     67  C   UNL A   1      40.772  21.655  26.549  1.00  0.00     0.118 C 
BRANCH  67  68
ATOM     68  C   UNL A   1      41.221  20.218  26.289  1.00  0.00     0.042 C 
BRANCH  68  69
ATOM     69  C   UNL A   1      42.740  20.045  26.284  1.00  0.00     0.118 C 
BRANCH  69  70
ATOM     70  N   UNL A   1      43.339  20.697  25.136  1.00  0.00    -0.351 N 
ATOM     71  C   UNL A   1      44.230  21.710  25.018  1.00  0.00     0.278 C 
ATOM     72  H   UNL A   1      43.040  20.330  24.272  1.00  0.00     0.163 HD
ATOM     73  O   UNL A   1      44.464  22.098  23.865  1.00  0.00    -0.268 OA
BRANCH  71  74
ATOM     74  C   UNL A   1      45.008  22.320  26.221  1.00  0.00     0.276 C 
ATOM     75  N   UNL A   1      46.048  23.252  25.658  1.00  0.00    -0.328 N 
ATOM     76  C   UNL A   1      44.197  23.061  27.310  1.00  0.00     0.064 C 
ATOM     77  C   UNL A   1      45.837  24.643  26.141  1.00  0.00     0.253 C 
ATOM     78  H   UNL A   1      45.991  23.240  24.640  1.00  0.00     0.347 HD
ATOM     79  H   UNL A   1      46.968  22.937  25.969  1.00  0.00     0.347 HD
ATOM     80  C   UNL A   1      45.202  23.632  28.340  1.00  0.00     0.017 C 
ATOM     81  C   UNL A   1      43.415  24.233  26.691  1.00  0.00     0.094 C 
ATOM     82  C   UNL A   1      46.149  24.621  27.644  1.00  0.00     0.072 C 
ATOM     83  C   UNL A   1      44.385  25.146  25.951  1.00  0.00     0.298 C 
ATOM     84  F   UNL A   1      44.259  26.415  26.410  1.00  0.00    -0.200 F 
ATOM     85  F   UNL A   1      44.069  25.176  24.633  1.00  0.00    -0.200 F 
ENDBRANCH  71  74
ENDBRANCH  69  70
ENDBRANCH  68  69
ENDBRANCH  67  68
ENDBRANCH   3  67
TORSDOF 13
ENDMDL
MODEL 3
REMARK VINA RESULT:      -9.9      0.412      8.554
REMARK SMILES O=C(NCCCNC(=O)[C@H]1[NH2+][C@@H]2CC[C@H]1CC2(F)F)c1ccc(-c2c3nc(c(-c4ccc(S(=O)(=O)[O-])cc4)c4ccc([nH]4)c(-c4ccc(S(=O)(=O)[O-])cc4)c4nc(c(-c5ccc(S(=O)(=O)[O-])cc5)c5ccc2[nH]5)C=C4)C=C3)cc1
REMARK SMILES IDX 1 1 2 2 3 3 20 5 21 6 79 7 22 8 78 9 23 10 24 11 25 12 72 13
REMARK SMILES IDX 26 14 77 15 71 16 73 17 27 18 76 19 70 20 69 21 28 23 58 24
REMARK SMILES IDX 39 25 57 26 40 27 43 28 56 29 74 30 41 31 42 32 55 34 75 35
REMARK SMILES IDX 44 36 29 37 30 38 38 39 31 40 37 41 32 42 33 43 34 44 35 45
REMARK SMILES IDX 36 46 59 47 60 48 68 49 61 50 67 51 62 52 63 53 64 54 65 55
REMARK SMILES IDX 66 56 45 57 46 58 54 59 47 60 53 61 48 62 49 63 50 64 51 65
REMARK SMILES IDX 52 66 4 67 5 68 6 69 7 70 8 71 9 73 10 74 11 75 15 76 12 77
REMARK SMILES IDX 14 80 16 81 13 82 17 83 18 84 19 85
REMARK H PARENT 3 4 73 22 43 33 7 72 11 78 11 79
REMARK Flexibility Score: inf
ROOT
ATOM      1  O   UNL A   1      33.710  29.300  27.502  1.00  0.00    -0.269 OA
ATOM      2  C   UNL A   1      34.465  30.156  27.963  1.00  0.00     0.251 C 
ATOM      3  N   UNL A   1      33.983  31.419  28.205  1.00  0.00    -0.352 N 
ATOM      4  H   UNL A   1      33.002  31.507  28.180  1.00  0.00     0.163 HD
ENDROOT
BRANCH   2   5
ATOM      5  C   UNL A   1      35.880  29.827  28.243  1.00  0.00     0.039 A 
ATOM      6  C   UNL A   1      36.869  30.052  27.284  1.00  0.00     0.014 A 
ATOM      7  C   UNL A   1      36.230  29.328  29.502  1.00  0.00     0.014 A 
ATOM      8  C   UNL A   1      38.180  29.660  27.532  1.00  0.00     0.010 A 
ATOM      9  C   UNL A   1      37.565  29.017  29.782  1.00  0.00     0.010 A 
ATOM     10  C   UNL A   1      38.549  29.161  28.792  1.00  0.00    -0.014 A 
BRANCH  10  11
ATOM     11  C   UNL A   1      39.981  28.879  29.073  1.00  0.00     0.031 A 
ATOM     12  C   UNL A   1      40.607  27.563  28.701  1.00  0.00     0.074 A 
ATOM     13  C   UNL A   1      40.724  29.840  29.660  1.00  0.00     0.049 A 
ATOM     14  N   UNL A   1      41.846  27.170  28.862  1.00  0.00    -0.248 NA
ATOM     15  C   UNL A   1      39.736  26.557  28.074  1.00  0.00     0.031 C 
ATOM     16  C   UNL A   1      40.224  31.155  30.075  1.00  0.00     0.029 A 
ATOM     17  N   UNL A   1      42.053  29.872  29.993  1.00  0.00    -0.354 N 
ATOM     18  C   UNL A   1      41.902  25.869  28.374  1.00  0.00     0.074 A 
ATOM     19  C   UNL A   1      40.564  25.529  27.936  1.00  0.00     0.031 C 
ATOM     20  C   UNL A   1      41.241  31.880  30.560  1.00  0.00     0.029 A 
ATOM     21  C   UNL A   1      42.449  31.062  30.558  1.00  0.00     0.049 A 
ATOM     22  H   UNL A   1      42.667  29.117  29.842  1.00  0.00     0.167 HD
ATOM     23  C   UNL A   1      42.970  25.039  28.295  1.00  0.00     0.031 A 
ATOM     24  C   UNL A   1      43.643  31.452  31.042  1.00  0.00     0.031 A 
ATOM     25  C   UNL A   1      44.296  25.382  28.742  1.00  0.00     0.049 A 
ATOM     26  C   UNL A   1      44.799  30.497  30.981  1.00  0.00     0.074 A 
ATOM     27  C   UNL A   1      45.450  24.619  28.678  1.00  0.00     0.029 A 
ATOM     28  N   UNL A   1      44.646  26.583  29.344  1.00  0.00    -0.354 N 
ATOM     29  N   UNL A   1      44.837  29.285  30.479  1.00  0.00    -0.248 NA
ATOM     30  C   UNL A   1      46.071  30.960  31.547  1.00  0.00     0.031 C 
ATOM     31  C   UNL A   1      46.483  25.334  29.295  1.00  0.00     0.029 A 
ATOM     32  C   UNL A   1      45.989  26.569  29.683  1.00  0.00     0.049 A 
ATOM     33  H   UNL A   1      44.030  27.334  29.506  1.00  0.00     0.167 HD
ATOM     34  C   UNL A   1      46.145  28.847  30.654  1.00  0.00     0.074 A 
ATOM     35  C   UNL A   1      46.867  29.932  31.286  1.00  0.00     0.031 C 
ATOM     36  C   UNL A   1      46.695  27.653  30.321  1.00  0.00     0.031 A 
BRANCH  23  37
ATOM     37  C   UNL A   1      42.745  23.658  27.730  1.00  0.00    -0.014 A 
ATOM     38  C   UNL A   1      43.017  23.366  26.381  1.00  0.00     0.010 A 
ATOM     39  C   UNL A   1      42.307  22.622  28.576  1.00  0.00     0.010 A 
ATOM     40  C   UNL A   1      42.815  22.077  25.880  1.00  0.00     0.020 A 
ATOM     41  C   UNL A   1      42.130  21.324  28.086  1.00  0.00     0.020 A 
ATOM     42  C   UNL A   1      42.370  21.064  26.735  1.00  0.00     0.054 A 
BRANCH  42  43
ATOM     43  S   UNL A   1      42.131  19.396  26.060  1.00  0.00     0.124 S 
ATOM     44  O   UNL A   1      42.612  18.558  27.156  1.00  0.00    -0.237 OA
ATOM     45  O   UNL A   1      40.690  19.351  25.822  1.00  0.00    -0.237 OA
ATOM     46  O   UNL A   1      42.960  19.385  24.857  1.00  0.00    -0.744 OA
ENDBRANCH  42  43
ENDBRANCH  23  37
BRANCH  24  47
ATOM     47  C   UNL A   1      43.790  32.806  31.644  1.00  0.00    -0.014 A 
ATOM     48  C   UNL A   1      43.563  33.011  33.015  1.00  0.00     0.010 A 
ATOM     49  C   UNL A   1      44.187  33.895  30.845  1.00  0.00     0.010 A 
ATOM     50  C   UNL A   1      43.715  34.283  33.575  1.00  0.00     0.020 A 
ATOM     51  C   UNL A   1      44.373  35.160  31.406  1.00  0.00     0.020 A 
ATOM     52  C   UNL A   1      44.124  35.348  32.766  1.00  0.00     0.054 A 
BRANCH  52  53
ATOM     53  S   UNL A   1      44.366  36.979  33.524  1.00  0.00     0.124 S 
ATOM     54  O   UNL A   1      44.730  37.797  32.371  1.00  0.00    -0.237 OA
ATOM     55  O   UNL A   1      43.054  37.253  34.106  1.00  0.00    -0.237 OA
ATOM     56  O   UNL A   1      45.434  36.750  34.494  1.00  0.00    -0.744 OA
ENDBRANCH  52  53
ENDBRANCH  24  47
BRANCH  36  57
ATOM     57  C   UNL A   1      48.161  27.468  30.609  1.00  0.00    -0.014 A 
ATOM     58  C   UNL A   1      48.605  26.964  31.845  1.00  0.00     0.010 A 
ATOM     59  C   UNL A   1      49.107  27.766  29.611  1.00  0.00     0.010 A 
ATOM     60  C   UNL A   1      49.970  26.794  32.088  1.00  0.00     0.020 A 
ATOM     61  C   UNL A   1      50.470  27.569  29.839  1.00  0.00     0.020 A 
ATOM     62  C   UNL A   1      50.895  27.097  31.083  1.00  0.00     0.054 A 
BRANCH  62  63
ATOM     63  S   UNL A   1      52.658  26.829  31.410  1.00  0.00     0.124 S 
ATOM     64  O   UNL A   1      53.275  27.342  30.191  1.00  0.00    -0.237 OA
ATOM     65  O   UNL A   1      52.885  27.627  32.614  1.00  0.00    -0.237 OA
ATOM     66  O   UNL A   1      52.760  25.384  31.600  1.00  0.00    -0.744 OA
ENDBRANCH  62  63
ENDBRANCH  36  57
ENDBRANCH  10  11
ENDBRANCH   2   5
BRANCH   3  67
ATOM     67  C   UNL A   1      34.710  32.647  28.494  1.00  0.00     0.118 C 
BRANCH  67  68
ATOM     68  C   UNL A   1      33.810  33.879  28.405  1.00  0.00     0.042 C 
BRANCH  68  69
ATOM     69  C   UNL A   1      33.989  34.850  29.571  1.00  0.00     0.118 C 
BRANCH  69  70
ATOM     70  N   UNL A   1      33.709  34.206  30.839  1.00  0.00    -0.351 N 
ATOM     71  C   UNL A   1      34.484  33.915  31.911  1.00  0.00     0.278 C 
ATOM     72  H   UNL A   1      32.771  33.925  30.942  1.00  0.00     0.163 HD
ATOM     73  O   UNL A   1      33.945  33.258  32.812  1.00  0.00    -0.268 OA
BRANCH  71  74
ATOM     74  C   UNL A   1      35.943  34.433  32.087  1.00  0.00     0.276 C 
ATOM     75  N   UNL A   1      36.352  34.150  33.508  1.00  0.00    -0.328 N 
ATOM     76  C   UNL A   1      37.027  33.888  31.128  1.00  0.00     0.064 C 
ATOM     77  C   UNL A   1      37.534  33.248  33.555  1.00  0.00     0.253 C 
ATOM     78  H   UNL A   1      35.575  33.706  33.998  1.00  0.00     0.347 HD
ATOM     79  H   UNL A   1      36.600  35.033  33.956  1.00  0.00     0.347 HD
ATOM     80  C   UNL A   1      38.386  34.494  31.559  1.00  0.00     0.017 C 
ATOM     81  C   UNL A   1      37.120  32.357  31.238  1.00  0.00     0.094 C 
ATOM     82  C   UNL A   1      38.710  34.062  32.997  1.00  0.00     0.072 C 
ATOM     83  C   UNL A   1      37.370  31.973  32.691  1.00  0.00     0.298 C 
ATOM     84  F   UNL A   1      38.476  31.196  32.776  1.00  0.00    -0.200 F 
ATOM     85  F   UNL A   1      36.335  31.227  33.152  1.00  0.00    -0.200 F 
ENDBRANCH  71  74
ENDBRANCH  69  70
ENDBRANCH  68  69
ENDBRANCH  67  68
ENDBRANCH   3  67
TORSDOF 13
ENDMDL
