MODEL 1
REMARK VINA RESULT:     -10.4      0.000      0.000
REMARK SMILES NS(=O)(=O)c1ccc(NS(=O)(=O)c2cccc(C(=O)NCCCNC(=O)c3ccc(-c4c5nc(c(-c6ccc(S(=O)(=O)[O-])cc6)c6ccc([nH]6)c(-c6ccc(S(=O)(=O)[O-])cc6)c6nc(c(-c7ccc(S(=O)(=O)[O-])cc7)c7ccc4[nH]7)C=C6)C=C5)cc3)c2)cc1
REMARK SMILES IDX 21 1 20 2 18 3 19 4 17 6 13 7 14 8 87 9 15 10 16 11 10 12
REMARK SMILES IDX 11 13 12 14 9 15 8 17 5 18 6 19 89 20 7 21 88 22 2 23 3 24
REMARK SMILES IDX 4 25 1 26 22 29 23 30 24 31 25 32 26 34 27 35 28 36 86 37
REMARK SMILES IDX 29 38 85 39 30 40 31 41 32 42 79 43 33 44 84 45 78 46 80 47
REMARK SMILES IDX 34 48 83 49 77 50 76 51 35 53 65 54 46 55 64 56 47 57 50 58
REMARK SMILES IDX 63 59 81 60 48 61 49 62 62 64 82 65 51 66 36 67 37 68 45 69
REMARK SMILES IDX 38 70 44 71 39 72 40 73 41 74 42 75 43 76 66 77 67 78 75 79
REMARK SMILES IDX 68 80 74 81 69 82 70 83 71 84 72 85 73 86 52 87 53 88 61 89
REMARK SMILES IDX 54 90 60 91 55 92 56 93 57 94 58 95 59 96
REMARK H PARENT 20 5 9 16 1 27 1 28 24 33 80 52 50 63
REMARK Flexibility Score: inf
ROOT
ATOM      1  C   UNL A   1      33.116  34.466  28.759  1.00  0.00     0.118 C 
ENDROOT
BRANCH   1   2
ATOM      2  N   UNL A   1      32.875  35.819  29.230  1.00  0.00    -0.352 N 
ATOM      3  C   UNL A   1      33.124  36.421  30.433  1.00  0.00     0.251 C 
ATOM      4  O   UNL A   1      32.845  37.613  30.564  1.00  0.00    -0.269 OA
ATOM      5  H   UNL A   1      32.458  36.409  28.563  1.00  0.00     0.163 HD
BRANCH   3   6
ATOM      6  C   UNL A   1      33.807  35.715  31.546  1.00  0.00     0.041 A 
ATOM      7  C   UNL A   1      35.272  34.046  32.491  1.00  0.00     0.088 A 
ATOM      8  C   UNL A   1      35.178  34.662  33.746  1.00  0.00     0.022 A 
ATOM      9  C   UNL A   1      34.577  34.558  31.388  1.00  0.00     0.036 A 
ATOM     10  C   UNL A   1      34.328  35.748  33.922  1.00  0.00     0.002 A 
ATOM     11  C   UNL A   1      33.648  36.274  32.825  1.00  0.00     0.014 A 
BRANCH   7  12
ATOM     12  S   UNL A   1      36.387  32.671  32.297  1.00  0.00     0.261 S 
ATOM     13  O   UNL A   1      37.580  33.158  31.637  1.00  0.00    -0.201 OA
ATOM     14  O   UNL A   1      35.632  31.573  31.733  1.00  0.00    -0.201 OA
BRANCH  12  15
ATOM     15  N   UNL A   1      36.815  32.209  33.882  1.00  0.00    -0.280 N 
ATOM     16  H   UNL A   1      36.236  32.415  34.651  1.00  0.00     0.180 HD
BRANCH  15  17
ATOM     17  C   UNL A   1      38.050  31.510  34.041  1.00  0.00     0.049 A 
ATOM     18  C   UNL A   1      40.281  29.917  34.532  1.00  0.00     0.082 A 
ATOM     19  C   UNL A   1      39.311  29.489  33.624  1.00  0.00     0.024 A 
ATOM     20  C   UNL A   1      40.165  31.159  35.166  1.00  0.00     0.024 A 
ATOM     21  C   UNL A   1      38.201  30.293  33.373  1.00  0.00     0.028 A 
ATOM     22  C   UNL A   1      39.035  31.953  34.928  1.00  0.00     0.028 A 
BRANCH  18  23
ATOM     23  S   UNL A   1      41.637  28.832  34.864  1.00  0.00     0.238 S 
ATOM     24  O   UNL A   1      42.832  29.626  35.050  1.00  0.00    -0.207 OA
ATOM     25  O   UNL A   1      41.569  27.730  33.937  1.00  0.00    -0.207 OA
BRANCH  23  26
ATOM     26  N   UNL A   1      41.307  28.185  36.379  1.00  0.00    -0.225 NA
ATOM     27  H   UNL A   1      41.563  28.860  37.099  1.00  0.00     0.137 HD
ATOM     28  H   UNL A   1      41.846  27.329  36.508  1.00  0.00     0.137 HD
ENDBRANCH  23  26
ENDBRANCH  18  23
ENDBRANCH  15  17
ENDBRANCH  12  15
ENDBRANCH   7  12
ENDBRANCH   3   6
ENDBRANCH   1   2
BRANCH   1  29
ATOM     29  C   UNL A   1      34.417  34.398  27.964  1.00  0.00     0.042 C 
BRANCH  29  30
ATOM     30  C   UNL A   1      35.159  33.075  28.145  1.00  0.00     0.118 C 
BRANCH  30  31
ATOM     31  N   UNL A   1      34.322  31.933  27.800  1.00  0.00    -0.352 N 
ATOM     32  C   UNL A   1      34.660  30.614  27.630  1.00  0.00     0.251 C 
ATOM     33  H   UNL A   1      33.369  32.139  27.668  1.00  0.00     0.163 HD
ATOM     34  O   UNL A   1      33.856  29.850  27.102  1.00  0.00    -0.269 OA
BRANCH  32  35
ATOM     35  C   UNL A   1      35.979  30.110  28.074  1.00  0.00     0.039 A 
ATOM     36  C   UNL A   1      37.057  30.175  27.188  1.00  0.00     0.014 A 
ATOM     37  C   UNL A   1      36.143  29.530  29.335  1.00  0.00     0.014 A 
ATOM     38  C   UNL A   1      38.310  29.700  27.583  1.00  0.00     0.010 A 
ATOM     39  C   UNL A   1      37.407  29.123  29.753  1.00  0.00     0.010 A 
ATOM     40  C   UNL A   1      38.500  29.192  28.878  1.00  0.00    -0.014 A 
BRANCH  40  41
ATOM     41  C   UNL A   1      39.837  28.731  29.333  1.00  0.00     0.031 A 
ATOM     42  C   UNL A   1      40.728  29.648  30.128  1.00  0.00     0.074 A 
ATOM     43  C   UNL A   1      40.277  27.512  28.966  1.00  0.00     0.049 A 
ATOM     44  N   UNL A   1      41.941  29.438  30.572  1.00  0.00    -0.248 NA
ATOM     45  C   UNL A   1      40.200  30.987  30.435  1.00  0.00     0.031 C 
ATOM     46  C   UNL A   1      39.532  26.557  28.144  1.00  0.00     0.029 A 
ATOM     47  N   UNL A   1      41.463  26.873  29.228  1.00  0.00    -0.354 N 
ATOM     48  C   UNL A   1      42.331  30.623  31.185  1.00  0.00     0.074 A 
ATOM     49  C   UNL A   1      41.243  31.562  31.017  1.00  0.00     0.031 C 
ATOM     50  C   UNL A   1      40.269  25.447  27.984  1.00  0.00     0.029 A 
ATOM     51  C   UNL A   1      41.550  25.623  28.662  1.00  0.00     0.049 A 
ATOM     52  H   UNL A   1      42.182  27.270  29.769  1.00  0.00     0.167 HD
ATOM     53  C   UNL A   1      43.485  30.902  31.839  1.00  0.00     0.031 A 
ATOM     54  C   UNL A   1      42.549  24.720  28.679  1.00  0.00     0.031 A 
ATOM     55  C   UNL A   1      44.557  29.957  32.015  1.00  0.00     0.049 A 
ATOM     56  C   UNL A   1      43.804  25.031  29.442  1.00  0.00     0.074 A 
ATOM     57  C   UNL A   1      45.730  30.111  32.734  1.00  0.00     0.029 A 
ATOM     58  N   UNL A   1      44.591  28.686  31.460  1.00  0.00    -0.354 N 
ATOM     59  N   UNL A   1      44.118  26.126  30.096  1.00  0.00    -0.248 NA
ATOM     60  C   UNL A   1      44.831  23.984  29.488  1.00  0.00     0.031 C 
ATOM     61  C   UNL A   1      46.495  28.949  32.571  1.00  0.00     0.029 A 
ATOM     62  C   UNL A   1      45.776  28.053  31.796  1.00  0.00     0.049 A 
ATOM     63  H   UNL A   1      43.877  28.293  30.909  1.00  0.00     0.167 HD
ATOM     64  C   UNL A   1      45.375  25.893  30.641  1.00  0.00     0.074 A 
ATOM     65  C   UNL A   1      45.753  24.547  30.258  1.00  0.00     0.031 C 
ATOM     66  C   UNL A   1      46.145  26.719  31.393  1.00  0.00     0.031 A 
BRANCH  53  67
ATOM     67  C   UNL A   1      43.649  32.294  32.393  1.00  0.00    -0.014 A 
ATOM     68  C   UNL A   1      43.308  32.597  33.724  1.00  0.00     0.010 A 
ATOM     69  C   UNL A   1      44.161  33.315  31.571  1.00  0.00     0.010 A 
ATOM     70  C   UNL A   1      43.417  33.906  34.204  1.00  0.00     0.020 A 
ATOM     71  C   UNL A   1      44.300  34.619  32.056  1.00  0.00     0.020 A 
ATOM     72  C   UNL A   1      43.904  34.911  33.363  1.00  0.00     0.054 A 
BRANCH  72  73
ATOM     73  S   UNL A   1      44.026  36.603  34.006  1.00  0.00     0.124 S 
ATOM     74  O   UNL A   1      43.874  36.389  35.443  1.00  0.00    -0.237 OA
ATOM     75  O   UNL A   1      45.358  37.017  33.571  1.00  0.00    -0.237 OA
ATOM     76  O   UNL A   1      42.919  37.301  33.358  1.00  0.00    -0.744 OA
ENDBRANCH  72  73
ENDBRANCH  53  67
BRANCH  54  77
ATOM     77  C   UNL A   1      42.376  23.428  27.961  1.00  0.00    -0.014 A 
ATOM     78  C   UNL A   1      43.108  23.158  26.792  1.00  0.00     0.010 A 
ATOM     79  C   UNL A   1      41.529  22.434  28.484  1.00  0.00     0.010 A 
ATOM     80  C   UNL A   1      42.997  21.916  26.159  1.00  0.00     0.020 A 
ATOM     81  C   UNL A   1      41.435  21.183  27.869  1.00  0.00     0.020 A 
ATOM     82  C   UNL A   1      42.167  20.933  26.706  1.00  0.00     0.054 A 
BRANCH  82  83
ATOM     83  S   UNL A   1      42.112  19.297  25.922  1.00  0.00     0.124 S 
ATOM     84  O   UNL A   1      42.685  18.444  26.959  1.00  0.00    -0.237 OA
ATOM     85  O   UNL A   1      40.684  19.115  25.670  1.00  0.00    -0.237 OA
ATOM     86  O   UNL A   1      42.931  19.465  24.724  1.00  0.00    -0.744 OA
ENDBRANCH  82  83
ENDBRANCH  54  77
BRANCH  66  87
ATOM     87  C   UNL A   1      47.472  26.185  31.860  1.00  0.00    -0.014 A 
ATOM     88  C   UNL A   1      48.638  26.367  31.096  1.00  0.00     0.010 A 
ATOM     89  C   UNL A   1      47.561  25.535  33.105  1.00  0.00     0.010 A 
ATOM     90  C   UNL A   1      49.865  25.877  31.553  1.00  0.00     0.020 A 
ATOM     91  C   UNL A   1      48.790  25.068  33.577  1.00  0.00     0.020 A 
ATOM     92  C   UNL A   1      49.932  25.228  32.790  1.00  0.00     0.054 A 
BRANCH  92  93
ATOM     93  S   UNL A   1      51.541  24.633  33.378  1.00  0.00     0.124 S 
ATOM     94  O   UNL A   1      51.230  24.216  34.743  1.00  0.00    -0.237 OA
ATOM     95  O   UNL A   1      51.845  23.551  32.444  1.00  0.00    -0.237 OA
ATOM     96  O   UNL A   1      52.406  25.805  33.266  1.00  0.00    -0.744 OA
ENDBRANCH  92  93
ENDBRANCH  66  87
ENDBRANCH  40  41
ENDBRANCH  32  35
ENDBRANCH  30  31
ENDBRANCH  29  30
ENDBRANCH   1  29
TORSDOF 18
ENDMDL
MODEL 2
REMARK VINA RESULT:     -10.2      1.739      2.423
REMARK SMILES NS(=O)(=O)c1ccc(NS(=O)(=O)c2cccc(C(=O)NCCCNC(=O)c3ccc(-c4c5nc(c(-c6ccc(S(=O)(=O)[O-])cc6)c6ccc([nH]6)c(-c6ccc(S(=O)(=O)[O-])cc6)c6nc(c(-c7ccc(S(=O)(=O)[O-])cc7)c7ccc4[nH]7)C=C6)C=C5)cc3)c2)cc1
REMARK SMILES IDX 21 1 20 2 18 3 19 4 17 6 13 7 14 8 87 9 15 10 16 11 10 12
REMARK SMILES IDX 11 13 12 14 9 15 8 17 5 18 6 19 89 20 7 21 88 22 2 23 3 24
REMARK SMILES IDX 4 25 1 26 22 29 23 30 24 31 25 32 26 34 27 35 28 36 86 37
REMARK SMILES IDX 29 38 85 39 30 40 31 41 32 42 79 43 33 44 84 45 78 46 80 47
REMARK SMILES IDX 34 48 83 49 77 50 76 51 35 53 65 54 46 55 64 56 47 57 50 58
REMARK SMILES IDX 63 59 81 60 48 61 49 62 62 64 82 65 51 66 36 67 37 68 45 69
REMARK SMILES IDX 38 70 44 71 39 72 40 73 41 74 42 75 43 76 66 77 67 78 75 79
REMARK SMILES IDX 68 80 74 81 69 82 70 83 71 84 72 85 73 86 52 87 53 88 61 89
REMARK SMILES IDX 54 90 60 91 55 92 56 93 57 94 58 95 59 96
REMARK H PARENT 20 5 9 16 1 27 1 28 24 33 80 52 50 63
REMARK Flexibility Score: inf
ROOT
ATOM      1  C   UNL A   1      35.356  33.294  30.616  1.00  0.00     0.118 C 
ENDROOT
BRANCH   1   2
ATOM      2  N   UNL A   1      36.613  34.011  30.493  1.00  0.00    -0.352 N 
ATOM      3  C   UNL A   1      37.637  34.211  31.379  1.00  0.00     0.251 C 
ATOM      4  O   UNL A   1      38.624  34.843  31.004  1.00  0.00    -0.269 OA
ATOM      5  H   UNL A   1      36.755  34.427  29.613  1.00  0.00     0.163 HD
BRANCH   3   6
ATOM      6  C   UNL A   1      37.639  33.609  32.736  1.00  0.00     0.041 A 
ATOM      7  C   UNL A   1      38.155  31.897  34.357  1.00  0.00     0.088 A 
ATOM      8  C   UNL A   1      37.747  32.745  35.395  1.00  0.00     0.022 A 
ATOM      9  C   UNL A   1      38.090  32.316  33.022  1.00  0.00     0.036 A 
ATOM     10  C   UNL A   1      37.200  33.988  35.098  1.00  0.00     0.002 A 
ATOM     11  C   UNL A   1      37.149  34.419  33.774  1.00  0.00     0.014 A 
BRANCH   7  12
ATOM     12  S   UNL A   1      38.872  30.321  34.775  1.00  0.00     0.261 S 
ATOM     13  O   UNL A   1      38.414  29.354  33.800  1.00  0.00    -0.201 OA
ATOM     14  O   UNL A   1      38.648  30.100  36.187  1.00  0.00    -0.201 OA
BRANCH  12  15
ATOM     15  N   UNL A   1      40.553  30.520  34.569  1.00  0.00    -0.280 N 
ATOM     16  H   UNL A   1      40.943  31.396  34.343  1.00  0.00     0.180 HD
BRANCH  15  17
ATOM     17  C   UNL A   1      41.367  29.359  34.738  1.00  0.00     0.049 A 
ATOM     18  C   UNL A   1      42.690  26.917  34.946  1.00  0.00     0.082 A 
ATOM     19  C   UNL A   1      42.485  27.489  33.689  1.00  0.00     0.024 A 
ATOM     20  C   UNL A   1      42.274  27.580  36.106  1.00  0.00     0.024 A 
ATOM     21  C   UNL A   1      41.832  28.716  33.590  1.00  0.00     0.028 A 
ATOM     22  C   UNL A   1      41.597  28.801  35.999  1.00  0.00     0.028 A 
BRANCH  18  23
ATOM     23  S   UNL A   1      43.465  25.330  35.013  1.00  0.00     0.238 S 
ATOM     24  O   UNL A   1      42.438  24.318  35.141  1.00  0.00    -0.207 OA
ATOM     25  O   UNL A   1      44.592  25.416  35.908  1.00  0.00    -0.207 OA
BRANCH  23  26
ATOM     26  N   UNL A   1      44.107  25.102  33.478  1.00  0.00    -0.225 NA
ATOM     27  H   UNL A   1      44.823  24.376  33.513  1.00  0.00     0.137 HD
ATOM     28  H   UNL A   1      44.523  25.974  33.150  1.00  0.00     0.137 HD
ENDBRANCH  23  26
ENDBRANCH  18  23
ENDBRANCH  15  17
ENDBRANCH  12  15
ENDBRANCH   7  12
ENDBRANCH   3   6
ENDBRANCH   1   2
BRANCH   1  29
ATOM     29  C   UNL A   1      34.400  33.689  29.493  1.00  0.00     0.042 C 
BRANCH  29  30
ATOM     30  C   UNL A   1      34.750  33.040  28.156  1.00  0.00     0.118 C 
BRANCH  30  31
ATOM     31  N   UNL A   1      33.937  31.859  27.898  1.00  0.00    -0.352 N 
ATOM     32  C   UNL A   1      34.312  30.547  27.750  1.00  0.00     0.251 C 
ATOM     33  H   UNL A   1      32.971  32.027  27.818  1.00  0.00     0.163 HD
ATOM     34  O   UNL A   1      33.507  29.738  27.296  1.00  0.00    -0.269 OA
BRANCH  32  35
ATOM     35  C   UNL A   1      35.673  30.105  28.129  1.00  0.00     0.039 A 
ATOM     36  C   UNL A   1      36.668  30.071  27.148  1.00  0.00     0.014 A 
ATOM     37  C   UNL A   1      35.957  29.676  29.428  1.00  0.00     0.014 A 
ATOM     38  C   UNL A   1      37.957  29.651  27.481  1.00  0.00     0.010 A 
ATOM     39  C   UNL A   1      37.259  29.327  29.776  1.00  0.00     0.010 A 
ATOM     40  C   UNL A   1      38.269  29.298  28.804  1.00  0.00    -0.014 A 
BRANCH  40  41
ATOM     41  C   UNL A   1      39.648  28.900  29.187  1.00  0.00     0.031 A 
ATOM     42  C   UNL A   1      40.557  29.878  29.881  1.00  0.00     0.074 A 
ATOM     43  C   UNL A   1      40.103  27.680  28.844  1.00  0.00     0.049 A 
ATOM     44  N   UNL A   1      41.804  29.726  30.252  1.00  0.00    -0.248 NA
ATOM     45  C   UNL A   1      40.005  31.212  30.166  1.00  0.00     0.031 C 
ATOM     46  C   UNL A   1      39.339  26.666  28.115  1.00  0.00     0.029 A 
ATOM     47  N   UNL A   1      41.325  27.090  29.053  1.00  0.00    -0.354 N 
ATOM     48  C   UNL A   1      42.192  30.949  30.785  1.00  0.00     0.074 A 
ATOM     49  C   UNL A   1      41.064  31.845  30.652  1.00  0.00     0.031 C 
ATOM     50  C   UNL A   1      40.101  25.574  27.953  1.00  0.00     0.029 A 
ATOM     51  C   UNL A   1      41.417  25.820  28.535  1.00  0.00     0.049 A 
ATOM     52  H   UNL A   1      42.064  27.533  29.527  1.00  0.00     0.167 HD
ATOM     53  C   UNL A   1      43.377  31.292  31.348  1.00  0.00     0.031 A 
ATOM     54  C   UNL A   1      42.445  24.949  28.524  1.00  0.00     0.031 A 
ATOM     55  C   UNL A   1      44.489  30.390  31.492  1.00  0.00     0.049 A 
ATOM     56  C   UNL A   1      43.736  25.333  29.187  1.00  0.00     0.074 A 
ATOM     57  C   UNL A   1      45.701  30.612  32.123  1.00  0.00     0.029 A 
ATOM     58  N   UNL A   1      44.530  29.097  30.991  1.00  0.00    -0.354 N 
ATOM     59  N   UNL A   1      44.055  26.465  29.771  1.00  0.00    -0.248 NA
ATOM     60  C   UNL A   1      44.799  24.321  29.208  1.00  0.00     0.031 C 
ATOM     61  C   UNL A   1      46.493  29.469  31.959  1.00  0.00     0.029 A 
ATOM     62  C   UNL A   1      45.755  28.517  31.273  1.00  0.00     0.049 A 
ATOM     63  H   UNL A   1      43.795  28.658  30.505  1.00  0.00     0.167 HD
ATOM     64  C   UNL A   1      45.352  26.296  30.240  1.00  0.00     0.074 A 
ATOM     65  C   UNL A   1      45.750  24.946  29.890  1.00  0.00     0.031 C 
ATOM     66  C   UNL A   1      46.142  27.178  30.903  1.00  0.00     0.031 A 
BRANCH  53  67
ATOM     67  C   UNL A   1      43.530  32.712  31.830  1.00  0.00    -0.014 A 
ATOM     68  C   UNL A   1      43.035  33.117  33.084  1.00  0.00     0.010 A 
ATOM     69  C   UNL A   1      44.186  33.657  31.019  1.00  0.00     0.010 A 
ATOM     70  C   UNL A   1      43.140  34.450  33.490  1.00  0.00     0.020 A 
ATOM     71  C   UNL A   1      44.319  34.984  31.435  1.00  0.00     0.020 A 
ATOM     72  C   UNL A   1      43.773  35.378  32.658  1.00  0.00     0.054 A 
BRANCH  72  73
ATOM     73  S   UNL A   1      43.886  37.105  33.204  1.00  0.00     0.124 S 
ATOM     74  O   UNL A   1      42.754  37.204  34.121  1.00  0.00    -0.237 OA
ATOM     75  O   UNL A   1      45.206  37.159  33.829  1.00  0.00    -0.237 OA
ATOM     76  O   UNL A   1      43.756  37.869  31.966  1.00  0.00    -0.744 OA
ENDBRANCH  72  73
ENDBRANCH  53  67
BRANCH  54  77
ATOM     77  C   UNL A   1      42.270  23.622  27.875  1.00  0.00    -0.014 A 
ATOM     78  C   UNL A   1      42.769  23.387  26.583  1.00  0.00     0.010 A 
ATOM     79  C   UNL A   1      41.661  22.564  28.577  1.00  0.00     0.010 A 
ATOM     80  C   UNL A   1      42.666  22.119  26.003  1.00  0.00     0.020 A 
ATOM     81  C   UNL A   1      41.578  21.290  28.011  1.00  0.00     0.020 A 
ATOM     82  C   UNL A   1      42.078  21.075  26.725  1.00  0.00     0.054 A 
BRANCH  82  83
ATOM     83  S   UNL A   1      42.040  19.415  25.991  1.00  0.00     0.124 S 
ATOM     84  O   UNL A   1      40.619  19.239  25.711  1.00  0.00    -0.237 OA
ATOM     85  O   UNL A   1      42.903  19.567  24.822  1.00  0.00    -0.237 OA
ATOM     86  O   UNL A   1      42.582  18.563  27.048  1.00  0.00    -0.744 OA
ENDBRANCH  82  83
ENDBRANCH  54  77
BRANCH  66  87
ATOM     87  C   UNL A   1      47.514  26.707  31.302  1.00  0.00    -0.014 A 
ATOM     88  C   UNL A   1      48.573  26.686  30.377  1.00  0.00     0.010 A 
ATOM     89  C   UNL A   1      47.758  26.326  32.635  1.00  0.00     0.010 A 
ATOM     90  C   UNL A   1      49.845  26.260  30.771  1.00  0.00     0.020 A 
ATOM     91  C   UNL A   1      49.034  25.924  33.037  1.00  0.00     0.020 A 
ATOM     92  C   UNL A   1      50.067  25.879  32.098  1.00  0.00     0.054 A 
BRANCH  92  93
ATOM     93  S   UNL A   1      51.733  25.363  32.592  1.00  0.00     0.124 S 
ATOM     94  O   UNL A   1      51.515  23.975  32.992  1.00  0.00    -0.237 OA
ATOM     95  O   UNL A   1      52.506  25.551  31.366  1.00  0.00    -0.237 OA
ATOM     96  O   UNL A   1      52.071  26.280  33.679  1.00  0.00    -0.744 OA
ENDBRANCH  92  93
ENDBRANCH  66  87
ENDBRANCH  40  41
ENDBRANCH  32  35
ENDBRANCH  30  31
ENDBRANCH  29  30
ENDBRANCH   1  29
TORSDOF 18
ENDMDL
MODEL 3
REMARK VINA RESULT:     -10.2      4.100     12.725
REMARK SMILES NS(=O)(=O)c1ccc(NS(=O)(=O)c2cccc(C(=O)NCCCNC(=O)c3ccc(-c4c5nc(c(-c6ccc(S(=O)(=O)[O-])cc6)c6ccc([nH]6)c(-c6ccc(S(=O)(=O)[O-])cc6)c6nc(c(-c7ccc(S(=O)(=O)[O-])cc7)c7ccc4[nH]7)C=C6)C=C5)cc3)c2)cc1
REMARK SMILES IDX 21 1 20 2 18 3 19 4 17 6 13 7 14 8 87 9 15 10 16 11 10 12
REMARK SMILES IDX 11 13 12 14 9 15 8 17 5 18 6 19 89 20 7 21 88 22 2 23 3 24
REMARK SMILES IDX 4 25 1 26 22 29 23 30 24 31 25 32 26 34 27 35 28 36 86 37
REMARK SMILES IDX 29 38 85 39 30 40 31 41 32 42 79 43 33 44 84 45 78 46 80 47
REMARK SMILES IDX 34 48 83 49 77 50 76 51 35 53 65 54 46 55 64 56 47 57 50 58
REMARK SMILES IDX 63 59 81 60 48 61 49 62 62 64 82 65 51 66 36 67 37 68 45 69
REMARK SMILES IDX 38 70 44 71 39 72 40 73 41 74 42 75 43 76 66 77 67 78 75 79
REMARK SMILES IDX 68 80 74 81 69 82 70 83 71 84 72 85 73 86 52 87 53 88 61 89
REMARK SMILES IDX 54 90 60 91 55 92 56 93 57 94 58 95 59 96
REMARK H PARENT 20 5 9 16 1 27 1 28 24 33 80 52 50 63
REMARK Flexibility Score: inf
ROOT
ATOM      1  C   UNL A   1      41.217  20.754  26.373  1.00  0.00     0.118 C 
ENDROOT
BRANCH   1   2
ATOM      2  N   UNL A   1      41.424  19.324  26.221  1.00  0.00    -0.352 N 
ATOM      3  C   UNL A   1      42.515  18.600  25.822  1.00  0.00     0.251 C 
ATOM      4  O   UNL A   1      42.433  17.372  25.810  1.00  0.00    -0.269 OA
ATOM      5  H   UNL A   1      40.638  18.777  26.446  1.00  0.00     0.163 HD
BRANCH   3   6
ATOM      6  C   UNL A   1      43.816  19.239  25.502  1.00  0.00     0.041 A 
ATOM      7  C   UNL A   1      45.242  21.093  24.909  1.00  0.00     0.088 A 
ATOM      8  C   UNL A   1      46.377  20.309  25.153  1.00  0.00     0.022 A 
ATOM      9  C   UNL A   1      43.956  20.561  25.066  1.00  0.00     0.036 A 
ATOM     10  C   UNL A   1      46.232  18.966  25.482  1.00  0.00     0.002 A 
ATOM     11  C   UNL A   1      44.956  18.435  25.659  1.00  0.00     0.014 A 
BRANCH   7  12
ATOM     12  S   UNL A   1      45.464  22.815  24.511  1.00  0.00     0.261 S 
ATOM     13  O   UNL A   1      44.536  23.148  23.450  1.00  0.00    -0.201 OA
ATOM     14  O   UNL A   1      46.883  23.046  24.344  1.00  0.00    -0.201 OA
BRANCH  12  15
ATOM     15  N   UNL A   1      44.990  23.667  25.910  1.00  0.00    -0.280 N 
ATOM     16  H   UNL A   1      44.555  23.211  26.667  1.00  0.00     0.180 HD
BRANCH  15  17
ATOM     17  C   UNL A   1      45.252  25.070  25.933  1.00  0.00     0.049 A 
ATOM     18  C   UNL A   1      45.603  27.811  26.282  1.00  0.00     0.082 A 
ATOM     19  C   UNL A   1      46.353  26.914  27.045  1.00  0.00     0.024 A 
ATOM     20  C   UNL A   1      44.708  27.346  25.313  1.00  0.00     0.024 A 
ATOM     21  C   UNL A   1      46.182  25.544  26.861  1.00  0.00     0.028 A 
ATOM     22  C   UNL A   1      44.522  25.967  25.149  1.00  0.00     0.028 A 
BRANCH  18  23
ATOM     23  S   UNL A   1      45.810  29.538  26.599  1.00  0.00     0.238 S 
ATOM     24  O   UNL A   1      46.470  30.142  25.461  1.00  0.00    -0.207 OA
ATOM     25  O   UNL A   1      46.286  29.694  27.951  1.00  0.00    -0.207 OA
BRANCH  23  26
ATOM     26  N   UNL A   1      44.253  30.167  26.579  1.00  0.00    -0.225 NA
ATOM     27  H   UNL A   1      43.691  29.661  25.894  1.00  0.00     0.137 HD
ATOM     28  H   UNL A   1      44.288  31.155  26.327  1.00  0.00     0.137 HD
ENDBRANCH  23  26
ENDBRANCH  18  23
ENDBRANCH  15  17
ENDBRANCH  12  15
ENDBRANCH   7  12
ENDBRANCH   3   6
ENDBRANCH   1   2
BRANCH   1  29
ATOM     29  C   UNL A   1      41.584  21.202  27.785  1.00  0.00     0.042 C 
BRANCH  29  30
ATOM     30  C   UNL A   1      41.389  22.701  28.005  1.00  0.00     0.118 C 
BRANCH  30  31
ATOM     31  N   UNL A   1      41.508  23.451  26.761  1.00  0.00    -0.352 N 
ATOM     32  C   UNL A   1      41.288  24.782  26.511  1.00  0.00     0.251 C 
ATOM     33  H   UNL A   1      41.788  22.921  25.980  1.00  0.00     0.163 HD
ATOM     34  O   UNL A   1      41.206  25.171  25.350  1.00  0.00    -0.269 OA
BRANCH  32  35
ATOM     35  C   UNL A   1      41.150  25.745  27.626  1.00  0.00     0.039 A 
ATOM     36  C   UNL A   1      42.221  26.592  27.922  1.00  0.00     0.014 A 
ATOM     37  C   UNL A   1      39.993  25.780  28.411  1.00  0.00     0.014 A 
ATOM     38  C   UNL A   1      42.115  27.504  28.974  1.00  0.00     0.010 A 
ATOM     39  C   UNL A   1      39.861  26.738  29.412  1.00  0.00     0.010 A 
ATOM     40  C   UNL A   1      40.925  27.601  29.713  1.00  0.00    -0.014 A 
BRANCH  40  41
ATOM     41  C   UNL A   1      40.776  28.601  30.801  1.00  0.00     0.031 A 
ATOM     42  C   UNL A   1      41.626  28.511  32.039  1.00  0.00     0.074 A 
ATOM     43  C   UNL A   1      39.824  29.548  30.702  1.00  0.00     0.049 A 
ATOM     44  N   UNL A   1      41.608  29.265  33.109  1.00  0.00    -0.248 NA
ATOM     45  C   UNL A   1      42.602  27.411  32.098  1.00  0.00     0.031 C 
ATOM     46  C   UNL A   1      38.895  29.700  29.580  1.00  0.00     0.029 A 
ATOM     47  N   UNL A   1      39.469  30.555  31.566  1.00  0.00    -0.354 N 
ATOM     48  C   UNL A   1      42.544  28.715  33.976  1.00  0.00     0.074 A 
ATOM     49  C   UNL A   1      43.083  27.540  33.326  1.00  0.00     0.031 C 
ATOM     50  C   UNL A   1      38.091  30.748  29.815  1.00  0.00     0.029 A 
ATOM     51  C   UNL A   1      38.422  31.322  31.116  1.00  0.00     0.049 A 
ATOM     52  H   UNL A   1      39.922  30.712  32.425  1.00  0.00     0.167 HD
ATOM     53  C   UNL A   1      42.932  29.156  35.199  1.00  0.00     0.031 A 
ATOM     54  C   UNL A   1      37.792  32.367  31.685  1.00  0.00     0.031 A 
ATOM     55  C   UNL A   1      42.403  30.335  35.833  1.00  0.00     0.049 A 
ATOM     56  C   UNL A   1      38.261  32.865  33.022  1.00  0.00     0.074 A 
ATOM     57  C   UNL A   1      42.788  30.915  37.029  1.00  0.00     0.029 A 
ATOM     58  N   UNL A   1      41.370  31.110  35.326  1.00  0.00    -0.354 N 
ATOM     59  N   UNL A   1      39.214  32.387  33.788  1.00  0.00    -0.248 NA
ATOM     60  C   UNL A   1      37.587  34.051  33.564  1.00  0.00     0.031 C 
ATOM     61  C   UNL A   1      41.951  32.013  37.269  1.00  0.00     0.029 A 
ATOM     62  C   UNL A   1      41.083  32.148  36.197  1.00  0.00     0.049 A 
ATOM     63  H   UNL A   1      40.908  30.946  34.472  1.00  0.00     0.167 HD
ATOM     64  C   UNL A   1      39.262  33.222  34.897  1.00  0.00     0.074 A 
ATOM     65  C   UNL A   1      38.257  34.246  34.692  1.00  0.00     0.031 C 
ATOM     66  C   UNL A   1      40.068  33.149  35.986  1.00  0.00     0.031 A 
BRANCH  53  67
ATOM     67  C   UNL A   1      43.965  28.341  35.934  1.00  0.00    -0.014 A 
ATOM     68  C   UNL A   1      43.592  27.296  36.800  1.00  0.00     0.010 A 
ATOM     69  C   UNL A   1      45.332  28.618  35.749  1.00  0.00     0.010 A 
ATOM     70  C   UNL A   1      44.562  26.587  37.514  1.00  0.00     0.020 A 
ATOM     71  C   UNL A   1      46.307  27.891  36.438  1.00  0.00     0.020 A 
ATOM     72  C   UNL A   1      45.914  26.895  37.335  1.00  0.00     0.054 A 
BRANCH  72  73
ATOM     73  S   UNL A   1      47.153  25.966  38.280  1.00  0.00     0.124 S 
ATOM     74  O   UNL A   1      47.793  27.025  39.057  1.00  0.00    -0.237 OA
ATOM     75  O   UNL A   1      46.336  25.031  39.050  1.00  0.00    -0.237 OA
ATOM     76  O   UNL A   1      47.989  25.356  37.250  1.00  0.00    -0.744 OA
ENDBRANCH  72  73
ENDBRANCH  53  67
BRANCH  54  77
ATOM     77  C   UNL A   1      36.662  33.017  30.968  1.00  0.00    -0.014 A 
ATOM     78  C   UNL A   1      35.352  32.927  31.468  1.00  0.00     0.010 A 
ATOM     79  C   UNL A   1      36.904  33.788  29.815  1.00  0.00     0.010 A 
ATOM     80  C   UNL A   1      34.303  33.598  30.832  1.00  0.00     0.020 A 
ATOM     81  C   UNL A   1      35.862  34.479  29.190  1.00  0.00     0.020 A 
ATOM     82  C   UNL A   1      34.567  34.376  29.700  1.00  0.00     0.054 A 
BRANCH  82  83
ATOM     83  S   UNL A   1      33.208  35.314  28.946  1.00  0.00     0.124 S 
ATOM     84  O   UNL A   1      32.569  34.304  28.109  1.00  0.00    -0.237 OA
ATOM     85  O   UNL A   1      32.440  35.750  30.110  1.00  0.00    -0.237 OA
ATOM     86  O   UNL A   1      33.891  36.386  28.225  1.00  0.00    -0.744 OA
ENDBRANCH  82  83
ENDBRANCH  54  77
BRANCH  66  87
ATOM     87  C   UNL A   1      39.901  34.213  37.038  1.00  0.00    -0.014 A 
ATOM     88  C   UNL A   1      40.425  35.504  36.856  1.00  0.00     0.010 A 
ATOM     89  C   UNL A   1      39.166  33.928  38.204  1.00  0.00     0.010 A 
ATOM     90  C   UNL A   1      40.248  36.483  37.838  1.00  0.00     0.020 A 
ATOM     91  C   UNL A   1      38.964  34.911  39.175  1.00  0.00     0.020 A 
ATOM     92  C   UNL A   1      39.520  36.180  38.993  1.00  0.00     0.054 A 
BRANCH  92  93
ATOM     93  S   UNL A   1      39.273  37.476  40.236  1.00  0.00     0.124 S 
ATOM     94  O   UNL A   1      40.645  37.871  40.540  1.00  0.00    -0.237 OA
ATOM     95  O   UNL A   1      38.479  38.468  39.513  1.00  0.00    -0.237 OA
ATOM     96  O   UNL A   1      38.566  36.791  41.316  1.00  0.00    -0.744 OA
ENDBRANCH  92  93
ENDBRANCH  66  87
ENDBRANCH  40  41
ENDBRANCH  32  35
ENDBRANCH  30  31
ENDBRANCH  29  30
ENDBRANCH   1  29
TORSDOF 18
ENDMDL
