MODEL 1
REMARK VINA RESULT:     -11.9      0.000      0.000
REMARK SMILES O=C(NCCCNC(=O)c1ccc2nc(Cl)sc2c1)c1ccc(-c2c3nc(c(-c4ccc(S(=O)(=O)[O-])cc4)c4ccc([nH]4)c(-c4ccc(S(=O)(=O)[O-])cc4)c4nc(c(-c5ccc(S(=O)(=O)[O-])cc5)c5ccc2[nH]5)C=C4)C=C3)cc1
REMARK SMILES IDX 1 1 2 2 3 3 20 5 21 6 79 7 22 8 78 9 23 10 24 11 25 12 72 13
REMARK SMILES IDX 26 14 77 15 71 16 73 17 27 18 76 19 70 20 69 21 28 23 58 24
REMARK SMILES IDX 39 25 57 26 40 27 43 28 56 29 74 30 41 31 42 32 55 34 75 35
REMARK SMILES IDX 44 36 29 37 30 38 38 39 31 40 37 41 32 42 33 43 34 44 35 45
REMARK SMILES IDX 36 46 59 47 60 48 68 49 61 50 67 51 62 52 63 53 64 54 65 55
REMARK SMILES IDX 66 56 45 57 46 58 54 59 47 60 53 61 48 62 49 63 50 64 51 65
REMARK SMILES IDX 52 66 4 67 5 68 6 69 7 70 8 71 9 73 10 74 11 75 19 76 12 77
REMARK SMILES IDX 18 78 13 79 17 80 14 81 15 82 16 83
REMARK H PARENT 3 4 73 22 43 33 7 72
REMARK Flexibility Score: inf
ROOT
ATOM      1  O   UNL A   1      41.768  20.717  26.702  1.00  0.00    -0.269 OA
ATOM      2  C   UNL A   1      40.882  21.566  26.587  1.00  0.00     0.251 C 
ATOM      3  N   UNL A   1      39.645  21.130  26.197  1.00  0.00    -0.352 N 
ATOM      4  H   UNL A   1      39.530  20.154  26.255  1.00  0.00     0.163 HD
ENDROOT
BRANCH   2   5
ATOM      5  C   UNL A   1      41.199  22.986  26.879  1.00  0.00     0.039 A 
ATOM      6  C   UNL A   1      42.180  23.598  26.085  1.00  0.00     0.014 A 
ATOM      7  C   UNL A   1      40.678  23.678  27.976  1.00  0.00     0.014 A 
ATOM      8  C   UNL A   1      42.617  24.894  26.366  1.00  0.00     0.010 A 
ATOM      9  C   UNL A   1      41.111  24.982  28.251  1.00  0.00     0.010 A 
ATOM     10  C   UNL A   1      42.078  25.601  27.446  1.00  0.00    -0.014 A 
BRANCH  10  11
ATOM     11  C   UNL A   1      42.506  27.004  27.645  1.00  0.00     0.031 A 
ATOM     12  C   UNL A   1      41.416  28.022  27.643  1.00  0.00     0.074 A 
ATOM     13  C   UNL A   1      43.654  27.328  28.279  1.00  0.00     0.049 A 
ATOM     14  N   UNL A   1      40.632  28.197  28.667  1.00  0.00    -0.248 NA
ATOM     15  C   UNL A   1      40.996  28.750  26.446  1.00  0.00     0.031 C 
ATOM     16  C   UNL A   1      44.295  26.476  29.290  1.00  0.00     0.029 A 
ATOM     17  N   UNL A   1      44.338  28.518  28.361  1.00  0.00    -0.354 N 
ATOM     18  C   UNL A   1      39.601  29.021  28.262  1.00  0.00     0.074 A 
ATOM     19  C   UNL A   1      39.871  29.342  26.877  1.00  0.00     0.031 C 
ATOM     20  C   UNL A   1      45.142  27.233  30.019  1.00  0.00     0.029 A 
ATOM     21  C   UNL A   1      45.235  28.563  29.427  1.00  0.00     0.049 A 
ATOM     22  H   UNL A   1      44.207  29.263  27.731  1.00  0.00     0.167 HD
ATOM     23  C   UNL A   1      38.588  29.393  29.090  1.00  0.00     0.031 A 
ATOM     24  C   UNL A   1      45.596  29.689  30.105  1.00  0.00     0.031 A 
ATOM     25  C   UNL A   1      38.691  28.910  30.437  1.00  0.00     0.049 A 
ATOM     26  C   UNL A   1      44.299  30.043  30.790  1.00  0.00     0.074 A 
ATOM     27  C   UNL A   1      38.269  27.811  31.154  1.00  0.00     0.029 A 
ATOM     28  N   UNL A   1      39.489  29.605  31.317  1.00  0.00    -0.354 N 
ATOM     29  N   UNL A   1      43.818  29.484  31.869  1.00  0.00    -0.248 NA
ATOM     30  C   UNL A   1      43.326  30.830  30.029  1.00  0.00     0.031 C 
ATOM     31  C   UNL A   1      39.195  27.681  32.237  1.00  0.00     0.029 A 
ATOM     32  C   UNL A   1      40.158  28.674  32.074  1.00  0.00     0.049 A 
ATOM     33  H   UNL A   1      39.565  30.584  31.388  1.00  0.00     0.167 HD
ATOM     34  C   UNL A   1      42.432  29.594  31.760  1.00  0.00     0.074 A 
ATOM     35  C   UNL A   1      42.198  30.455  30.617  1.00  0.00     0.031 C 
ATOM     36  C   UNL A   1      41.543  28.841  32.475  1.00  0.00     0.031 A 
BRANCH  23  37
ATOM     37  C   UNL A   1      37.523  30.346  28.710  1.00  0.00    -0.014 A 
ATOM     38  C   UNL A   1      36.277  29.917  28.232  1.00  0.00     0.010 A 
ATOM     39  C   UNL A   1      37.727  31.711  28.975  1.00  0.00     0.010 A 
ATOM     40  C   UNL A   1      35.241  30.841  28.049  1.00  0.00     0.020 A 
ATOM     41  C   UNL A   1      36.697  32.635  28.802  1.00  0.00     0.020 A 
ATOM     42  C   UNL A   1      35.456  32.193  28.347  1.00  0.00     0.054 A 
BRANCH  42  43
ATOM     43  S   UNL A   1      34.078  33.362  28.185  1.00  0.00     0.124 S 
ATOM     44  O   UNL A   1      33.072  32.552  27.504  1.00  0.00    -0.237 OA
ATOM     45  O   UNL A   1      33.783  33.695  29.576  1.00  0.00    -0.237 OA
ATOM     46  O   UNL A   1      34.640  34.453  27.392  1.00  0.00    -0.744 OA
ENDBRANCH  42  43
ENDBRANCH  23  37
BRANCH  24  47
ATOM     47  C   UNL A   1      46.386  30.681  29.299  1.00  0.00    -0.014 A 
ATOM     48  C   UNL A   1      46.824  31.932  29.764  1.00  0.00     0.010 A 
ATOM     49  C   UNL A   1      46.684  30.347  27.958  1.00  0.00     0.010 A 
ATOM     50  C   UNL A   1      47.335  32.890  28.875  1.00  0.00     0.020 A 
ATOM     51  C   UNL A   1      47.224  31.284  27.071  1.00  0.00     0.020 A 
ATOM     52  C   UNL A   1      47.483  32.573  27.525  1.00  0.00     0.054 A 
BRANCH  52  53
ATOM     53  S   UNL A   1      47.951  33.882  26.361  1.00  0.00     0.124 S 
ATOM     54  O   UNL A   1      48.196  35.006  27.263  1.00  0.00    -0.237 OA
ATOM     55  O   UNL A   1      49.133  33.324  25.712  1.00  0.00    -0.237 OA
ATOM     56  O   UNL A   1      46.777  34.018  25.503  1.00  0.00    -0.744 OA
ENDBRANCH  52  53
ENDBRANCH  24  47
BRANCH  36  57
ATOM     57  C   UNL A   1      42.103  27.989  33.575  1.00  0.00    -0.014 A 
ATOM     58  C   UNL A   1      41.753  28.219  34.919  1.00  0.00     0.010 A 
ATOM     59  C   UNL A   1      43.069  27.010  33.286  1.00  0.00     0.010 A 
ATOM     60  C   UNL A   1      42.421  27.560  35.953  1.00  0.00     0.020 A 
ATOM     61  C   UNL A   1      43.725  26.329  34.316  1.00  0.00     0.020 A 
ATOM     62  C   UNL A   1      43.424  26.637  35.645  1.00  0.00     0.054 A 
BRANCH  62  63
ATOM     63  S   UNL A   1      44.355  25.880  37.003  1.00  0.00     0.124 S 
ATOM     64  O   UNL A   1      43.651  26.385  38.180  1.00  0.00    -0.237 OA
ATOM     65  O   UNL A   1      44.196  24.450  36.746  1.00  0.00    -0.237 OA
ATOM     66  O   UNL A   1      45.713  26.392  36.827  1.00  0.00    -0.744 OA
ENDBRANCH  62  63
ENDBRANCH  36  57
ENDBRANCH  10  11
ENDBRANCH   2   5
BRANCH   3  67
ATOM     67  C   UNL A   1      38.469  21.834  25.715  1.00  0.00     0.118 C 
BRANCH  67  68
ATOM     68  C   UNL A   1      37.495  20.881  25.010  1.00  0.00     0.042 C 
BRANCH  68  69
ATOM     69  C   UNL A   1      36.026  21.317  25.015  1.00  0.00     0.118 C 
BRANCH  69  70
ATOM     70  N   UNL A   1      35.097  20.202  25.100  1.00  0.00    -0.352 N 
ATOM     71  C   UNL A   1      33.756  20.200  25.382  1.00  0.00     0.251 C 
ATOM     72  H   UNL A   1      35.490  19.315  24.930  1.00  0.00     0.163 HD
ATOM     73  O   UNL A   1      33.148  19.136  25.516  1.00  0.00    -0.269 OA
BRANCH  71  74
ATOM     74  C   UNL A   1      33.012  21.464  25.551  1.00  0.00     0.041 A 
ATOM     75  C   UNL A   1      33.013  22.145  26.769  1.00  0.00     0.016 A 
ATOM     76  C   UNL A   1      32.369  22.000  24.425  1.00  0.00     0.035 A 
ATOM     77  C   UNL A   1      32.313  23.350  26.904  1.00  0.00     0.031 A 
ATOM     78  C   UNL A   1      31.673  23.209  24.576  1.00  0.00     0.057 A 
ATOM     79  C   UNL A   1      31.625  23.891  25.798  1.00  0.00     0.083 A 
ATOM     80  S   UNL A   1      30.772  24.100  23.404  1.00  0.00    -0.102 S 
ATOM     81  N   UNL A   1      30.888  25.065  25.796  1.00  0.00    -0.225 NA
ATOM     82  C   UNL A   1      30.403  25.248  24.595  1.00  0.00     0.184 A 
ATOM     83  Cl  UNL A   1      29.420  26.600  24.202  1.00  0.00    -0.050 Cl
ENDBRANCH  71  74
ENDBRANCH  69  70
ENDBRANCH  68  69
ENDBRANCH  67  68
ENDBRANCH   3  67
TORSDOF 13
ENDMDL
MODEL 2
REMARK VINA RESULT:     -11.8      1.395      1.736
REMARK SMILES O=C(NCCCNC(=O)c1ccc2nc(Cl)sc2c1)c1ccc(-c2c3nc(c(-c4ccc(S(=O)(=O)[O-])cc4)c4ccc([nH]4)c(-c4ccc(S(=O)(=O)[O-])cc4)c4nc(c(-c5ccc(S(=O)(=O)[O-])cc5)c5ccc2[nH]5)C=C4)C=C3)cc1
REMARK SMILES IDX 1 1 2 2 3 3 20 5 21 6 79 7 22 8 78 9 23 10 24 11 25 12 72 13
REMARK SMILES IDX 26 14 77 15 71 16 73 17 27 18 76 19 70 20 69 21 28 23 58 24
REMARK SMILES IDX 39 25 57 26 40 27 43 28 56 29 74 30 41 31 42 32 55 34 75 35
REMARK SMILES IDX 44 36 29 37 30 38 38 39 31 40 37 41 32 42 33 43 34 44 35 45
REMARK SMILES IDX 36 46 59 47 60 48 68 49 61 50 67 51 62 52 63 53 64 54 65 55
REMARK SMILES IDX 66 56 45 57 46 58 54 59 47 60 53 61 48 62 49 63 50 64 51 65
REMARK SMILES IDX 52 66 4 67 5 68 6 69 7 70 8 71 9 73 10 74 11 75 19 76 12 77
REMARK SMILES IDX 18 78 13 79 17 80 14 81 15 82 16 83
REMARK H PARENT 3 4 73 22 43 33 7 72
REMARK Flexibility Score: inf
ROOT
ATOM      1  O   UNL A   1      40.466  20.961  27.554  1.00  0.00    -0.269 OA
ATOM      2  C   UNL A   1      39.800  21.824  26.981  1.00  0.00     0.251 C 
ATOM      3  N   UNL A   1      38.724  21.400  26.250  1.00  0.00    -0.352 N 
ATOM      4  H   UNL A   1      38.462  20.467  26.430  1.00  0.00     0.163 HD
ENDROOT
BRANCH   2   5
ATOM      5  C   UNL A   1      40.189  23.249  27.119  1.00  0.00     0.039 A 
ATOM      6  C   UNL A   1      41.416  23.634  26.558  1.00  0.00     0.014 A 
ATOM      7  C   UNL A   1      39.472  24.169  27.888  1.00  0.00     0.014 A 
ATOM      8  C   UNL A   1      41.909  24.926  26.740  1.00  0.00     0.010 A 
ATOM      9  C   UNL A   1      39.963  25.470  28.063  1.00  0.00     0.010 A 
ATOM     10  C   UNL A   1      41.181  25.860  27.487  1.00  0.00    -0.014 A 
BRANCH  10  11
ATOM     11  C   UNL A   1      41.700  27.243  27.572  1.00  0.00     0.031 A 
ATOM     12  C   UNL A   1      40.671  28.323  27.599  1.00  0.00     0.074 A 
ATOM     13  C   UNL A   1      42.912  27.531  28.093  1.00  0.00     0.049 A 
ATOM     14  N   UNL A   1      39.985  28.596  28.671  1.00  0.00    -0.248 NA
ATOM     15  C   UNL A   1      40.195  29.011  26.401  1.00  0.00     0.031 C 
ATOM     16  C   UNL A   1      43.588  26.695  29.096  1.00  0.00     0.029 A 
ATOM     17  N   UNL A   1      43.666  28.680  28.054  1.00  0.00    -0.354 N 
ATOM     18  C   UNL A   1      38.971  29.458  28.304  1.00  0.00     0.074 A 
ATOM     19  C   UNL A   1      39.143  29.691  26.885  1.00  0.00     0.031 C 
ATOM     20  C   UNL A   1      44.532  27.437  29.712  1.00  0.00     0.029 A 
ATOM     21  C   UNL A   1      44.648  28.727  29.041  1.00  0.00     0.049 A 
ATOM     22  H   UNL A   1      43.525  29.398  27.395  1.00  0.00     0.167 HD
ATOM     23  C   UNL A   1      38.053  29.931  29.187  1.00  0.00     0.031 A 
ATOM     24  C   UNL A   1      45.126  29.863  29.624  1.00  0.00     0.031 A 
ATOM     25  C   UNL A   1      38.239  29.513  30.547  1.00  0.00     0.049 A 
ATOM     26  C   UNL A   1      43.911  30.328  30.389  1.00  0.00     0.074 A 
ATOM     27  C   UNL A   1      37.818  28.479  31.356  1.00  0.00     0.029 A 
ATOM     28  N   UNL A   1      39.144  30.204  31.320  1.00  0.00    -0.354 N 
ATOM     29  N   UNL A   1      43.492  29.855  31.532  1.00  0.00    -0.248 NA
ATOM     30  C   UNL A   1      42.924  31.132  29.665  1.00  0.00     0.031 C 
ATOM     31  C   UNL A   1      38.822  28.350  32.368  1.00  0.00     0.029 A 
ATOM     32  C   UNL A   1      39.822  29.275  32.072  1.00  0.00     0.049 A 
ATOM     33  H   UNL A   1      39.280  31.179  31.330  1.00  0.00     0.167 HD
ATOM     34  C   UNL A   1      42.109  30.042  31.528  1.00  0.00     0.074 A 
ATOM     35  C   UNL A   1      41.829  30.854  30.360  1.00  0.00     0.031 C 
ATOM     36  C   UNL A   1      41.242  29.380  32.353  1.00  0.00     0.031 A 
BRANCH  23  37
ATOM     37  C   UNL A   1      37.014  30.925  28.840  1.00  0.00    -0.014 A 
ATOM     38  C   UNL A   1      35.687  30.554  28.580  1.00  0.00     0.010 A 
ATOM     39  C   UNL A   1      37.346  32.289  28.917  1.00  0.00     0.010 A 
ATOM     40  C   UNL A   1      34.702  31.538  28.428  1.00  0.00     0.020 A 
ATOM     41  C   UNL A   1      36.369  33.272  28.773  1.00  0.00     0.020 A 
ATOM     42  C   UNL A   1      35.049  32.891  28.537  1.00  0.00     0.054 A 
BRANCH  42  43
ATOM     43  S   UNL A   1      33.746  34.148  28.419  1.00  0.00     0.124 S 
ATOM     44  O   UNL A   1      32.752  33.478  27.586  1.00  0.00    -0.237 OA
ATOM     45  O   UNL A   1      33.370  34.341  29.817  1.00  0.00    -0.237 OA
ATOM     46  O   UNL A   1      34.417  35.285  27.795  1.00  0.00    -0.744 OA
ENDBRANCH  42  43
ENDBRANCH  23  37
BRANCH  24  47
ATOM     47  C   UNL A   1      45.900  30.763  28.703  1.00  0.00    -0.014 A 
ATOM     48  C   UNL A   1      46.560  30.347  27.534  1.00  0.00     0.010 A 
ATOM     49  C   UNL A   1      46.002  32.128  29.053  1.00  0.00     0.010 A 
ATOM     50  C   UNL A   1      47.458  31.199  26.874  1.00  0.00     0.020 A 
ATOM     51  C   UNL A   1      46.870  32.995  28.382  1.00  0.00     0.020 A 
ATOM     52  C   UNL A   1      47.642  32.502  27.335  1.00  0.00     0.054 A 
BRANCH  52  53
ATOM     53  S   UNL A   1      48.950  33.519  26.598  1.00  0.00     0.124 S 
ATOM     54  O   UNL A   1      48.206  34.272  25.590  1.00  0.00    -0.237 OA
ATOM     55  O   UNL A   1      49.433  34.292  27.737  1.00  0.00    -0.237 OA
ATOM     56  O   UNL A   1      49.894  32.537  26.067  1.00  0.00    -0.744 OA
ENDBRANCH  52  53
ENDBRANCH  24  47
BRANCH  36  57
ATOM     57  C   UNL A   1      41.843  28.554  33.450  1.00  0.00    -0.014 A 
ATOM     58  C   UNL A   1      42.614  27.413  33.158  1.00  0.00     0.010 A 
ATOM     59  C   UNL A   1      41.558  28.849  34.794  1.00  0.00     0.010 A 
ATOM     60  C   UNL A   1      43.006  26.536  34.172  1.00  0.00     0.020 A 
ATOM     61  C   UNL A   1      41.967  27.989  35.817  1.00  0.00     0.020 A 
ATOM     62  C   UNL A   1      42.655  26.817  35.495  1.00  0.00     0.054 A 
BRANCH  62  63
ATOM     63  S   UNL A   1      43.074  25.609  36.779  1.00  0.00     0.124 S 
ATOM     64  O   UNL A   1      43.220  26.454  37.963  1.00  0.00    -0.237 OA
ATOM     65  O   UNL A   1      41.910  24.725  36.783  1.00  0.00    -0.237 OA
ATOM     66  O   UNL A   1      44.312  24.999  36.299  1.00  0.00    -0.744 OA
ENDBRANCH  62  63
ENDBRANCH  36  57
ENDBRANCH  10  11
ENDBRANCH   2   5
BRANCH   3  67
ATOM     67  C   UNL A   1      37.892  22.064  25.260  1.00  0.00     0.118 C 
BRANCH  67  68
ATOM     68  C   UNL A   1      36.641  22.680  25.901  1.00  0.00     0.042 C 
BRANCH  68  69
ATOM     69  C   UNL A   1      35.405  21.775  25.935  1.00  0.00     0.118 C 
BRANCH  69  70
ATOM     70  N   UNL A   1      34.751  21.648  24.643  1.00  0.00    -0.352 N 
ATOM     71  C   UNL A   1      33.658  22.307  24.146  1.00  0.00     0.251 C 
ATOM     72  H   UNL A   1      35.156  20.989  24.032  1.00  0.00     0.163 HD
ATOM     73  O   UNL A   1      33.178  21.988  23.057  1.00  0.00    -0.269 OA
BRANCH  71  74
ATOM     74  C   UNL A   1      33.016  23.397  24.908  1.00  0.00     0.041 A 
ATOM     75  C   UNL A   1      31.926  23.150  25.744  1.00  0.00     0.016 A 
ATOM     76  C   UNL A   1      33.587  24.676  24.826  1.00  0.00     0.035 A 
ATOM     77  C   UNL A   1      31.342  24.195  26.469  1.00  0.00     0.031 A 
ATOM     78  C   UNL A   1      32.991  25.713  25.559  1.00  0.00     0.057 A 
ATOM     79  C   UNL A   1      31.872  25.499  26.373  1.00  0.00     0.083 A 
ATOM     80  S   UNL A   1      33.435  27.379  25.647  1.00  0.00    -0.102 S 
ATOM     81  N   UNL A   1      31.387  26.622  27.026  1.00  0.00    -0.225 NA
ATOM     82  C   UNL A   1      32.134  27.645  26.701  1.00  0.00     0.184 A 
ATOM     83  Cl  UNL A   1      31.836  29.224  27.307  1.00  0.00    -0.050 Cl
ENDBRANCH  71  74
ENDBRANCH  69  70
ENDBRANCH  68  69
ENDBRANCH  67  68
ENDBRANCH   3  67
TORSDOF 13
ENDMDL
MODEL 3
REMARK VINA RESULT:     -11.8      1.429      2.022
REMARK SMILES O=C(NCCCNC(=O)c1ccc2nc(Cl)sc2c1)c1ccc(-c2c3nc(c(-c4ccc(S(=O)(=O)[O-])cc4)c4ccc([nH]4)c(-c4ccc(S(=O)(=O)[O-])cc4)c4nc(c(-c5ccc(S(=O)(=O)[O-])cc5)c5ccc2[nH]5)C=C4)C=C3)cc1
REMARK SMILES IDX 1 1 2 2 3 3 20 5 21 6 79 7 22 8 78 9 23 10 24 11 25 12 72 13
REMARK SMILES IDX 26 14 77 15 71 16 73 17 27 18 76 19 70 20 69 21 28 23 58 24
REMARK SMILES IDX 39 25 57 26 40 27 43 28 56 29 74 30 41 31 42 32 55 34 75 35
REMARK SMILES IDX 44 36 29 37 30 38 38 39 31 40 37 41 32 42 33 43 34 44 35 45
REMARK SMILES IDX 36 46 59 47 60 48 68 49 61 50 67 51 62 52 63 53 64 54 65 55
REMARK SMILES IDX 66 56 45 57 46 58 54 59 47 60 53 61 48 62 49 63 50 64 51 65
REMARK SMILES IDX 52 66 4 67 5 68 6 69 7 70 8 71 9 73 10 74 11 75 19 76 12 77
REMARK SMILES IDX 18 78 13 79 17 80 14 81 15 82 16 83
REMARK H PARENT 3 4 73 22 43 33 7 72
REMARK Flexibility Score: inf
ROOT
ATOM      1  O   UNL A   1      42.062  20.470  27.448  1.00  0.00    -0.269 OA
ATOM      2  C   UNL A   1      41.324  21.362  27.029  1.00  0.00     0.251 C 
ATOM      3  N   UNL A   1      40.096  20.987  26.555  1.00  0.00    -0.352 N 
ATOM      4  H   UNL A   1      39.840  20.067  26.795  1.00  0.00     0.163 HD
ENDROOT
BRANCH   2   5
ATOM      5  C   UNL A   1      41.795  22.769  27.067  1.00  0.00     0.039 A 
ATOM      6  C   UNL A   1      41.527  23.501  28.233  1.00  0.00     0.014 A 
ATOM      7  C   UNL A   1      42.351  23.421  25.963  1.00  0.00     0.014 A 
ATOM      8  C   UNL A   1      41.835  24.861  28.307  1.00  0.00     0.010 A 
ATOM      9  C   UNL A   1      42.669  24.785  26.042  1.00  0.00     0.010 A 
ATOM     10  C   UNL A   1      42.418  25.512  27.214  1.00  0.00    -0.014 A 
BRANCH  10  11
ATOM     11  C   UNL A   1      42.811  26.929  27.375  1.00  0.00     0.031 A 
ATOM     12  C   UNL A   1      41.692  27.914  27.416  1.00  0.00     0.074 A 
ATOM     13  C   UNL A   1      43.979  27.297  27.946  1.00  0.00     0.049 A 
ATOM     14  N   UNL A   1      40.954  28.078  28.476  1.00  0.00    -0.248 NA
ATOM     15  C   UNL A   1      41.190  28.613  26.233  1.00  0.00     0.031 C 
ATOM     16  C   UNL A   1      44.696  26.478  28.933  1.00  0.00     0.029 A 
ATOM     17  N   UNL A   1      44.629  28.508  27.980  1.00  0.00    -0.354 N 
ATOM     18  C   UNL A   1      39.879  28.864  28.113  1.00  0.00     0.074 A 
ATOM     19  C   UNL A   1      40.070  29.176  26.712  1.00  0.00     0.031 C 
ATOM     20  C   UNL A   1      45.554  27.270  29.611  1.00  0.00     0.029 A 
ATOM     21  C   UNL A   1      45.576  28.595  28.999  1.00  0.00     0.049 A 
ATOM     22  H   UNL A   1      44.444  29.240  27.348  1.00  0.00     0.167 HD
ATOM     23  C   UNL A   1      38.898  29.216  28.986  1.00  0.00     0.031 A 
ATOM     24  C   UNL A   1      45.935  29.740  29.645  1.00  0.00     0.031 A 
ATOM     25  C   UNL A   1      39.082  28.755  30.332  1.00  0.00     0.049 A 
ATOM     26  C   UNL A   1      44.663  30.063  30.390  1.00  0.00     0.074 A 
ATOM     27  C   UNL A   1      38.731  27.652  31.082  1.00  0.00     0.029 A 
ATOM     28  N   UNL A   1      39.901  29.485  31.163  1.00  0.00    -0.354 N 
ATOM     29  N   UNL A   1      44.255  29.504  31.498  1.00  0.00    -0.248 NA
ATOM     30  C   UNL A   1      43.629  30.810  29.670  1.00  0.00     0.031 C 
ATOM     31  C   UNL A   1      39.714  27.565  32.119  1.00  0.00     0.029 A 
ATOM     32  C   UNL A   1      40.637  28.585  31.896  1.00  0.00     0.049 A 
ATOM     33  H   UNL A   1      39.951  30.467  31.219  1.00  0.00     0.167 HD
ATOM     34  C   UNL A   1      42.861  29.570  31.458  1.00  0.00     0.074 A 
ATOM     35  C   UNL A   1      42.544  30.408  30.318  1.00  0.00     0.031 C 
ATOM     36  C   UNL A   1      42.033  28.800  32.226  1.00  0.00     0.031 A 
BRANCH  23  37
ATOM     37  C   UNL A   1      37.786  30.131  28.649  1.00  0.00    -0.014 A 
ATOM     38  C   UNL A   1      36.551  29.660  28.183  1.00  0.00     0.010 A 
ATOM     39  C   UNL A   1      37.936  31.497  28.945  1.00  0.00     0.010 A 
ATOM     40  C   UNL A   1      35.473  30.543  28.043  1.00  0.00     0.020 A 
ATOM     41  C   UNL A   1      36.865  32.380  28.813  1.00  0.00     0.020 A 
ATOM     42  C   UNL A   1      35.635  31.895  28.370  1.00  0.00     0.054 A 
BRANCH  42  43
ATOM     43  S   UNL A   1      34.206  33.007  28.261  1.00  0.00     0.124 S 
ATOM     44  O   UNL A   1      34.746  34.121  27.487  1.00  0.00    -0.237 OA
ATOM     45  O   UNL A   1      33.218  32.182  27.572  1.00  0.00    -0.237 OA
ATOM     46  O   UNL A   1      33.896  33.311  29.656  1.00  0.00    -0.744 OA
ENDBRANCH  42  43
ENDBRANCH  23  37
BRANCH  24  47
ATOM     47  C   UNL A   1      46.653  30.745  28.789  1.00  0.00    -0.014 A 
ATOM     48  C   UNL A   1      46.543  30.838  27.391  1.00  0.00     0.010 A 
ATOM     49  C   UNL A   1      47.533  31.645  29.431  1.00  0.00     0.010 A 
ATOM     50  C   UNL A   1      47.430  31.635  26.652  1.00  0.00     0.020 A 
ATOM     51  C   UNL A   1      48.399  32.468  28.705  1.00  0.00     0.020 A 
ATOM     52  C   UNL A   1      48.385  32.406  27.316  1.00  0.00     0.054 A 
BRANCH  52  53
ATOM     53  S   UNL A   1      49.648  33.269  26.343  1.00  0.00     0.124 S 
ATOM     54  O   UNL A   1      48.839  33.905  25.305  1.00  0.00    -0.237 OA
ATOM     55  O   UNL A   1      50.244  34.171  27.322  1.00  0.00    -0.237 OA
ATOM     56  O   UNL A   1      50.520  32.193  25.876  1.00  0.00    -0.744 OA
ENDBRANCH  52  53
ENDBRANCH  24  47
BRANCH  36  57
ATOM     57  C   UNL A   1      42.674  27.979  33.305  1.00  0.00    -0.014 A 
ATOM     58  C   UNL A   1      43.544  26.919  32.989  1.00  0.00     0.010 A 
ATOM     59  C   UNL A   1      42.331  28.193  34.651  1.00  0.00     0.010 A 
ATOM     60  C   UNL A   1      43.982  26.035  33.978  1.00  0.00     0.020 A 
ATOM     61  C   UNL A   1      42.785  27.326  35.650  1.00  0.00     0.020 A 
ATOM     62  C   UNL A   1      43.577  26.229  35.301  1.00  0.00     0.054 A 
BRANCH  62  63
ATOM     63  S   UNL A   1      44.062  25.006  36.546  1.00  0.00     0.124 S 
ATOM     64  O   UNL A   1      45.506  25.218  36.641  1.00  0.00    -0.237 OA
ATOM     65  O   UNL A   1      43.292  25.416  37.719  1.00  0.00    -0.237 OA
ATOM     66  O   UNL A   1      43.662  23.728  35.960  1.00  0.00    -0.744 OA
ENDBRANCH  62  63
ENDBRANCH  36  57
ENDBRANCH  10  11
ENDBRANCH   2   5
BRANCH   3  67
ATOM     67  C   UNL A   1      39.097  21.689  25.767  1.00  0.00     0.118 C 
BRANCH  67  68
ATOM     68  C   UNL A   1      38.381  22.763  26.597  1.00  0.00     0.042 C 
BRANCH  68  69
ATOM     69  C   UNL A   1      37.825  23.949  25.801  1.00  0.00     0.118 C 
BRANCH  69  70
ATOM     70  N   UNL A   1      37.469  23.604  24.433  1.00  0.00    -0.352 N 
ATOM     71  C   UNL A   1      36.233  23.424  23.870  1.00  0.00     0.251 C 
ATOM     72  H   UNL A   1      38.230  23.483  23.820  1.00  0.00     0.163 HD
ATOM     73  O   UNL A   1      36.128  23.027  22.708  1.00  0.00    -0.269 OA
BRANCH  71  74
ATOM     74  C   UNL A   1      35.000  23.681  24.642  1.00  0.00     0.041 A 
ATOM     75  C   UNL A   1      34.758  24.927  25.220  1.00  0.00     0.016 A 
ATOM     76  C   UNL A   1      34.045  22.656  24.709  1.00  0.00     0.035 A 
ATOM     77  C   UNL A   1      33.576  25.154  25.936  1.00  0.00     0.031 A 
ATOM     78  C   UNL A   1      32.866  22.899  25.429  1.00  0.00     0.057 A 
ATOM     79  C   UNL A   1      32.616  24.127  26.053  1.00  0.00     0.083 A 
ATOM     80  S   UNL A   1      31.528  21.846  25.713  1.00  0.00    -0.102 S 
ATOM     81  N   UNL A   1      31.414  24.213  26.737  1.00  0.00    -0.225 NA
ATOM     82  C   UNL A   1      30.787  23.071  26.620  1.00  0.00     0.184 A 
ATOM     83  Cl  UNL A   1      29.258  22.789  27.348  1.00  0.00    -0.050 Cl
ENDBRANCH  71  74
ENDBRANCH  69  70
ENDBRANCH  68  69
ENDBRANCH  67  68
ENDBRANCH   3  67
TORSDOF 13
ENDMDL
