MODEL 1
REMARK VINA RESULT:     -10.9      0.000      0.000
REMARK SMILES CCOc1ccccc1[C@H](C(=O)NCCCNC(=O)c1ccc(-c2c3nc(c(-c4ccc(S(=O)(=O)[O-])cc4)c4ccc([nH]4)c(-c4ccc(S(=O)(=O)[O-])cc4)c4nc(c(-c5ccc(S(=O)(=O)[O-])cc5)c5ccc2[nH]5)C=C4)C=C3)cc1)[NH+]1CCC([NH+]2CCSCC2)CC1
REMARK SMILES IDX 15 1 14 2 13 3 11 4 12 5 10 7 9 8 4 9 5 10 6 11 8 12 7 13
REMARK SMILES IDX 3 14 2 15 1 16 80 17 81 18 91 19 82 21 90 22 83 23 84 24
REMARK SMILES IDX 85 25 89 26 86 28 88 29 87 30 16 31 17 32 18 33 19 35 20 36
REMARK SMILES IDX 21 37 79 38 22 39 78 40 23 41 24 42 25 43 72 44 26 45 77 46
REMARK SMILES IDX 71 47 73 48 27 49 76 50 70 51 69 52 28 54 58 55 39 56 57 57
REMARK SMILES IDX 40 58 43 59 56 60 74 61 41 62 42 63 55 65 75 66 44 67 29 68
REMARK SMILES IDX 30 69 38 70 31 71 37 72 32 73 33 74 34 75 35 76 36 77 59 78
REMARK SMILES IDX 60 79 68 80 61 81 67 82 62 83 63 84 64 85 65 86 66 87 45 88
REMARK SMILES IDX 46 89 54 90 47 91 53 92 48 93 49 94 50 95 51 96 52 97
REMARK H PARENT 13 6 80 20 84 27 17 34 73 53 43 64
REMARK Flexibility Score: inf
ROOT
ATOM      1  C   UNL A   1      38.016  21.533  25.423  1.00  0.00     0.042 C 
ENDROOT
BRANCH   1   2
ATOM      2  C   UNL A   1      37.362  22.895  25.349  1.00  0.00     0.118 C 
BRANCH   2   3
ATOM      3  N   UNL A   1      36.390  23.135  26.402  1.00  0.00    -0.351 N 
ATOM      4  C   UNL A   1      35.022  23.028  26.309  1.00  0.00     0.283 C 
ATOM      5  O   UNL A   1      34.399  22.995  27.375  1.00  0.00    -0.268 OA
ATOM      6  H   UNL A   1      36.751  23.405  27.277  1.00  0.00     0.163 HD
BRANCH   4   7
ATOM      7  C   UNL A   1      34.357  23.046  24.900  1.00  0.00     0.309 C 
BRANCH   7   8
ATOM      8  C   UNL A   1      33.813  21.701  24.387  1.00  0.00     0.061 A 
ATOM      9  C   UNL A   1      32.880  21.556  23.345  1.00  0.00     0.128 A 
ATOM     10  C   UNL A   1      32.279  20.316  23.098  1.00  0.00     0.047 A 
ATOM     11  C   UNL A   1      32.668  19.189  23.821  1.00  0.00     0.004 A 
ATOM     12  C   UNL A   1      34.230  20.537  25.067  1.00  0.00     0.014 A 
ATOM     13  C   UNL A   1      33.663  19.294  24.786  1.00  0.00     0.001 A 
BRANCH   9  14
ATOM     14  O   UNL A   1      32.437  22.676  22.701  1.00  0.00    -0.493 OA
BRANCH  14  15
ATOM     15  C   UNL A   1      33.174  23.079  21.549  1.00  0.00     0.226 C 
ATOM     16  C   UNL A   1      32.786  24.510  21.230  1.00  0.00     0.049 C 
ENDBRANCH  14  15
ENDBRANCH   9  14
ENDBRANCH   7   8
BRANCH   7  17
ATOM     17  N   UNL A   1      33.397  24.174  24.676  1.00  0.00    -0.320 N 
ATOM     18  C   UNL A   1      32.311  24.216  25.656  1.00  0.00     0.269 C 
ATOM     19  C   UNL A   1      34.076  25.475  24.578  1.00  0.00     0.269 C 
ATOM     20  H   UNL A   1      32.965  23.981  23.773  1.00  0.00     0.349 HD
ATOM     21  C   UNL A   1      31.261  25.254  25.249  1.00  0.00     0.126 C 
ATOM     22  C   UNL A   1      33.096  26.573  24.155  1.00  0.00     0.126 C 
ATOM     23  C   UNL A   1      31.893  26.651  25.115  1.00  0.00     0.195 C 
BRANCH  23  24
ATOM     24  N   UNL A   1      30.951  27.754  24.778  1.00  0.00    -0.331 N 
ATOM     25  C   UNL A   1      30.149  27.425  23.578  1.00  0.00     0.273 C 
ATOM     26  C   UNL A   1      31.591  29.076  24.638  1.00  0.00     0.273 C 
ATOM     27  H   UNL A   1      30.330  27.833  25.583  1.00  0.00     0.348 HD
ATOM     28  C   UNL A   1      28.985  28.388  23.311  1.00  0.00     0.131 C 
ATOM     29  C   UNL A   1      30.591  30.234  24.494  1.00  0.00     0.131 C 
ATOM     30  S   UNL A   1      29.560  30.084  23.006  1.00  0.00    -0.150 SA
ENDBRANCH  23  24
ENDBRANCH   7  17
ENDBRANCH   4   7
ENDBRANCH   2   3
ENDBRANCH   1   2
BRANCH   1  31
ATOM     31  C   UNL A   1      39.293  21.493  26.246  1.00  0.00     0.118 C 
BRANCH  31  32
ATOM     32  N   UNL A   1      40.059  20.256  26.122  1.00  0.00    -0.352 N 
ATOM     33  C   UNL A   1      41.428  20.076  26.173  1.00  0.00     0.251 C 
ATOM     34  H   UNL A   1      39.526  19.439  25.984  1.00  0.00     0.163 HD
ATOM     35  O   UNL A   1      41.922  18.975  25.989  1.00  0.00    -0.269 OA
BRANCH  33  36
ATOM     36  C   UNL A   1      42.286  21.261  26.400  1.00  0.00     0.039 A 
ATOM     37  C   UNL A   1      42.627  22.070  25.316  1.00  0.00     0.014 A 
ATOM     38  C   UNL A   1      42.638  21.632  27.698  1.00  0.00     0.014 A 
ATOM     39  C   UNL A   1      43.218  23.314  25.549  1.00  0.00     0.010 A 
ATOM     40  C   UNL A   1      43.113  22.915  27.933  1.00  0.00     0.010 A 
ATOM     41  C   UNL A   1      43.407  23.775  26.863  1.00  0.00    -0.014 A 
BRANCH  41  42
ATOM     42  C   UNL A   1      43.899  25.148  27.151  1.00  0.00     0.031 A 
ATOM     43  C   UNL A   1      45.346  25.490  26.909  1.00  0.00     0.074 A 
ATOM     44  C   UNL A   1      43.077  26.056  27.720  1.00  0.00     0.049 A 
ATOM     45  N   UNL A   1      45.993  26.589  27.197  1.00  0.00    -0.248 NA
ATOM     46  C   UNL A   1      46.188  24.442  26.307  1.00  0.00     0.031 C 
ATOM     47  C   UNL A   1      41.673  25.834  28.078  1.00  0.00     0.029 A 
ATOM     48  N   UNL A   1      43.310  27.352  28.111  1.00  0.00    -0.354 N 
ATOM     49  C   UNL A   1      47.320  26.346  26.857  1.00  0.00     0.074 A 
ATOM     50  C   UNL A   1      47.394  24.982  26.386  1.00  0.00     0.031 C 
ATOM     51  C   UNL A   1      41.163  26.963  28.598  1.00  0.00     0.029 A 
ATOM     52  C   UNL A   1      42.210  27.978  28.652  1.00  0.00     0.049 A 
ATOM     53  H   UNL A   1      44.184  27.794  28.012  1.00  0.00     0.167 HD
ATOM     54  C   UNL A   1      48.378  27.190  26.904  1.00  0.00     0.031 A 
ATOM     55  C   UNL A   1      42.060  29.225  29.138  1.00  0.00     0.031 A 
ATOM     56  C   UNL A   1      48.290  28.564  27.310  1.00  0.00     0.049 A 
ATOM     57  C   UNL A   1      43.236  30.164  29.120  1.00  0.00     0.074 A 
ATOM     58  C   UNL A   1      49.281  29.530  27.295  1.00  0.00     0.029 A 
ATOM     59  N   UNL A   1      47.143  29.173  27.793  1.00  0.00    -0.354 N 
ATOM     60  N   UNL A   1      44.462  29.938  28.710  1.00  0.00    -0.248 NA
ATOM     61  C   UNL A   1      43.005  31.528  29.616  1.00  0.00     0.031 C 
ATOM     62  C   UNL A   1      48.742  30.715  27.803  1.00  0.00     0.029 A 
ATOM     63  C   UNL A   1      47.404  30.499  28.092  1.00  0.00     0.049 A 
ATOM     64  H   UNL A   1      46.271  28.729  27.905  1.00  0.00     0.167 HD
ATOM     65  C   UNL A   1      45.140  31.142  28.873  1.00  0.00     0.074 A 
ATOM     66  C   UNL A   1      44.186  32.093  29.403  1.00  0.00     0.031 C 
ATOM     67  C   UNL A   1      46.437  31.433  28.606  1.00  0.00     0.031 A 
BRANCH  54  68
ATOM     68  C   UNL A   1      49.721  26.648  26.493  1.00  0.00    -0.014 A 
ATOM     69  C   UNL A   1      50.526  25.937  27.401  1.00  0.00     0.010 A 
ATOM     70  C   UNL A   1      50.164  26.819  25.170  1.00  0.00     0.010 A 
ATOM     71  C   UNL A   1      51.772  25.444  27.002  1.00  0.00     0.020 A 
ATOM     72  C   UNL A   1      51.396  26.301  24.761  1.00  0.00     0.020 A 
ATOM     73  C   UNL A   1      52.199  25.631  25.685  1.00  0.00     0.054 A 
BRANCH  73  74
ATOM     74  S   UNL A   1      53.805  24.950  25.187  1.00  0.00     0.124 S 
ATOM     75  O   UNL A   1      54.039  25.635  23.918  1.00  0.00    -0.237 OA
ATOM     76  O   UNL A   1      54.679  25.351  26.286  1.00  0.00    -0.237 OA
ATOM     77  O   UNL A   1      53.555  23.514  25.085  1.00  0.00    -0.744 OA
ENDBRANCH  73  74
ENDBRANCH  54  68
BRANCH  55  78
ATOM     78  C   UNL A   1      40.741  29.678  29.659  1.00  0.00    -0.014 A 
ATOM     79  C   UNL A   1      40.482  29.669  31.042  1.00  0.00     0.010 A 
ATOM     80  C   UNL A   1      39.731  30.107  28.779  1.00  0.00     0.010 A 
ATOM     81  C   UNL A   1      39.230  30.050  31.533  1.00  0.00     0.020 A 
ATOM     82  C   UNL A   1      38.485  30.514  29.269  1.00  0.00     0.020 A 
ATOM     83  C   UNL A   1      38.237  30.466  30.642  1.00  0.00     0.054 A 
BRANCH  83  84
ATOM     84  S   UNL A   1      36.628  30.987  31.300  1.00  0.00     0.124 S 
ATOM     85  O   UNL A   1      36.100  29.734  31.832  1.00  0.00    -0.237 OA
ATOM     86  O   UNL A   1      37.000  31.990  32.294  1.00  0.00    -0.237 OA
ATOM     87  O   UNL A   1      35.935  31.512  30.127  1.00  0.00    -0.744 OA
ENDBRANCH  83  84
ENDBRANCH  55  78
BRANCH  67  88
ATOM     88  C   UNL A   1      46.891  32.847  28.841  1.00  0.00    -0.014 A 
ATOM     89  C   UNL A   1      47.455  33.235  30.068  1.00  0.00     0.010 A 
ATOM     90  C   UNL A   1      46.801  33.785  27.796  1.00  0.00     0.010 A 
ATOM     91  C   UNL A   1      47.894  34.548  30.257  1.00  0.00     0.020 A 
ATOM     92  C   UNL A   1      47.262  35.091  27.972  1.00  0.00     0.020 A 
ATOM     93  C   UNL A   1      47.793  35.468  29.208  1.00  0.00     0.054 A 
BRANCH  93  94
ATOM     94  S   UNL A   1      48.410  37.155  29.460  1.00  0.00     0.124 S 
ATOM     95  O   UNL A   1      49.799  36.914  29.842  1.00  0.00    -0.237 OA
ATOM     96  O   UNL A   1      48.217  37.770  28.150  1.00  0.00    -0.237 OA
ATOM     97  O   UNL A   1      47.553  37.681  30.520  1.00  0.00    -0.744 OA
ENDBRANCH  93  94
ENDBRANCH  67  88
ENDBRANCH  41  42
ENDBRANCH  33  36
ENDBRANCH  31  32
ENDBRANCH   1  31
TORSDOF 18
ENDMDL
MODEL 2
REMARK VINA RESULT:     -10.1      5.652      9.005
REMARK SMILES CCOc1ccccc1[C@H](C(=O)NCCCNC(=O)c1ccc(-c2c3nc(c(-c4ccc(S(=O)(=O)[O-])cc4)c4ccc([nH]4)c(-c4ccc(S(=O)(=O)[O-])cc4)c4nc(c(-c5ccc(S(=O)(=O)[O-])cc5)c5ccc2[nH]5)C=C4)C=C3)cc1)[NH+]1CCC([NH+]2CCSCC2)CC1
REMARK SMILES IDX 15 1 14 2 13 3 11 4 12 5 10 7 9 8 4 9 5 10 6 11 8 12 7 13
REMARK SMILES IDX 3 14 2 15 1 16 80 17 81 18 91 19 82 21 90 22 83 23 84 24
REMARK SMILES IDX 85 25 89 26 86 28 88 29 87 30 16 31 17 32 18 33 19 35 20 36
REMARK SMILES IDX 21 37 79 38 22 39 78 40 23 41 24 42 25 43 72 44 26 45 77 46
REMARK SMILES IDX 71 47 73 48 27 49 76 50 70 51 69 52 28 54 58 55 39 56 57 57
REMARK SMILES IDX 40 58 43 59 56 60 74 61 41 62 42 63 55 65 75 66 44 67 29 68
REMARK SMILES IDX 30 69 38 70 31 71 37 72 32 73 33 74 34 75 35 76 36 77 59 78
REMARK SMILES IDX 60 79 68 80 61 81 67 82 62 83 63 84 64 85 65 86 66 87 45 88
REMARK SMILES IDX 46 89 54 90 47 91 53 92 48 93 49 94 50 95 51 96 52 97
REMARK H PARENT 13 6 80 20 84 27 17 34 73 53 43 64
REMARK Flexibility Score: inf
ROOT
ATOM      1  C   UNL A   1      45.227  23.017  24.884  1.00  0.00     0.042 C 
ENDROOT
BRANCH   1   2
ATOM      2  C   UNL A   1      43.876  23.644  24.618  1.00  0.00     0.118 C 
BRANCH   2   3
ATOM      3  N   UNL A   1      42.807  23.102  25.440  1.00  0.00    -0.351 N 
ATOM      4  C   UNL A   1      42.167  23.722  26.486  1.00  0.00     0.283 C 
ATOM      5  O   UNL A   1      41.108  23.212  26.866  1.00  0.00    -0.268 OA
ATOM      6  H   UNL A   1      42.510  22.189  25.223  1.00  0.00     0.163 HD
BRANCH   4   7
ATOM      7  C   UNL A   1      42.848  24.947  27.169  1.00  0.00     0.309 C 
BRANCH   7   8
ATOM      8  C   UNL A   1      42.259  26.328  26.833  1.00  0.00     0.061 A 
ATOM      9  C   UNL A   1      41.129  26.892  27.452  1.00  0.00     0.128 A 
ATOM     10  C   UNL A   1      40.538  28.049  26.930  1.00  0.00     0.047 A 
ATOM     11  C   UNL A   1      41.117  28.708  25.847  1.00  0.00     0.004 A 
ATOM     12  C   UNL A   1      42.858  27.043  25.774  1.00  0.00     0.014 A 
ATOM     13  C   UNL A   1      42.292  28.221  25.287  1.00  0.00     0.001 A 
BRANCH   9  14
ATOM     14  O   UNL A   1      40.515  26.196  28.454  1.00  0.00    -0.493 OA
BRANCH  14  15
ATOM     15  C   UNL A   1      39.256  26.697  28.895  1.00  0.00     0.226 C 
ATOM     16  C   UNL A   1      39.493  27.481  30.172  1.00  0.00     0.049 C 
ENDBRANCH  14  15
ENDBRANCH   9  14
ENDBRANCH   7   8
BRANCH   7  17
ATOM     17  N   UNL A   1      43.113  24.779  28.634  1.00  0.00    -0.320 N 
ATOM     18  C   UNL A   1      43.657  23.466  28.979  1.00  0.00     0.269 C 
ATOM     19  C   UNL A   1      43.947  25.861  29.179  1.00  0.00     0.269 C 
ATOM     20  H   UNL A   1      42.197  24.839  29.079  1.00  0.00     0.349 HD
ATOM     21  C   UNL A   1      43.706  23.288  30.499  1.00  0.00     0.126 C 
ATOM     22  C   UNL A   1      44.033  25.768  30.705  1.00  0.00     0.126 C 
ATOM     23  C   UNL A   1      44.557  24.390  31.154  1.00  0.00     0.195 C 
BRANCH  23  24
ATOM     24  N   UNL A   1      44.722  24.284  32.631  1.00  0.00    -0.331 N 
ATOM     25  C   UNL A   1      44.058  23.072  33.158  1.00  0.00     0.273 C 
ATOM     26  C   UNL A   1      44.298  25.485  33.375  1.00  0.00     0.273 C 
ATOM     27  H   UNL A   1      45.728  24.207  32.784  1.00  0.00     0.348 HD
ATOM     28  C   UNL A   1      44.391  22.753  34.621  1.00  0.00     0.131 C 
ATOM     29  C   UNL A   1      44.661  25.446  34.868  1.00  0.00     0.131 C 
ATOM     30  S   UNL A   1      43.855  24.075  35.746  1.00  0.00    -0.150 SA
ENDBRANCH  23  24
ENDBRANCH   7  17
ENDBRANCH   4   7
ENDBRANCH   2   3
ENDBRANCH   1   2
BRANCH   1  31
ATOM     31  C   UNL A   1      46.174  23.886  25.695  1.00  0.00     0.118 C 
BRANCH  31  32
ATOM     32  N   UNL A   1      47.339  24.368  24.959  1.00  0.00    -0.352 N 
ATOM     33  C   UNL A   1      47.836  25.654  24.870  1.00  0.00     0.251 C 
ATOM     34  H   UNL A   1      47.838  23.682  24.458  1.00  0.00     0.163 HD
ATOM     35  O   UNL A   1      48.794  25.907  24.156  1.00  0.00    -0.269 OA
BRANCH  33  36
ATOM     36  C   UNL A   1      47.145  26.729  25.617  1.00  0.00     0.039 A 
ATOM     37  C   UNL A   1      47.408  26.887  26.978  1.00  0.00     0.014 A 
ATOM     38  C   UNL A   1      46.344  27.648  24.939  1.00  0.00     0.014 A 
ATOM     39  C   UNL A   1      46.963  28.038  27.632  1.00  0.00     0.010 A 
ATOM     40  C   UNL A   1      46.007  28.844  25.561  1.00  0.00     0.010 A 
ATOM     41  C   UNL A   1      46.315  29.058  26.914  1.00  0.00    -0.014 A 
BRANCH  41  42
ATOM     42  C   UNL A   1      45.954  30.356  27.542  1.00  0.00     0.031 A 
ATOM     43  C   UNL A   1      46.923  31.508  27.486  1.00  0.00     0.074 A 
ATOM     44  C   UNL A   1      44.808  30.472  28.246  1.00  0.00     0.049 A 
ATOM     45  N   UNL A   1      46.846  32.680  28.063  1.00  0.00    -0.248 NA
ATOM     46  C   UNL A   1      48.165  31.300  26.719  1.00  0.00     0.031 C 
ATOM     47  C   UNL A   1      43.815  29.412  28.445  1.00  0.00     0.029 A 
ATOM     48  N   UNL A   1      44.288  31.538  28.938  1.00  0.00    -0.354 N 
ATOM     49  C   UNL A   1      48.043  33.324  27.768  1.00  0.00     0.074 A 
ATOM     50  C   UNL A   1      48.847  32.399  27.004  1.00  0.00     0.031 C 
ATOM     51  C   UNL A   1      42.793  29.892  29.174  1.00  0.00     0.029 A 
ATOM     52  C   UNL A   1      43.073  31.279  29.531  1.00  0.00     0.049 A 
ATOM     53  H   UNL A   1      44.742  32.409  29.005  1.00  0.00     0.167 HD
ATOM     54  C   UNL A   1      48.430  34.583  28.082  1.00  0.00     0.031 A 
ATOM     55  C   UNL A   1      42.275  32.066  30.278  1.00  0.00     0.031 A 
ATOM     56  C   UNL A   1      47.604  35.524  28.785  1.00  0.00     0.049 A 
ATOM     57  C   UNL A   1      42.699  33.483  30.558  1.00  0.00     0.074 A 
ATOM     58  C   UNL A   1      47.861  36.856  29.060  1.00  0.00     0.029 A 
ATOM     59  N   UNL A   1      46.355  35.238  29.313  1.00  0.00    -0.354 N 
ATOM     60  N   UNL A   1      43.798  34.099  30.193  1.00  0.00    -0.248 NA
ATOM     61  C   UNL A   1      41.769  34.313  31.336  1.00  0.00     0.031 C 
ATOM     62  C   UNL A   1      46.782  37.366  29.787  1.00  0.00     0.029 A 
ATOM     63  C   UNL A   1      45.835  36.365  29.926  1.00  0.00     0.049 A 
ATOM     64  H   UNL A   1      45.905  34.364  29.260  1.00  0.00     0.167 HD
ATOM     65  C   UNL A   1      43.677  35.399  30.674  1.00  0.00     0.074 A 
ATOM     66  C   UNL A   1      42.394  35.482  31.341  1.00  0.00     0.031 C 
ATOM     67  C   UNL A   1      44.550  36.431  30.572  1.00  0.00     0.031 A 
BRANCH  54  68
ATOM     68  C   UNL A   1      49.805  35.018  27.651  1.00  0.00    -0.014 A 
ATOM     69  C   UNL A   1      50.016  35.632  26.404  1.00  0.00     0.010 A 
ATOM     70  C   UNL A   1      50.894  34.844  28.523  1.00  0.00     0.010 A 
ATOM     71  C   UNL A   1      51.300  36.027  26.020  1.00  0.00     0.020 A 
ATOM     72  C   UNL A   1      52.175  35.265  28.154  1.00  0.00     0.020 A 
ATOM     73  C   UNL A   1      52.372  35.838  26.897  1.00  0.00     0.054 A 
BRANCH  73  74
ATOM     74  S   UNL A   1      54.022  36.391  26.385  1.00  0.00     0.124 S 
ATOM     75  O   UNL A   1      53.816  37.826  26.210  1.00  0.00    -0.237 OA
ATOM     76  O   UNL A   1      54.855  36.012  27.523  1.00  0.00    -0.237 OA
ATOM     77  O   UNL A   1      54.272  35.641  25.156  1.00  0.00    -0.744 OA
ENDBRANCH  73  74
ENDBRANCH  54  68
BRANCH  55  78
ATOM     78  C   UNL A   1      40.978  31.549  30.797  1.00  0.00    -0.014 A 
ATOM     79  C   UNL A   1      39.795  31.726  30.057  1.00  0.00     0.010 A 
ATOM     80  C   UNL A   1      40.914  30.891  32.039  1.00  0.00     0.010 A 
ATOM     81  C   UNL A   1      38.569  31.283  30.561  1.00  0.00     0.020 A 
ATOM     82  C   UNL A   1      39.692  30.423  32.534  1.00  0.00     0.020 A 
ATOM     83  C   UNL A   1      38.525  30.638  31.799  1.00  0.00     0.054 A 
BRANCH  83  84
ATOM     84  S   UNL A   1      36.928  30.042  32.423  1.00  0.00     0.124 S 
ATOM     85  O   UNL A   1      36.244  29.665  31.190  1.00  0.00    -0.237 OA
ATOM     86  O   UNL A   1      37.319  28.935  33.293  1.00  0.00    -0.237 OA
ATOM     87  O   UNL A   1      36.378  31.204  33.116  1.00  0.00    -0.744 OA
ENDBRANCH  83  84
ENDBRANCH  55  78
BRANCH  67  88
ATOM     88  C   UNL A   1      44.131  37.751  31.156  1.00  0.00    -0.014 A 
ATOM     89  C   UNL A   1      44.295  38.026  32.524  1.00  0.00     0.010 A 
ATOM     90  C   UNL A   1      43.617  38.750  30.309  1.00  0.00     0.010 A 
ATOM     91  C   UNL A   1      43.924  39.270  33.041  1.00  0.00     0.020 A 
ATOM     92  C   UNL A   1      43.268  40.003  30.818  1.00  0.00     0.020 A 
ATOM     93  C   UNL A   1      43.410  40.249  32.185  1.00  0.00     0.054 A 
BRANCH  93  94
ATOM     94  S   UNL A   1      42.976  41.872  32.870  1.00  0.00     0.124 S 
ATOM     95  O   UNL A   1      44.215  42.260  33.537  1.00  0.00    -0.237 OA
ATOM     96  O   UNL A   1      42.634  42.645  31.680  1.00  0.00    -0.237 OA
ATOM     97  O   UNL A   1      41.853  41.581  33.759  1.00  0.00    -0.744 OA
ENDBRANCH  93  94
ENDBRANCH  67  88
ENDBRANCH  41  42
ENDBRANCH  33  36
ENDBRANCH  31  32
ENDBRANCH   1  31
TORSDOF 18
ENDMDL
MODEL 3
REMARK VINA RESULT:     -10.1      5.627      9.440
REMARK SMILES CCOc1ccccc1[C@H](C(=O)NCCCNC(=O)c1ccc(-c2c3nc(c(-c4ccc(S(=O)(=O)[O-])cc4)c4ccc([nH]4)c(-c4ccc(S(=O)(=O)[O-])cc4)c4nc(c(-c5ccc(S(=O)(=O)[O-])cc5)c5ccc2[nH]5)C=C4)C=C3)cc1)[NH+]1CCC([NH+]2CCSCC2)CC1
REMARK SMILES IDX 15 1 14 2 13 3 11 4 12 5 10 7 9 8 4 9 5 10 6 11 8 12 7 13
REMARK SMILES IDX 3 14 2 15 1 16 80 17 81 18 91 19 82 21 90 22 83 23 84 24
REMARK SMILES IDX 85 25 89 26 86 28 88 29 87 30 16 31 17 32 18 33 19 35 20 36
REMARK SMILES IDX 21 37 79 38 22 39 78 40 23 41 24 42 25 43 72 44 26 45 77 46
REMARK SMILES IDX 71 47 73 48 27 49 76 50 70 51 69 52 28 54 58 55 39 56 57 57
REMARK SMILES IDX 40 58 43 59 56 60 74 61 41 62 42 63 55 65 75 66 44 67 29 68
REMARK SMILES IDX 30 69 38 70 31 71 37 72 32 73 33 74 34 75 35 76 36 77 59 78
REMARK SMILES IDX 60 79 68 80 61 81 67 82 62 83 63 84 64 85 65 86 66 87 45 88
REMARK SMILES IDX 46 89 54 90 47 91 53 92 48 93 49 94 50 95 51 96 52 97
REMARK H PARENT 13 6 80 20 84 27 17 34 73 53 43 64
REMARK Flexibility Score: inf
ROOT
ATOM      1  C   UNL A   1      34.161  30.212  26.659  1.00  0.00     0.042 C 
ENDROOT
BRANCH   1   2
ATOM      2  C   UNL A   1      32.975  30.236  25.722  1.00  0.00     0.118 C 
BRANCH   2   3
ATOM      3  N   UNL A   1      33.299  29.856  24.357  1.00  0.00    -0.351 N 
ATOM      4  C   UNL A   1      32.735  28.842  23.620  1.00  0.00     0.283 C 
ATOM      5  O   UNL A   1      32.942  28.864  22.402  1.00  0.00    -0.268 OA
ATOM      6  H   UNL A   1      34.002  30.384  23.912  1.00  0.00     0.163 HD
BRANCH   4   7
ATOM      7  C   UNL A   1      31.965  27.708  24.362  1.00  0.00     0.309 C 
BRANCH   7   8
ATOM      8  C   UNL A   1      30.449  27.636  24.108  1.00  0.00     0.061 A 
ATOM      9  C   UNL A   1      29.649  26.501  24.332  1.00  0.00     0.128 A 
ATOM     10  C   UNL A   1      28.330  26.460  23.866  1.00  0.00     0.047 A 
ATOM     11  C   UNL A   1      27.763  27.579  23.257  1.00  0.00     0.004 A 
ATOM     12  C   UNL A   1      29.837  28.773  23.540  1.00  0.00     0.014 A 
ATOM     13  C   UNL A   1      28.507  28.744  23.120  1.00  0.00     0.001 A 
BRANCH   9  14
ATOM     14  O   UNL A   1      30.233  25.379  24.847  1.00  0.00    -0.493 OA
BRANCH  14  15
ATOM     15  C   UNL A   1      29.950  25.086  26.213  1.00  0.00     0.226 C 
ATOM     16  C   UNL A   1      30.604  23.759  26.546  1.00  0.00     0.049 C 
ENDBRANCH  14  15
ENDBRANCH   9  14
ENDBRANCH   7   8
BRANCH   7  17
ATOM     17  N   UNL A   1      32.620  26.362  24.297  1.00  0.00    -0.320 N 
ATOM     18  C   UNL A   1      33.094  26.010  22.959  1.00  0.00     0.269 C 
ATOM     19  C   UNL A   1      33.689  26.212  25.297  1.00  0.00     0.269 C 
ATOM     20  H   UNL A   1      31.883  25.696  24.528  1.00  0.00     0.349 HD
ATOM     21  C   UNL A   1      33.559  24.551  22.921  1.00  0.00     0.126 C 
ATOM     22  C   UNL A   1      34.200  24.769  25.338  1.00  0.00     0.126 C 
ATOM     23  C   UNL A   1      34.677  24.304  23.948  1.00  0.00     0.195 C 
BRANCH  23  24
ATOM     24  N   UNL A   1      35.248  22.928  23.960  1.00  0.00    -0.331 N 
ATOM     25  C   UNL A   1      34.485  22.040  24.866  1.00  0.00     0.273 C 
ATOM     26  C   UNL A   1      36.691  22.873  24.260  1.00  0.00     0.273 C 
ATOM     27  H   UNL A   1      35.153  22.589  23.003  1.00  0.00     0.348 HD
ATOM     28  C   UNL A   1      34.845  20.554  24.747  1.00  0.00     0.131 C 
ATOM     29  C   UNL A   1      37.309  21.479  24.069  1.00  0.00     0.131 C 
ATOM     30  S   UNL A   1      36.582  20.236  25.176  1.00  0.00    -0.150 SA
ENDBRANCH  23  24
ENDBRANCH   7  17
ENDBRANCH   4   7
ENDBRANCH   2   3
ENDBRANCH   1   2
BRANCH   1  31
ATOM     31  C   UNL A   1      33.929  30.918  27.984  1.00  0.00     0.118 C 
BRANCH  31  32
ATOM     32  N   UNL A   1      33.302  32.232  27.873  1.00  0.00    -0.352 N 
ATOM     33  C   UNL A   1      33.632  33.407  28.519  1.00  0.00     0.251 C 
ATOM     34  H   UNL A   1      32.538  32.286  27.253  1.00  0.00     0.163 HD
ATOM     35  O   UNL A   1      32.964  34.417  28.363  1.00  0.00    -0.269 OA
BRANCH  33  36
ATOM     36  C   UNL A   1      34.784  33.400  29.450  1.00  0.00     0.039 A 
ATOM     37  C   UNL A   1      34.721  32.613  30.600  1.00  0.00     0.014 A 
ATOM     38  C   UNL A   1      35.960  34.069  29.112  1.00  0.00     0.014 A 
ATOM     39  C   UNL A   1      35.881  32.402  31.349  1.00  0.00     0.010 A 
ATOM     40  C   UNL A   1      37.134  33.760  29.787  1.00  0.00     0.010 A 
ATOM     41  C   UNL A   1      37.112  32.921  30.912  1.00  0.00    -0.014 A 
BRANCH  41  42
ATOM     42  C   UNL A   1      38.390  32.599  31.601  1.00  0.00     0.031 A 
ATOM     43  C   UNL A   1      39.353  31.626  30.973  1.00  0.00     0.074 A 
ATOM     44  C   UNL A   1      38.641  33.099  32.830  1.00  0.00     0.049 A 
ATOM     45  N   UNL A   1      40.462  31.131  31.461  1.00  0.00    -0.248 NA
ATOM     46  C   UNL A   1      39.002  31.103  29.641  1.00  0.00     0.031 C 
ATOM     47  C   UNL A   1      37.759  33.994  33.587  1.00  0.00     0.029 A 
ATOM     48  N   UNL A   1      39.714  32.916  33.668  1.00  0.00    -0.354 N 
ATOM     49  C   UNL A   1      40.909  30.210  30.520  1.00  0.00     0.074 A 
ATOM     50  C   UNL A   1      39.931  30.178  29.458  1.00  0.00     0.031 C 
ATOM     51  C   UNL A   1      38.342  34.307  34.755  1.00  0.00     0.029 A 
ATOM     52  C   UNL A   1      39.618  33.608  34.854  1.00  0.00     0.049 A 
ATOM     53  H   UNL A   1      40.481  32.342  33.442  1.00  0.00     0.167 HD
ATOM     54  C   UNL A   1      42.046  29.474  30.525  1.00  0.00     0.031 A 
ATOM     55  C   UNL A   1      40.462  33.671  35.903  1.00  0.00     0.031 A 
ATOM     56  C   UNL A   1      43.048  29.555  31.550  1.00  0.00     0.049 A 
ATOM     57  C   UNL A   1      41.749  32.894  35.855  1.00  0.00     0.074 A 
ATOM     58  C   UNL A   1      44.283  28.930  31.596  1.00  0.00     0.029 A 
ATOM     59  N   UNL A   1      42.940  30.315  32.703  1.00  0.00    -0.354 N 
ATOM     60  N   UNL A   1      42.193  32.095  34.914  1.00  0.00    -0.248 NA
ATOM     61  C   UNL A   1      42.655  33.037  37.004  1.00  0.00     0.031 C 
ATOM     62  C   UNL A   1      44.906  29.285  32.796  1.00  0.00     0.029 A 
ATOM     63  C   UNL A   1      44.079  30.165  33.475  1.00  0.00     0.049 A 
ATOM     64  H   UNL A   1      42.168  30.879  32.938  1.00  0.00     0.167 HD
ATOM     65  C   UNL A   1      43.444  31.665  35.345  1.00  0.00     0.074 A 
ATOM     66  C   UNL A   1      43.690  32.301  36.622  1.00  0.00     0.031 C 
ATOM     67  C   UNL A   1      44.311  30.818  34.737  1.00  0.00     0.031 A 
BRANCH  54  68
ATOM     68  C   UNL A   1      42.269  28.528  29.376  1.00  0.00    -0.014 A 
ATOM     69  C   UNL A   1      42.911  28.952  28.199  1.00  0.00     0.010 A 
ATOM     70  C   UNL A   1      41.866  27.186  29.492  1.00  0.00     0.010 A 
ATOM     71  C   UNL A   1      43.108  28.060  27.142  1.00  0.00     0.020 A 
ATOM     72  C   UNL A   1      42.087  26.284  28.448  1.00  0.00     0.020 A 
ATOM     73  C   UNL A   1      42.692  26.732  27.272  1.00  0.00     0.054 A 
BRANCH  73  74
ATOM     74  S   UNL A   1      42.990  25.588  25.896  1.00  0.00     0.124 S 
ATOM     75  O   UNL A   1      42.311  24.381  26.359  1.00  0.00    -0.237 OA
ATOM     76  O   UNL A   1      42.360  26.270  24.769  1.00  0.00    -0.237 OA
ATOM     77  O   UNL A   1      44.447  25.499  25.831  1.00  0.00    -0.744 OA
ENDBRANCH  73  74
ENDBRANCH  54  68
BRANCH  55  78
ATOM     78  C   UNL A   1      40.136  34.521  37.082  1.00  0.00    -0.014 A 
ATOM     79  C   UNL A   1      39.416  33.987  38.166  1.00  0.00     0.010 A 
ATOM     80  C   UNL A   1      40.531  35.871  37.123  1.00  0.00     0.010 A 
ATOM     81  C   UNL A   1      39.069  34.793  39.254  1.00  0.00     0.020 A 
ATOM     82  C   UNL A   1      40.208  36.673  38.222  1.00  0.00     0.020 A 
ATOM     83  C   UNL A   1      39.464  36.134  39.273  1.00  0.00     0.054 A 
BRANCH  83  84
ATOM     84  S   UNL A   1      39.031  37.157  40.709  1.00  0.00     0.124 S 
ATOM     85  O   UNL A   1      38.359  38.290  40.080  1.00  0.00    -0.237 OA
ATOM     86  O   UNL A   1      38.174  36.266  41.488  1.00  0.00    -0.237 OA
ATOM     87  O   UNL A   1      40.325  37.453  41.317  1.00  0.00    -0.744 OA
ENDBRANCH  83  84
ENDBRANCH  55  78
BRANCH  67  88
ATOM     88  C   UNL A   1      45.624  30.564  35.422  1.00  0.00    -0.014 A 
ATOM     89  C   UNL A   1      45.774  29.510  36.340  1.00  0.00     0.010 A 
ATOM     90  C   UNL A   1      46.739  31.359  35.097  1.00  0.00     0.010 A 
ATOM     91  C   UNL A   1      47.012  29.276  36.945  1.00  0.00     0.020 A 
ATOM     92  C   UNL A   1      47.982  31.112  35.681  1.00  0.00     0.020 A 
ATOM     93  C   UNL A   1      48.107  30.080  36.614  1.00  0.00     0.054 A 
BRANCH  93  94
ATOM     94  S   UNL A   1      49.714  29.729  37.379  1.00  0.00     0.124 S 
ATOM     95  O   UNL A   1      49.826  30.809  38.354  1.00  0.00    -0.237 OA
ATOM     96  O   UNL A   1      49.521  28.394  37.938  1.00  0.00    -0.237 OA
ATOM     97  O   UNL A   1      50.651  29.798  36.260  1.00  0.00    -0.744 OA
ENDBRANCH  93  94
ENDBRANCH  67  88
ENDBRANCH  41  42
ENDBRANCH  33  36
ENDBRANCH  31  32
ENDBRANCH   1  31
TORSDOF 18
ENDMDL
