MODEL 1
REMARK VINA RESULT:      -9.8      0.000      0.000
REMARK SMILES C[C@]12c3ccccc3[C@](C)(c3ccccc31)[C@@H]1C(=O)N(c3ccc(C(=O)NCCCNC(=O)c4ccc(-c5c6nc(c(-c7ccc(S(=O)(=O)[O-])cc7)c7ccc([nH]7)c(-c7ccc(S(=O)(=O)[O-])cc7)c7nc(c(-c8ccc(S(=O)(=O)[O-])cc8)c8ccc5[nH]8)C=C7)C=C6)cc4)cc3)C(=O)[C@H]12
REMARK SMILES IDX 30 1 29 2 28 3 27 4 25 5 26 6 24 8 21 9 22 10 95 11 23 12
REMARK SMILES IDX 94 13 20 14 1 15 2 16 16 17 3 18 98 19 15 20 11 21 8 22 4 23
REMARK SMILES IDX 17 24 96 25 14 26 12 27 9 28 7 29 5 30 18 31 97 32 13 33
REMARK SMILES IDX 10 34 6 35 19 36 31 37 32 38 33 40 34 41 35 42 93 43 36 44
REMARK SMILES IDX 92 45 37 46 38 47 39 48 86 49 40 50 91 51 85 52 87 53 41 54
REMARK SMILES IDX 90 55 84 56 83 57 42 59 72 60 53 61 71 62 54 63 57 64 70 65
REMARK SMILES IDX 88 66 55 67 56 68 69 70 89 71 58 72 43 73 44 74 52 75 45 76
REMARK SMILES IDX 51 77 46 78 47 79 48 80 49 81 50 82 73 83 74 84 82 85 75 86
REMARK SMILES IDX 81 87 76 88 77 89 78 90 79 91 80 92 59 93 60 94 68 95 61 96
REMARK SMILES IDX 67 97 62 98 63 99 64 100 65 101 66 102
REMARK H PARENT 27 7 31 39 87 58 57 69
REMARK Flexibility Score: inf
ROOT
ATOM      1  C   UNL A   1      35.389  33.124  29.220  1.00  0.00     0.118 C 
ENDROOT
BRANCH   1   2
ATOM      2  C   UNL A   1      35.640  32.952  30.709  1.00  0.00     0.042 C 
BRANCH   2   3
ATOM      3  C   UNL A   1      37.099  33.055  31.117  1.00  0.00     0.118 C 
BRANCH   3   4
ATOM      4  N   UNL A   1      37.303  33.714  32.401  1.00  0.00    -0.352 N 
ATOM      5  C   UNL A   1      38.148  33.441  33.449  1.00  0.00     0.251 C 
ATOM      6  O   UNL A   1      38.082  34.139  34.459  1.00  0.00    -0.269 OA
ATOM      7  H   UNL A   1      36.728  34.501  32.544  1.00  0.00     0.163 HD
BRANCH   5   8
ATOM      8  C   UNL A   1      39.091  32.299  33.418  1.00  0.00     0.039 A 
ATOM      9  C   UNL A   1      40.912  30.170  33.670  1.00  0.00     0.052 A 
ATOM     10  C   UNL A   1      41.332  31.491  33.864  1.00  0.00     0.027 A 
ATOM     11  C   UNL A   1      39.599  29.941  33.239  1.00  0.00     0.027 A 
ATOM     12  C   UNL A   1      40.430  32.551  33.728  1.00  0.00     0.016 A 
ATOM     13  C   UNL A   1      38.701  31.001  33.092  1.00  0.00     0.016 A 
BRANCH   9  14
ATOM     14  N   UNL A   1      41.767  29.083  33.951  1.00  0.00    -0.250 N 
ATOM     15  C   UNL A   1      46.151  28.016  34.132  1.00  0.00     0.022 C 
ATOM     16  C   UNL A   1      44.965  27.151  34.553  1.00  0.00     0.030 C 
ATOM     17  C   UNL A   1      44.928  26.763  36.054  1.00  0.00    -0.033 A 
ATOM     18  C   UNL A   1      44.852  25.779  33.809  1.00  0.00    -0.033 A 
ATOM     19  C   UNL A   1      43.618  27.758  34.096  1.00  0.00     0.108 C 
ATOM     20  C   UNL A   1      45.865  27.119  37.020  1.00  0.00     0.005 A 
ATOM     21  C   UNL A   1      43.828  25.911  36.419  1.00  0.00    -0.033 A 
ATOM     22  C   UNL A   1      43.651  25.056  34.131  1.00  0.00    -0.033 A 
ATOM     23  C   UNL A   1      45.753  25.276  32.874  1.00  0.00     0.005 A 
ATOM     24  C   UNL A   1      42.496  27.176  34.954  1.00  0.00     0.108 C 
ATOM     25  C   UNL A   1      43.167  29.180  34.022  1.00  0.00     0.238 C 
ATOM     26  C   UNL A   1      45.718  26.638  38.325  1.00  0.00     0.000 A 
ATOM     27  C   UNL A   1      43.704  25.426  37.719  1.00  0.00     0.005 A 
ATOM     28  C   UNL A   1      42.805  25.694  35.261  1.00  0.00     0.030 C 
ATOM     29  C   UNL A   1      43.382  23.851  33.490  1.00  0.00     0.005 A 
ATOM     30  C   UNL A   1      45.466  24.063  32.250  1.00  0.00     0.000 A 
ATOM     31  C   UNL A   1      41.322  27.794  34.276  1.00  0.00     0.238 C 
ATOM     32  O   UNL A   1      43.891  30.154  33.939  1.00  0.00    -0.274 OA
ATOM     33  C   UNL A   1      44.655  25.795  38.668  1.00  0.00     0.000 A 
ATOM     34  C   UNL A   1      41.547  24.921  35.655  1.00  0.00     0.022 C 
ATOM     35  C   UNL A   1      44.291  23.362  32.549  1.00  0.00     0.000 A 
ATOM     36  O   UNL A   1      40.219  27.291  34.145  1.00  0.00    -0.274 OA
ENDBRANCH   9  14
ENDBRANCH   5   8
ENDBRANCH   3   4
ENDBRANCH   2   3
ENDBRANCH   1   2
BRANCH   1  37
ATOM     37  N   UNL A   1      34.460  32.141  28.669  1.00  0.00    -0.352 N 
ATOM     38  C   UNL A   1      34.665  30.856  28.215  1.00  0.00     0.251 C 
ATOM     39  H   UNL A   1      33.526  32.450  28.610  1.00  0.00     0.163 HD
ATOM     40  O   UNL A   1      33.752  30.262  27.646  1.00  0.00    -0.269 OA
BRANCH  38  41
ATOM     41  C   UNL A   1      35.988  30.211  28.365  1.00  0.00     0.039 A 
ATOM     42  C   UNL A   1      36.376  29.667  29.585  1.00  0.00     0.014 A 
ATOM     43  C   UNL A   1      36.869  30.177  27.280  1.00  0.00     0.014 A 
ATOM     44  C   UNL A   1      37.709  29.344  29.799  1.00  0.00     0.010 A 
ATOM     45  C   UNL A   1      38.177  29.711  27.461  1.00  0.00     0.010 A 
ATOM     46  C   UNL A   1      38.631  29.359  28.741  1.00  0.00    -0.014 A 
BRANCH  46  47
ATOM     47  C   UNL A   1      40.052  29.004  29.005  1.00  0.00     0.031 A 
ATOM     48  C   UNL A   1      40.590  27.643  28.642  1.00  0.00     0.074 A 
ATOM     49  C   UNL A   1      40.880  29.942  29.510  1.00  0.00     0.049 A 
ATOM     50  N   UNL A   1      41.803  27.175  28.792  1.00  0.00    -0.248 NA
ATOM     51  C   UNL A   1      39.653  26.681  28.037  1.00  0.00     0.031 C 
ATOM     52  C   UNL A   1      40.483  31.306  29.870  1.00  0.00     0.029 A 
ATOM     53  N   UNL A   1      42.227  29.912  29.773  1.00  0.00    -0.354 N 
ATOM     54  C   UNL A   1      41.772  25.868  28.316  1.00  0.00     0.074 A 
ATOM     55  C   UNL A   1      40.410  25.600  27.913  1.00  0.00     0.031 C 
ATOM     56  C   UNL A   1      41.569  32.000  30.232  1.00  0.00     0.029 A 
ATOM     57  C   UNL A   1      42.724  31.110  30.231  1.00  0.00     0.049 A 
ATOM     58  H   UNL A   1      42.783  29.109  29.648  1.00  0.00     0.167 HD
ATOM     59  C   UNL A   1      42.791  24.982  28.208  1.00  0.00     0.031 A 
ATOM     60  C   UNL A   1      43.964  31.463  30.628  1.00  0.00     0.031 A 
ATOM     61  C   UNL A   1      44.148  25.269  28.598  1.00  0.00     0.049 A 
ATOM     62  C   UNL A   1      45.063  30.444  30.561  1.00  0.00     0.074 A 
ATOM     63  C   UNL A   1      45.253  24.438  28.522  1.00  0.00     0.029 A 
ATOM     64  N   UNL A   1      44.593  26.474  29.125  1.00  0.00    -0.354 N 
ATOM     65  N   UNL A   1      45.010  29.211  30.113  1.00  0.00    -0.248 NA
ATOM     66  C   UNL A   1      46.385  30.854  31.049  1.00  0.00     0.031 C 
ATOM     67  C   UNL A   1      46.343  25.110  29.074  1.00  0.00     0.029 A 
ATOM     68  C   UNL A   1      45.946  26.395  29.408  1.00  0.00     0.049 A 
ATOM     69  H   UNL A   1      44.029  27.267  29.275  1.00  0.00     0.167 HD
ATOM     70  C   UNL A   1      46.295  28.703  30.253  1.00  0.00     0.074 A 
ATOM     71  C   UNL A   1      47.109  29.767  30.803  1.00  0.00     0.031 C 
ATOM     72  C   UNL A   1      46.752  27.462  29.956  1.00  0.00     0.031 A 
BRANCH  59  73
ATOM     73  C   UNL A   1      42.501  23.614  27.638  1.00  0.00    -0.014 A 
ATOM     74  C   UNL A   1      42.208  22.542  28.504  1.00  0.00     0.010 A 
ATOM     75  C   UNL A   1      42.644  23.355  26.263  1.00  0.00     0.010 A 
ATOM     76  C   UNL A   1      42.106  21.236  28.013  1.00  0.00     0.020 A 
ATOM     77  C   UNL A   1      42.508  22.055  25.763  1.00  0.00     0.020 A 
ATOM     78  C   UNL A   1      42.266  21.001  26.647  1.00  0.00     0.054 A 
BRANCH  78  79
ATOM     79  S   UNL A   1      42.169  19.295  26.034  1.00  0.00     0.124 S 
ATOM     80  O   UNL A   1      40.745  19.149  25.749  1.00  0.00    -0.237 OA
ATOM     81  O   UNL A   1      43.048  19.325  24.868  1.00  0.00    -0.237 OA
ATOM     82  O   UNL A   1      42.666  18.500  27.156  1.00  0.00    -0.744 OA
ENDBRANCH  78  79
ENDBRANCH  59  73
BRANCH  60  83
ATOM     83  C   UNL A   1      44.198  32.856  31.102  1.00  0.00    -0.014 A 
ATOM     84  C   UNL A   1      43.973  33.194  32.452  1.00  0.00     0.010 A 
ATOM     85  C   UNL A   1      44.521  33.876  30.191  1.00  0.00     0.010 A 
ATOM     86  C   UNL A   1      43.979  34.528  32.863  1.00  0.00     0.020 A 
ATOM     87  C   UNL A   1      44.569  35.211  30.608  1.00  0.00     0.020 A 
ATOM     88  C   UNL A   1      44.258  35.531  31.931  1.00  0.00     0.054 A 
BRANCH  88  89
ATOM     89  S   UNL A   1      44.167  37.260  32.469  1.00  0.00     0.124 S 
ATOM     90  O   UNL A   1      43.166  37.191  33.530  1.00  0.00    -0.237 OA
ATOM     91  O   UNL A   1      45.533  37.529  32.908  1.00  0.00    -0.237 OA
ATOM     92  O   UNL A   1      43.751  37.972  31.264  1.00  0.00    -0.744 OA
ENDBRANCH  88  89
ENDBRANCH  60  83
BRANCH  72  93
ATOM     93  C   UNL A   1      48.206  27.154  30.215  1.00  0.00    -0.014 A 
ATOM     94  C   UNL A   1      48.609  26.713  31.490  1.00  0.00     0.010 A 
ATOM     95  C   UNL A   1      49.187  27.445  29.251  1.00  0.00     0.010 A 
ATOM     96  C   UNL A   1      49.964  26.623  31.815  1.00  0.00     0.020 A 
ATOM     97  C   UNL A   1      50.545  27.321  29.561  1.00  0.00     0.020 A 
ATOM     98  C   UNL A   1      50.923  26.941  30.851  1.00  0.00     0.054 A 
BRANCH  98  99
ATOM     99  S   UNL A   1      52.676  26.881  31.313  1.00  0.00     0.124 S 
ATOM    100  O   UNL A   1      53.010  28.296  31.438  1.00  0.00    -0.237 OA
ATOM    101  O   UNL A   1      52.650  26.127  32.565  1.00  0.00    -0.237 OA
ATOM    102  O   UNL A   1      53.304  26.188  30.190  1.00  0.00    -0.744 OA
ENDBRANCH  98  99
ENDBRANCH  72  93
ENDBRANCH  46  47
ENDBRANCH  38  41
ENDBRANCH   1  37
TORSDOF 14
ENDMDL
MODEL 2
REMARK VINA RESULT:      -9.8      3.334      5.731
REMARK SMILES C[C@]12c3ccccc3[C@](C)(c3ccccc31)[C@@H]1C(=O)N(c3ccc(C(=O)NCCCNC(=O)c4ccc(-c5c6nc(c(-c7ccc(S(=O)(=O)[O-])cc7)c7ccc([nH]7)c(-c7ccc(S(=O)(=O)[O-])cc7)c7nc(c(-c8ccc(S(=O)(=O)[O-])cc8)c8ccc5[nH]8)C=C7)C=C6)cc4)cc3)C(=O)[C@H]12
REMARK SMILES IDX 30 1 29 2 28 3 27 4 25 5 26 6 24 8 21 9 22 10 95 11 23 12
REMARK SMILES IDX 94 13 20 14 1 15 2 16 16 17 3 18 98 19 15 20 11 21 8 22 4 23
REMARK SMILES IDX 17 24 96 25 14 26 12 27 9 28 7 29 5 30 18 31 97 32 13 33
REMARK SMILES IDX 10 34 6 35 19 36 31 37 32 38 33 40 34 41 35 42 93 43 36 44
REMARK SMILES IDX 92 45 37 46 38 47 39 48 86 49 40 50 91 51 85 52 87 53 41 54
REMARK SMILES IDX 90 55 84 56 83 57 42 59 72 60 53 61 71 62 54 63 57 64 70 65
REMARK SMILES IDX 88 66 55 67 56 68 69 70 89 71 58 72 43 73 44 74 52 75 45 76
REMARK SMILES IDX 51 77 46 78 47 79 48 80 49 81 50 82 73 83 74 84 82 85 75 86
REMARK SMILES IDX 81 87 76 88 77 89 78 90 79 91 80 92 59 93 60 94 68 95 61 96
REMARK SMILES IDX 67 97 62 98 63 99 64 100 65 101 66 102
REMARK H PARENT 27 7 31 39 87 58 57 69
REMARK Flexibility Score: inf
ROOT
ATOM      1  C   UNL A   1      35.551  29.546  27.617  1.00  0.00     0.118 C 
ENDROOT
BRANCH   1   2
ATOM      2  C   UNL A   1      34.404  30.122  26.804  1.00  0.00     0.042 C 
BRANCH   2   3
ATOM      3  C   UNL A   1      33.182  30.503  27.620  1.00  0.00     0.118 C 
BRANCH   3   4
ATOM      4  N   UNL A   1      32.653  31.824  27.303  1.00  0.00    -0.352 N 
ATOM      5  C   UNL A   1      33.058  33.086  27.662  1.00  0.00     0.251 C 
ATOM      6  O   UNL A   1      32.390  34.050  27.292  1.00  0.00    -0.269 OA
ATOM      7  H   UNL A   1      31.856  31.808  26.724  1.00  0.00     0.163 HD
BRANCH   5   8
ATOM      8  C   UNL A   1      34.239  33.313  28.527  1.00  0.00     0.039 A 
ATOM      9  C   UNL A   1      36.381  33.500  30.341  1.00  0.00     0.052 A 
ATOM     10  C   UNL A   1      35.078  33.815  30.745  1.00  0.00     0.027 A 
ATOM     11  C   UNL A   1      36.611  33.201  28.992  1.00  0.00     0.027 A 
ATOM     12  C   UNL A   1      34.015  33.732  29.842  1.00  0.00     0.016 A 
ATOM     13  C   UNL A   1      35.549  33.131  28.087  1.00  0.00     0.016 A 
BRANCH   9  14
ATOM     14  N   UNL A   1      37.438  33.431  31.274  1.00  0.00    -0.250 N 
ATOM     15  C   UNL A   1      38.354  31.963  35.445  1.00  0.00     0.022 C 
ATOM     16  C   UNL A   1      39.336  32.531  34.422  1.00  0.00     0.030 C 
ATOM     17  C   UNL A   1      40.449  31.554  33.959  1.00  0.00    -0.033 A 
ATOM     18  C   UNL A   1      40.123  33.798  34.895  1.00  0.00    -0.033 A 
ATOM     19  C   UNL A   1      38.607  33.165  33.215  1.00  0.00     0.108 C 
ATOM     20  C   UNL A   1      40.627  30.245  34.394  1.00  0.00     0.005 A 
ATOM     21  C   UNL A   1      41.388  32.123  33.030  1.00  0.00    -0.033 A 
ATOM     22  C   UNL A   1      40.932  34.383  33.860  1.00  0.00    -0.033 A 
ATOM     23  C   UNL A   1      40.048  34.388  36.154  1.00  0.00     0.005 A 
ATOM     24  C   UNL A   1      39.573  33.233  32.033  1.00  0.00     0.108 C 
ATOM     25  C   UNL A   1      37.363  32.748  32.499  1.00  0.00     0.238 C 
ATOM     26  C   UNL A   1      41.720  29.510  33.922  1.00  0.00     0.000 A 
ATOM     27  C   UNL A   1      42.481  31.386  32.581  1.00  0.00     0.005 A 
ATOM     28  C   UNL A   1      40.992  33.555  32.552  1.00  0.00     0.030 C 
ATOM     29  C   UNL A   1      41.633  35.557  34.116  1.00  0.00     0.005 A 
ATOM     30  C   UNL A   1      40.765  35.560  36.390  1.00  0.00     0.000 A 
ATOM     31  C   UNL A   1      38.716  33.963  31.056  1.00  0.00     0.238 C 
ATOM     32  O   UNL A   1      36.474  32.059  32.961  1.00  0.00    -0.274 OA
ATOM     33  C   UNL A   1      42.640  30.077  33.033  1.00  0.00     0.000 A 
ATOM     34  C   UNL A   1      41.882  34.130  31.451  1.00  0.00     0.022 C 
ATOM     35  C   UNL A   1      41.544  36.141  35.381  1.00  0.00     0.000 A 
ATOM     36  O   UNL A   1      39.100  34.758  30.215  1.00  0.00    -0.274 OA
ENDBRANCH   9  14
ENDBRANCH   5   8
ENDBRANCH   3   4
ENDBRANCH   2   3
ENDBRANCH   1   2
BRANCH   1  37
ATOM     37  N   UNL A   1      35.392  29.728  29.058  1.00  0.00    -0.352 N 
ATOM     38  C   UNL A   1      36.318  29.737  30.077  1.00  0.00     0.251 C 
ATOM     39  H   UNL A   1      34.461  29.867  29.350  1.00  0.00     0.163 HD
ATOM     40  O   UNL A   1      35.934  29.755  31.244  1.00  0.00    -0.269 OA
BRANCH  38  41
ATOM     41  C   UNL A   1      37.765  29.675  29.775  1.00  0.00     0.039 A 
ATOM     42  C   UNL A   1      38.217  29.732  28.461  1.00  0.00     0.014 A 
ATOM     43  C   UNL A   1      38.684  29.523  30.819  1.00  0.00     0.014 A 
ATOM     44  C   UNL A   1      39.526  29.373  28.170  1.00  0.00     0.010 A 
ATOM     45  C   UNL A   1      40.035  29.305  30.527  1.00  0.00     0.010 A 
ATOM     46  C   UNL A   1      40.457  29.154  29.197  1.00  0.00    -0.014 A 
BRANCH  46  47
ATOM     47  C   UNL A   1      41.853  28.772  28.849  1.00  0.00     0.031 A 
ATOM     48  C   UNL A   1      42.176  27.380  28.370  1.00  0.00     0.074 A 
ATOM     49  C   UNL A   1      42.822  29.709  28.895  1.00  0.00     0.049 A 
ATOM     50  N   UNL A   1      43.334  26.884  28.013  1.00  0.00    -0.248 NA
ATOM     51  C   UNL A   1      41.066  26.415  28.280  1.00  0.00     0.031 C 
ATOM     52  C   UNL A   1      42.623  31.101  29.311  1.00  0.00     0.029 A 
ATOM     53  N   UNL A   1      44.151  29.654  28.559  1.00  0.00    -0.354 N 
ATOM     54  C   UNL A   1      43.096  25.556  27.673  1.00  0.00     0.074 A 
ATOM     55  C   UNL A   1      41.692  25.308  27.907  1.00  0.00     0.031 C 
ATOM     56  C   UNL A   1      43.763  31.780  29.133  1.00  0.00     0.029 A 
ATOM     57  C   UNL A   1      44.802  30.858  28.690  1.00  0.00     0.049 A 
ATOM     58  H   UNL A   1      44.596  28.830  28.255  1.00  0.00     0.167 HD
ATOM     59  C   UNL A   1      43.966  24.637  27.190  1.00  0.00     0.031 A 
ATOM     60  C   UNL A   1      46.094  31.194  28.497  1.00  0.00     0.031 A 
ATOM     61  C   UNL A   1      45.361  24.903  26.946  1.00  0.00     0.049 A 
ATOM     62  C   UNL A   1      47.053  30.141  28.026  1.00  0.00     0.074 A 
ATOM     63  C   UNL A   1      46.322  24.038  26.452  1.00  0.00     0.029 A 
ATOM     64  N   UNL A   1      45.994  26.120  27.161  1.00  0.00    -0.354 N 
ATOM     65  N   UNL A   1      46.807  28.890  27.715  1.00  0.00    -0.248 NA
ATOM     66  C   UNL A   1      48.459  30.537  27.876  1.00  0.00     0.031 C 
ATOM     67  C   UNL A   1      47.547  24.705  26.445  1.00  0.00     0.029 A 
ATOM     68  C   UNL A   1      47.338  26.016  26.842  1.00  0.00     0.049 A 
ATOM     69  H   UNL A   1      45.553  26.936  27.492  1.00  0.00     0.167 HD
ATOM     70  C   UNL A   1      48.026  28.352  27.321  1.00  0.00     0.074 A 
ATOM     71  C   UNL A   1      49.002  29.419  27.408  1.00  0.00     0.031 C 
ATOM     72  C   UNL A   1      48.306  27.085  26.929  1.00  0.00     0.031 A 
BRANCH  59  73
ATOM     73  C   UNL A   1      43.453  23.251  26.880  1.00  0.00    -0.014 A 
ATOM     74  C   UNL A   1      42.907  22.459  27.908  1.00  0.00     0.010 A 
ATOM     75  C   UNL A   1      43.627  22.681  25.606  1.00  0.00     0.010 A 
ATOM     76  C   UNL A   1      42.586  21.116  27.681  1.00  0.00     0.020 A 
ATOM     77  C   UNL A   1      43.274  21.349  25.364  1.00  0.00     0.020 A 
ATOM     78  C   UNL A   1      42.780  20.569  26.412  1.00  0.00     0.054 A 
BRANCH  78  79
ATOM     79  S   UNL A   1      42.394  18.815  26.146  1.00  0.00     0.124 S 
ATOM     80  O   UNL A   1      43.361  18.438  25.121  1.00  0.00    -0.237 OA
ATOM     81  O   UNL A   1      42.616  18.237  27.469  1.00  0.00    -0.237 OA
ATOM     82  O   UNL A   1      40.998  18.833  25.712  1.00  0.00    -0.744 OA
ENDBRANCH  78  79
ENDBRANCH  59  73
BRANCH  60  83
ATOM     83  C   UNL A   1      46.516  32.602  28.743  1.00  0.00    -0.014 A 
ATOM     84  C   UNL A   1      46.516  33.538  27.689  1.00  0.00     0.010 A 
ATOM     85  C   UNL A   1      47.037  32.983  29.991  1.00  0.00     0.010 A 
ATOM     86  C   UNL A   1      47.108  34.792  27.850  1.00  0.00     0.020 A 
ATOM     87  C   UNL A   1      47.594  34.255  30.168  1.00  0.00     0.020 A 
ATOM     88  C   UNL A   1      47.661  35.135  29.086  1.00  0.00     0.054 A 
BRANCH  88  89
ATOM     89  S   UNL A   1      48.506  36.732  29.241  1.00  0.00     0.124 S 
ATOM     90  O   UNL A   1      48.414  36.980  30.678  1.00  0.00    -0.237 OA
ATOM     91  O   UNL A   1      49.844  36.434  28.738  1.00  0.00    -0.237 OA
ATOM     92  O   UNL A   1      47.711  37.624  28.401  1.00  0.00    -0.744 OA
ENDBRANCH  88  89
ENDBRANCH  60  83
BRANCH  72  93
ATOM     93  C   UNL A   1      49.729  26.748  26.559  1.00  0.00    -0.014 A 
ATOM     94  C   UNL A   1      50.132  26.814  25.212  1.00  0.00     0.010 A 
ATOM     95  C   UNL A   1      50.617  26.225  27.514  1.00  0.00     0.010 A 
ATOM     96  C   UNL A   1      51.374  26.310  24.817  1.00  0.00     0.020 A 
ATOM     97  C   UNL A   1      51.877  25.755  27.129  1.00  0.00     0.020 A 
ATOM     98  C   UNL A   1      52.233  25.771  25.778  1.00  0.00     0.054 A 
BRANCH  98  99
ATOM     99  S   UNL A   1      53.813  25.065  25.236  1.00  0.00     0.124 S 
ATOM    100  O   UNL A   1      53.519  23.635  25.215  1.00  0.00    -0.237 OA
ATOM    101  O   UNL A   1      54.009  25.687  23.928  1.00  0.00    -0.237 OA
ATOM    102  O   UNL A   1      54.753  25.493  26.269  1.00  0.00    -0.744 OA
ENDBRANCH  98  99
ENDBRANCH  72  93
ENDBRANCH  46  47
ENDBRANCH  38  41
ENDBRANCH   1  37
TORSDOF 14
ENDMDL
MODEL 3
REMARK VINA RESULT:      -9.7      3.468      9.435
REMARK SMILES C[C@]12c3ccccc3[C@](C)(c3ccccc31)[C@@H]1C(=O)N(c3ccc(C(=O)NCCCNC(=O)c4ccc(-c5c6nc(c(-c7ccc(S(=O)(=O)[O-])cc7)c7ccc([nH]7)c(-c7ccc(S(=O)(=O)[O-])cc7)c7nc(c(-c8ccc(S(=O)(=O)[O-])cc8)c8ccc5[nH]8)C=C7)C=C6)cc4)cc3)C(=O)[C@H]12
REMARK SMILES IDX 30 1 29 2 28 3 27 4 25 5 26 6 24 8 21 9 22 10 95 11 23 12
REMARK SMILES IDX 94 13 20 14 1 15 2 16 16 17 3 18 98 19 15 20 11 21 8 22 4 23
REMARK SMILES IDX 17 24 96 25 14 26 12 27 9 28 7 29 5 30 18 31 97 32 13 33
REMARK SMILES IDX 10 34 6 35 19 36 31 37 32 38 33 40 34 41 35 42 93 43 36 44
REMARK SMILES IDX 92 45 37 46 38 47 39 48 86 49 40 50 91 51 85 52 87 53 41 54
REMARK SMILES IDX 90 55 84 56 83 57 42 59 72 60 53 61 71 62 54 63 57 64 70 65
REMARK SMILES IDX 88 66 55 67 56 68 69 70 89 71 58 72 43 73 44 74 52 75 45 76
REMARK SMILES IDX 51 77 46 78 47 79 48 80 49 81 50 82 73 83 74 84 82 85 75 86
REMARK SMILES IDX 81 87 76 88 77 89 78 90 79 91 80 92 59 93 60 94 68 95 61 96
REMARK SMILES IDX 67 97 62 98 63 99 64 100 65 101 66 102
REMARK H PARENT 27 7 31 39 87 58 57 69
REMARK Flexibility Score: inf
ROOT
ATOM      1  C   UNL A   1      35.387  29.614  27.408  1.00  0.00     0.118 C 
ENDROOT
BRANCH   1   2
ATOM      2  C   UNL A   1      34.157  30.162  26.703  1.00  0.00     0.042 C 
BRANCH   2   3
ATOM      3  C   UNL A   1      33.035  30.588  27.634  1.00  0.00     0.118 C 
BRANCH   3   4
ATOM      4  N   UNL A   1      32.518  31.922  27.356  1.00  0.00    -0.352 N 
ATOM      5  C   UNL A   1      32.972  33.172  27.697  1.00  0.00     0.251 C 
ATOM      6  O   UNL A   1      32.304  34.153  27.373  1.00  0.00    -0.269 OA
ATOM      7  H   UNL A   1      31.687  31.927  26.827  1.00  0.00     0.163 HD
BRANCH   5   8
ATOM      8  C   UNL A   1      34.209  33.368  28.489  1.00  0.00     0.039 A 
ATOM      9  C   UNL A   1      36.466  33.490  30.163  1.00  0.00     0.052 A 
ATOM     10  C   UNL A   1      35.194  33.793  30.662  1.00  0.00     0.027 A 
ATOM     11  C   UNL A   1      36.605  33.236  28.792  1.00  0.00     0.027 A 
ATOM     12  C   UNL A   1      34.073  33.743  29.829  1.00  0.00     0.016 A 
ATOM     13  C   UNL A   1      35.486  33.198  27.957  1.00  0.00     0.016 A 
BRANCH   9  14
ATOM     14  N   UNL A   1      37.582  33.387  31.021  1.00  0.00    -0.250 N 
ATOM     15  C   UNL A   1      38.758  31.802  35.083  1.00  0.00     0.022 C 
ATOM     16  C   UNL A   1      39.676  32.388  34.011  1.00  0.00     0.030 C 
ATOM     17  C   UNL A   1      40.745  31.415  33.450  1.00  0.00    -0.033 A 
ATOM     18  C   UNL A   1      40.505  33.635  34.464  1.00  0.00    -0.033 A 
ATOM     19  C   UNL A   1      38.874  33.060  32.872  1.00  0.00     0.108 C 
ATOM     20  C   UNL A   1      40.939  30.093  33.839  1.00  0.00     0.005 A 
ATOM     21  C   UNL A   1      41.626  32.001  32.476  1.00  0.00    -0.033 A 
ATOM     22  C   UNL A   1      41.249  34.241  33.392  1.00  0.00    -0.033 A 
ATOM     23  C   UNL A   1      40.519  34.192  35.739  1.00  0.00     0.005 A 
ATOM     24  C   UNL A   1      39.760  33.151  31.631  1.00  0.00     0.108 C 
ATOM     25  C   UNL A   1      37.581  32.673  32.231  1.00  0.00     0.238 C 
ATOM     26  C   UNL A   1      41.990  29.362  33.275  1.00  0.00     0.000 A 
ATOM     27  C   UNL A   1      42.679  31.266  31.936  1.00  0.00     0.005 A 
ATOM     28  C   UNL A   1      41.214  33.448  32.062  1.00  0.00     0.030 C 
ATOM     29  C   UNL A   1      41.978  35.402  33.631  1.00  0.00     0.005 A 
ATOM     30  C   UNL A   1      41.262  35.352  35.958  1.00  0.00     0.000 A 
ATOM     31  C   UNL A   1      38.848  33.914  30.733  1.00  0.00     0.238 C 
ATOM     32  O   UNL A   1      36.718  31.978  32.732  1.00  0.00    -0.274 OA
ATOM     33  C   UNL A   1      42.855  29.945  32.342  1.00  0.00     0.000 A 
ATOM     34  C   UNL A   1      42.034  34.045  30.919  1.00  0.00     0.022 C 
ATOM     35  C   UNL A   1      41.978  35.954  34.914  1.00  0.00     0.000 A 
ATOM     36  O   UNL A   1      39.183  34.728  29.888  1.00  0.00    -0.274 OA
ENDBRANCH   9  14
ENDBRANCH   5   8
ENDBRANCH   3   4
ENDBRANCH   2   3
ENDBRANCH   1   2
BRANCH   1  37
ATOM     37  N   UNL A   1      35.337  29.757  28.861  1.00  0.00    -0.352 N 
ATOM     38  C   UNL A   1      36.336  29.730  29.808  1.00  0.00     0.251 C 
ATOM     39  H   UNL A   1      34.432  29.895  29.226  1.00  0.00     0.163 HD
ATOM     40  O   UNL A   1      36.040  29.718  31.001  1.00  0.00    -0.269 OA
BRANCH  38  41
ATOM     41  C   UNL A   1      37.757  29.665  29.397  1.00  0.00     0.039 A 
ATOM     42  C   UNL A   1      38.106  29.688  28.051  1.00  0.00     0.014 A 
ATOM     43  C   UNL A   1      38.754  29.544  30.371  1.00  0.00     0.014 A 
ATOM     44  C   UNL A   1      39.390  29.326  27.670  1.00  0.00     0.010 A 
ATOM     45  C   UNL A   1      40.080  29.324  29.982  1.00  0.00     0.010 A 
ATOM     46  C   UNL A   1      40.399  29.139  28.628  1.00  0.00    -0.014 A 
BRANCH  46  47
ATOM     47  C   UNL A   1      41.766  28.752  28.183  1.00  0.00     0.031 A 
ATOM     48  C   UNL A   1      42.896  29.750  28.204  1.00  0.00     0.074 A 
ATOM     49  C   UNL A   1      42.004  27.473  27.828  1.00  0.00     0.049 A 
ATOM     50  N   UNL A   1      44.148  29.576  27.863  1.00  0.00    -0.248 NA
ATOM     51  C   UNL A   1      42.590  31.116  28.660  1.00  0.00     0.031 C 
ATOM     52  C   UNL A   1      40.997  26.409  27.801  1.00  0.00     0.029 A 
ATOM     53  N   UNL A   1      43.163  26.837  27.460  1.00  0.00    -0.354 N 
ATOM     54  C   UNL A   1      44.771  30.806  28.049  1.00  0.00     0.074 A 
ATOM     55  C   UNL A   1      43.752  31.731  28.490  1.00  0.00     0.031 C 
ATOM     56  C   UNL A   1      41.593  25.245  27.511  1.00  0.00     0.029 A 
ATOM     57  C   UNL A   1      43.003  25.491  27.231  1.00  0.00     0.049 A 
ATOM     58  H   UNL A   1      44.027  27.301  27.366  1.00  0.00     0.167 HD
ATOM     59  C   UNL A   1      46.077  31.127  27.885  1.00  0.00     0.031 A 
ATOM     60  C   UNL A   1      43.878  24.549  26.824  1.00  0.00     0.031 A 
ATOM     61  C   UNL A   1      47.086  30.190  27.460  1.00  0.00     0.049 A 
ATOM     62  C   UNL A   1      45.306  24.943  26.584  1.00  0.00     0.074 A 
ATOM     63  C   UNL A   1      48.438  30.418  27.270  1.00  0.00     0.029 A 
ATOM     64  N   UNL A   1      46.864  28.851  27.170  1.00  0.00    -0.354 N 
ATOM     65  N   UNL A   1      45.872  26.114  26.761  1.00  0.00    -0.248 NA
ATOM     66  C   UNL A   1      46.214  23.899  26.094  1.00  0.00     0.031 C 
ATOM     67  C   UNL A   1      49.016  29.243  26.791  1.00  0.00     0.029 A 
ATOM     68  C   UNL A   1      48.048  28.251  26.771  1.00  0.00     0.049 A 
ATOM     69  H   UNL A   1      45.995  28.394  27.238  1.00  0.00     0.167 HD
ATOM     70  C   UNL A   1      47.207  25.944  26.415  1.00  0.00     0.074 A 
ATOM     71  C   UNL A   1      47.369  24.553  26.044  1.00  0.00     0.031 C 
ATOM     72  C   UNL A   1      48.203  26.863  26.404  1.00  0.00     0.031 A 
BRANCH  59  73
ATOM     73  C   UNL A   1      46.514  32.544  28.169  1.00  0.00    -0.014 A 
ATOM     74  C   UNL A   1      46.396  33.528  27.169  1.00  0.00     0.010 A 
ATOM     75  C   UNL A   1      47.158  32.877  29.375  1.00  0.00     0.010 A 
ATOM     76  C   UNL A   1      46.949  34.800  27.350  1.00  0.00     0.020 A 
ATOM     77  C   UNL A   1      47.682  34.159  29.574  1.00  0.00     0.020 A 
ATOM     78  C   UNL A   1      47.597  35.104  28.549  1.00  0.00     0.054 A 
BRANCH  78  79
ATOM     79  S   UNL A   1      48.342  36.746  28.750  1.00  0.00     0.124 S 
ATOM     80  O   UNL A   1      49.697  36.534  28.251  1.00  0.00    -0.237 OA
ATOM     81  O   UNL A   1      47.486  37.588  27.918  1.00  0.00    -0.237 OA
ATOM     82  O   UNL A   1      48.237  36.996  30.187  1.00  0.00    -0.744 OA
ENDBRANCH  78  79
ENDBRANCH  59  73
BRANCH  60  83
ATOM     83  C   UNL A   1      43.398  23.150  26.642  1.00  0.00    -0.014 A 
ATOM     84  C   UNL A   1      42.965  22.399  27.753  1.00  0.00     0.010 A 
ATOM     85  C   UNL A   1      43.489  22.520  25.389  1.00  0.00     0.010 A 
ATOM     86  C   UNL A   1      42.719  21.029  27.635  1.00  0.00     0.020 A 
ATOM     87  C   UNL A   1      43.203  21.156  25.258  1.00  0.00     0.020 A 
ATOM     88  C   UNL A   1      42.859  20.413  26.389  1.00  0.00     0.054 A 
BRANCH  88  89
ATOM     89  S   UNL A   1      42.625  18.618  26.281  1.00  0.00     0.124 S 
ATOM     90  O   UNL A   1      42.827  18.207  27.668  1.00  0.00    -0.237 OA
ATOM     91  O   UNL A   1      41.257  18.505  25.783  1.00  0.00    -0.237 OA
ATOM     92  O   UNL A   1      43.663  18.193  25.346  1.00  0.00    -0.744 OA
ENDBRANCH  88  89
ENDBRANCH  60  83
BRANCH  72  93
ATOM     93  C   UNL A   1      49.579  26.421  25.972  1.00  0.00    -0.014 A 
ATOM     94  C   UNL A   1      50.458  25.856  26.916  1.00  0.00     0.010 A 
ATOM     95  C   UNL A   1      50.054  26.703  24.679  1.00  0.00     0.010 A 
ATOM     96  C   UNL A   1      51.799  25.633  26.594  1.00  0.00     0.020 A 
ATOM     97  C   UNL A   1      51.386  26.446  24.341  1.00  0.00     0.020 A 
ATOM     98  C   UNL A   1      52.257  25.943  25.311  1.00  0.00     0.054 A 
BRANCH  98  99
ATOM     99  S   UNL A   1      54.015  25.707  24.933  1.00  0.00     0.124 S 
ATOM    100  O   UNL A   1      54.104  26.203  23.563  1.00  0.00    -0.237 OA
ATOM    101  O   UNL A   1      54.672  26.531  25.946  1.00  0.00    -0.237 OA
ATOM    102  O   UNL A   1      54.210  24.268  25.090  1.00  0.00    -0.744 OA
ENDBRANCH  98  99
ENDBRANCH  72  93
ENDBRANCH  46  47
ENDBRANCH  38  41
ENDBRANCH   1  37
TORSDOF 14
ENDMDL
