MODEL 1
REMARK VINA RESULT:     -13.1      0.000      0.000
REMARK SMILES Cc1ccc(C[C@@H](Cc2cc(F)cc(Br)c2)C(=O)NCCCNC(=O)c2ccc(-c3c4nc(c(-c5ccc(S(=O)(=O)[O-])cc5)c5ccc([nH]5)c(-c5ccc(S(=O)(=O)[O-])cc5)c5nc(c(-c6ccc(S(=O)(=O)[O-])cc6)c6ccc3[nH]6)C=C5)C=C4)cc2)cc1
REMARK SMILES IDX 21 1 20 2 19 3 17 4 18 5 7 7 6 8 5 9 1 10 2 11 3 12 87 13
REMARK SMILES IDX 4 14 86 15 8 16 9 17 10 18 16 19 11 20 14 21 12 22 13 23
REMARK SMILES IDX 15 24 22 25 23 26 24 27 25 29 26 30 27 31 85 32 28 33 84 34
REMARK SMILES IDX 29 35 30 36 31 37 78 38 32 39 83 40 77 41 79 42 33 43 82 44
REMARK SMILES IDX 76 45 75 46 34 48 64 49 45 50 63 51 46 52 49 53 62 54 80 55
REMARK SMILES IDX 47 56 48 57 61 59 81 60 50 61 35 62 36 63 44 64 37 65 43 66
REMARK SMILES IDX 38 67 39 68 40 69 41 70 42 71 65 72 66 73 74 74 67 75 73 76
REMARK SMILES IDX 68 77 69 78 70 79 71 80 72 81 51 82 52 83 60 84 53 85 59 86
REMARK SMILES IDX 54 87 55 88 56 89 57 90 58 91
REMARK H PARENT 19 6 23 28 79 47 49 58
REMARK Flexibility Score: inf
ROOT
ATOM      1  C   UNL A   1      36.975  22.288  25.757  1.00  0.00     0.042 C 
ENDROOT
BRANCH   1   2
ATOM      2  C   UNL A   1      35.974  22.662  24.673  1.00  0.00     0.117 C 
BRANCH   2   3
ATOM      3  N   UNL A   1      34.729  21.904  24.785  1.00  0.00    -0.356 N 
ATOM      4  C   UNL A   1      33.432  22.302  24.656  1.00  0.00     0.223 C 
ATOM      5  O   UNL A   1      32.543  21.452  24.747  1.00  0.00    -0.275 OA
ATOM      6  H   UNL A   1      34.847  20.948  24.987  1.00  0.00     0.163 HD
BRANCH   4   7
ATOM      7  C   UNL A   1      33.055  23.765  24.430  1.00  0.00     0.087 C 
BRANCH   7   8
ATOM      8  C   UNL A   1      31.595  23.772  23.921  1.00  0.00     0.049 C 
BRANCH   8   9
ATOM      9  C   UNL A   1      30.948  25.070  23.505  1.00  0.00    -0.047 A 
ATOM     10  C   UNL A   1      29.562  29.054  22.579  1.00  0.00     0.044 C 
ATOM     11  C   UNL A   1      30.019  27.664  22.902  1.00  0.00    -0.051 A 
ATOM     12  C   UNL A   1      30.942  27.029  22.066  1.00  0.00     0.004 A 
ATOM     13  C   UNL A   1      29.539  26.980  24.024  1.00  0.00     0.004 A 
ATOM     14  C   UNL A   1      31.412  25.753  22.374  1.00  0.00     0.004 A 
ATOM     15  C   UNL A   1      29.996  25.691  24.321  1.00  0.00     0.004 A 
ENDBRANCH   8   9
ENDBRANCH   7   8
BRANCH   7  16
ATOM     16  C   UNL A   1      33.395  24.749  25.582  1.00  0.00     0.049 C 
BRANCH  16  17
ATOM     17  C   UNL A   1      33.419  26.252  25.365  1.00  0.00    -0.043 A 
ATOM     18  C   UNL A   1      34.020  26.756  24.198  1.00  0.00     0.043 A 
ATOM     19  C   UNL A   1      32.852  27.173  26.259  1.00  0.00     0.019 A 
ATOM     20  C   UNL A   1      33.967  28.115  23.899  1.00  0.00     0.124 A 
ATOM     21  C   UNL A   1      32.772  28.531  25.923  1.00  0.00     0.021 A 
ATOM     22  F   UNL A   1      34.546  28.559  22.776  1.00  0.00    -0.207 F 
ATOM     23  C   UNL A   1      33.323  29.008  24.739  1.00  0.00     0.055 A 
ATOM     24  Br  UNL A   1      31.868  29.729  27.074  1.00  0.00    -0.051 Br
ENDBRANCH  16  17
ENDBRANCH   7  16
ENDBRANCH   4   7
ENDBRANCH   2   3
ENDBRANCH   1   2
BRANCH   1  25
ATOM     25  C   UNL A   1      37.981  23.388  25.998  1.00  0.00     0.118 C 
BRANCH  25  26
ATOM     26  N   UNL A   1      39.077  23.013  26.898  1.00  0.00    -0.352 N 
ATOM     27  C   UNL A   1      40.115  23.858  27.226  1.00  0.00     0.251 C 
ATOM     28  H   UNL A   1      39.070  22.109  27.288  1.00  0.00     0.163 HD
ATOM     29  O   UNL A   1      41.258  23.542  27.312  1.00  0.00    -0.269 OA
BRANCH  27  30
ATOM     30  C   UNL A   1      39.669  25.232  27.604  1.00  0.00     0.039 A 
ATOM     31  C   UNL A   1      40.142  26.310  26.845  1.00  0.00     0.014 A 
ATOM     32  C   UNL A   1      39.068  25.431  28.849  1.00  0.00     0.014 A 
ATOM     33  C   UNL A   1      40.143  27.582  27.405  1.00  0.00     0.010 A 
ATOM     34  C   UNL A   1      39.182  26.670  29.439  1.00  0.00     0.010 A 
ATOM     35  C   UNL A   1      39.744  27.742  28.732  1.00  0.00    -0.014 A 
BRANCH  35  36
ATOM     36  C   UNL A   1      39.920  28.976  29.491  1.00  0.00     0.031 A 
ATOM     37  C   UNL A   1      38.871  30.022  29.442  1.00  0.00     0.074 A 
ATOM     38  C   UNL A   1      40.998  29.152  30.288  1.00  0.00     0.049 A 
ATOM     39  N   UNL A   1      39.090  31.281  29.633  1.00  0.00    -0.248 NA
ATOM     40  C   UNL A   1      37.477  29.725  29.121  1.00  0.00     0.031 C 
ATOM     41  C   UNL A   1      41.167  30.190  31.304  1.00  0.00     0.029 A 
ATOM     42  N   UNL A   1      42.258  28.559  30.203  1.00  0.00    -0.354 N 
ATOM     43  C   UNL A   1      37.864  31.898  29.751  1.00  0.00     0.074 A 
ATOM     44  C   UNL A   1      36.896  30.905  29.351  1.00  0.00     0.031 C 
ATOM     45  C   UNL A   1      42.479  30.371  31.516  1.00  0.00     0.029 A 
ATOM     46  C   UNL A   1      43.190  29.551  30.550  1.00  0.00     0.049 A 
ATOM     47  H   UNL A   1      42.455  27.628  29.950  1.00  0.00     0.167 HD
ATOM     48  C   UNL A   1      37.769  33.134  30.315  1.00  0.00     0.031 A 
ATOM     49  C   UNL A   1      44.196  29.983  29.736  1.00  0.00     0.031 A 
ATOM     50  C   UNL A   1      39.074  33.664  30.694  1.00  0.00     0.049 A 
ATOM     51  C   UNL A   1      44.142  31.475  29.479  1.00  0.00     0.074 A 
ATOM     52  C   UNL A   1      39.748  33.712  31.903  1.00  0.00     0.029 A 
ATOM     53  N   UNL A   1      40.002  33.980  29.709  1.00  0.00    -0.354 N 
ATOM     54  N   UNL A   1      43.095  32.215  29.712  1.00  0.00    -0.248 NA
ATOM     55  C   UNL A   1      45.242  32.237  28.894  1.00  0.00     0.031 C 
ATOM     56  C   UNL A   1      41.109  34.002  31.634  1.00  0.00     0.029 A 
ATOM     57  C   UNL A   1      41.254  34.153  30.266  1.00  0.00     0.049 A 
ATOM     58  H   UNL A   1      39.796  34.068  28.751  1.00  0.00     0.167 HD
ATOM     59  C   UNL A   1      43.345  33.506  29.321  1.00  0.00     0.074 A 
ATOM     60  C   UNL A   1      44.708  33.470  28.825  1.00  0.00     0.031 C 
ATOM     61  C   UNL A   1      42.400  34.487  29.431  1.00  0.00     0.031 A 
BRANCH  48  62
ATOM     62  C   UNL A   1      36.458  33.712  30.798  1.00  0.00    -0.014 A 
ATOM     63  C   UNL A   1      35.454  34.038  29.864  1.00  0.00     0.010 A 
ATOM     64  C   UNL A   1      36.175  34.003  32.146  1.00  0.00     0.010 A 
ATOM     65  C   UNL A   1      34.285  34.716  30.233  1.00  0.00     0.020 A 
ATOM     66  C   UNL A   1      35.026  34.717  32.527  1.00  0.00     0.020 A 
ATOM     67  C   UNL A   1      34.093  35.081  31.563  1.00  0.00     0.054 A 
BRANCH  67  68
ATOM     68  S   UNL A   1      32.622  36.044  32.005  1.00  0.00     0.124 S 
ATOM     69  O   UNL A   1      33.134  36.953  33.027  1.00  0.00    -0.237 OA
ATOM     70  O   UNL A   1      32.260  36.664  30.735  1.00  0.00    -0.237 OA
ATOM     71  O   UNL A   1      31.683  35.035  32.495  1.00  0.00    -0.744 OA
ENDBRANCH  67  68
ENDBRANCH  48  62
BRANCH  49  72
ATOM     72  C   UNL A   1      44.681  28.968  28.761  1.00  0.00    -0.014 A 
ATOM     73  C   UNL A   1      44.002  28.878  27.527  1.00  0.00     0.010 A 
ATOM     74  C   UNL A   1      45.993  28.473  28.856  1.00  0.00     0.010 A 
ATOM     75  C   UNL A   1      44.684  28.491  26.370  1.00  0.00     0.020 A 
ATOM     76  C   UNL A   1      46.676  28.081  27.695  1.00  0.00     0.020 A 
ATOM     77  C   UNL A   1      46.040  28.174  26.454  1.00  0.00     0.054 A 
BRANCH  77  78
ATOM     78  S   UNL A   1      46.995  28.065  24.908  1.00  0.00     0.124 S 
ATOM     79  O   UNL A   1      46.534  29.235  24.170  1.00  0.00    -0.237 OA
ATOM     80  O   UNL A   1      48.379  28.123  25.387  1.00  0.00    -0.237 OA
ATOM     81  O   UNL A   1      46.592  26.774  24.358  1.00  0.00    -0.744 OA
ENDBRANCH  77  78
ENDBRANCH  49  72
BRANCH  61  82
ATOM     82  C   UNL A   1      42.480  35.884  28.854  1.00  0.00    -0.014 A 
ATOM     83  C   UNL A   1      43.203  36.940  29.429  1.00  0.00     0.010 A 
ATOM     84  C   UNL A   1      41.888  36.133  27.590  1.00  0.00     0.010 A 
ATOM     85  C   UNL A   1      43.278  38.196  28.808  1.00  0.00     0.020 A 
ATOM     86  C   UNL A   1      41.996  37.366  26.940  1.00  0.00     0.020 A 
ATOM     87  C   UNL A   1      42.671  38.403  27.569  1.00  0.00     0.054 A 
BRANCH  87  88
ATOM     88  S   UNL A   1      42.829  40.008  26.746  1.00  0.00     0.124 S 
ATOM     89  O   UNL A   1      43.008  40.911  27.879  1.00  0.00    -0.237 OA
ATOM     90  O   UNL A   1      44.007  39.828  25.899  1.00  0.00    -0.237 OA
ATOM     91  O   UNL A   1      41.568  40.147  26.023  1.00  0.00    -0.744 OA
ENDBRANCH  87  88
ENDBRANCH  61  82
ENDBRANCH  35  36
ENDBRANCH  27  30
ENDBRANCH  25  26
ENDBRANCH   1  25
TORSDOF 17
ENDMDL
MODEL 2
REMARK VINA RESULT:     -12.9      4.981     11.255
REMARK SMILES Cc1ccc(C[C@@H](Cc2cc(F)cc(Br)c2)C(=O)NCCCNC(=O)c2ccc(-c3c4nc(c(-c5ccc(S(=O)(=O)[O-])cc5)c5ccc([nH]5)c(-c5ccc(S(=O)(=O)[O-])cc5)c5nc(c(-c6ccc(S(=O)(=O)[O-])cc6)c6ccc3[nH]6)C=C5)C=C4)cc2)cc1
REMARK SMILES IDX 21 1 20 2 19 3 17 4 18 5 7 7 6 8 5 9 1 10 2 11 3 12 87 13
REMARK SMILES IDX 4 14 86 15 8 16 9 17 10 18 16 19 11 20 14 21 12 22 13 23
REMARK SMILES IDX 15 24 22 25 23 26 24 27 25 29 26 30 27 31 85 32 28 33 84 34
REMARK SMILES IDX 29 35 30 36 31 37 78 38 32 39 83 40 77 41 79 42 33 43 82 44
REMARK SMILES IDX 76 45 75 46 34 48 64 49 45 50 63 51 46 52 49 53 62 54 80 55
REMARK SMILES IDX 47 56 48 57 61 59 81 60 50 61 35 62 36 63 44 64 37 65 43 66
REMARK SMILES IDX 38 67 39 68 40 69 41 70 42 71 65 72 66 73 74 74 67 75 73 76
REMARK SMILES IDX 68 77 69 78 70 79 71 80 72 81 51 82 52 83 60 84 53 85 59 86
REMARK SMILES IDX 54 87 55 88 56 89 57 90 58 91
REMARK H PARENT 19 6 23 28 79 47 49 58
REMARK Flexibility Score: inf
ROOT
ATOM      1  C   UNL A   1      32.987  30.003  26.748  1.00  0.00     0.042 C 
ENDROOT
BRANCH   1   2
ATOM      2  C   UNL A   1      32.421  29.377  25.481  1.00  0.00     0.117 C 
BRANCH   2   3
ATOM      3  N   UNL A   1      31.418  28.353  25.772  1.00  0.00    -0.356 N 
ATOM      4  C   UNL A   1      31.039  27.255  25.060  1.00  0.00     0.223 C 
ATOM      5  O   UNL A   1      30.191  26.502  25.546  1.00  0.00    -0.275 OA
ATOM      6  H   UNL A   1      30.938  28.478  26.622  1.00  0.00     0.163 HD
BRANCH   4   7
ATOM      7  C   UNL A   1      31.612  26.950  23.678  1.00  0.00     0.087 C 
BRANCH   7   8
ATOM      8  C   UNL A   1      31.820  25.420  23.613  1.00  0.00     0.049 C 
BRANCH   8   9
ATOM      9  C   UNL A   1      33.205  24.839  23.760  1.00  0.00    -0.047 A 
ATOM     10  C   UNL A   1      36.900  22.713  24.452  1.00  0.00     0.044 C 
ATOM     11  C   UNL A   1      35.630  23.473  24.214  1.00  0.00    -0.051 A 
ATOM     12  C   UNL A   1      34.854  23.185  23.087  1.00  0.00     0.004 A 
ATOM     13  C   UNL A   1      35.201  24.471  25.095  1.00  0.00     0.004 A 
ATOM     14  C   UNL A   1      33.648  23.850  22.872  1.00  0.00     0.004 A 
ATOM     15  C   UNL A   1      34.000  25.153  24.868  1.00  0.00     0.004 A 
ENDBRANCH   8   9
ENDBRANCH   7   8
BRANCH   7  16
ATOM     16  C   UNL A   1      30.885  27.606  22.472  1.00  0.00     0.049 C 
BRANCH  16  17
ATOM     17  C   UNL A   1      29.690  28.522  22.666  1.00  0.00    -0.043 A 
ATOM     18  C   UNL A   1      28.458  27.955  23.037  1.00  0.00     0.043 A 
ATOM     19  C   UNL A   1      29.749  29.916  22.514  1.00  0.00     0.019 A 
ATOM     20  C   UNL A   1      27.363  28.762  23.337  1.00  0.00     0.124 A 
ATOM     21  C   UNL A   1      28.651  30.715  22.858  1.00  0.00     0.021 A 
ATOM     22  F   UNL A   1      26.207  28.189  23.692  1.00  0.00    -0.207 F 
ATOM     23  C   UNL A   1      27.454  30.143  23.277  1.00  0.00     0.055 A 
ATOM     24  Br  UNL A   1      28.804  32.599  22.791  1.00  0.00    -0.051 Br
ENDBRANCH  16  17
ENDBRANCH   7  16
ENDBRANCH   4   7
ENDBRANCH   2   3
ENDBRANCH   1   2
BRANCH   1  25
ATOM     25  C   UNL A   1      34.478  29.792  26.862  1.00  0.00     0.118 C 
BRANCH  25  26
ATOM     26  N   UNL A   1      35.235  31.008  27.175  1.00  0.00    -0.352 N 
ATOM     27  C   UNL A   1      36.203  31.071  28.153  1.00  0.00     0.251 C 
ATOM     28  H   UNL A   1      35.040  31.824  26.659  1.00  0.00     0.163 HD
ATOM     29  O   UNL A   1      36.354  31.971  28.916  1.00  0.00    -0.269 OA
BRANCH  27  30
ATOM     30  C   UNL A   1      37.171  29.935  28.109  1.00  0.00     0.039 A 
ATOM     31  C   UNL A   1      37.267  29.106  29.233  1.00  0.00     0.014 A 
ATOM     32  C   UNL A   1      38.148  29.916  27.109  1.00  0.00     0.014 A 
ATOM     33  C   UNL A   1      38.422  28.360  29.427  1.00  0.00     0.010 A 
ATOM     34  C   UNL A   1      39.334  29.267  27.368  1.00  0.00     0.010 A 
ATOM     35  C   UNL A   1      39.488  28.510  28.538  1.00  0.00    -0.014 A 
BRANCH  35  36
ATOM     36  C   UNL A   1      40.821  27.961  28.764  1.00  0.00     0.031 A 
ATOM     37  C   UNL A   1      41.120  26.570  28.352  1.00  0.00     0.074 A 
ATOM     38  C   UNL A   1      41.805  28.725  29.290  1.00  0.00     0.049 A 
ATOM     39  N   UNL A   1      42.024  25.827  28.900  1.00  0.00    -0.248 NA
ATOM     40  C   UNL A   1      40.374  25.883  27.300  1.00  0.00     0.031 C 
ATOM     41  C   UNL A   1      43.232  28.409  29.312  1.00  0.00     0.029 A 
ATOM     42  N   UNL A   1      41.700  29.854  30.103  1.00  0.00    -0.354 N 
ATOM     43  C   UNL A   1      42.176  24.712  28.106  1.00  0.00     0.074 A 
ATOM     44  C   UNL A   1      41.079  24.756  27.168  1.00  0.00     0.031 C 
ATOM     45  C   UNL A   1      43.807  29.097  30.310  1.00  0.00     0.029 A 
ATOM     46  C   UNL A   1      42.745  29.771  31.037  1.00  0.00     0.049 A 
ATOM     47  H   UNL A   1      41.025  30.569  30.035  1.00  0.00     0.167 HD
ATOM     48  C   UNL A   1      43.292  23.938  28.216  1.00  0.00     0.031 A 
ATOM     49  C   UNL A   1      42.571  29.736  32.390  1.00  0.00     0.031 A 
ATOM     50  C   UNL A   1      44.192  24.421  29.256  1.00  0.00     0.049 A 
ATOM     51  C   UNL A   1      43.183  28.508  33.029  1.00  0.00     0.074 A 
ATOM     52  C   UNL A   1      45.340  25.196  29.213  1.00  0.00     0.029 A 
ATOM     53  N   UNL A   1      43.798  24.369  30.587  1.00  0.00    -0.354 N 
ATOM     54  N   UNL A   1      43.537  27.443  32.366  1.00  0.00    -0.248 NA
ATOM     55  C   UNL A   1      43.396  28.362  34.467  1.00  0.00     0.031 C 
ATOM     56  C   UNL A   1      45.603  25.661  30.526  1.00  0.00     0.029 A 
ATOM     57  C   UNL A   1      44.630  25.150  31.365  1.00  0.00     0.049 A 
ATOM     58  H   UNL A   1      43.036  23.849  30.927  1.00  0.00     0.167 HD
ATOM     59  C   UNL A   1      44.002  26.489  33.235  1.00  0.00     0.074 A 
ATOM     60  C   UNL A   1      43.904  27.118  34.540  1.00  0.00     0.031 C 
ATOM     61  C   UNL A   1      44.416  25.262  32.802  1.00  0.00     0.031 A 
BRANCH  48  62
ATOM     62  C   UNL A   1      43.694  22.932  27.161  1.00  0.00    -0.014 A 
ATOM     63  C   UNL A   1      42.817  21.877  26.835  1.00  0.00     0.010 A 
ATOM     64  C   UNL A   1      44.935  22.941  26.496  1.00  0.00     0.010 A 
ATOM     65  C   UNL A   1      43.196  20.831  25.982  1.00  0.00     0.020 A 
ATOM     66  C   UNL A   1      45.343  21.881  25.670  1.00  0.00     0.020 A 
ATOM     67  C   UNL A   1      44.473  20.823  25.429  1.00  0.00     0.054 A 
BRANCH  67  68
ATOM     68  S   UNL A   1      44.979  19.413  24.409  1.00  0.00     0.124 S 
ATOM     69  O   UNL A   1      46.436  19.460  24.503  1.00  0.00    -0.237 OA
ATOM     70  O   UNL A   1      44.340  18.291  25.088  1.00  0.00    -0.237 OA
ATOM     71  O   UNL A   1      44.439  19.730  23.087  1.00  0.00    -0.744 OA
ENDBRANCH  67  68
ENDBRANCH  48  62
BRANCH  49  72
ATOM     72  C   UNL A   1      41.341  30.423  32.871  1.00  0.00    -0.014 A 
ATOM     73  C   UNL A   1      40.210  29.621  33.133  1.00  0.00     0.010 A 
ATOM     74  C   UNL A   1      41.433  31.690  33.475  1.00  0.00     0.010 A 
ATOM     75  C   UNL A   1      39.297  29.985  34.127  1.00  0.00     0.020 A 
ATOM     76  C   UNL A   1      40.515  32.057  34.469  1.00  0.00     0.020 A 
ATOM     77  C   UNL A   1      39.506  31.165  34.843  1.00  0.00     0.054 A 
BRANCH  77  78
ATOM     78  S   UNL A   1      38.556  31.421  36.374  1.00  0.00     0.124 S 
ATOM     79  O   UNL A   1      38.239  30.057  36.779  1.00  0.00    -0.237 OA
ATOM     80  O   UNL A   1      39.516  32.127  37.227  1.00  0.00    -0.237 OA
ATOM     81  O   UNL A   1      37.423  32.227  35.933  1.00  0.00    -0.744 OA
ENDBRANCH  77  78
ENDBRANCH  49  72
BRANCH  61  82
ATOM     82  C   UNL A   1      44.752  24.067  33.669  1.00  0.00    -0.014 A 
ATOM     83  C   UNL A   1      44.206  22.786  33.500  1.00  0.00     0.010 A 
ATOM     84  C   UNL A   1      45.770  24.200  34.647  1.00  0.00     0.010 A 
ATOM     85  C   UNL A   1      44.606  21.709  34.306  1.00  0.00     0.020 A 
ATOM     86  C   UNL A   1      46.209  23.124  35.424  1.00  0.00     0.020 A 
ATOM     87  C   UNL A   1      45.602  21.886  35.267  1.00  0.00     0.054 A 
BRANCH  87  88
ATOM     88  S   UNL A   1      46.158  20.475  36.257  1.00  0.00     0.124 S 
ATOM     89  O   UNL A   1      45.332  19.393  35.729  1.00  0.00    -0.237 OA
ATOM     90  O   UNL A   1      47.582  20.388  35.936  1.00  0.00    -0.237 OA
ATOM     91  O   UNL A   1      45.862  20.882  37.628  1.00  0.00    -0.744 OA
ENDBRANCH  87  88
ENDBRANCH  61  82
ENDBRANCH  35  36
ENDBRANCH  27  30
ENDBRANCH  25  26
ENDBRANCH   1  25
TORSDOF 17
ENDMDL
MODEL 3
REMARK VINA RESULT:     -12.8      4.634     10.887
REMARK SMILES Cc1ccc(C[C@@H](Cc2cc(F)cc(Br)c2)C(=O)NCCCNC(=O)c2ccc(-c3c4nc(c(-c5ccc(S(=O)(=O)[O-])cc5)c5ccc([nH]5)c(-c5ccc(S(=O)(=O)[O-])cc5)c5nc(c(-c6ccc(S(=O)(=O)[O-])cc6)c6ccc3[nH]6)C=C5)C=C4)cc2)cc1
REMARK SMILES IDX 21 1 20 2 19 3 17 4 18 5 7 7 6 8 5 9 1 10 2 11 3 12 87 13
REMARK SMILES IDX 4 14 86 15 8 16 9 17 10 18 16 19 11 20 14 21 12 22 13 23
REMARK SMILES IDX 15 24 22 25 23 26 24 27 25 29 26 30 27 31 85 32 28 33 84 34
REMARK SMILES IDX 29 35 30 36 31 37 78 38 32 39 83 40 77 41 79 42 33 43 82 44
REMARK SMILES IDX 76 45 75 46 34 48 64 49 45 50 63 51 46 52 49 53 62 54 80 55
REMARK SMILES IDX 47 56 48 57 61 59 81 60 50 61 35 62 36 63 44 64 37 65 43 66
REMARK SMILES IDX 38 67 39 68 40 69 41 70 42 71 65 72 66 73 74 74 67 75 73 76
REMARK SMILES IDX 68 77 69 78 70 79 71 80 72 81 51 82 52 83 60 84 53 85 59 86
REMARK SMILES IDX 54 87 55 88 56 89 57 90 58 91
REMARK H PARENT 19 6 23 28 79 47 49 58
REMARK Flexibility Score: inf
ROOT
ATOM      1  C   UNL A   1      32.387  30.327  27.015  1.00  0.00     0.042 C 
ENDROOT
BRANCH   1   2
ATOM      2  C   UNL A   1      31.830  29.535  25.840  1.00  0.00     0.117 C 
BRANCH   2   3
ATOM      3  N   UNL A   1      32.647  29.683  24.636  1.00  0.00    -0.356 N 
ATOM      4  C   UNL A   1      33.192  28.745  23.812  1.00  0.00     0.223 C 
ATOM      5  O   UNL A   1      33.810  29.126  22.814  1.00  0.00    -0.275 OA
ATOM      6  H   UNL A   1      32.834  30.615  24.379  1.00  0.00     0.163 HD
BRANCH   4   7
ATOM      7  C   UNL A   1      33.080  27.250  24.104  1.00  0.00     0.087 C 
BRANCH   7   8
ATOM      8  C   UNL A   1      33.119  26.529  22.737  1.00  0.00     0.049 C 
BRANCH   8   9
ATOM      9  C   UNL A   1      32.824  25.051  22.656  1.00  0.00    -0.047 A 
ATOM     10  C   UNL A   1      32.103  20.808  23.010  1.00  0.00     0.044 C 
ATOM     11  C   UNL A   1      32.361  22.277  22.864  1.00  0.00    -0.051 A 
ATOM     12  C   UNL A   1      31.347  23.190  23.167  1.00  0.00     0.004 A 
ATOM     13  C   UNL A   1      33.598  22.760  22.424  1.00  0.00     0.004 A 
ATOM     14  C   UNL A   1      31.582  24.561  23.079  1.00  0.00     0.004 A 
ATOM     15  C   UNL A   1      33.827  24.137  22.316  1.00  0.00     0.004 A 
ENDBRANCH   8   9
ENDBRANCH   7   8
BRANCH   7  16
ATOM     16  C   UNL A   1      34.016  26.694  25.211  1.00  0.00     0.049 C 
BRANCH  16  17
ATOM     17  C   UNL A   1      33.871  25.276  25.738  1.00  0.00    -0.043 A 
ATOM     18  C   UNL A   1      32.668  24.909  26.365  1.00  0.00     0.043 A 
ATOM     19  C   UNL A   1      34.870  24.299  25.615  1.00  0.00     0.019 A 
ATOM     20  C   UNL A   1      32.444  23.593  26.762  1.00  0.00     0.124 A 
ATOM     21  C   UNL A   1      34.613  22.971  25.982  1.00  0.00     0.021 A 
ATOM     22  F   UNL A   1      31.284  23.277  27.352  1.00  0.00    -0.207 F 
ATOM     23  C   UNL A   1      33.397  22.610  26.552  1.00  0.00     0.055 A 
ATOM     24  Br  UNL A   1      35.920  21.641  25.666  1.00  0.00    -0.051 Br
ENDBRANCH  16  17
ENDBRANCH   7  16
ENDBRANCH   4   7
ENDBRANCH   2   3
ENDBRANCH   1   2
BRANCH   1  25
ATOM     25  C   UNL A   1      33.865  30.084  27.206  1.00  0.00     0.118 C 
BRANCH  25  26
ATOM     26  N   UNL A   1      34.643  31.298  27.474  1.00  0.00    -0.352 N 
ATOM     27  C   UNL A   1      35.621  31.378  28.440  1.00  0.00     0.251 C 
ATOM     28  H   UNL A   1      34.455  32.100  26.934  1.00  0.00     0.163 HD
ATOM     29  O   UNL A   1      35.793  32.299  29.172  1.00  0.00    -0.269 OA
BRANCH  27  30
ATOM     30  C   UNL A   1      36.572  30.226  28.423  1.00  0.00     0.039 A 
ATOM     31  C   UNL A   1      36.785  29.529  29.618  1.00  0.00     0.014 A 
ATOM     32  C   UNL A   1      37.433  30.075  27.333  1.00  0.00     0.014 A 
ATOM     33  C   UNL A   1      37.950  28.788  29.771  1.00  0.00     0.010 A 
ATOM     34  C   UNL A   1      38.637  29.438  27.535  1.00  0.00     0.010 A 
ATOM     35  C   UNL A   1      38.913  28.816  28.761  1.00  0.00    -0.014 A 
BRANCH  35  36
ATOM     36  C   UNL A   1      40.259  28.272  28.904  1.00  0.00     0.031 A 
ATOM     37  C   UNL A   1      40.523  26.862  28.532  1.00  0.00     0.074 A 
ATOM     38  C   UNL A   1      41.283  29.054  29.314  1.00  0.00     0.049 A 
ATOM     39  N   UNL A   1      41.467  26.141  29.039  1.00  0.00    -0.248 NA
ATOM     40  C   UNL A   1      39.694  26.132  27.575  1.00  0.00     0.031 C 
ATOM     41  C   UNL A   1      42.707  28.733  29.236  1.00  0.00     0.029 A 
ATOM     42  N   UNL A   1      41.244  30.219  30.082  1.00  0.00    -0.354 N 
ATOM     43  C   UNL A   1      41.555  24.990  28.286  1.00  0.00     0.074 A 
ATOM     44  C   UNL A   1      40.386  24.997  27.439  1.00  0.00     0.031 C 
ATOM     45  C   UNL A   1      43.361  29.462  30.152  1.00  0.00     0.029 A 
ATOM     46  C   UNL A   1      42.361  30.173  30.932  1.00  0.00     0.049 A 
ATOM     47  H   UNL A   1      40.568  30.933  30.036  1.00  0.00     0.167 HD
ATOM     48  C   UNL A   1      42.674  24.217  28.341  1.00  0.00     0.031 A 
ATOM     49  C   UNL A   1      42.296  30.200  32.295  1.00  0.00     0.031 A 
ATOM     50  C   UNL A   1      43.656  24.743  29.282  1.00  0.00     0.049 A 
ATOM     51  C   UNL A   1      42.957  28.998  32.937  1.00  0.00     0.074 A 
ATOM     52  C   UNL A   1      44.798  25.509  29.113  1.00  0.00     0.029 A 
ATOM     53  N   UNL A   1      43.370  24.752  30.642  1.00  0.00    -0.354 N 
ATOM     54  N   UNL A   1      43.256  27.903  32.296  1.00  0.00    -0.248 NA
ATOM     55  C   UNL A   1      43.285  28.917  34.358  1.00  0.00     0.031 C 
ATOM     56  C   UNL A   1      45.166  26.031  30.378  1.00  0.00     0.029 A 
ATOM     57  C   UNL A   1      44.262  25.563  31.315  1.00  0.00     0.049 A 
ATOM     58  H   UNL A   1      42.637  24.251  31.065  1.00  0.00     0.167 HD
ATOM     59  C   UNL A   1      43.788  26.988  33.168  1.00  0.00     0.074 A 
ATOM     60  C   UNL A   1      43.796  27.675  34.446  1.00  0.00     0.031 C 
ATOM     61  C   UNL A   1      44.165  25.740  32.758  1.00  0.00     0.031 A 
BRANCH  48  62
ATOM     62  C   UNL A   1      42.990  23.163  27.304  1.00  0.00    -0.014 A 
ATOM     63  C   UNL A   1      42.382  21.894  27.394  1.00  0.00     0.010 A 
ATOM     64  C   UNL A   1      43.908  23.342  26.252  1.00  0.00     0.010 A 
ATOM     65  C   UNL A   1      42.750  20.831  26.557  1.00  0.00     0.020 A 
ATOM     66  C   UNL A   1      44.316  22.278  25.431  1.00  0.00     0.020 A 
ATOM     67  C   UNL A   1      43.742  21.022  25.599  1.00  0.00     0.054 A 
BRANCH  67  68
ATOM     68  S   UNL A   1      44.274  19.611  24.593  1.00  0.00     0.124 S 
ATOM     69  O   UNL A   1      45.481  19.167  25.285  1.00  0.00    -0.237 OA
ATOM     70  O   UNL A   1      43.128  18.713  24.684  1.00  0.00    -0.237 OA
ATOM     71  O   UNL A   1      44.503  20.195  23.272  1.00  0.00    -0.744 OA
ENDBRANCH  67  68
ENDBRANCH  48  62
BRANCH  49  72
ATOM     72  C   UNL A   1      41.110  30.913  32.841  1.00  0.00    -0.014 A 
ATOM     73  C   UNL A   1      41.262  32.281  33.153  1.00  0.00     0.010 A 
ATOM     74  C   UNL A   1      39.818  30.403  32.618  1.00  0.00     0.010 A 
ATOM     75  C   UNL A   1      40.178  33.157  33.043  1.00  0.00     0.020 A 
ATOM     76  C   UNL A   1      38.731  31.282  32.513  1.00  0.00     0.020 A 
ATOM     77  C   UNL A   1      38.938  32.658  32.643  1.00  0.00     0.054 A 
BRANCH  77  78
ATOM     78  S   UNL A   1      37.659  33.846  32.125  1.00  0.00     0.124 S 
ATOM     79  O   UNL A   1      37.800  34.910  33.112  1.00  0.00    -0.237 OA
ATOM     80  O   UNL A   1      38.079  34.187  30.763  1.00  0.00    -0.237 OA
ATOM     81  O   UNL A   1      36.428  33.067  32.208  1.00  0.00    -0.744 OA
ENDBRANCH  77  78
ENDBRANCH  49  72
BRANCH  61  82
ATOM     82  C   UNL A   1      44.568  24.583  33.648  1.00  0.00    -0.014 A 
ATOM     83  C   UNL A   1      43.700  23.566  34.069  1.00  0.00     0.010 A 
ATOM     84  C   UNL A   1      45.936  24.435  33.993  1.00  0.00     0.010 A 
ATOM     85  C   UNL A   1      44.156  22.492  34.849  1.00  0.00     0.020 A 
ATOM     86  C   UNL A   1      46.410  23.346  34.730  1.00  0.00     0.020 A 
ATOM     87  C   UNL A   1      45.508  22.390  35.178  1.00  0.00     0.054 A 
BRANCH  87  88
ATOM     88  S   UNL A   1      46.099  20.967  36.128  1.00  0.00     0.124 S 
ATOM     89  O   UNL A   1      45.407  19.860  35.473  1.00  0.00    -0.237 OA
ATOM     90  O   UNL A   1      47.545  21.010  35.921  1.00  0.00    -0.237 OA
ATOM     91  O   UNL A   1      45.664  21.261  37.491  1.00  0.00    -0.744 OA
ENDBRANCH  87  88
ENDBRANCH  61  82
ENDBRANCH  35  36
ENDBRANCH  27  30
ENDBRANCH  25  26
ENDBRANCH   1  25
TORSDOF 17
ENDMDL
