MODEL 1
REMARK VINA RESULT:     -10.8      0.000      0.000
REMARK SMILES Cc1nc2ccc(Cl)cc2cc1C(=O)N1CCC(C(=O)NCCCNC(=O)c2ccc(-c3c4nc(c(-c5ccc(S(=O)(=O)[O-])cc5)c5ccc([nH]5)c(-c5ccc(S(=O)(=O)[O-])cc5)c5nc(c(-c6ccc(S(=O)(=O)[O-])cc6)c6ccc3[nH]6)C=C5)C=C4)cc2)CC1
REMARK SMILES IDX 24 1 23 2 22 3 21 4 19 5 20 6 18 8 13 9 14 10 15 11 16 12
REMARK SMILES IDX 89 13 17 14 88 15 12 16 1 17 2 18 3 19 4 20 11 21 5 22 10 23
REMARK SMILES IDX 6 24 9 25 7 26 8 27 25 28 26 29 27 31 28 32 29 33 87 34
REMARK SMILES IDX 30 35 86 36 31 37 32 38 33 39 80 40 34 41 85 42 79 43 81 44
REMARK SMILES IDX 35 45 84 46 78 47 77 48 36 50 66 51 47 52 65 53 48 54 51 55
REMARK SMILES IDX 64 56 82 57 49 58 50 59 63 61 83 62 52 63 37 64 38 65 46 66
REMARK SMILES IDX 39 67 45 68 40 69 41 70 42 71 43 72 44 73 67 74 68 75 76 76
REMARK SMILES IDX 69 77 75 78 70 79 71 80 72 81 73 82 74 83 53 84 54 85 62 86
REMARK SMILES IDX 55 87 61 88 56 89 57 90 58 91 59 92 60 93
REMARK H PARENT 21 7 25 30 81 49 51 60
REMARK Flexibility Score: inf
ROOT
ATOM      1  C   UNL A   1      34.529  32.629  28.313  1.00  0.00     0.118 C 
ENDROOT
BRANCH   1   2
ATOM      2  C   UNL A   1      33.545  33.786  28.276  1.00  0.00     0.042 C 
BRANCH   2   3
ATOM      3  C   UNL A   1      33.974  34.975  29.121  1.00  0.00     0.117 C 
BRANCH   3   4
ATOM      4  N   UNL A   1      33.291  35.020  30.406  1.00  0.00    -0.356 N 
ATOM      5  C   UNL A   1      33.719  34.696  31.656  1.00  0.00     0.223 C 
ATOM      6  O   UNL A   1      32.928  34.827  32.593  1.00  0.00    -0.275 OA
ATOM      7  H   UNL A   1      32.361  35.339  30.362  1.00  0.00     0.163 HD
BRANCH   5   8
ATOM      8  C   UNL A   1      35.132  34.200  31.906  1.00  0.00     0.082 C 
ATOM      9  C   UNL A   1      37.597  31.863  34.446  1.00  0.00     0.255 C 
ATOM     10  O   UNL A   1      37.397  32.057  35.641  1.00  0.00    -0.269 OA
ATOM     11  N   UNL A   1      36.960  32.619  33.459  1.00  0.00    -0.339 N 
ATOM     12  C   UNL A   1      36.971  34.060  33.641  1.00  0.00     0.120 C 
ATOM     13  C   UNL A   1      36.576  32.123  32.137  1.00  0.00     0.120 C 
ATOM     14  C   UNL A   1      35.663  34.709  33.248  1.00  0.00     0.035 C 
ATOM     15  C   UNL A   1      35.237  32.685  31.685  1.00  0.00     0.035 C 
BRANCH   9  16
ATOM     16  C   UNL A   1      38.703  30.956  34.029  1.00  0.00     0.061 A 
ATOM     17  C   UNL A   1      37.176  29.173  33.011  1.00  0.00     0.067 C 
ATOM     18  C   UNL A   1      38.517  29.720  33.409  1.00  0.00     0.051 A 
ATOM     19  N   UNL A   1      39.560  28.863  33.178  1.00  0.00    -0.252 NA
ATOM     20  C   UNL A   1      40.803  29.208  33.557  1.00  0.00     0.071 A 
ATOM     21  C   UNL A   1      40.001  31.282  34.438  1.00  0.00     0.026 A 
ATOM     22  C   UNL A   1      41.871  28.342  33.359  1.00  0.00     0.030 A 
ATOM     23  C   UNL A   1      41.074  30.437  34.177  1.00  0.00     0.002 A 
ATOM     24  C   UNL A   1      43.179  28.687  33.728  1.00  0.00     0.023 A 
ATOM     25  C   UNL A   1      42.379  30.802  34.545  1.00  0.00     0.030 A 
ATOM     26  C   UNL A   1      43.428  29.925  34.306  1.00  0.00     0.041 A 
ATOM     27  Cl  UNL A   1      45.031  30.381  34.729  1.00  0.00    -0.084 Cl
ENDBRANCH   9  16
ENDBRANCH   5   8
ENDBRANCH   3   4
ENDBRANCH   2   3
ENDBRANCH   1   2
BRANCH   1  28
ATOM     28  N   UNL A   1      33.899  31.353  28.005  1.00  0.00    -0.352 N 
ATOM     29  C   UNL A   1      34.464  30.114  27.834  1.00  0.00     0.251 C 
ATOM     30  H   UNL A   1      32.920  31.383  27.904  1.00  0.00     0.163 HD
ATOM     31  O   UNL A   1      33.790  29.199  27.363  1.00  0.00    -0.269 OA
BRANCH  29  32
ATOM     32  C   UNL A   1      35.878  29.889  28.197  1.00  0.00     0.039 A 
ATOM     33  C   UNL A   1      36.188  29.448  29.486  1.00  0.00     0.014 A 
ATOM     34  C   UNL A   1      36.896  30.112  27.268  1.00  0.00     0.014 A 
ATOM     35  C   UNL A   1      37.515  29.165  29.817  1.00  0.00     0.010 A 
ATOM     36  C   UNL A   1      38.200  29.735  27.566  1.00  0.00     0.010 A 
ATOM     37  C   UNL A   1      38.526  29.268  28.848  1.00  0.00    -0.014 A 
BRANCH  37  38
ATOM     38  C   UNL A   1      39.932  28.899  29.149  1.00  0.00     0.031 A 
ATOM     39  C   UNL A   1      40.870  29.920  29.737  1.00  0.00     0.074 A 
ATOM     40  C   UNL A   1      40.386  27.674  28.821  1.00  0.00     0.049 A 
ATOM     41  N   UNL A   1      42.148  29.815  29.995  1.00  0.00    -0.248 NA
ATOM     42  C   UNL A   1      40.303  31.243  30.044  1.00  0.00     0.031 C 
ATOM     43  C   UNL A   1      39.590  26.614  28.198  1.00  0.00     0.029 A 
ATOM     44  N   UNL A   1      41.634  27.118  28.952  1.00  0.00    -0.354 N 
ATOM     45  C   UNL A   1      42.539  31.058  30.475  1.00  0.00     0.074 A 
ATOM     46  C   UNL A   1      41.380  31.920  30.414  1.00  0.00     0.031 C 
ATOM     47  C   UNL A   1      40.363  25.532  28.018  1.00  0.00     0.029 A 
ATOM     48  C   UNL A   1      41.718  25.833  28.469  1.00  0.00     0.049 A 
ATOM     49  H   UNL A   1      42.396  27.593  29.354  1.00  0.00     0.167 HD
ATOM     50  C   UNL A   1      43.750  31.445  30.943  1.00  0.00     0.031 A 
ATOM     51  C   UNL A   1      42.770  24.996  28.380  1.00  0.00     0.031 A 
ATOM     52  C   UNL A   1      44.901  30.584  31.000  1.00  0.00     0.049 A 
ATOM     53  C   UNL A   1      44.108  25.445  28.899  1.00  0.00     0.074 A 
ATOM     54  C   UNL A   1      46.157  30.859  31.509  1.00  0.00     0.029 A 
ATOM     55  N   UNL A   1      44.938  29.281  30.524  1.00  0.00    -0.354 N 
ATOM     56  N   UNL A   1      44.442  26.600  29.422  1.00  0.00    -0.248 NA
ATOM     57  C   UNL A   1      45.208  24.473  28.829  1.00  0.00     0.031 C 
ATOM     58  C   UNL A   1      46.972  29.744  31.284  1.00  0.00     0.029 A 
ATOM     59  C   UNL A   1      46.204  28.748  30.700  1.00  0.00     0.049 A 
ATOM     60  H   UNL A   1      44.176  28.806  30.120  1.00  0.00     0.167 HD
ATOM     61  C   UNL A   1      45.784  26.488  29.765  1.00  0.00     0.074 A 
ATOM     62  C   UNL A   1      46.195  25.146  29.405  1.00  0.00     0.031 C 
ATOM     63  C   UNL A   1      46.601  27.412  30.329  1.00  0.00     0.031 A 
BRANCH  50  64
ATOM     64  C   UNL A   1      43.885  32.871  31.416  1.00  0.00    -0.014 A 
ATOM     65  C   UNL A   1      43.737  33.208  32.775  1.00  0.00     0.010 A 
ATOM     66  C   UNL A   1      44.169  33.892  30.490  1.00  0.00     0.010 A 
ATOM     67  C   UNL A   1      43.805  34.541  33.188  1.00  0.00     0.020 A 
ATOM     68  C   UNL A   1      44.274  35.223  30.904  1.00  0.00     0.020 A 
ATOM     69  C   UNL A   1      44.066  35.542  32.247  1.00  0.00     0.054 A 
BRANCH  69  70
ATOM     70  S   UNL A   1      44.138  37.265  32.809  1.00  0.00     0.124 S 
ATOM     71  O   UNL A   1      45.452  37.317  33.444  1.00  0.00    -0.237 OA
ATOM     72  O   UNL A   1      44.012  38.014  31.562  1.00  0.00    -0.237 OA
ATOM     73  O   UNL A   1      43.002  37.380  33.720  1.00  0.00    -0.744 OA
ENDBRANCH  69  70
ENDBRANCH  50  64
BRANCH  51  74
ATOM     74  C   UNL A   1      42.585  23.648  27.776  1.00  0.00    -0.014 A 
ATOM     75  C   UNL A   1      42.854  23.426  26.414  1.00  0.00     0.010 A 
ATOM     76  C   UNL A   1      42.181  22.563  28.577  1.00  0.00     0.010 A 
ATOM     77  C   UNL A   1      42.716  22.148  25.864  1.00  0.00     0.020 A 
ATOM     78  C   UNL A   1      42.072  21.278  28.039  1.00  0.00     0.020 A 
ATOM     79  C   UNL A   1      42.333  21.080  26.682  1.00  0.00     0.054 A 
BRANCH  79  80
ATOM     80  S   UNL A   1      42.233  19.418  25.961  1.00  0.00     0.124 S 
ATOM     81  O   UNL A   1      43.057  19.556  24.764  1.00  0.00    -0.237 OA
ATOM     82  O   UNL A   1      42.790  18.582  27.021  1.00  0.00    -0.237 OA
ATOM     83  O   UNL A   1      40.803  19.235  25.720  1.00  0.00    -0.744 OA
ENDBRANCH  79  80
ENDBRANCH  51  74
BRANCH  63  84
ATOM     84  C   UNL A   1      48.020  27.000  30.624  1.00  0.00    -0.014 A 
ATOM     85  C   UNL A   1      49.075  27.337  29.758  1.00  0.00     0.010 A 
ATOM     86  C   UNL A   1      48.308  26.321  31.823  1.00  0.00     0.010 A 
ATOM     87  C   UNL A   1      50.390  26.981  30.075  1.00  0.00     0.020 A 
ATOM     88  C   UNL A   1      49.623  25.989  32.156  1.00  0.00     0.020 A 
ATOM     89  C   UNL A   1      50.655  26.312  31.273  1.00  0.00     0.054 A 
BRANCH  89  90
ATOM     90  S   UNL A   1      52.375  25.910  31.686  1.00  0.00     0.124 S 
ATOM     91  O   UNL A   1      52.243  24.580  32.274  1.00  0.00    -0.237 OA
ATOM     92  O   UNL A   1      53.036  25.959  30.383  1.00  0.00    -0.237 OA
ATOM     93  O   UNL A   1      52.765  26.966  32.617  1.00  0.00    -0.744 OA
ENDBRANCH  89  90
ENDBRANCH  63  84
ENDBRANCH  37  38
ENDBRANCH  29  32
ENDBRANCH   1  28
TORSDOF 14
ENDMDL
MODEL 2
REMARK VINA RESULT:     -10.0      4.339      7.057
REMARK SMILES Cc1nc2ccc(Cl)cc2cc1C(=O)N1CCC(C(=O)NCCCNC(=O)c2ccc(-c3c4nc(c(-c5ccc(S(=O)(=O)[O-])cc5)c5ccc([nH]5)c(-c5ccc(S(=O)(=O)[O-])cc5)c5nc(c(-c6ccc(S(=O)(=O)[O-])cc6)c6ccc3[nH]6)C=C5)C=C4)cc2)CC1
REMARK SMILES IDX 24 1 23 2 22 3 21 4 19 5 20 6 18 8 13 9 14 10 15 11 16 12
REMARK SMILES IDX 89 13 17 14 88 15 12 16 1 17 2 18 3 19 4 20 11 21 5 22 10 23
REMARK SMILES IDX 6 24 9 25 7 26 8 27 25 28 26 29 27 31 28 32 29 33 87 34
REMARK SMILES IDX 30 35 86 36 31 37 32 38 33 39 80 40 34 41 85 42 79 43 81 44
REMARK SMILES IDX 35 45 84 46 78 47 77 48 36 50 66 51 47 52 65 53 48 54 51 55
REMARK SMILES IDX 64 56 82 57 49 58 50 59 63 61 83 62 52 63 37 64 38 65 46 66
REMARK SMILES IDX 39 67 45 68 40 69 41 70 42 71 43 72 44 73 67 74 68 75 76 76
REMARK SMILES IDX 69 77 75 78 70 79 71 80 72 81 73 82 74 83 53 84 54 85 62 86
REMARK SMILES IDX 55 87 61 88 56 89 57 90 58 91 59 92 60 93
REMARK H PARENT 21 7 25 30 81 49 51 60
REMARK Flexibility Score: inf
ROOT
ATOM      1  C   UNL A   1      35.506  30.527  28.238  1.00  0.00     0.118 C 
ENDROOT
BRANCH   1   2
ATOM      2  C   UNL A   1      34.230  31.076  27.623  1.00  0.00     0.042 C 
BRANCH   2   3
ATOM      3  C   UNL A   1      33.229  29.998  27.239  1.00  0.00     0.117 C 
BRANCH   3   4
ATOM      4  N   UNL A   1      32.222  30.480  26.305  1.00  0.00    -0.356 N 
ATOM      5  C   UNL A   1      31.500  29.828  25.355  1.00  0.00     0.223 C 
ATOM      6  O   UNL A   1      30.697  30.481  24.684  1.00  0.00    -0.275 OA
ATOM      7  H   UNL A   1      32.031  31.444  26.373  1.00  0.00     0.163 HD
BRANCH   5   8
ATOM      8  C   UNL A   1      31.658  28.335  25.126  1.00  0.00     0.082 C 
ATOM      9  C   UNL A   1      33.533  25.362  22.752  1.00  0.00     0.255 C 
ATOM     10  O   UNL A   1      33.493  25.595  21.549  1.00  0.00    -0.269 OA
ATOM     11  N   UNL A   1      32.874  26.169  23.683  1.00  0.00    -0.339 N 
ATOM     12  C   UNL A   1      31.493  26.506  23.382  1.00  0.00     0.120 C 
ATOM     13  C   UNL A   1      33.336  26.429  25.046  1.00  0.00     0.120 C 
ATOM     14  C   UNL A   1      31.150  27.935  23.739  1.00  0.00     0.035 C 
ATOM     15  C   UNL A   1      33.079  27.867  25.470  1.00  0.00     0.035 C 
BRANCH   9  16
ATOM     16  C   UNL A   1      34.107  24.071  23.227  1.00  0.00     0.061 A 
ATOM     17  C   UNL A   1      31.953  22.726  22.909  1.00  0.00     0.067 C 
ATOM     18  C   UNL A   1      33.386  22.882  23.333  1.00  0.00     0.051 A 
ATOM     19  N   UNL A   1      33.922  21.761  23.911  1.00  0.00    -0.252 NA
ATOM     20  C   UNL A   1      35.175  21.796  24.398  1.00  0.00     0.071 A 
ATOM     21  C   UNL A   1      35.399  24.092  23.764  1.00  0.00     0.026 A 
ATOM     22  C   UNL A   1      35.727  20.680  25.015  1.00  0.00     0.030 A 
ATOM     23  C   UNL A   1      35.967  22.951  24.321  1.00  0.00     0.002 A 
ATOM     24  C   UNL A   1      37.038  20.686  25.512  1.00  0.00     0.023 A 
ATOM     25  C   UNL A   1      37.284  22.971  24.807  1.00  0.00     0.030 A 
ATOM     26  C   UNL A   1      37.816  21.831  25.391  1.00  0.00     0.041 A 
ATOM     27  Cl  UNL A   1      39.438  21.843  25.960  1.00  0.00    -0.084 Cl
ENDBRANCH   9  16
ENDBRANCH   5   8
ENDBRANCH   3   4
ENDBRANCH   2   3
ENDBRANCH   1   2
BRANCH   1  28
ATOM     28  N   UNL A   1      35.517  30.643  29.690  1.00  0.00    -0.352 N 
ATOM     29  C   UNL A   1      36.440  30.190  30.599  1.00  0.00     0.251 C 
ATOM     30  H   UNL A   1      34.747  31.117  30.078  1.00  0.00     0.163 HD
ATOM     31  O   UNL A   1      36.164  30.195  31.798  1.00  0.00    -0.269 OA
BRANCH  29  32
ATOM     32  C   UNL A   1      37.748  29.685  30.137  1.00  0.00     0.039 A 
ATOM     33  C   UNL A   1      38.113  29.865  28.800  1.00  0.00     0.014 A 
ATOM     34  C   UNL A   1      38.614  29.035  31.019  1.00  0.00     0.014 A 
ATOM     35  C   UNL A   1      39.377  29.455  28.369  1.00  0.00     0.010 A 
ATOM     36  C   UNL A   1      39.906  28.720  30.614  1.00  0.00     0.010 A 
ATOM     37  C   UNL A   1      40.298  28.915  29.282  1.00  0.00    -0.014 A 
BRANCH  37  38
ATOM     38  C   UNL A   1      41.674  28.542  28.869  1.00  0.00     0.031 A 
ATOM     39  C   UNL A   1      42.748  29.594  28.788  1.00  0.00     0.074 A 
ATOM     40  C   UNL A   1      41.938  27.276  28.490  1.00  0.00     0.049 A 
ATOM     41  N   UNL A   1      43.984  29.482  28.375  1.00  0.00    -0.248 NA
ATOM     42  C   UNL A   1      42.374  30.959  29.196  1.00  0.00     0.031 C 
ATOM     43  C   UNL A   1      40.969  26.178  28.472  1.00  0.00     0.029 A 
ATOM     44  N   UNL A   1      43.097  26.703  28.031  1.00  0.00    -0.354 N 
ATOM     45  C   UNL A   1      44.526  30.759  28.455  1.00  0.00     0.074 A 
ATOM     46  C   UNL A   1      43.468  31.640  28.896  1.00  0.00     0.031 C 
ATOM     47  C   UNL A   1      41.578  25.061  28.043  1.00  0.00     0.029 A 
ATOM     48  C   UNL A   1      42.966  25.372  27.712  1.00  0.00     0.049 A 
ATOM     49  H   UNL A   1      43.943  27.198  27.939  1.00  0.00     0.167 HD
ATOM     50  C   UNL A   1      45.795  31.160  28.203  1.00  0.00     0.031 A 
ATOM     51  C   UNL A   1      43.854  24.501  27.195  1.00  0.00     0.031 A 
ATOM     52  C   UNL A   1      46.843  30.278  27.762  1.00  0.00     0.049 A 
ATOM     53  C   UNL A   1      45.256  24.966  26.915  1.00  0.00     0.074 A 
ATOM     54  C   UNL A   1      48.175  30.572  27.534  1.00  0.00     0.029 A 
ATOM     55  N   UNL A   1      46.675  28.931  27.476  1.00  0.00    -0.354 N 
ATOM     56  N   UNL A   1      45.772  26.162  27.070  1.00  0.00    -0.248 NA
ATOM     57  C   UNL A   1      46.199  23.962  26.404  1.00  0.00     0.031 C 
ATOM     58  C   UNL A   1      48.798  29.417  27.049  1.00  0.00     0.029 A 
ATOM     59  C   UNL A   1      47.872  28.386  27.044  1.00  0.00     0.049 A 
ATOM     60  H   UNL A   1      45.828  28.437  27.566  1.00  0.00     0.167 HD
ATOM     61  C   UNL A   1      47.107  26.050  26.698  1.00  0.00     0.074 A 
ATOM     62  C   UNL A   1      47.321  24.666  26.326  1.00  0.00     0.031 C 
ATOM     63  C   UNL A   1      48.068  27.006  26.669  1.00  0.00     0.031 A 
BRANCH  50  64
ATOM     64  C   UNL A   1      46.107  32.625  28.386  1.00  0.00    -0.014 A 
ATOM     65  C   UNL A   1      46.541  33.130  29.626  1.00  0.00     0.010 A 
ATOM     66  C   UNL A   1      45.967  33.511  27.302  1.00  0.00     0.010 A 
ATOM     67  C   UNL A   1      46.768  34.498  29.796  1.00  0.00     0.020 A 
ATOM     68  C   UNL A   1      46.227  34.876  27.458  1.00  0.00     0.020 A 
ATOM     69  C   UNL A   1      46.601  35.364  28.711  1.00  0.00     0.054 A 
BRANCH  69  70
ATOM     70  S   UNL A   1      46.891  37.137  28.963  1.00  0.00     0.124 S 
ATOM     71  O   UNL A   1      45.769  37.505  29.823  1.00  0.00    -0.237 OA
ATOM     72  O   UNL A   1      48.205  37.158  29.600  1.00  0.00    -0.237 OA
ATOM     73  O   UNL A   1      46.847  37.691  27.612  1.00  0.00    -0.744 OA
ENDBRANCH  69  70
ENDBRANCH  50  64
BRANCH  51  74
ATOM     74  C   UNL A   1      43.431  23.101  26.916  1.00  0.00    -0.014 A 
ATOM     75  C   UNL A   1      43.582  22.546  25.633  1.00  0.00     0.010 A 
ATOM     76  C   UNL A   1      42.915  22.298  27.951  1.00  0.00     0.010 A 
ATOM     77  C   UNL A   1      43.219  21.218  25.390  1.00  0.00     0.020 A 
ATOM     78  C   UNL A   1      42.580  20.962  27.719  1.00  0.00     0.020 A 
ATOM     79  C   UNL A   1      42.727  20.431  26.436  1.00  0.00     0.054 A 
BRANCH  79  80
ATOM     80  S   UNL A   1      42.333  18.690  26.112  1.00  0.00     0.124 S 
ATOM     81  O   UNL A   1      43.277  18.358  25.050  1.00  0.00    -0.237 OA
ATOM     82  O   UNL A   1      42.588  18.064  27.407  1.00  0.00    -0.237 OA
ATOM     83  O   UNL A   1      40.927  18.727  25.712  1.00  0.00    -0.744 OA
ENDBRANCH  79  80
ENDBRANCH  51  74
BRANCH  63  84
ATOM     84  C   UNL A   1      49.454  26.589  26.248  1.00  0.00    -0.014 A 
ATOM     85  C   UNL A   1      49.907  26.778  24.931  1.00  0.00     0.010 A 
ATOM     86  C   UNL A   1      50.337  26.060  27.208  1.00  0.00     0.010 A 
ATOM     87  C   UNL A   1      51.212  26.423  24.576  1.00  0.00     0.020 A 
ATOM     88  C   UNL A   1      51.650  25.731  26.864  1.00  0.00     0.020 A 
ATOM     89  C   UNL A   1      52.075  25.905  25.546  1.00  0.00     0.054 A 
BRANCH  89  90
ATOM     90  S   UNL A   1      53.779  25.503  25.070  1.00  0.00     0.124 S 
ATOM     91  O   UNL A   1      53.797  24.048  25.205  1.00  0.00    -0.237 OA
ATOM     92  O   UNL A   1      53.857  26.009  23.702  1.00  0.00    -0.237 OA
ATOM     93  O   UNL A   1      54.592  26.227  26.045  1.00  0.00    -0.744 OA
ENDBRANCH  89  90
ENDBRANCH  63  84
ENDBRANCH  37  38
ENDBRANCH  29  32
ENDBRANCH   1  28
TORSDOF 14
ENDMDL
MODEL 3
REMARK VINA RESULT:     -10.0      5.122      7.675
REMARK SMILES Cc1nc2ccc(Cl)cc2cc1C(=O)N1CCC(C(=O)NCCCNC(=O)c2ccc(-c3c4nc(c(-c5ccc(S(=O)(=O)[O-])cc5)c5ccc([nH]5)c(-c5ccc(S(=O)(=O)[O-])cc5)c5nc(c(-c6ccc(S(=O)(=O)[O-])cc6)c6ccc3[nH]6)C=C5)C=C4)cc2)CC1
REMARK SMILES IDX 24 1 23 2 22 3 21 4 19 5 20 6 18 8 13 9 14 10 15 11 16 12
REMARK SMILES IDX 89 13 17 14 88 15 12 16 1 17 2 18 3 19 4 20 11 21 5 22 10 23
REMARK SMILES IDX 6 24 9 25 7 26 8 27 25 28 26 29 27 31 28 32 29 33 87 34
REMARK SMILES IDX 30 35 86 36 31 37 32 38 33 39 80 40 34 41 85 42 79 43 81 44
REMARK SMILES IDX 35 45 84 46 78 47 77 48 36 50 66 51 47 52 65 53 48 54 51 55
REMARK SMILES IDX 64 56 82 57 49 58 50 59 63 61 83 62 52 63 37 64 38 65 46 66
REMARK SMILES IDX 39 67 45 68 40 69 41 70 42 71 43 72 44 73 67 74 68 75 76 76
REMARK SMILES IDX 69 77 75 78 70 79 71 80 72 81 73 82 74 83 53 84 54 85 62 86
REMARK SMILES IDX 55 87 61 88 56 89 57 90 58 91 59 92 60 93
REMARK H PARENT 21 7 25 30 81 49 51 60
REMARK Flexibility Score: inf
ROOT
ATOM      1  C   UNL A   1      35.143  29.679  27.751  1.00  0.00     0.118 C 
ENDROOT
BRANCH   1   2
ATOM      2  C   UNL A   1      34.042  30.213  26.850  1.00  0.00     0.042 C 
BRANCH   2   3
ATOM      3  C   UNL A   1      32.847  29.280  26.736  1.00  0.00     0.117 C 
BRANCH   3   4
ATOM      4  N   UNL A   1      31.854  29.761  25.785  1.00  0.00    -0.356 N 
ATOM      5  C   UNL A   1      31.229  29.133  24.754  1.00  0.00     0.223 C 
ATOM      6  O   UNL A   1      30.414  29.777  24.089  1.00  0.00    -0.275 OA
ATOM      7  H   UNL A   1      31.592  30.701  25.911  1.00  0.00     0.163 HD
BRANCH   5   8
ATOM      8  C   UNL A   1      31.505  27.676  24.429  1.00  0.00     0.082 C 
ATOM      9  C   UNL A   1      34.007  24.347  25.240  1.00  0.00     0.255 C 
ATOM     10  O   UNL A   1      35.201  24.624  25.263  1.00  0.00    -0.269 OA
ATOM     11  N   UNL A   1      33.038  25.288  24.881  1.00  0.00    -0.339 N 
ATOM     12  C   UNL A   1      33.299  26.055  23.675  1.00  0.00     0.120 C 
ATOM     13  C   UNL A   1      31.678  25.341  25.416  1.00  0.00     0.120 C 
ATOM     14  C   UNL A   1      32.892  27.505  23.805  1.00  0.00     0.035 C 
ATOM     15  C   UNL A   1      31.207  26.771  25.632  1.00  0.00     0.035 C 
BRANCH   9  16
ATOM     16  C   UNL A   1      33.583  22.926  25.381  1.00  0.00     0.061 A 
ATOM     17  C   UNL A   1      34.008  22.802  27.902  1.00  0.00     0.067 C 
ATOM     18  C   UNL A   1      33.615  22.210  26.578  1.00  0.00     0.051 A 
ATOM     19  N   UNL A   1      33.352  20.866  26.624  1.00  0.00    -0.252 NA
ATOM     20  C   UNL A   1      33.058  20.205  25.490  1.00  0.00     0.071 A 
ATOM     21  C   UNL A   1      33.302  22.212  24.211  1.00  0.00     0.026 A 
ATOM     22  C   UNL A   1      32.818  18.837  25.509  1.00  0.00     0.030 A 
ATOM     23  C   UNL A   1      32.998  20.855  24.248  1.00  0.00     0.002 A 
ATOM     24  C   UNL A   1      32.491  18.129  24.344  1.00  0.00     0.023 A 
ATOM     25  C   UNL A   1      32.664  20.163  23.074  1.00  0.00     0.030 A 
ATOM     26  C   UNL A   1      32.400  18.802  23.132  1.00  0.00     0.041 A 
ATOM     27  Cl  UNL A   1      31.963  17.958  21.700  1.00  0.00    -0.084 Cl
ENDBRANCH   9  16
ENDBRANCH   5   8
ENDBRANCH   3   4
ENDBRANCH   2   3
ENDBRANCH   1   2
BRANCH   1  28
ATOM     28  N   UNL A   1      35.215  30.390  29.021  1.00  0.00    -0.352 N 
ATOM     29  C   UNL A   1      36.232  30.440  29.942  1.00  0.00     0.251 C 
ATOM     30  H   UNL A   1      34.414  30.912  29.254  1.00  0.00     0.163 HD
ATOM     31  O   UNL A   1      36.019  30.919  31.055  1.00  0.00    -0.269 OA
BRANCH  29  32
ATOM     32  C   UNL A   1      37.565  29.905  29.601  1.00  0.00     0.039 A 
ATOM     33  C   UNL A   1      37.969  29.884  28.264  1.00  0.00     0.014 A 
ATOM     34  C   UNL A   1      38.417  29.425  30.599  1.00  0.00     0.014 A 
ATOM     35  C   UNL A   1      39.255  29.446  27.939  1.00  0.00     0.010 A 
ATOM     36  C   UNL A   1      39.728  29.086  30.286  1.00  0.00     0.010 A 
ATOM     37  C   UNL A   1      40.158  29.082  28.951  1.00  0.00    -0.014 A 
BRANCH  37  38
ATOM     38  C   UNL A   1      41.555  28.687  28.641  1.00  0.00     0.031 A 
ATOM     39  C   UNL A   1      42.643  29.727  28.610  1.00  0.00     0.074 A 
ATOM     40  C   UNL A   1      41.830  27.411  28.309  1.00  0.00     0.049 A 
ATOM     41  N   UNL A   1      43.903  29.594  28.285  1.00  0.00    -0.248 NA
ATOM     42  C   UNL A   1      42.256  31.104  28.961  1.00  0.00     0.031 C 
ATOM     43  C   UNL A   1      40.854  26.321  28.249  1.00  0.00     0.029 A 
ATOM     44  N   UNL A   1      43.013  26.817  27.943  1.00  0.00    -0.354 N 
ATOM     45  C   UNL A   1      44.452  30.868  28.373  1.00  0.00     0.074 A 
ATOM     46  C   UNL A   1      43.376  31.769  28.722  1.00  0.00     0.031 C 
ATOM     47  C   UNL A   1      41.479  25.189  27.888  1.00  0.00     0.029 A 
ATOM     48  C   UNL A   1      42.889  25.480  27.646  1.00  0.00     0.049 A 
ATOM     49  H   UNL A   1      43.868  27.301  27.898  1.00  0.00     0.167 HD
ATOM     50  C   UNL A   1      45.739  31.252  28.199  1.00  0.00     0.031 A 
ATOM     51  C   UNL A   1      43.800  24.590  27.210  1.00  0.00     0.031 A 
ATOM     52  C   UNL A   1      46.806  30.351  27.851  1.00  0.00     0.049 A 
ATOM     53  C   UNL A   1      45.223  25.035  27.015  1.00  0.00     0.074 A 
ATOM     54  C   UNL A   1      48.153  30.627  27.707  1.00  0.00     0.029 A 
ATOM     55  N   UNL A   1      46.643  28.999  27.583  1.00  0.00    -0.354 N 
ATOM     56  N   UNL A   1      45.741  26.229  27.179  1.00  0.00    -0.248 NA
ATOM     57  C   UNL A   1      46.188  24.011  26.592  1.00  0.00     0.031 C 
ATOM     58  C   UNL A   1      48.795  29.456  27.292  1.00  0.00     0.029 A 
ATOM     59  C   UNL A   1      47.861  28.433  27.246  1.00  0.00     0.049 A 
ATOM     60  H   UNL A   1      45.787  28.514  27.627  1.00  0.00     0.167 HD
ATOM     61  C   UNL A   1      47.096  26.097  26.901  1.00  0.00     0.074 A 
ATOM     62  C   UNL A   1      47.320  24.703  26.575  1.00  0.00     0.031 C 
ATOM     63  C   UNL A   1      48.068  27.044  26.916  1.00  0.00     0.031 A 
BRANCH  50  64
ATOM     64  C   UNL A   1      46.053  32.718  28.371  1.00  0.00    -0.014 A 
ATOM     65  C   UNL A   1      45.999  33.609  27.283  1.00  0.00     0.010 A 
ATOM     66  C   UNL A   1      46.404  33.213  29.640  1.00  0.00     0.010 A 
ATOM     67  C   UNL A   1      46.351  34.952  27.447  1.00  0.00     0.020 A 
ATOM     68  C   UNL A   1      46.722  34.563  29.816  1.00  0.00     0.020 A 
ATOM     69  C   UNL A   1      46.719  35.418  28.713  1.00  0.00     0.054 A 
BRANCH  69  70
ATOM     70  S   UNL A   1      47.181  37.163  28.893  1.00  0.00     0.124 S 
ATOM     71  O   UNL A   1      48.614  37.123  28.613  1.00  0.00    -0.237 OA
ATOM     72  O   UNL A   1      46.361  37.818  27.878  1.00  0.00    -0.237 OA
ATOM     73  O   UNL A   1      46.826  37.475  30.275  1.00  0.00    -0.744 OA
ENDBRANCH  69  70
ENDBRANCH  50  64
BRANCH  51  74
ATOM     74  C   UNL A   1      43.383  23.187  26.934  1.00  0.00    -0.014 A 
ATOM     75  C   UNL A   1      43.462  22.656  25.635  1.00  0.00     0.010 A 
ATOM     76  C   UNL A   1      42.946  22.359  27.984  1.00  0.00     0.010 A 
ATOM     77  C   UNL A   1      43.105  21.326  25.391  1.00  0.00     0.020 A 
ATOM     78  C   UNL A   1      42.618  21.022  27.751  1.00  0.00     0.020 A 
ATOM     79  C   UNL A   1      42.692  20.514  26.453  1.00  0.00     0.054 A 
BRANCH  79  80
ATOM     80  S   UNL A   1      42.305  18.772  26.124  1.00  0.00     0.124 S 
ATOM     81  O   UNL A   1      42.583  18.150  27.414  1.00  0.00    -0.237 OA
ATOM     82  O   UNL A   1      40.897  18.831  25.738  1.00  0.00    -0.237 OA
ATOM     83  O   UNL A   1      43.225  18.416  25.045  1.00  0.00    -0.744 OA
ENDBRANCH  79  80
ENDBRANCH  51  74
BRANCH  63  84
ATOM     84  C   UNL A   1      49.474  26.605  26.600  1.00  0.00    -0.014 A 
ATOM     85  C   UNL A   1      50.342  26.149  27.607  1.00  0.00     0.010 A 
ATOM     86  C   UNL A   1      49.907  26.586  25.261  1.00  0.00     0.010 A 
ATOM     87  C   UNL A   1      51.628  25.706  27.283  1.00  0.00     0.020 A 
ATOM     88  C   UNL A   1      51.180  26.116  24.930  1.00  0.00     0.020 A 
ATOM     89  C   UNL A   1      52.037  25.690  25.946  1.00  0.00     0.054 A 
BRANCH  89  90
ATOM     90  S   UNL A   1      53.690  25.058  25.547  1.00  0.00     0.124 S 
ATOM     91  O   UNL A   1      54.037  25.842  24.364  1.00  0.00    -0.237 OA
ATOM     92  O   UNL A   1      54.452  25.372  26.754  1.00  0.00    -0.237 OA
ATOM     93  O   UNL A   1      53.470  23.634  25.308  1.00  0.00    -0.744 OA
ENDBRANCH  89  90
ENDBRANCH  63  84
ENDBRANCH  37  38
ENDBRANCH  29  32
ENDBRANCH   1  28
TORSDOF 14
ENDMDL
