MODEL 1
REMARK VINA RESULT:     -11.5      0.000      0.000
REMARK SMILES Cc1ccc(Cl)cc1NC(=O)N[C@@](C)(C(=O)NCCCNC(=O)c1ccc(-c2c3nc(c(-c4ccc(S(=O)(=O)[O-])cc4)c4ccc([nH]4)c(-c4ccc(S(=O)(=O)[O-])cc4)c4nc(c(-c5ccc(S(=O)(=O)[O-])cc5)c5ccc2[nH]5)C=C4)C=C3)cc1)C(F)(F)F
REMARK SMILES IDX 19 1 18 2 17 3 15 4 16 5 13 7 14 8 12 9 9 10 10 11 11 13
REMARK SMILES IDX 8 15 1 16 2 17 3 18 4 19 7 20 5 21 6 22 84 23 85 24 86 25
REMARK SMILES IDX 87 26 20 27 21 28 22 29 23 31 24 32 25 33 83 34 26 35 82 36
REMARK SMILES IDX 27 37 28 38 29 39 76 40 30 41 81 42 75 43 77 44 31 45 80 46
REMARK SMILES IDX 74 47 73 48 32 50 62 51 43 52 61 53 44 54 47 55 60 56 78 57
REMARK SMILES IDX 45 58 46 59 59 61 79 62 48 63 33 64 34 65 42 66 35 67 41 68
REMARK SMILES IDX 36 69 37 70 38 71 39 72 40 73 63 74 64 75 72 76 65 77 71 78
REMARK SMILES IDX 66 79 67 80 68 81 69 82 70 83 49 84 50 85 58 86 51 87 57 88
REMARK SMILES IDX 52 89 53 90 54 91 55 92 56 93
REMARK H PARENT 17 6 9 12 12 14 21 30 77 49 47 60
REMARK Flexibility Score: inf
ROOT
ATOM      1  C   UNL A   1      32.242  28.046  26.554  1.00  0.00     0.042 C 
ENDROOT
BRANCH   1   2
ATOM      2  C   UNL A   1      32.349  28.039  25.031  1.00  0.00     0.117 C 
BRANCH   2   3
ATOM      3  N   UNL A   1      31.505  27.012  24.446  1.00  0.00    -0.354 N 
ATOM      4  C   UNL A   1      32.038  26.066  23.606  1.00  0.00     0.255 C 
ATOM      5  O   UNL A   1      32.047  26.319  22.403  1.00  0.00    -0.272 OA
ATOM      6  H   UNL A   1      30.543  26.993  24.654  1.00  0.00     0.163 HD
BRANCH   4   7
ATOM      7  C   UNL A   1      32.717  24.817  24.229  1.00  0.00     0.213 C 
ATOM      8  C   UNL A   1      32.595  23.613  23.277  1.00  0.00     0.056 C 
BRANCH   7   9
ATOM      9  N   UNL A   1      31.983  24.555  25.510  1.00  0.00    -0.316 N 
ATOM     10  N   UNL A   1      33.043  22.932  26.920  1.00  0.00    -0.308 N 
ATOM     11  C   UNL A   1      32.071  23.796  26.602  1.00  0.00     0.320 C 
ATOM     12  H   UNL A   1      33.049  22.724  27.881  1.00  0.00     0.171 HD
ATOM     13  O   UNL A   1      31.213  24.005  27.468  1.00  0.00    -0.248 OA
ATOM     14  H   UNL A   1      31.183  25.127  25.561  1.00  0.00     0.166 HD
BRANCH  10  15
ATOM     15  C   UNL A   1      34.051  22.251  26.233  1.00  0.00     0.047 A 
ATOM     16  C   UNL A   1      32.301  20.721  25.144  1.00  0.00     0.046 C 
ATOM     17  C   UNL A   1      33.718  21.137  25.438  1.00  0.00    -0.027 A 
ATOM     18  C   UNL A   1      34.752  20.370  24.870  1.00  0.00     0.007 A 
ATOM     19  C   UNL A   1      36.087  20.734  25.040  1.00  0.00     0.021 A 
ATOM     20  C   UNL A   1      35.372  22.691  26.265  1.00  0.00     0.047 A 
ATOM     21  C   UNL A   1      36.387  21.919  25.700  1.00  0.00     0.043 A 
ATOM     22  Cl  UNL A   1      38.029  22.416  25.852  1.00  0.00    -0.084 Cl
ENDBRANCH  10  15
ENDBRANCH   7   9
BRANCH   7  23
ATOM     23  C   UNL A   1      34.169  25.352  24.328  1.00  0.00     0.420 C 
ATOM     24  F   UNL A   1      35.096  24.467  23.900  1.00  0.00    -0.168 F 
ATOM     25  F   UNL A   1      34.364  26.484  23.625  1.00  0.00    -0.168 F 
ATOM     26  F   UNL A   1      34.476  25.684  25.612  1.00  0.00    -0.168 F 
ENDBRANCH   7  23
ENDBRANCH   4   7
ENDBRANCH   2   3
ENDBRANCH   1   2
BRANCH   1  27
ATOM     27  C   UNL A   1      33.509  28.518  27.261  1.00  0.00     0.118 C 
BRANCH  27  28
ATOM     28  N   UNL A   1      33.459  29.929  27.629  1.00  0.00    -0.352 N 
ATOM     29  C   UNL A   1      34.444  30.689  28.212  1.00  0.00     0.251 C 
ATOM     30  H   UNL A   1      32.614  30.395  27.433  1.00  0.00     0.163 HD
ATOM     31  O   UNL A   1      34.209  31.826  28.608  1.00  0.00    -0.269 OA
BRANCH  29  32
ATOM     32  C   UNL A   1      35.779  30.089  28.380  1.00  0.00     0.039 A 
ATOM     33  C   UNL A   1      36.681  30.118  27.315  1.00  0.00     0.014 A 
ATOM     34  C   UNL A   1      36.158  29.598  29.631  1.00  0.00     0.014 A 
ATOM     35  C   UNL A   1      38.001  29.715  27.528  1.00  0.00     0.010 A 
ATOM     36  C   UNL A   1      37.488  29.279  29.859  1.00  0.00     0.010 A 
ATOM     37  C   UNL A   1      38.422  29.330  28.811  1.00  0.00    -0.014 A 
BRANCH  37  38
ATOM     38  C   UNL A   1      39.823  28.936  29.098  1.00  0.00     0.031 A 
ATOM     39  C   UNL A   1      40.769  29.972  29.641  1.00  0.00     0.074 A 
ATOM     40  C   UNL A   1      40.269  27.706  28.772  1.00  0.00     0.049 A 
ATOM     41  N   UNL A   1      42.068  29.917  29.771  1.00  0.00    -0.248 NA
ATOM     42  C   UNL A   1      40.176  31.258  30.049  1.00  0.00     0.031 C 
ATOM     43  C   UNL A   1      39.455  26.625  28.210  1.00  0.00     0.029 A 
ATOM     44  N   UNL A   1      41.528  27.167  28.845  1.00  0.00    -0.354 N 
ATOM     45  C   UNL A   1      42.452  31.172  30.228  1.00  0.00     0.074 A 
ATOM     46  C   UNL A   1      41.255  31.979  30.315  1.00  0.00     0.031 C 
ATOM     47  C   UNL A   1      40.234  25.550  28.002  1.00  0.00     0.029 A 
ATOM     48  C   UNL A   1      41.608  25.879  28.369  1.00  0.00     0.049 A 
ATOM     49  H   UNL A   1      42.303  27.655  29.206  1.00  0.00     0.167 HD
ATOM     50  C   UNL A   1      43.688  31.611  30.557  1.00  0.00     0.031 A 
ATOM     51  C   UNL A   1      42.672  25.063  28.226  1.00  0.00     0.031 A 
ATOM     52  C   UNL A   1      44.865  30.787  30.513  1.00  0.00     0.049 A 
ATOM     53  C   UNL A   1      44.033  25.561  28.633  1.00  0.00     0.074 A 
ATOM     54  C   UNL A   1      46.156  31.113  30.885  1.00  0.00     0.029 A 
ATOM     55  N   UNL A   1      44.887  29.468  30.085  1.00  0.00    -0.354 N 
ATOM     56  N   UNL A   1      44.372  26.739  29.100  1.00  0.00    -0.248 NA
ATOM     57  C   UNL A   1      45.154  24.619  28.504  1.00  0.00     0.031 C 
ATOM     58  C   UNL A   1      46.967  29.999  30.655  1.00  0.00     0.029 A 
ATOM     59  C   UNL A   1      46.171  28.965  30.184  1.00  0.00     0.049 A 
ATOM     60  H   UNL A   1      44.106  28.966  29.760  1.00  0.00     0.167 HD
ATOM     61  C   UNL A   1      45.736  26.667  29.355  1.00  0.00     0.074 A 
ATOM     62  C   UNL A   1      46.162  25.331  28.993  1.00  0.00     0.031 C 
ATOM     63  C   UNL A   1      46.562  27.620  29.850  1.00  0.00     0.031 A 
BRANCH  50  64
ATOM     64  C   UNL A   1      43.827  33.042  30.999  1.00  0.00    -0.014 A 
ATOM     65  C   UNL A   1      44.122  34.061  30.075  1.00  0.00     0.010 A 
ATOM     66  C   UNL A   1      43.629  33.378  32.350  1.00  0.00     0.010 A 
ATOM     67  C   UNL A   1      44.258  35.384  30.501  1.00  0.00     0.020 A 
ATOM     68  C   UNL A   1      43.736  34.705  32.776  1.00  0.00     0.020 A 
ATOM     69  C   UNL A   1      44.068  35.697  31.851  1.00  0.00     0.054 A 
BRANCH  69  70
ATOM     70  S   UNL A   1      44.225  37.426  32.372  1.00  0.00     0.124 S 
ATOM     71  O   UNL A   1      43.881  38.142  31.146  1.00  0.00    -0.237 OA
ATOM     72  O   UNL A   1      43.247  37.527  33.452  1.00  0.00    -0.237 OA
ATOM     73  O   UNL A   1      45.621  37.537  32.788  1.00  0.00    -0.744 OA
ENDBRANCH  69  70
ENDBRANCH  50  64
BRANCH  51  74
ATOM     74  C   UNL A   1      42.493  23.686  27.688  1.00  0.00    -0.014 A 
ATOM     75  C   UNL A   1      42.270  22.607  28.561  1.00  0.00     0.010 A 
ATOM     76  C   UNL A   1      42.541  23.446  26.303  1.00  0.00     0.010 A 
ATOM     77  C   UNL A   1      42.123  21.309  28.062  1.00  0.00     0.020 A 
ATOM     78  C   UNL A   1      42.369  22.154  25.798  1.00  0.00     0.020 A 
ATOM     79  C   UNL A   1      42.175  21.090  26.683  1.00  0.00     0.054 A 
BRANCH  79  80
ATOM     80  S   UNL A   1      41.942  19.404  26.054  1.00  0.00     0.124 S 
ATOM     81  O   UNL A   1      40.498  19.353  25.851  1.00  0.00    -0.237 OA
ATOM     82  O   UNL A   1      42.752  19.404  24.839  1.00  0.00    -0.237 OA
ATOM     83  O   UNL A   1      42.454  18.563  27.133  1.00  0.00    -0.744 OA
ENDBRANCH  79  80
ENDBRANCH  51  74
BRANCH  63  84
ATOM     84  C   UNL A   1      47.997  27.247  30.100  1.00  0.00    -0.014 A 
ATOM     85  C   UNL A   1      48.990  27.482  29.135  1.00  0.00     0.010 A 
ATOM     86  C   UNL A   1      48.366  26.762  31.368  1.00  0.00     0.010 A 
ATOM     87  C   UNL A   1      50.333  27.235  29.435  1.00  0.00     0.020 A 
ATOM     88  C   UNL A   1      49.707  26.534  31.679  1.00  0.00     0.020 A 
ATOM     89  C   UNL A   1      50.683  26.769  30.708  1.00  0.00     0.054 A 
BRANCH  89  90
ATOM     90  S   UNL A   1      52.439  26.545  31.104  1.00  0.00     0.124 S 
ATOM     91  O   UNL A   1      52.747  27.775  31.827  1.00  0.00    -0.237 OA
ATOM     92  O   UNL A   1      52.434  25.326  31.908  1.00  0.00    -0.237 OA
ATOM     93  O   UNL A   1      53.075  26.416  29.794  1.00  0.00    -0.744 OA
ENDBRANCH  89  90
ENDBRANCH  63  84
ENDBRANCH  37  38
ENDBRANCH  29  32
ENDBRANCH  27  28
ENDBRANCH   1  27
TORSDOF 16
ENDMDL
MODEL 2
REMARK VINA RESULT:     -11.3      2.994      9.134
REMARK SMILES Cc1ccc(Cl)cc1NC(=O)N[C@@](C)(C(=O)NCCCNC(=O)c1ccc(-c2c3nc(c(-c4ccc(S(=O)(=O)[O-])cc4)c4ccc([nH]4)c(-c4ccc(S(=O)(=O)[O-])cc4)c4nc(c(-c5ccc(S(=O)(=O)[O-])cc5)c5ccc2[nH]5)C=C4)C=C3)cc1)C(F)(F)F
REMARK SMILES IDX 19 1 18 2 17 3 15 4 16 5 13 7 14 8 12 9 9 10 10 11 11 13
REMARK SMILES IDX 8 15 1 16 2 17 3 18 4 19 7 20 5 21 6 22 84 23 85 24 86 25
REMARK SMILES IDX 87 26 20 27 21 28 22 29 23 31 24 32 25 33 83 34 26 35 82 36
REMARK SMILES IDX 27 37 28 38 29 39 76 40 30 41 81 42 75 43 77 44 31 45 80 46
REMARK SMILES IDX 74 47 73 48 32 50 62 51 43 52 61 53 44 54 47 55 60 56 78 57
REMARK SMILES IDX 45 58 46 59 59 61 79 62 48 63 33 64 34 65 42 66 35 67 41 68
REMARK SMILES IDX 36 69 37 70 38 71 39 72 40 73 63 74 64 75 72 76 65 77 71 78
REMARK SMILES IDX 66 79 67 80 68 81 69 82 70 83 49 84 50 85 58 86 51 87 57 88
REMARK SMILES IDX 52 89 53 90 54 91 55 92 56 93
REMARK H PARENT 17 6 9 12 12 14 21 30 77 49 47 60
REMARK Flexibility Score: inf
ROOT
ATOM      1  C   UNL A   1      35.951  23.317  26.166  1.00  0.00     0.042 C 
ENDROOT
BRANCH   1   2
ATOM      2  C   UNL A   1      35.072  22.139  25.755  1.00  0.00     0.117 C 
BRANCH   2   3
ATOM      3  N   UNL A   1      34.491  22.345  24.440  1.00  0.00    -0.354 N 
ATOM      4  C   UNL A   1      33.128  22.379  24.278  1.00  0.00     0.255 C 
ATOM      5  O   UNL A   1      32.561  21.317  24.030  1.00  0.00    -0.272 OA
ATOM      6  H   UNL A   1      35.079  22.461  23.659  1.00  0.00     0.163 HD
BRANCH   4   7
ATOM      7  C   UNL A   1      32.382  23.712  24.554  1.00  0.00     0.213 C 
ATOM      8  C   UNL A   1      33.386  24.819  24.928  1.00  0.00     0.056 C 
BRANCH   7   9
ATOM      9  N   UNL A   1      31.457  23.428  25.699  1.00  0.00    -0.316 N 
ATOM     10  N   UNL A   1      30.158  25.321  26.389  1.00  0.00    -0.308 N 
ATOM     11  C   UNL A   1      30.567  24.049  26.472  1.00  0.00     0.320 C 
ATOM     12  H   UNL A   1      29.301  25.462  26.851  1.00  0.00     0.171 HD
ATOM     13  O   UNL A   1      29.970  23.329  27.282  1.00  0.00    -0.248 OA
ATOM     14  H   UNL A   1      31.530  22.482  25.962  1.00  0.00     0.166 HD
BRANCH  10  15
ATOM     15  C   UNL A   1      30.639  26.498  25.811  1.00  0.00     0.047 A 
ATOM     16  C   UNL A   1      28.823  26.374  24.002  1.00  0.00     0.046 C 
ATOM     17  C   UNL A   1      30.058  26.973  24.619  1.00  0.00    -0.027 A 
ATOM     18  C   UNL A   1      30.643  28.074  23.966  1.00  0.00     0.007 A 
ATOM     19  C   UNL A   1      31.747  28.725  24.514  1.00  0.00     0.021 A 
ATOM     20  C   UNL A   1      31.640  27.248  26.424  1.00  0.00     0.047 A 
ATOM     21  C   UNL A   1      32.212  28.336  25.764  1.00  0.00     0.043 A 
ATOM     22  Cl  UNL A   1      33.529  29.180  26.483  1.00  0.00    -0.084 Cl
ENDBRANCH  10  15
ENDBRANCH   7   9
BRANCH   7  23
ATOM     23  C   UNL A   1      31.749  23.931  23.155  1.00  0.00     0.420 C 
ATOM     24  F   UNL A   1      31.799  25.216  22.740  1.00  0.00    -0.168 F 
ATOM     25  F   UNL A   1      32.330  23.193  22.190  1.00  0.00    -0.168 F 
ATOM     26  F   UNL A   1      30.444  23.545  23.149  1.00  0.00    -0.168 F 
ENDBRANCH   7  23
ENDBRANCH   4   7
ENDBRANCH   2   3
ENDBRANCH   1   2
BRANCH   1  27
ATOM     27  C   UNL A   1      37.114  23.584  25.215  1.00  0.00     0.118 C 
BRANCH  27  28
ATOM     28  N   UNL A   1      38.238  22.678  25.428  1.00  0.00    -0.352 N 
ATOM     29  C   UNL A   1      39.430  22.938  26.061  1.00  0.00     0.251 C 
ATOM     30  H   UNL A   1      38.128  21.766  25.076  1.00  0.00     0.163 HD
ATOM     31  O   UNL A   1      40.348  22.126  26.031  1.00  0.00    -0.269 OA
BRANCH  29  32
ATOM     32  C   UNL A   1      39.585  24.233  26.747  1.00  0.00     0.039 A 
ATOM     33  C   UNL A   1      39.084  24.386  28.041  1.00  0.00     0.014 A 
ATOM     34  C   UNL A   1      40.322  25.249  26.135  1.00  0.00     0.014 A 
ATOM     35  C   UNL A   1      39.388  25.546  28.757  1.00  0.00     0.010 A 
ATOM     36  C   UNL A   1      40.691  26.360  26.879  1.00  0.00     0.010 A 
ATOM     37  C   UNL A   1      40.226  26.522  28.195  1.00  0.00    -0.014 A 
BRANCH  37  38
ATOM     38  C   UNL A   1      40.614  27.750  28.931  1.00  0.00     0.031 A 
ATOM     39  C   UNL A   1      41.920  27.764  29.677  1.00  0.00     0.074 A 
ATOM     40  C   UNL A   1      39.762  28.790  29.025  1.00  0.00     0.049 A 
ATOM     41  N   UNL A   1      42.367  28.633  30.545  1.00  0.00    -0.248 NA
ATOM     42  C   UNL A   1      42.824  26.623  29.447  1.00  0.00     0.031 C 
ATOM     43  C   UNL A   1      38.453  28.883  28.372  1.00  0.00     0.029 A 
ATOM     44  N   UNL A   1      39.862  29.964  29.729  1.00  0.00    -0.354 N 
ATOM     45  C   UNL A   1      43.576  28.119  31.000  1.00  0.00     0.074 A 
ATOM     46  C   UNL A   1      43.774  26.847  30.341  1.00  0.00     0.031 C 
ATOM     47  C   UNL A   1      37.880  30.054  28.698  1.00  0.00     0.029 A 
ATOM     48  C   UNL A   1      38.755  30.773  29.618  1.00  0.00     0.049 A 
ATOM     49  H   UNL A   1      40.653  30.205  30.264  1.00  0.00     0.167 HD
ATOM     50  C   UNL A   1      44.449  28.665  31.877  1.00  0.00     0.031 A 
ATOM     51  C   UNL A   1      38.471  31.952  30.206  1.00  0.00     0.031 A 
ATOM     52  C   UNL A   1      44.266  29.951  32.490  1.00  0.00     0.049 A 
ATOM     53  C   UNL A   1      39.474  32.556  31.152  1.00  0.00     0.074 A 
ATOM     54  C   UNL A   1      45.120  30.625  33.345  1.00  0.00     0.029 A 
ATOM     55  N   UNL A   1      43.160  30.765  32.298  1.00  0.00    -0.354 N 
ATOM     56  N   UNL A   1      40.631  32.075  31.541  1.00  0.00    -0.248 NA
ATOM     57  C   UNL A   1      39.141  33.866  31.731  1.00  0.00     0.031 C 
ATOM     58  C   UNL A   1      44.516  31.836  33.693  1.00  0.00     0.029 A 
ATOM     59  C   UNL A   1      43.308  31.935  33.018  1.00  0.00     0.049 A 
ATOM     60  H   UNL A   1      42.385  30.542  31.733  1.00  0.00     0.167 HD
ATOM     61  C   UNL A   1      41.179  33.039  32.380  1.00  0.00     0.074 A 
ATOM     62  C   UNL A   1      40.230  34.131  32.442  1.00  0.00     0.031 C 
ATOM     63  C   UNL A   1      42.364  33.023  33.036  1.00  0.00     0.031 A 
BRANCH  50  64
ATOM     64  C   UNL A   1      45.681  27.871  32.220  1.00  0.00    -0.014 A 
ATOM     65  C   UNL A   1      46.864  28.009  31.474  1.00  0.00     0.010 A 
ATOM     66  C   UNL A   1      45.664  27.000  33.325  1.00  0.00     0.010 A 
ATOM     67  C   UNL A   1      47.996  27.259  31.798  1.00  0.00     0.020 A 
ATOM     68  C   UNL A   1      46.804  26.269  33.670  1.00  0.00     0.020 A 
ATOM     69  C   UNL A   1      47.957  26.389  32.892  1.00  0.00     0.054 A 
BRANCH  69  70
ATOM     70  S   UNL A   1      49.449  25.446  33.307  1.00  0.00     0.124 S 
ATOM     71  O   UNL A   1      50.014  25.182  31.986  1.00  0.00    -0.237 OA
ATOM     72  O   UNL A   1      50.204  26.384  34.134  1.00  0.00    -0.237 OA
ATOM     73  O   UNL A   1      48.934  24.275  34.011  1.00  0.00    -0.744 OA
ENDBRANCH  69  70
ENDBRANCH  50  64
BRANCH  51  74
ATOM     74  C   UNL A   1      37.189  32.648  29.908  1.00  0.00    -0.014 A 
ATOM     75  C   UNL A   1      37.134  33.640  28.913  1.00  0.00     0.010 A 
ATOM     76  C   UNL A   1      36.016  32.322  30.613  1.00  0.00     0.010 A 
ATOM     77  C   UNL A   1      35.937  34.311  28.645  1.00  0.00     0.020 A 
ATOM     78  C   UNL A   1      34.811  32.973  30.330  1.00  0.00     0.020 A 
ATOM     79  C   UNL A   1      34.783  33.975  29.356  1.00  0.00     0.054 A 
BRANCH  79  80
ATOM     80  S   UNL A   1      33.231  34.831  28.964  1.00  0.00     0.124 S 
ATOM     81  O   UNL A   1      32.581  34.891  30.269  1.00  0.00    -0.237 OA
ATOM     82  O   UNL A   1      33.700  36.107  28.432  1.00  0.00    -0.237 OA
ATOM     83  O   UNL A   1      32.595  33.953  27.985  1.00  0.00    -0.744 OA
ENDBRANCH  79  80
ENDBRANCH  51  74
BRANCH  63  84
ATOM     84  C   UNL A   1      42.748  34.243  33.825  1.00  0.00    -0.014 A 
ATOM     85  C   UNL A   1      42.443  34.352  35.193  1.00  0.00     0.010 A 
ATOM     86  C   UNL A   1      43.528  35.239  33.209  1.00  0.00     0.010 A 
ATOM     87  C   UNL A   1      42.911  35.443  35.931  1.00  0.00     0.020 A 
ATOM     88  C   UNL A   1      44.015  36.318  33.948  1.00  0.00     0.020 A 
ATOM     89  C   UNL A   1      43.700  36.415  35.305  1.00  0.00     0.054 A 
BRANCH  89  90
ATOM     90  S   UNL A   1      44.374  37.770  36.305  1.00  0.00     0.124 S 
ATOM     91  O   UNL A   1      43.491  37.758  37.468  1.00  0.00    -0.237 OA
ATOM     92  O   UNL A   1      45.746  37.335  36.553  1.00  0.00    -0.237 OA
ATOM     93  O   UNL A   1      44.246  38.939  35.436  1.00  0.00    -0.744 OA
ENDBRANCH  89  90
ENDBRANCH  63  84
ENDBRANCH  37  38
ENDBRANCH  29  32
ENDBRANCH  27  28
ENDBRANCH   1  27
TORSDOF 16
ENDMDL
MODEL 3
REMARK VINA RESULT:     -11.2      1.237      1.783
REMARK SMILES Cc1ccc(Cl)cc1NC(=O)N[C@@](C)(C(=O)NCCCNC(=O)c1ccc(-c2c3nc(c(-c4ccc(S(=O)(=O)[O-])cc4)c4ccc([nH]4)c(-c4ccc(S(=O)(=O)[O-])cc4)c4nc(c(-c5ccc(S(=O)(=O)[O-])cc5)c5ccc2[nH]5)C=C4)C=C3)cc1)C(F)(F)F
REMARK SMILES IDX 19 1 18 2 17 3 15 4 16 5 13 7 14 8 12 9 9 10 10 11 11 13
REMARK SMILES IDX 8 15 1 16 2 17 3 18 4 19 7 20 5 21 6 22 84 23 85 24 86 25
REMARK SMILES IDX 87 26 20 27 21 28 22 29 23 31 24 32 25 33 83 34 26 35 82 36
REMARK SMILES IDX 27 37 28 38 29 39 76 40 30 41 81 42 75 43 77 44 31 45 80 46
REMARK SMILES IDX 74 47 73 48 32 50 62 51 43 52 61 53 44 54 47 55 60 56 78 57
REMARK SMILES IDX 45 58 46 59 59 61 79 62 48 63 33 64 34 65 42 66 35 67 41 68
REMARK SMILES IDX 36 69 37 70 38 71 39 72 40 73 63 74 64 75 72 76 65 77 71 78
REMARK SMILES IDX 66 79 67 80 68 81 69 82 70 83 49 84 50 85 58 86 51 87 57 88
REMARK SMILES IDX 52 89 53 90 54 91 55 92 56 93
REMARK H PARENT 17 6 9 12 12 14 21 30 77 49 47 60
REMARK Flexibility Score: inf
ROOT
ATOM      1  C   UNL A   1      32.267  28.181  27.333  1.00  0.00     0.042 C 
ENDROOT
BRANCH   1   2
ATOM      2  C   UNL A   1      31.705  27.876  25.947  1.00  0.00     0.117 C 
BRANCH   2   3
ATOM      3  N   UNL A   1      30.902  26.666  25.956  1.00  0.00    -0.354 N 
ATOM      4  C   UNL A   1      30.876  25.838  24.861  1.00  0.00     0.255 C 
ATOM      5  O   UNL A   1      30.009  26.046  24.015  1.00  0.00    -0.272 OA
ATOM      6  H   UNL A   1      30.372  26.437  26.753  1.00  0.00     0.163 HD
BRANCH   4   7
ATOM      7  C   UNL A   1      32.015  24.796  24.692  1.00  0.00     0.213 C 
ATOM      8  C   UNL A   1      33.240  25.204  25.531  1.00  0.00     0.056 C 
BRANCH   7   9
ATOM      9  N   UNL A   1      32.350  24.797  23.231  1.00  0.00    -0.316 N 
ATOM     10  N   UNL A   1      34.061  23.230  22.628  1.00  0.00    -0.308 N 
ATOM     11  C   UNL A   1      33.175  24.199  22.371  1.00  0.00     0.320 C 
ATOM     12  H   UNL A   1      34.327  22.749  21.812  1.00  0.00     0.171 HD
ATOM     13  O   UNL A   1      33.013  24.500  21.181  1.00  0.00    -0.248 OA
ATOM     14  H   UNL A   1      31.779  25.443  22.756  1.00  0.00     0.166 HD
BRANCH  10  15
ATOM     15  C   UNL A   1      34.703  22.727  23.761  1.00  0.00     0.047 A 
ATOM     16  C   UNL A   1      33.157  20.678  23.752  1.00  0.00     0.046 C 
ATOM     17  C   UNL A   1      34.230  21.542  24.359  1.00  0.00    -0.027 A 
ATOM     18  C   UNL A   1      34.787  21.124  25.581  1.00  0.00     0.007 A 
ATOM     19  C   UNL A   1      35.833  21.834  26.169  1.00  0.00     0.021 A 
ATOM     20  C   UNL A   1      35.845  23.337  24.276  1.00  0.00     0.047 A 
ATOM     21  C   UNL A   1      36.386  22.913  25.490  1.00  0.00     0.043 A 
ATOM     22  Cl  UNL A   1      37.725  23.753  26.173  1.00  0.00    -0.084 Cl
ENDBRANCH  10  15
ENDBRANCH   7   9
BRANCH   7  23
ATOM     23  C   UNL A   1      31.291  23.549  25.263  1.00  0.00     0.420 C 
ATOM     24  F   UNL A   1      30.855  22.698  24.309  1.00  0.00    -0.168 F 
ATOM     25  F   UNL A   1      32.062  22.827  26.099  1.00  0.00    -0.168 F 
ATOM     26  F   UNL A   1      30.216  23.916  26.014  1.00  0.00    -0.168 F 
ENDBRANCH   7  23
ENDBRANCH   4   7
ENDBRANCH   2   3
ENDBRANCH   1   2
BRANCH   1  27
ATOM     27  C   UNL A   1      33.640  28.844  27.312  1.00  0.00     0.118 C 
BRANCH  27  28
ATOM     28  N   UNL A   1      33.607  30.230  27.768  1.00  0.00    -0.352 N 
ATOM     29  C   UNL A   1      34.595  30.936  28.411  1.00  0.00     0.251 C 
ATOM     30  H   UNL A   1      32.771  30.720  27.593  1.00  0.00     0.163 HD
ATOM     31  O   UNL A   1      34.372  32.049  28.875  1.00  0.00    -0.269 OA
BRANCH  29  32
ATOM     32  C   UNL A   1      35.919  30.306  28.555  1.00  0.00     0.039 A 
ATOM     33  C   UNL A   1      36.812  30.336  27.482  1.00  0.00     0.014 A 
ATOM     34  C   UNL A   1      36.299  29.784  29.794  1.00  0.00     0.014 A 
ATOM     35  C   UNL A   1      38.125  29.902  27.676  1.00  0.00     0.010 A 
ATOM     36  C   UNL A   1      37.625  29.435  30.003  1.00  0.00     0.010 A 
ATOM     37  C   UNL A   1      38.550  29.486  28.947  1.00  0.00    -0.014 A 
BRANCH  37  38
ATOM     38  C   UNL A   1      39.945  29.058  29.214  1.00  0.00     0.031 A 
ATOM     39  C   UNL A   1      40.923  30.069  29.748  1.00  0.00     0.074 A 
ATOM     40  C   UNL A   1      40.358  27.820  28.877  1.00  0.00     0.049 A 
ATOM     41  N   UNL A   1      42.221  29.984  29.861  1.00  0.00    -0.248 NA
ATOM     42  C   UNL A   1      40.365  31.367  30.169  1.00  0.00     0.031 C 
ATOM     43  C   UNL A   1      39.512  26.759  28.322  1.00  0.00     0.029 A 
ATOM     44  N   UNL A   1      41.606  27.251  28.932  1.00  0.00    -0.354 N 
ATOM     45  C   UNL A   1      42.640  31.228  30.317  1.00  0.00     0.074 A 
ATOM     46  C   UNL A   1      41.463  32.062  30.424  1.00  0.00     0.031 C 
ATOM     47  C   UNL A   1      40.263  25.668  28.100  1.00  0.00     0.029 A 
ATOM     48  C   UNL A   1      41.649  25.963  28.450  1.00  0.00     0.049 A 
ATOM     49  H   UNL A   1      42.396  27.720  29.284  1.00  0.00     0.167 HD
ATOM     50  C   UNL A   1      43.890  31.636  30.632  1.00  0.00     0.031 A 
ATOM     51  C   UNL A   1      42.691  25.124  28.290  1.00  0.00     0.031 A 
ATOM     52  C   UNL A   1      45.047  30.786  30.568  1.00  0.00     0.049 A 
ATOM     53  C   UNL A   1      44.069  25.588  28.680  1.00  0.00     0.074 A 
ATOM     54  C   UNL A   1      46.350  31.080  30.925  1.00  0.00     0.029 A 
ATOM     55  N   UNL A   1      45.033  29.469  30.135  1.00  0.00    -0.354 N 
ATOM     56  N   UNL A   1      44.441  26.756  29.147  1.00  0.00    -0.248 NA
ATOM     57  C   UNL A   1      45.166  24.621  28.533  1.00  0.00     0.031 C 
ATOM     58  C   UNL A   1      47.132  29.948  30.679  1.00  0.00     0.029 A 
ATOM     59  C   UNL A   1      46.306  28.935  30.215  1.00  0.00     0.049 A 
ATOM     60  H   UNL A   1      44.236  28.986  29.819  1.00  0.00     0.167 HD
ATOM     61  C   UNL A   1      45.807  26.651  29.383  1.00  0.00     0.074 A 
ATOM     62  C   UNL A   1      46.196  25.307  29.011  1.00  0.00     0.031 C 
ATOM     63  C   UNL A   1      46.661  27.583  29.871  1.00  0.00     0.031 A 
BRANCH  50  64
ATOM     64  C   UNL A   1      44.068  33.063  31.076  1.00  0.00    -0.014 A 
ATOM     65  C   UNL A   1      43.982  33.416  32.434  1.00  0.00     0.010 A 
ATOM     66  C   UNL A   1      44.358  34.058  30.126  1.00  0.00     0.010 A 
ATOM     67  C   UNL A   1      44.139  34.745  32.831  1.00  0.00     0.020 A 
ATOM     68  C   UNL A   1      44.544  35.386  30.522  1.00  0.00     0.020 A 
ATOM     69  C   UNL A   1      44.415  35.724  31.870  1.00  0.00     0.054 A 
BRANCH  69  70
ATOM     70  S   UNL A   1      44.640  37.438  32.416  1.00  0.00     0.124 S 
ATOM     71  O   UNL A   1      44.601  38.164  31.149  1.00  0.00    -0.237 OA
ATOM     72  O   UNL A   1      43.493  37.649  33.294  1.00  0.00    -0.237 OA
ATOM     73  O   UNL A   1      45.938  37.421  33.085  1.00  0.00    -0.744 OA
ENDBRANCH  69  70
ENDBRANCH  50  64
BRANCH  51  74
ATOM     74  C   UNL A   1      42.473  23.754  27.749  1.00  0.00    -0.014 A 
ATOM     75  C   UNL A   1      42.250  22.674  28.621  1.00  0.00     0.010 A 
ATOM     76  C   UNL A   1      42.485  23.520  26.362  1.00  0.00     0.010 A 
ATOM     77  C   UNL A   1      42.066  21.382  28.119  1.00  0.00     0.020 A 
ATOM     78  C   UNL A   1      42.276  22.234  25.854  1.00  0.00     0.020 A 
ATOM     79  C   UNL A   1      42.082  21.169  26.738  1.00  0.00     0.054 A 
BRANCH  79  80
ATOM     80  S   UNL A   1      41.802  19.491  26.106  1.00  0.00     0.124 S 
ATOM     81  O   UNL A   1      42.660  19.465  24.925  1.00  0.00    -0.237 OA
ATOM     82  O   UNL A   1      42.236  18.656  27.222  1.00  0.00    -0.237 OA
ATOM     83  O   UNL A   1      40.366  19.462  25.839  1.00  0.00    -0.744 OA
ENDBRANCH  79  80
ENDBRANCH  51  74
BRANCH  63  84
ATOM     84  C   UNL A   1      48.090  27.176  30.100  1.00  0.00    -0.014 A 
ATOM     85  C   UNL A   1      49.076  27.391  29.122  1.00  0.00     0.010 A 
ATOM     86  C   UNL A   1      48.465  26.679  31.362  1.00  0.00     0.010 A 
ATOM     87  C   UNL A   1      50.416  27.111  29.404  1.00  0.00     0.020 A 
ATOM     88  C   UNL A   1      49.805  26.418  31.653  1.00  0.00     0.020 A 
ATOM     89  C   UNL A   1      50.772  26.633  30.670  1.00  0.00     0.054 A 
BRANCH  89  90
ATOM     90  S   UNL A   1      52.528  26.367  31.041  1.00  0.00     0.124 S 
ATOM     91  O   UNL A   1      53.115  26.303  29.706  1.00  0.00    -0.237 OA
ATOM     92  O   UNL A   1      52.873  27.551  31.824  1.00  0.00    -0.237 OA
ATOM     93  O   UNL A   1      52.537  25.111  31.788  1.00  0.00    -0.744 OA
ENDBRANCH  89  90
ENDBRANCH  63  84
ENDBRANCH  37  38
ENDBRANCH  29  32
ENDBRANCH  27  28
ENDBRANCH   1  27
TORSDOF 16
ENDMDL
