MODEL 1
REMARK VINA RESULT:     -10.8      0.000      0.000
REMARK SMILES CCN(CCC(=O)NCCCNC(=O)c1ccc(-c2c3nc(c(-c4ccc(S(=O)(=O)[O-])cc4)c4ccc([nH]4)c(-c4ccc(S(=O)(=O)[O-])cc4)c4nc(c(-c5ccc(S(=O)(=O)[O-])cc5)c5ccc2[nH]5)C=C4)C=C3)cc1)C(=O)c1cc(Cl)ccc1F
REMARK SMILES IDX 9 1 8 2 6 3 7 4 5 6 4 7 3 8 2 9 1 10 75 11 76 12 77 13 78 14
REMARK SMILES IDX 83 15 79 16 82 17 84 18 80 19 81 20 10 21 11 22 12 23 13 24
REMARK SMILES IDX 14 26 15 27 16 28 74 29 17 30 73 31 18 32 19 33 20 34 67 35
REMARK SMILES IDX 21 36 72 37 66 38 68 39 22 40 71 41 65 42 64 43 23 45 53 46
REMARK SMILES IDX 34 47 52 48 35 49 38 50 51 51 69 52 36 53 37 54 50 56 70 57
REMARK SMILES IDX 39 58 24 59 25 60 33 61 26 62 32 63 27 64 28 65 29 66 30 67
REMARK SMILES IDX 31 68 54 69 55 70 63 71 56 72 62 73 57 74 58 75 59 76 60 77
REMARK SMILES IDX 61 78 40 79 41 80 49 81 42 82 48 83 43 84 44 85 45 86 46 87
REMARK SMILES IDX 47 88
REMARK H PARENT 8 5 12 25 68 44 38 55
REMARK Flexibility Score: inf
ROOT
ATOM      1  C   UNL A   1      39.684  22.153  26.236  1.00  0.00     0.117 C 
ENDROOT
BRANCH   1   2
ATOM      2  N   UNL A   1      38.684  23.187  26.015  1.00  0.00    -0.356 N 
ATOM      3  C   UNL A   1      37.351  23.077  25.756  1.00  0.00     0.221 C 
ATOM      4  O   UNL A   1      36.670  24.105  25.752  1.00  0.00    -0.275 OA
ATOM      5  H   UNL A   1      39.024  24.110  26.060  1.00  0.00     0.163 HD
BRANCH   3   6
ATOM      6  C   UNL A   1      36.724  21.735  25.479  1.00  0.00     0.121 C 
BRANCH   6   7
ATOM      7  C   UNL A   1      35.817  21.754  24.255  1.00  0.00     0.129 C 
BRANCH   7   8
ATOM      8  N   UNL A   1      34.374  21.694  24.515  1.00  0.00    -0.338 N 
BRANCH   8   9
ATOM      9  C   UNL A   1      33.625  22.846  23.961  1.00  0.00     0.116 C 
ATOM     10  C   UNL A   1      33.237  22.883  22.492  1.00  0.00     0.027 C 
ENDBRANCH   8   9
BRANCH   8  11
ATOM     11  C   UNL A   1      33.711  20.600  25.107  1.00  0.00     0.256 C 
ATOM     12  O   UNL A   1      33.339  20.614  26.281  1.00  0.00    -0.269 OA
BRANCH  11  13
ATOM     13  C   UNL A   1      33.642  19.255  24.457  1.00  0.00     0.077 A 
ATOM     14  C   UNL A   1      34.408  18.246  25.078  1.00  0.00     0.037 A 
ATOM     15  C   UNL A   1      32.878  18.888  23.353  1.00  0.00     0.136 A 
ATOM     16  C   UNL A   1      34.492  16.962  24.534  1.00  0.00     0.042 A 
ATOM     17  C   UNL A   1      33.003  17.619  22.775  1.00  0.00     0.041 A 
ATOM     18  F   UNL A   1      31.942  19.690  22.836  1.00  0.00    -0.206 F 
ATOM     19  Cl  UNL A   1      35.434  15.754  25.311  1.00  0.00    -0.084 Cl
ATOM     20  C   UNL A   1      33.824  16.656  23.356  1.00  0.00     0.023 A 
ENDBRANCH  11  13
ENDBRANCH   8  11
ENDBRANCH   7   8
ENDBRANCH   6   7
ENDBRANCH   3   6
ENDBRANCH   1   2
BRANCH   1  21
ATOM     21  C   UNL A   1      40.626  22.457  27.395  1.00  0.00     0.042 C 
BRANCH  21  22
ATOM     22  C   UNL A   1      42.021  22.908  26.977  1.00  0.00     0.118 C 
BRANCH  22  23
ATOM     23  N   UNL A   1      41.977  23.954  25.977  1.00  0.00    -0.352 N 
ATOM     24  C   UNL A   1      41.675  25.290  26.070  1.00  0.00     0.251 C 
ATOM     25  H   UNL A   1      42.206  23.655  25.068  1.00  0.00     0.163 HD
ATOM     26  O   UNL A   1      41.464  25.891  25.016  1.00  0.00    -0.269 OA
BRANCH  24  27
ATOM     27  C   UNL A   1      41.593  26.034  27.359  1.00  0.00     0.039 A 
ATOM     28  C   UNL A   1      40.417  25.898  28.110  1.00  0.00     0.014 A 
ATOM     29  C   UNL A   1      42.549  26.961  27.785  1.00  0.00     0.014 A 
ATOM     30  C   UNL A   1      40.196  26.685  29.248  1.00  0.00     0.010 A 
ATOM     31  C   UNL A   1      42.365  27.690  28.970  1.00  0.00     0.010 A 
ATOM     32  C   UNL A   1      41.166  27.596  29.692  1.00  0.00    -0.014 A 
BRANCH  32  33
ATOM     33  C   UNL A   1      40.876  28.501  30.845  1.00  0.00     0.031 A 
ATOM     34  C   UNL A   1      41.713  28.437  32.101  1.00  0.00     0.074 A 
ATOM     35  C   UNL A   1      39.886  29.414  30.763  1.00  0.00     0.049 A 
ATOM     36  N   UNL A   1      41.661  29.195  33.170  1.00  0.00    -0.248 NA
ATOM     37  C   UNL A   1      42.735  27.380  32.173  1.00  0.00     0.031 C 
ATOM     38  C   UNL A   1      38.979  29.582  29.626  1.00  0.00     0.029 A 
ATOM     39  N   UNL A   1      39.488  30.387  31.650  1.00  0.00    -0.354 N 
ATOM     40  C   UNL A   1      42.630  28.703  34.038  1.00  0.00     0.074 A 
ATOM     41  C   UNL A   1      43.221  27.550  33.395  1.00  0.00     0.031 C 
ATOM     42  C   UNL A   1      38.160  30.619  29.866  1.00  0.00     0.029 A 
ATOM     43  C   UNL A   1      38.461  31.174  31.183  1.00  0.00     0.049 A 
ATOM     44  H   UNL A   1      39.899  30.509  32.536  1.00  0.00     0.167 HD
ATOM     45  C   UNL A   1      43.018  29.172  35.250  1.00  0.00     0.031 A 
ATOM     46  C   UNL A   1      37.836  32.231  31.741  1.00  0.00     0.031 A 
ATOM     47  C   UNL A   1      42.446  30.323  35.899  1.00  0.00     0.049 A 
ATOM     48  C   UNL A   1      38.279  32.735  33.088  1.00  0.00     0.074 A 
ATOM     49  C   UNL A   1      42.799  30.891  37.113  1.00  0.00     0.029 A 
ATOM     50  N   UNL A   1      41.405  31.084  35.391  1.00  0.00    -0.354 N 
ATOM     51  N   UNL A   1      39.235  32.285  33.865  1.00  0.00    -0.248 NA
ATOM     52  C   UNL A   1      37.572  33.909  33.623  1.00  0.00     0.031 C 
ATOM     53  C   UNL A   1      41.945  31.972  37.357  1.00  0.00     0.029 A 
ATOM     54  C   UNL A   1      41.096  32.109  36.271  1.00  0.00     0.049 A 
ATOM     55  H   UNL A   1      40.952  30.920  34.532  1.00  0.00     0.167 HD
ATOM     56  C   UNL A   1      39.267  33.142  34.962  1.00  0.00     0.074 A 
ATOM     57  C   UNL A   1      38.242  34.141  34.744  1.00  0.00     0.031 C 
ATOM     58  C   UNL A   1      40.079  33.105  36.047  1.00  0.00     0.031 A 
BRANCH  45  59
ATOM     59  C   UNL A   1      44.121  28.429  35.961  1.00  0.00    -0.014 A 
ATOM     60  C   UNL A   1      43.836  27.332  36.795  1.00  0.00     0.010 A 
ATOM     61  C   UNL A   1      45.461  28.810  35.767  1.00  0.00     0.010 A 
ATOM     62  C   UNL A   1      44.865  26.663  37.462  1.00  0.00     0.020 A 
ATOM     63  C   UNL A   1      46.496  28.125  36.410  1.00  0.00     0.020 A 
ATOM     64  C   UNL A   1      46.189  27.068  37.270  1.00  0.00     0.054 A 
BRANCH  64  65
ATOM     65  S   UNL A   1      47.508  26.178  38.143  1.00  0.00     0.124 S 
ATOM     66  O   UNL A   1      48.700  26.886  37.686  1.00  0.00    -0.237 OA
ATOM     67  O   UNL A   1      47.159  26.380  39.547  1.00  0.00    -0.237 OA
ATOM     68  O   UNL A   1      47.376  24.804  37.664  1.00  0.00    -0.744 OA
ENDBRANCH  64  65
ENDBRANCH  45  59
BRANCH  46  69
ATOM     69  C   UNL A   1      36.736  32.915  31.005  1.00  0.00    -0.014 A 
ATOM     70  C   UNL A   1      35.395  32.554  31.227  1.00  0.00     0.010 A 
ATOM     71  C   UNL A   1      37.025  33.934  30.080  1.00  0.00     0.010 A 
ATOM     72  C   UNL A   1      34.365  33.185  30.523  1.00  0.00     0.020 A 
ATOM     73  C   UNL A   1      35.996  34.585  29.393  1.00  0.00     0.020 A 
ATOM     74  C   UNL A   1      34.672  34.198  29.611  1.00  0.00     0.054 A 
BRANCH  74  75
ATOM     75  S   UNL A   1      33.318  35.039  28.746  1.00  0.00     0.124 S 
ATOM     76  O   UNL A   1      32.533  35.572  29.855  1.00  0.00    -0.237 OA
ATOM     77  O   UNL A   1      34.024  36.029  27.938  1.00  0.00    -0.237 OA
ATOM     78  O   UNL A   1      32.680  33.966  27.986  1.00  0.00    -0.744 OA
ENDBRANCH  74  75
ENDBRANCH  46  69
BRANCH  58  79
ATOM     79  C   UNL A   1      39.935  34.209  37.064  1.00  0.00    -0.014 A 
ATOM     80  C   UNL A   1      40.575  35.449  36.899  1.00  0.00     0.010 A 
ATOM     81  C   UNL A   1      39.111  34.008  38.187  1.00  0.00     0.010 A 
ATOM     82  C   UNL A   1      40.427  36.454  37.860  1.00  0.00     0.020 A 
ATOM     83  C   UNL A   1      38.940  35.019  39.136  1.00  0.00     0.020 A 
ATOM     84  C   UNL A   1      39.615  36.230  38.976  1.00  0.00     0.054 A 
BRANCH  84  85
ATOM     85  S   UNL A   1      39.417  37.557  40.198  1.00  0.00     0.124 S 
ATOM     86  O   UNL A   1      38.475  38.448  39.530  1.00  0.00    -0.237 OA
ATOM     87  O   UNL A   1      38.895  36.849  41.364  1.00  0.00    -0.237 OA
ATOM     88  O   UNL A   1      40.771  38.086  40.356  1.00  0.00    -0.744 OA
ENDBRANCH  84  85
ENDBRANCH  58  79
ENDBRANCH  32  33
ENDBRANCH  24  27
ENDBRANCH  22  23
ENDBRANCH  21  22
ENDBRANCH   1  21
TORSDOF 18
ENDMDL
MODEL 2
REMARK VINA RESULT:     -10.4      3.410      9.514
REMARK SMILES CCN(CCC(=O)NCCCNC(=O)c1ccc(-c2c3nc(c(-c4ccc(S(=O)(=O)[O-])cc4)c4ccc([nH]4)c(-c4ccc(S(=O)(=O)[O-])cc4)c4nc(c(-c5ccc(S(=O)(=O)[O-])cc5)c5ccc2[nH]5)C=C4)C=C3)cc1)C(=O)c1cc(Cl)ccc1F
REMARK SMILES IDX 9 1 8 2 6 3 7 4 5 6 4 7 3 8 2 9 1 10 75 11 76 12 77 13 78 14
REMARK SMILES IDX 83 15 79 16 82 17 84 18 80 19 81 20 10 21 11 22 12 23 13 24
REMARK SMILES IDX 14 26 15 27 16 28 74 29 17 30 73 31 18 32 19 33 20 34 67 35
REMARK SMILES IDX 21 36 72 37 66 38 68 39 22 40 71 41 65 42 64 43 23 45 53 46
REMARK SMILES IDX 34 47 52 48 35 49 38 50 51 51 69 52 36 53 37 54 50 56 70 57
REMARK SMILES IDX 39 58 24 59 25 60 33 61 26 62 32 63 27 64 28 65 29 66 30 67
REMARK SMILES IDX 31 68 54 69 55 70 63 71 56 72 62 73 57 74 58 75 59 76 60 77
REMARK SMILES IDX 61 78 40 79 41 80 49 81 42 82 48 83 43 84 44 85 45 86 46 87
REMARK SMILES IDX 47 88
REMARK H PARENT 8 5 12 25 68 44 38 55
REMARK Flexibility Score: inf
ROOT
ATOM      1  C   UNL A   1      32.497  26.488  26.186  1.00  0.00     0.117 C 
ENDROOT
BRANCH   1   2
ATOM      2  N   UNL A   1      31.437  25.706  26.803  1.00  0.00    -0.356 N 
ATOM      3  C   UNL A   1      30.800  24.587  26.357  1.00  0.00     0.221 C 
ATOM      4  O   UNL A   1      30.030  24.008  27.126  1.00  0.00    -0.275 OA
ATOM      5  H   UNL A   1      31.133  26.035  27.679  1.00  0.00     0.163 HD
BRANCH   3   6
ATOM      6  C   UNL A   1      31.028  24.071  24.959  1.00  0.00     0.121 C 
BRANCH   6   7
ATOM      7  C   UNL A   1      31.432  22.603  24.935  1.00  0.00     0.129 C 
BRANCH   7   8
ATOM      8  N   UNL A   1      32.836  22.312  25.247  1.00  0.00    -0.338 N 
BRANCH   8   9
ATOM      9  C   UNL A   1      33.022  21.610  26.538  1.00  0.00     0.116 C 
ATOM     10  C   UNL A   1      33.372  22.385  27.798  1.00  0.00     0.027 C 
ENDBRANCH   8   9
BRANCH   8  11
ATOM     11  C   UNL A   1      33.916  22.536  24.369  1.00  0.00     0.256 C 
ATOM     12  O   UNL A   1      33.786  22.495  23.145  1.00  0.00    -0.269 OA
BRANCH  11  13
ATOM     13  C   UNL A   1      35.337  22.574  24.834  1.00  0.00     0.077 A 
ATOM     14  C   UNL A   1      36.067  21.382  24.639  1.00  0.00     0.037 A 
ATOM     15  C   UNL A   1      36.016  23.656  25.386  1.00  0.00     0.136 A 
ATOM     16  C   UNL A   1      37.382  21.257  25.093  1.00  0.00     0.042 A 
ATOM     17  C   UNL A   1      37.314  23.515  25.891  1.00  0.00     0.041 A 
ATOM     18  F   UNL A   1      35.502  24.890  25.397  1.00  0.00    -0.206 F 
ATOM     19  Cl  UNL A   1      38.247  19.793  24.842  1.00  0.00    -0.084 Cl
ATOM     20  C   UNL A   1      37.996  22.309  25.760  1.00  0.00     0.023 A 
ENDBRANCH  11  13
ENDBRANCH   8  11
ENDBRANCH   7   8
ENDBRANCH   6   7
ENDBRANCH   3   6
ENDBRANCH   1   2
BRANCH   1  21
ATOM     21  C   UNL A   1      32.430  27.973  26.525  1.00  0.00     0.042 C 
BRANCH  21  22
ATOM     22  C   UNL A   1      33.601  28.797  25.999  1.00  0.00     0.118 C 
BRANCH  22  23
ATOM     23  N   UNL A   1      33.590  30.149  26.518  1.00  0.00    -0.352 N 
ATOM     24  C   UNL A   1      34.388  30.775  27.443  1.00  0.00     0.251 C 
ATOM     25  H   UNL A   1      32.886  30.722  26.139  1.00  0.00     0.163 HD
ATOM     26  O   UNL A   1      33.992  31.854  27.886  1.00  0.00    -0.269 OA
BRANCH  24  27
ATOM     27  C   UNL A   1      35.686  30.224  27.927  1.00  0.00     0.039 A 
ATOM     28  C   UNL A   1      35.722  29.705  29.229  1.00  0.00     0.014 A 
ATOM     29  C   UNL A   1      36.888  30.326  27.220  1.00  0.00     0.014 A 
ATOM     30  C   UNL A   1      36.935  29.316  29.814  1.00  0.00     0.010 A 
ATOM     31  C   UNL A   1      38.090  29.861  27.775  1.00  0.00     0.010 A 
ATOM     32  C   UNL A   1      38.137  29.393  29.096  1.00  0.00    -0.014 A 
BRANCH  32  33
ATOM     33  C   UNL A   1      39.435  29.074  29.765  1.00  0.00     0.031 A 
ATOM     34  C   UNL A   1      39.849  29.801  31.023  1.00  0.00     0.074 A 
ATOM     35  C   UNL A   1      40.235  28.105  29.275  1.00  0.00     0.049 A 
ATOM     36  N   UNL A   1      40.898  29.606  31.785  1.00  0.00    -0.248 NA
ATOM     37  C   UNL A   1      38.981  30.897  31.481  1.00  0.00     0.031 C 
ATOM     38  C   UNL A   1      39.981  27.331  28.058  1.00  0.00     0.029 A 
ATOM     39  N   UNL A   1      41.418  27.593  29.752  1.00  0.00    -0.354 N 
ATOM     40  C   UNL A   1      40.819  30.553  32.800  1.00  0.00     0.074 A 
ATOM     41  C   UNL A   1      39.648  31.358  32.530  1.00  0.00     0.031 C 
ATOM     42  C   UNL A   1      40.955  26.418  27.907  1.00  0.00     0.029 A 
ATOM     43  C   UNL A   1      41.918  26.557  28.997  1.00  0.00     0.049 A 
ATOM     44  H   UNL A   1      41.868  27.935  30.559  1.00  0.00     0.167 HD
ATOM     45  C   UNL A   1      41.627  30.732  33.875  1.00  0.00     0.031 A 
ATOM     46  C   UNL A   1      43.017  25.794  29.163  1.00  0.00     0.031 A 
ATOM     47  C   UNL A   1      42.790  29.933  34.163  1.00  0.00     0.049 A 
ATOM     48  C   UNL A   1      43.902  26.009  30.362  1.00  0.00     0.074 A 
ATOM     49  C   UNL A   1      43.648  30.021  35.247  1.00  0.00     0.029 A 
ATOM     50  N   UNL A   1      43.258  28.901  33.367  1.00  0.00    -0.354 N 
ATOM     51  N   UNL A   1      43.775  26.878  31.336  1.00  0.00    -0.248 NA
ATOM     52  C   UNL A   1      45.068  25.122  30.494  1.00  0.00     0.031 C 
ATOM     53  C   UNL A   1      44.658  29.067  35.086  1.00  0.00     0.029 A 
ATOM     54  C   UNL A   1      44.398  28.350  33.929  1.00  0.00     0.049 A 
ATOM     55  H   UNL A   1      42.842  28.602  32.526  1.00  0.00     0.167 HD
ATOM     56  C   UNL A   1      44.823  26.617  32.215  1.00  0.00     0.074 A 
ATOM     57  C   UNL A   1      45.568  25.506  31.661  1.00  0.00     0.031 C 
ATOM     58  C   UNL A   1      45.133  27.240  33.378  1.00  0.00     0.031 A 
BRANCH  45  59
ATOM     59  C   UNL A   1      41.276  31.848  34.827  1.00  0.00    -0.014 A 
ATOM     60  C   UNL A   1      40.447  31.618  35.941  1.00  0.00     0.010 A 
ATOM     61  C   UNL A   1      41.808  33.134  34.625  1.00  0.00     0.010 A 
ATOM     62  C   UNL A   1      40.116  32.664  36.805  1.00  0.00     0.020 A 
ATOM     63  C   UNL A   1      41.501  34.177  35.504  1.00  0.00     0.020 A 
ATOM     64  C   UNL A   1      40.640  33.940  36.577  1.00  0.00     0.054 A 
BRANCH  64  65
ATOM     65  S   UNL A   1      40.198  35.280  37.719  1.00  0.00     0.124 S 
ATOM     66  O   UNL A   1      39.079  34.694  38.450  1.00  0.00    -0.237 OA
ATOM     67  O   UNL A   1      41.425  35.463  38.490  1.00  0.00    -0.237 OA
ATOM     68  O   UNL A   1      39.852  36.390  36.834  1.00  0.00    -0.744 OA
ENDBRANCH  64  65
ENDBRANCH  45  59
BRANCH  46  69
ATOM     69  C   UNL A   1      43.329  24.719  28.180  1.00  0.00    -0.014 A 
ATOM     70  C   UNL A   1      44.178  24.974  27.088  1.00  0.00     0.010 A 
ATOM     71  C   UNL A   1      42.780  23.433  28.334  1.00  0.00     0.010 A 
ATOM     72  C   UNL A   1      44.456  23.969  26.157  1.00  0.00     0.020 A 
ATOM     73  C   UNL A   1      43.077  22.419  27.418  1.00  0.00     0.020 A 
ATOM     74  C   UNL A   1      43.904  22.697  26.328  1.00  0.00     0.054 A 
BRANCH  74  75
ATOM     75  S   UNL A   1      44.319  21.393  25.137  1.00  0.00     0.124 S 
ATOM     76  O   UNL A   1      45.665  21.015  25.557  1.00  0.00    -0.237 OA
ATOM     77  O   UNL A   1      43.278  20.399  25.380  1.00  0.00    -0.237 OA
ATOM     78  O   UNL A   1      44.232  22.071  23.845  1.00  0.00    -0.744 OA
ENDBRANCH  74  75
ENDBRANCH  46  69
BRANCH  58  79
ATOM     79  C   UNL A   1      46.300  26.703  34.167  1.00  0.00    -0.014 A 
ATOM     80  C   UNL A   1      46.138  25.676  35.114  1.00  0.00     0.010 A 
ATOM     81  C   UNL A   1      47.589  27.214  33.927  1.00  0.00     0.010 A 
ATOM     82  C   UNL A   1      47.236  25.200  35.836  1.00  0.00     0.020 A 
ATOM     83  C   UNL A   1      48.694  26.722  34.627  1.00  0.00     0.020 A 
ATOM     84  C   UNL A   1      48.507  25.730  35.591  1.00  0.00     0.054 A 
BRANCH  84  85
ATOM     85  S   UNL A   1      49.923  25.079  36.521  1.00  0.00     0.124 S 
ATOM     86  O   UNL A   1      49.615  23.654  36.586  1.00  0.00    -0.237 OA
ATOM     87  O   UNL A   1      51.059  25.439  35.676  1.00  0.00    -0.237 OA
ATOM     88  O   UNL A   1      49.855  25.790  37.797  1.00  0.00    -0.744 OA
ENDBRANCH  84  85
ENDBRANCH  58  79
ENDBRANCH  32  33
ENDBRANCH  24  27
ENDBRANCH  22  23
ENDBRANCH  21  22
ENDBRANCH   1  21
TORSDOF 18
ENDMDL
MODEL 3
REMARK VINA RESULT:     -10.4      1.856      2.683
REMARK SMILES CCN(CCC(=O)NCCCNC(=O)c1ccc(-c2c3nc(c(-c4ccc(S(=O)(=O)[O-])cc4)c4ccc([nH]4)c(-c4ccc(S(=O)(=O)[O-])cc4)c4nc(c(-c5ccc(S(=O)(=O)[O-])cc5)c5ccc2[nH]5)C=C4)C=C3)cc1)C(=O)c1cc(Cl)ccc1F
REMARK SMILES IDX 9 1 8 2 6 3 7 4 5 6 4 7 3 8 2 9 1 10 75 11 76 12 77 13 78 14
REMARK SMILES IDX 83 15 79 16 82 17 84 18 80 19 81 20 10 21 11 22 12 23 13 24
REMARK SMILES IDX 14 26 15 27 16 28 74 29 17 30 73 31 18 32 19 33 20 34 67 35
REMARK SMILES IDX 21 36 72 37 66 38 68 39 22 40 71 41 65 42 64 43 23 45 53 46
REMARK SMILES IDX 34 47 52 48 35 49 38 50 51 51 69 52 36 53 37 54 50 56 70 57
REMARK SMILES IDX 39 58 24 59 25 60 33 61 26 62 32 63 27 64 28 65 29 66 30 67
REMARK SMILES IDX 31 68 54 69 55 70 63 71 56 72 62 73 57 74 58 75 59 76 60 77
REMARK SMILES IDX 61 78 40 79 41 80 49 81 42 82 48 83 43 84 44 85 45 86 46 87
REMARK SMILES IDX 47 88
REMARK H PARENT 8 5 12 25 68 44 38 55
REMARK Flexibility Score: inf
ROOT
ATOM      1  C   UNL A   1      39.367  22.185  26.107  1.00  0.00     0.117 C 
ENDROOT
BRANCH   1   2
ATOM      2  N   UNL A   1      38.394  23.199  25.728  1.00  0.00    -0.356 N 
ATOM      3  C   UNL A   1      37.049  23.096  25.537  1.00  0.00     0.221 C 
ATOM      4  O   UNL A   1      36.403  24.132  25.363  1.00  0.00    -0.275 OA
ATOM      5  H   UNL A   1      38.766  24.099  25.589  1.00  0.00     0.163 HD
BRANCH   3   6
ATOM      6  C   UNL A   1      36.368  21.752  25.536  1.00  0.00     0.121 C 
BRANCH   6   7
ATOM      7  C   UNL A   1      35.109  21.734  24.678  1.00  0.00     0.129 C 
BRANCH   7   8
ATOM      8  N   UNL A   1      33.838  21.930  25.386  1.00  0.00    -0.338 N 
BRANCH   8   9
ATOM      9  C   UNL A   1      33.825  21.351  26.749  1.00  0.00     0.116 C 
ATOM     10  C   UNL A   1      33.493  22.215  27.954  1.00  0.00     0.027 C 
ENDBRANCH   8   9
BRANCH   8  11
ATOM     11  C   UNL A   1      32.764  22.707  24.905  1.00  0.00     0.256 C 
ATOM     12  O   UNL A   1      31.590  22.415  25.133  1.00  0.00    -0.269 OA
BRANCH  11  13
ATOM     13  C   UNL A   1      32.943  23.775  23.874  1.00  0.00     0.077 A 
ATOM     14  C   UNL A   1      33.203  25.065  24.384  1.00  0.00     0.037 A 
ATOM     15  C   UNL A   1      32.927  23.625  22.491  1.00  0.00     0.136 A 
ATOM     16  C   UNL A   1      33.319  26.168  23.534  1.00  0.00     0.042 A 
ATOM     17  C   UNL A   1      32.988  24.737  21.642  1.00  0.00     0.041 A 
ATOM     18  F   UNL A   1      32.928  22.425  21.904  1.00  0.00    -0.206 F 
ATOM     19  Cl  UNL A   1      33.635  27.728  24.183  1.00  0.00    -0.084 Cl
ATOM     20  C   UNL A   1      33.168  26.015  22.163  1.00  0.00     0.023 A 
ENDBRANCH  11  13
ENDBRANCH   8  11
ENDBRANCH   7   8
ENDBRANCH   6   7
ENDBRANCH   3   6
ENDBRANCH   1   2
BRANCH   1  21
ATOM     21  C   UNL A   1      40.227  22.585  27.300  1.00  0.00     0.042 C 
BRANCH  21  22
ATOM     22  C   UNL A   1      41.670  22.935  26.952  1.00  0.00     0.118 C 
BRANCH  22  23
ATOM     23  N   UNL A   1      41.750  23.992  25.965  1.00  0.00    -0.352 N 
ATOM     24  C   UNL A   1      41.540  25.345  26.061  1.00  0.00     0.251 C 
ATOM     25  H   UNL A   1      42.000  23.685  25.064  1.00  0.00     0.163 HD
ATOM     26  O   UNL A   1      41.424  25.970  25.006  1.00  0.00    -0.269 OA
BRANCH  24  27
ATOM     27  C   UNL A   1      41.449  26.080  27.355  1.00  0.00     0.039 A 
ATOM     28  C   UNL A   1      40.242  25.996  28.062  1.00  0.00     0.014 A 
ATOM     29  C   UNL A   1      42.433  26.955  27.824  1.00  0.00     0.014 A 
ATOM     30  C   UNL A   1      40.020  26.782  29.201  1.00  0.00     0.010 A 
ATOM     31  C   UNL A   1      42.244  27.681  29.010  1.00  0.00     0.010 A 
ATOM     32  C   UNL A   1      41.017  27.640  29.688  1.00  0.00    -0.014 A 
BRANCH  32  33
ATOM     33  C   UNL A   1      40.731  28.548  30.839  1.00  0.00     0.031 A 
ATOM     34  C   UNL A   1      41.563  28.476  32.099  1.00  0.00     0.074 A 
ATOM     35  C   UNL A   1      39.750  29.471  30.754  1.00  0.00     0.049 A 
ATOM     36  N   UNL A   1      41.513  29.234  33.168  1.00  0.00    -0.248 NA
ATOM     37  C   UNL A   1      42.574  27.410  32.175  1.00  0.00     0.031 C 
ATOM     38  C   UNL A   1      38.850  29.646  29.613  1.00  0.00     0.029 A 
ATOM     39  N   UNL A   1      39.358  30.447  31.639  1.00  0.00    -0.354 N 
ATOM     40  C   UNL A   1      42.475  28.733  34.040  1.00  0.00     0.074 A 
ATOM     41  C   UNL A   1      43.056  27.574  33.399  1.00  0.00     0.031 C 
ATOM     42  C   UNL A   1      38.039  30.691  29.851  1.00  0.00     0.029 A 
ATOM     43  C   UNL A   1      38.340  31.244  31.169  1.00  0.00     0.049 A 
ATOM     44  H   UNL A   1      39.767  30.565  32.527  1.00  0.00     0.167 HD
ATOM     45  C   UNL A   1      42.862  29.199  35.254  1.00  0.00     0.031 A 
ATOM     46  C   UNL A   1      37.723  32.307  31.724  1.00  0.00     0.031 A 
ATOM     47  C   UNL A   1      42.298  30.355  35.900  1.00  0.00     0.049 A 
ATOM     48  C   UNL A   1      38.166  32.807  33.073  1.00  0.00     0.074 A 
ATOM     49  C   UNL A   1      42.652  30.920  37.115  1.00  0.00     0.029 A 
ATOM     50  N   UNL A   1      41.267  31.126  35.388  1.00  0.00    -0.354 N 
ATOM     51  N   UNL A   1      39.114  32.347  33.854  1.00  0.00    -0.248 NA
ATOM     52  C   UNL A   1      37.468  33.987  33.605  1.00  0.00     0.031 C 
ATOM     53  C   UNL A   1      41.807  32.008  37.356  1.00  0.00     0.029 A 
ATOM     54  C   UNL A   1      40.964  32.154  36.266  1.00  0.00     0.049 A 
ATOM     55  H   UNL A   1      40.816  30.966  34.528  1.00  0.00     0.167 HD
ATOM     56  C   UNL A   1      39.150  33.204  34.950  1.00  0.00     0.074 A 
ATOM     57  C   UNL A   1      38.136  34.213  34.728  1.00  0.00     0.031 C 
ATOM     58  C   UNL A   1      39.958  33.160  36.039  1.00  0.00     0.031 A 
BRANCH  45  59
ATOM     59  C   UNL A   1      43.955  28.445  35.968  1.00  0.00    -0.014 A 
ATOM     60  C   UNL A   1      45.308  28.790  35.792  1.00  0.00     0.010 A 
ATOM     61  C   UNL A   1      43.625  27.401  36.851  1.00  0.00     0.010 A 
ATOM     62  C   UNL A   1      46.313  28.073  36.446  1.00  0.00     0.020 A 
ATOM     63  C   UNL A   1      44.627  26.699  37.529  1.00  0.00     0.020 A 
ATOM     64  C   UNL A   1      45.966  27.027  37.306  1.00  0.00     0.054 A 
BRANCH  64  65
ATOM     65  S   UNL A   1      47.289  26.115  38.148  1.00  0.00     0.124 S 
ATOM     66  O   UNL A   1      48.335  27.129  38.250  1.00  0.00    -0.237 OA
ATOM     67  O   UNL A   1      46.664  25.731  39.410  1.00  0.00    -0.237 OA
ATOM     68  O   UNL A   1      47.582  25.008  37.240  1.00  0.00    -0.744 OA
ENDBRANCH  64  65
ENDBRANCH  45  59
BRANCH  46  69
ATOM     69  C   UNL A   1      36.633  33.002  30.984  1.00  0.00    -0.014 A 
ATOM     70  C   UNL A   1      35.285  32.742  31.289  1.00  0.00     0.010 A 
ATOM     71  C   UNL A   1      36.938  33.929  29.972  1.00  0.00     0.010 A 
ATOM     72  C   UNL A   1      34.262  33.381  30.581  1.00  0.00     0.020 A 
ATOM     73  C   UNL A   1      35.919  34.590  29.280  1.00  0.00     0.020 A 
ATOM     74  C   UNL A   1      34.586  34.303  29.582  1.00  0.00     0.054 A 
BRANCH  74  75
ATOM     75  S   UNL A   1      33.245  35.160  28.712  1.00  0.00     0.124 S 
ATOM     76  O   UNL A   1      32.479  35.727  29.817  1.00  0.00    -0.237 OA
ATOM     77  O   UNL A   1      33.968  36.121  27.884  1.00  0.00    -0.237 OA
ATOM     78  O   UNL A   1      32.579  34.089  27.972  1.00  0.00    -0.744 OA
ENDBRANCH  74  75
ENDBRANCH  46  69
BRANCH  58  79
ATOM     79  C   UNL A   1      39.820  34.264  37.055  1.00  0.00    -0.014 A 
ATOM     80  C   UNL A   1      38.974  34.136  38.170  1.00  0.00     0.010 A 
ATOM     81  C   UNL A   1      40.581  35.438  36.905  1.00  0.00     0.010 A 
ATOM     82  C   UNL A   1      38.860  35.178  39.096  1.00  0.00     0.020 A 
ATOM     83  C   UNL A   1      40.491  36.472  37.841  1.00  0.00     0.020 A 
ATOM     84  C   UNL A   1      39.616  36.343  38.922  1.00  0.00     0.054 A 
BRANCH  84  85
ATOM     85  S   UNL A   1      39.473  37.673  40.148  1.00  0.00     0.124 S 
ATOM     86  O   UNL A   1      39.200  36.929  41.373  1.00  0.00    -0.237 OA
ATOM     87  O   UNL A   1      40.781  38.318  40.081  1.00  0.00    -0.237 OA
ATOM     88  O   UNL A   1      38.362  38.483  39.651  1.00  0.00    -0.744 OA
ENDBRANCH  84  85
ENDBRANCH  58  79
ENDBRANCH  32  33
ENDBRANCH  24  27
ENDBRANCH  22  23
ENDBRANCH  21  22
ENDBRANCH   1  21
TORSDOF 18
ENDMDL
