MODEL 1
REMARK VINA RESULT:     -11.4      0.000      0.000
REMARK SMILES O=C(NCCCNC(=O)c1ccc(Cl)nc1NC[C@@H]1C[N@@H+]2CCC[C@@H]2CO1)c1ccc(-c2c3nc(c(-c4ccc(S(=O)(=O)[O-])cc4)c4ccc([nH]4)c(-c4ccc(S(=O)(=O)[O-])cc4)c4nc(c(-c5ccc(S(=O)(=O)[O-])cc5)c5ccc2[nH]5)C=C4)C=C3)cc1
REMARK SMILES IDX 5 1 4 2 3 3 1 4 2 5 28 7 29 8 87 9 30 10 86 11 31 12 32 13
REMARK SMILES IDX 33 14 80 15 34 16 85 17 79 18 81 19 35 20 84 21 78 22 77 23
REMARK SMILES IDX 36 25 66 26 47 27 65 28 48 29 51 30 64 31 82 32 49 33 50 34
REMARK SMILES IDX 63 36 83 37 52 38 37 39 38 40 46 41 39 42 45 43 40 44 41 45
REMARK SMILES IDX 42 46 43 47 44 48 67 49 68 50 76 51 69 52 75 53 70 54 71 55
REMARK SMILES IDX 72 56 73 57 74 58 53 59 54 60 62 61 55 62 61 63 56 64 57 65
REMARK SMILES IDX 58 66 59 67 60 68 6 69 7 70 8 71 9 73 10 74 11 75 16 76
REMARK SMILES IDX 12 77 15 78 13 79 14 80 17 81 18 83 19 84 20 85 27 86 21 87
REMARK SMILES IDX 26 88 22 89 25 90 23 92 24 93
REMARK H PARENT 3 6 81 24 51 35 7 72 17 82 21 91
REMARK Flexibility Score: inf
ROOT
ATOM      1  C   UNL A   1      37.972  24.152  26.426  1.00  0.00     0.042 C 
ENDROOT
BRANCH   1   2
ATOM      2  C   UNL A   1      39.355  23.697  26.868  1.00  0.00     0.118 C 
BRANCH   2   3
ATOM      3  N   UNL A   1      40.422  24.224  26.025  1.00  0.00    -0.352 N 
ATOM      4  O   UNL A   1      41.861  25.732  25.179  1.00  0.00    -0.269 OA
ATOM      5  C   UNL A   1      41.131  25.400  26.112  1.00  0.00     0.251 C 
ATOM      6  H   UNL A   1      40.677  23.644  25.272  1.00  0.00     0.163 HD
BRANCH   5   7
ATOM      7  C   UNL A   1      41.004  26.269  27.301  1.00  0.00     0.039 A 
ATOM      8  C   UNL A   1      40.154  25.919  28.350  1.00  0.00     0.014 A 
ATOM      9  C   UNL A   1      41.767  27.438  27.389  1.00  0.00     0.014 A 
ATOM     10  C   UNL A   1      39.930  26.813  29.388  1.00  0.00     0.010 A 
ATOM     11  C   UNL A   1      41.627  28.284  28.496  1.00  0.00     0.010 A 
ATOM     12  C   UNL A   1      40.684  27.994  29.491  1.00  0.00    -0.014 A 
BRANCH  12  13
ATOM     13  C   UNL A   1      40.509  28.843  30.699  1.00  0.00     0.031 A 
ATOM     14  C   UNL A   1      41.416  28.716  31.892  1.00  0.00     0.074 A 
ATOM     15  C   UNL A   1      39.550  29.791  30.673  1.00  0.00     0.049 A 
ATOM     16  N   UNL A   1      41.437  29.438  32.984  1.00  0.00    -0.248 NA
ATOM     17  C   UNL A   1      42.425  27.644  31.867  1.00  0.00     0.031 C 
ATOM     18  C   UNL A   1      38.599  29.999  29.575  1.00  0.00     0.029 A 
ATOM     19  N   UNL A   1      39.237  30.780  31.569  1.00  0.00    -0.354 N 
ATOM     20  C   UNL A   1      42.444  28.905  33.780  1.00  0.00     0.074 A 
ATOM     21  C   UNL A   1      42.999  27.781  33.056  1.00  0.00     0.031 C 
ATOM     22  C   UNL A   1      37.861  31.088  29.829  1.00  0.00     0.029 A 
ATOM     23  C   UNL A   1      38.232  31.614  31.136  1.00  0.00     0.049 A 
ATOM     24  H   UNL A   1      39.687  30.883  32.438  1.00  0.00     0.167 HD
ATOM     25  C   UNL A   1      42.872  29.321  34.996  1.00  0.00     0.031 A 
ATOM     26  C   UNL A   1      37.657  32.678  31.726  1.00  0.00     0.031 A 
ATOM     27  C   UNL A   1      42.317  30.443  35.710  1.00  0.00     0.049 A 
ATOM     28  C   UNL A   1      38.142  33.102  33.080  1.00  0.00     0.074 A 
ATOM     29  C   UNL A   1      42.691  30.948  36.944  1.00  0.00     0.029 A 
ATOM     30  N   UNL A   1      41.271  31.234  35.258  1.00  0.00    -0.354 N 
ATOM     31  N   UNL A   1      39.112  32.594  33.803  1.00  0.00    -0.248 NA
ATOM     32  C   UNL A   1      37.455  34.243  33.700  1.00  0.00     0.031 C 
ATOM     33  C   UNL A   1      41.843  32.017  37.257  1.00  0.00     0.029 A 
ATOM     34  C   UNL A   1      40.976  32.211  36.196  1.00  0.00     0.049 A 
ATOM     35  H   UNL A   1      40.807  31.119  34.398  1.00  0.00     0.167 HD
ATOM     36  C   UNL A   1      39.152  33.356  34.964  1.00  0.00     0.074 A 
ATOM     37  C   UNL A   1      38.137  34.381  34.829  1.00  0.00     0.031 C 
ATOM     38  C   UNL A   1      39.952  33.214  36.050  1.00  0.00     0.031 A 
BRANCH  25  39
ATOM     39  C   UNL A   1      43.993  28.555  35.651  1.00  0.00    -0.014 A 
ATOM     40  C   UNL A   1      45.335  28.923  35.452  1.00  0.00     0.010 A 
ATOM     41  C   UNL A   1      43.696  27.507  36.542  1.00  0.00     0.010 A 
ATOM     42  C   UNL A   1      46.362  28.244  36.116  1.00  0.00     0.020 A 
ATOM     43  C   UNL A   1      44.718  26.840  37.225  1.00  0.00     0.020 A 
ATOM     44  C   UNL A   1      46.046  27.207  37.000  1.00  0.00     0.054 A 
BRANCH  44  45
ATOM     45  S   UNL A   1      47.395  26.377  37.885  1.00  0.00     0.124 S 
ATOM     46  O   UNL A   1      46.679  25.333  38.614  1.00  0.00    -0.237 OA
ATOM     47  O   UNL A   1      48.250  25.908  36.797  1.00  0.00    -0.237 OA
ATOM     48  O   UNL A   1      47.969  27.433  38.714  1.00  0.00    -0.744 OA
ENDBRANCH  44  45
ENDBRANCH  25  39
BRANCH  26  49
ATOM     49  C   UNL A   1      36.538  33.387  31.052  1.00  0.00    -0.014 A 
ATOM     50  C   UNL A   1      36.753  34.129  29.878  1.00  0.00     0.010 A 
ATOM     51  C   UNL A   1      35.239  33.316  31.588  1.00  0.00     0.010 A 
ATOM     52  C   UNL A   1      35.696  34.810  29.268  1.00  0.00     0.020 A 
ATOM     53  C   UNL A   1      34.173  33.968  30.964  1.00  0.00     0.020 A 
ATOM     54  C   UNL A   1      34.412  34.726  29.817  1.00  0.00     0.054 A 
BRANCH  54  55
ATOM     55  S   UNL A   1      33.045  35.591  28.997  1.00  0.00     0.124 S 
ATOM     56  O   UNL A   1      32.279  36.090  30.135  1.00  0.00    -0.237 OA
ATOM     57  O   UNL A   1      33.737  36.603  28.205  1.00  0.00    -0.237 OA
ATOM     58  O   UNL A   1      32.397  34.538  28.218  1.00  0.00    -0.744 OA
ENDBRANCH  54  55
ENDBRANCH  26  49
BRANCH  38  59
ATOM     59  C   UNL A   1      39.760  34.204  37.165  1.00  0.00    -0.014 A 
ATOM     60  C   UNL A   1      40.298  35.500  37.083  1.00  0.00     0.010 A 
ATOM     61  C   UNL A   1      39.025  33.835  38.306  1.00  0.00     0.010 A 
ATOM     62  C   UNL A   1      40.149  36.396  38.145  1.00  0.00     0.020 A 
ATOM     63  C   UNL A   1      38.849  34.737  39.358  1.00  0.00     0.020 A 
ATOM     64  C   UNL A   1      39.430  36.005  39.279  1.00  0.00     0.054 A 
BRANCH  64  65
ATOM     65  S   UNL A   1      39.238  37.186  40.641  1.00  0.00     0.124 S 
ATOM     66  O   UNL A   1      38.685  36.344  41.698  1.00  0.00    -0.237 OA
ATOM     67  O   UNL A   1      40.605  37.654  40.858  1.00  0.00    -0.237 OA
ATOM     68  O   UNL A   1      38.322  38.189  40.101  1.00  0.00    -0.744 OA
ENDBRANCH  64  65
ENDBRANCH  38  59
ENDBRANCH  12  13
ENDBRANCH   5   7
ENDBRANCH   2   3
ENDBRANCH   1   2
BRANCH   1  69
ATOM     69  C   UNL A   1      37.169  23.077  25.711  1.00  0.00     0.118 C 
BRANCH  69  70
ATOM     70  N   UNL A   1      36.005  22.655  26.477  1.00  0.00    -0.352 N 
ATOM     71  C   UNL A   1      34.668  22.880  26.257  1.00  0.00     0.255 C 
ATOM     72  H   UNL A   1      36.208  22.124  27.280  1.00  0.00     0.163 HD
ATOM     73  O   UNL A   1      33.859  22.598  27.137  1.00  0.00    -0.269 OA
BRANCH  71  74
ATOM     74  C   UNL A   1      34.195  23.430  24.970  1.00  0.00     0.082 A 
ATOM     75  C   UNL A   1      34.192  22.618  23.829  1.00  0.00     0.021 A 
ATOM     76  C   UNL A   1      33.655  24.723  24.895  1.00  0.00     0.140 A 
ATOM     77  C   UNL A   1      33.767  23.143  22.619  1.00  0.00     0.042 A 
ATOM     78  N   UNL A   1      33.246  25.234  23.709  1.00  0.00    -0.219 NA
ATOM     79  C   UNL A   1      33.323  24.451  22.617  1.00  0.00     0.131 A 
ATOM     80  Cl  UNL A   1      32.799  25.197  21.165  1.00  0.00    -0.062 Cl
BRANCH  76  81
ATOM     81  N   UNL A   1      33.584  25.535  26.010  1.00  0.00    -0.367 N 
ATOM     82  H   UNL A   1      34.261  25.439  26.718  1.00  0.00     0.162 HD
BRANCH  81  83
ATOM     83  C   UNL A   1      32.534  26.529  26.164  1.00  0.00     0.152 C 
BRANCH  83  84
ATOM     84  C   UNL A   1      32.960  27.861  25.498  1.00  0.00     0.192 C 
ATOM     85  C   UNL A   1      34.281  28.360  26.150  1.00  0.00     0.296 C 
ATOM     86  O   UNL A   1      31.860  28.794  25.573  1.00  0.00    -0.364 OA
ATOM     87  N   UNL A   1      34.441  29.817  26.247  1.00  0.00    -0.328 N 
ATOM     88  C   UNL A   1      31.943  29.621  26.729  1.00  0.00     0.225 C 
ATOM     89  C   UNL A   1      35.484  30.199  27.208  1.00  0.00     0.262 C 
ATOM     90  C   UNL A   1      33.188  30.509  26.627  1.00  0.00     0.210 C 
ATOM     91  H   UNL A   1      34.712  30.109  25.308  1.00  0.00     0.348 HD
ATOM     92  C   UNL A   1      34.981  31.484  27.843  1.00  0.00     0.068 C 
ATOM     93  C   UNL A   1      33.487  31.248  27.925  1.00  0.00     0.073 C 
ENDBRANCH  83  84
ENDBRANCH  81  83
ENDBRANCH  76  81
ENDBRANCH  71  74
ENDBRANCH  69  70
ENDBRANCH   1  69
TORSDOF 16
ENDMDL
MODEL 2
REMARK VINA RESULT:     -11.2      2.679      9.244
REMARK SMILES O=C(NCCCNC(=O)c1ccc(Cl)nc1NC[C@@H]1C[N@@H+]2CCC[C@@H]2CO1)c1ccc(-c2c3nc(c(-c4ccc(S(=O)(=O)[O-])cc4)c4ccc([nH]4)c(-c4ccc(S(=O)(=O)[O-])cc4)c4nc(c(-c5ccc(S(=O)(=O)[O-])cc5)c5ccc2[nH]5)C=C4)C=C3)cc1
REMARK SMILES IDX 5 1 4 2 3 3 1 4 2 5 28 7 29 8 87 9 30 10 86 11 31 12 32 13
REMARK SMILES IDX 33 14 80 15 34 16 85 17 79 18 81 19 35 20 84 21 78 22 77 23
REMARK SMILES IDX 36 25 66 26 47 27 65 28 48 29 51 30 64 31 82 32 49 33 50 34
REMARK SMILES IDX 63 36 83 37 52 38 37 39 38 40 46 41 39 42 45 43 40 44 41 45
REMARK SMILES IDX 42 46 43 47 44 48 67 49 68 50 76 51 69 52 75 53 70 54 71 55
REMARK SMILES IDX 72 56 73 57 74 58 53 59 54 60 62 61 55 62 61 63 56 64 57 65
REMARK SMILES IDX 58 66 59 67 60 68 6 69 7 70 8 71 9 73 10 74 11 75 16 76
REMARK SMILES IDX 12 77 15 78 13 79 14 80 17 81 18 83 19 84 20 85 27 86 21 87
REMARK SMILES IDX 26 88 22 89 25 90 23 92 24 93
REMARK H PARENT 3 6 81 24 51 35 7 72 17 82 21 91
REMARK Flexibility Score: inf
ROOT
ATOM      1  C   UNL A   1      33.389  27.868  26.605  1.00  0.00     0.042 C 
ENDROOT
BRANCH   1   2
ATOM      2  C   UNL A   1      34.290  28.996  26.125  1.00  0.00     0.118 C 
BRANCH   2   3
ATOM      3  N   UNL A   1      33.862  30.306  26.603  1.00  0.00    -0.352 N 
ATOM      4  O   UNL A   1      33.735  32.091  27.966  1.00  0.00    -0.269 OA
ATOM      5  C   UNL A   1      34.371  31.102  27.603  1.00  0.00     0.251 C 
ATOM      6  H   UNL A   1      33.084  30.682  26.133  1.00  0.00     0.163 HD
BRANCH   5   7
ATOM      7  C   UNL A   1      35.656  30.766  28.252  1.00  0.00     0.039 A 
ATOM      8  C   UNL A   1      35.770  29.634  29.059  1.00  0.00     0.014 A 
ATOM      9  C   UNL A   1      36.776  31.575  28.030  1.00  0.00     0.014 A 
ATOM     10  C   UNL A   1      36.935  29.413  29.780  1.00  0.00     0.010 A 
ATOM     11  C   UNL A   1      37.988  31.283  28.668  1.00  0.00     0.010 A 
ATOM     12  C   UNL A   1      38.069  30.216  29.574  1.00  0.00    -0.014 A 
BRANCH  12  13
ATOM     13  C   UNL A   1      39.334  29.846  30.262  1.00  0.00     0.031 A 
ATOM     14  C   UNL A   1      39.752  30.499  31.551  1.00  0.00     0.074 A 
ATOM     15  C   UNL A   1      40.073  28.849  29.735  1.00  0.00     0.049 A 
ATOM     16  N   UNL A   1      40.786  30.228  32.307  1.00  0.00    -0.248 NA
ATOM     17  C   UNL A   1      38.915  31.598  32.058  1.00  0.00     0.031 C 
ATOM     18  C   UNL A   1      39.774  28.150  28.480  1.00  0.00     0.029 A 
ATOM     19  N   UNL A   1      41.200  28.221  30.199  1.00  0.00    -0.354 N 
ATOM     20  C   UNL A   1      40.734  31.124  33.368  1.00  0.00     0.074 A 
ATOM     21  C   UNL A   1      39.579  31.968  33.147  1.00  0.00     0.031 C 
ATOM     22  C   UNL A   1      40.648  27.149  28.312  1.00  0.00     0.029 A 
ATOM     23  C   UNL A   1      41.612  27.177  29.404  1.00  0.00     0.049 A 
ATOM     24  H   UNL A   1      41.669  28.491  31.022  1.00  0.00     0.167 HD
ATOM     25  C   UNL A   1      41.568  31.229  34.431  1.00  0.00     0.031 A 
ATOM     26  C   UNL A   1      42.659  26.339  29.525  1.00  0.00     0.031 A 
ATOM     27  C   UNL A   1      42.716  30.384  34.645  1.00  0.00     0.049 A 
ATOM     28  C   UNL A   1      43.573  26.492  30.705  1.00  0.00     0.074 A 
ATOM     29  C   UNL A   1      43.615  30.405  35.699  1.00  0.00     0.029 A 
ATOM     30  N   UNL A   1      43.126  29.368  33.795  1.00  0.00    -0.354 N 
ATOM     31  N   UNL A   1      43.489  27.335  31.706  1.00  0.00    -0.248 NA
ATOM     32  C   UNL A   1      44.723  25.581  30.770  1.00  0.00     0.031 C 
ATOM     33  C   UNL A   1      44.592  29.432  35.462  1.00  0.00     0.029 A 
ATOM     34  C   UNL A   1      44.273  28.769  34.290  1.00  0.00     0.049 A 
ATOM     35  H   UNL A   1      42.668  29.111  32.962  1.00  0.00     0.167 HD
ATOM     36  C   UNL A   1      44.577  27.054  32.524  1.00  0.00     0.074 A 
ATOM     37  C   UNL A   1      45.278  25.939  31.920  1.00  0.00     0.031 C 
ATOM     38  C   UNL A   1      44.966  27.670  33.667  1.00  0.00     0.031 A 
BRANCH  25  39
ATOM     39  C   UNL A   1      41.284  32.303  35.449  1.00  0.00    -0.014 A 
ATOM     40  C   UNL A   1      41.887  33.570  35.353  1.00  0.00     0.010 A 
ATOM     41  C   UNL A   1      40.339  32.071  36.465  1.00  0.00     0.010 A 
ATOM     42  C   UNL A   1      41.566  34.578  36.267  1.00  0.00     0.020 A 
ATOM     43  C   UNL A   1      39.998  33.083  37.368  1.00  0.00     0.020 A 
ATOM     44  C   UNL A   1      40.622  34.328  37.268  1.00  0.00     0.054 A 
BRANCH  44  45
ATOM     45  S   UNL A   1      40.188  35.671  38.410  1.00  0.00     0.124 S 
ATOM     46  O   UNL A   1      39.093  35.076  39.172  1.00  0.00    -0.237 OA
ATOM     47  O   UNL A   1      41.430  35.874  39.152  1.00  0.00    -0.237 OA
ATOM     48  O   UNL A   1      39.807  36.769  37.527  1.00  0.00    -0.744 OA
ENDBRANCH  44  45
ENDBRANCH  25  39
BRANCH  26  49
ATOM     49  C   UNL A   1      42.912  25.310  28.483  1.00  0.00    -0.014 A 
ATOM     50  C   UNL A   1      43.737  25.587  27.379  1.00  0.00     0.010 A 
ATOM     51  C   UNL A   1      42.326  24.036  28.597  1.00  0.00     0.010 A 
ATOM     52  C   UNL A   1      43.948  24.617  26.394  1.00  0.00     0.020 A 
ATOM     53  C   UNL A   1      42.561  23.054  27.632  1.00  0.00     0.020 A 
ATOM     54  C   UNL A   1      43.356  23.357  26.526  1.00  0.00     0.054 A 
BRANCH  54  55
ATOM     55  S   UNL A   1      43.663  22.101  25.256  1.00  0.00     0.124 S 
ATOM     56  O   UNL A   1      43.446  22.856  24.026  1.00  0.00    -0.237 OA
ATOM     57  O   UNL A   1      45.044  21.708  25.523  1.00  0.00    -0.237 OA
ATOM     58  O   UNL A   1      42.665  21.074  25.547  1.00  0.00    -0.744 OA
ENDBRANCH  54  55
ENDBRANCH  26  49
BRANCH  38  59
ATOM     59  C   UNL A   1      46.201  27.134  34.337  1.00  0.00    -0.014 A 
ATOM     60  C   UNL A   1      47.467  27.682  34.065  1.00  0.00     0.010 A 
ATOM     61  C   UNL A   1      46.092  26.076  35.257  1.00  0.00     0.010 A 
ATOM     62  C   UNL A   1      48.611  27.147  34.663  1.00  0.00     0.020 A 
ATOM     63  C   UNL A   1      47.230  25.557  35.879  1.00  0.00     0.020 A 
ATOM     64  C   UNL A   1      48.485  26.083  35.562  1.00  0.00     0.054 A 
BRANCH  64  65
ATOM     65  S   UNL A   1      49.981  25.412  36.335  1.00  0.00     0.124 S 
ATOM     66  O   UNL A   1      50.447  24.467  35.324  1.00  0.00    -0.237 OA
ATOM     67  O   UNL A   1      50.812  26.600  36.517  1.00  0.00    -0.237 OA
ATOM     68  O   UNL A   1      49.489  24.809  37.572  1.00  0.00    -0.744 OA
ENDBRANCH  64  65
ENDBRANCH  38  59
ENDBRANCH  12  13
ENDBRANCH   5   7
ENDBRANCH   2   3
ENDBRANCH   1   2
BRANCH   1  69
ATOM     69  C   UNL A   1      31.914  28.232  26.645  1.00  0.00     0.118 C 
BRANCH  69  70
ATOM     70  N   UNL A   1      31.065  27.079  26.905  1.00  0.00    -0.352 N 
ATOM     71  C   UNL A   1      30.563  26.133  26.044  1.00  0.00     0.255 C 
ATOM     72  H   UNL A   1      30.810  26.957  27.847  1.00  0.00     0.163 HD
ATOM     73  O   UNL A   1      29.704  25.353  26.444  1.00  0.00    -0.269 OA
BRANCH  71  74
ATOM     74  C   UNL A   1      31.063  26.032  24.658  1.00  0.00     0.082 A 
ATOM     75  C   UNL A   1      30.551  26.886  23.673  1.00  0.00     0.021 A 
ATOM     76  C   UNL A   1      32.115  25.161  24.334  1.00  0.00     0.140 A 
ATOM     77  C   UNL A   1      31.008  26.774  22.368  1.00  0.00     0.042 A 
ATOM     78  N   UNL A   1      32.554  25.052  23.057  1.00  0.00    -0.219 NA
ATOM     79  C   UNL A   1      31.991  25.837  22.120  1.00  0.00     0.131 A 
ATOM     80  Cl  UNL A   1      32.604  25.609  20.535  1.00  0.00    -0.062 Cl
BRANCH  76  81
ATOM     81  N   UNL A   1      32.690  24.345  25.289  1.00  0.00    -0.367 N 
ATOM     82  H   UNL A   1      33.453  24.683  25.811  1.00  0.00     0.162 HD
BRANCH  81  83
ATOM     83  C   UNL A   1      32.197  23.001  25.541  1.00  0.00     0.152 C 
BRANCH  83  84
ATOM     84  C   UNL A   1      33.259  22.182  26.315  1.00  0.00     0.192 C 
ATOM     85  C   UNL A   1      34.552  23.032  26.467  1.00  0.00     0.296 C 
ATOM     86  O   UNL A   1      33.447  20.913  25.651  1.00  0.00    -0.364 OA
ATOM     87  N   UNL A   1      35.818  22.289  26.453  1.00  0.00    -0.328 N 
ATOM     88  C   UNL A   1      34.515  20.960  24.709  1.00  0.00     0.225 C 
ATOM     89  C   UNL A   1      36.973  23.160  26.197  1.00  0.00     0.262 C 
ATOM     90  C   UNL A   1      35.833  21.198  25.452  1.00  0.00     0.210 C 
ATOM     91  H   UNL A   1      35.891  21.885  27.387  1.00  0.00     0.348 HD
ATOM     92  C   UNL A   1      37.929  22.314  25.376  1.00  0.00     0.068 C 
ATOM     93  C   UNL A   1      36.989  21.502  24.508  1.00  0.00     0.073 C 
ENDBRANCH  83  84
ENDBRANCH  81  83
ENDBRANCH  76  81
ENDBRANCH  71  74
ENDBRANCH  69  70
ENDBRANCH   1  69
TORSDOF 16
ENDMDL
MODEL 3
REMARK VINA RESULT:     -11.2      4.872      9.914
REMARK SMILES O=C(NCCCNC(=O)c1ccc(Cl)nc1NC[C@@H]1C[N@@H+]2CCC[C@@H]2CO1)c1ccc(-c2c3nc(c(-c4ccc(S(=O)(=O)[O-])cc4)c4ccc([nH]4)c(-c4ccc(S(=O)(=O)[O-])cc4)c4nc(c(-c5ccc(S(=O)(=O)[O-])cc5)c5ccc2[nH]5)C=C4)C=C3)cc1
REMARK SMILES IDX 5 1 4 2 3 3 1 4 2 5 28 7 29 8 87 9 30 10 86 11 31 12 32 13
REMARK SMILES IDX 33 14 80 15 34 16 85 17 79 18 81 19 35 20 84 21 78 22 77 23
REMARK SMILES IDX 36 25 66 26 47 27 65 28 48 29 51 30 64 31 82 32 49 33 50 34
REMARK SMILES IDX 63 36 83 37 52 38 37 39 38 40 46 41 39 42 45 43 40 44 41 45
REMARK SMILES IDX 42 46 43 47 44 48 67 49 68 50 76 51 69 52 75 53 70 54 71 55
REMARK SMILES IDX 72 56 73 57 74 58 53 59 54 60 62 61 55 62 61 63 56 64 57 65
REMARK SMILES IDX 58 66 59 67 60 68 6 69 7 70 8 71 9 73 10 74 11 75 16 76
REMARK SMILES IDX 12 77 15 78 13 79 14 80 17 81 18 83 19 84 20 85 27 86 21 87
REMARK SMILES IDX 26 88 22 89 25 90 23 92 24 93
REMARK H PARENT 3 6 81 24 51 35 7 72 17 82 21 91
REMARK Flexibility Score: inf
ROOT
ATOM      1  C   UNL A   1      33.631  28.081  25.441  1.00  0.00     0.042 C 
ENDROOT
BRANCH   1   2
ATOM      2  C   UNL A   1      33.955  28.229  26.920  1.00  0.00     0.118 C 
BRANCH   2   3
ATOM      3  N   UNL A   1      33.762  29.590  27.409  1.00  0.00    -0.352 N 
ATOM      4  O   UNL A   1      34.155  31.452  28.609  1.00  0.00    -0.269 OA
ATOM      5  C   UNL A   1      34.596  30.403  28.141  1.00  0.00     0.251 C 
ATOM      6  H   UNL A   1      32.894  29.992  27.176  1.00  0.00     0.163 HD
BRANCH   5   7
ATOM      7  C   UNL A   1      36.002  30.016  28.384  1.00  0.00     0.039 A 
ATOM      8  C   UNL A   1      36.398  29.519  29.625  1.00  0.00     0.014 A 
ATOM      9  C   UNL A   1      36.937  30.119  27.348  1.00  0.00     0.014 A 
ATOM     10  C   UNL A   1      37.744  29.301  29.887  1.00  0.00     0.010 A 
ATOM     11  C   UNL A   1      38.278  29.787  27.580  1.00  0.00     0.010 A 
ATOM     12  C   UNL A   1      38.698  29.404  28.862  1.00  0.00    -0.014 A 
BRANCH  12  13
ATOM     13  C   UNL A   1      40.103  29.018  29.160  1.00  0.00     0.031 A 
ATOM     14  C   UNL A   1      40.652  27.673  28.770  1.00  0.00     0.074 A 
ATOM     15  C   UNL A   1      40.905  29.939  29.733  1.00  0.00     0.049 A 
ATOM     16  N   UNL A   1      41.875  27.223  28.893  1.00  0.00    -0.248 NA
ATOM     17  C   UNL A   1      39.717  26.705  28.174  1.00  0.00     0.031 C 
ATOM     18  C   UNL A   1      40.479  31.274  30.168  1.00  0.00     0.029 A 
ATOM     19  N   UNL A   1      42.247  29.916  30.012  1.00  0.00    -0.354 N 
ATOM     20  C   UNL A   1      41.858  25.922  28.404  1.00  0.00     0.074 A 
ATOM     21  C   UNL A   1      40.495  25.642  28.004  1.00  0.00     0.031 C 
ATOM     22  C   UNL A   1      41.548  31.963  30.591  1.00  0.00     0.029 A 
ATOM     23  C   UNL A   1      42.720  31.100  30.527  1.00  0.00     0.049 A 
ATOM     24  H   UNL A   1      42.816  29.127  29.859  1.00  0.00     0.167 HD
ATOM     25  C   UNL A   1      42.885  25.045  28.292  1.00  0.00     0.031 A 
ATOM     26  C   UNL A   1      43.957  31.456  30.920  1.00  0.00     0.031 A 
ATOM     27  C   UNL A   1      44.240  25.330  28.691  1.00  0.00     0.049 A 
ATOM     28  C   UNL A   1      45.069  30.457  30.799  1.00  0.00     0.074 A 
ATOM     29  C   UNL A   1      45.353  24.509  28.606  1.00  0.00     0.029 A 
ATOM     30  N   UNL A   1      44.670  26.524  29.249  1.00  0.00    -0.354 N 
ATOM     31  N   UNL A   1      45.030  29.239  30.313  1.00  0.00    -0.248 NA
ATOM     32  C   UNL A   1      46.390  30.879  31.280  1.00  0.00     0.031 C 
ATOM     33  C   UNL A   1      46.445  25.192  29.153  1.00  0.00     0.029 A 
ATOM     34  C   UNL A   1      46.026  26.456  29.530  1.00  0.00     0.049 A 
ATOM     35  H   UNL A   1      44.096  27.306  29.420  1.00  0.00     0.167 HD
ATOM     36  C   UNL A   1      46.325  28.748  30.429  1.00  0.00     0.074 A 
ATOM     37  C   UNL A   1      47.128  29.815  30.993  1.00  0.00     0.031 C 
ATOM     38  C   UNL A   1      46.805  27.523  30.105  1.00  0.00     0.031 A 
BRANCH  25  39
ATOM     39  C   UNL A   1      42.590  23.680  27.725  1.00  0.00    -0.014 A 
ATOM     40  C   UNL A   1      42.780  23.406  26.359  1.00  0.00     0.010 A 
ATOM     41  C   UNL A   1      42.200  22.636  28.583  1.00  0.00     0.010 A 
ATOM     42  C   UNL A   1      42.564  22.119  25.858  1.00  0.00     0.020 A 
ATOM     43  C   UNL A   1      42.004  21.341  28.091  1.00  0.00     0.020 A 
ATOM     44  C   UNL A   1      42.179  21.094  26.728  1.00  0.00     0.054 A 
BRANCH  44  45
ATOM     45  S   UNL A   1      41.954  19.423  26.058  1.00  0.00     0.124 S 
ATOM     46  O   UNL A   1      42.722  19.490  24.817  1.00  0.00    -0.237 OA
ATOM     47  O   UNL A   1      42.526  18.579  27.104  1.00  0.00    -0.237 OA
ATOM     48  O   UNL A   1      40.508  19.306  25.890  1.00  0.00    -0.744 OA
ENDBRANCH  44  45
ENDBRANCH  25  39
BRANCH  26  49
ATOM     49  C   UNL A   1      44.194  32.806  31.496  1.00  0.00    -0.014 A 
ATOM     50  C   UNL A   1      44.561  33.888  30.678  1.00  0.00     0.010 A 
ATOM     51  C   UNL A   1      44.046  33.014  32.880  1.00  0.00     0.010 A 
ATOM     52  C   UNL A   1      44.803  35.146  31.237  1.00  0.00     0.020 A 
ATOM     53  C   UNL A   1      44.256  34.276  33.439  1.00  0.00     0.020 A 
ATOM     54  C   UNL A   1      44.651  35.331  32.615  1.00  0.00     0.054 A 
BRANCH  54  55
ATOM     55  S   UNL A   1      44.941  36.976  33.321  1.00  0.00     0.124 S 
ATOM     56  O   UNL A   1      45.374  36.650  34.676  1.00  0.00    -0.237 OA
ATOM     57  O   UNL A   1      45.969  37.524  32.441  1.00  0.00    -0.237 OA
ATOM     58  O   UNL A   1      43.634  37.623  33.218  1.00  0.00    -0.744 OA
ENDBRANCH  54  55
ENDBRANCH  26  49
BRANCH  38  59
ATOM     59  C   UNL A   1      48.270  27.284  30.347  1.00  0.00    -0.014 A 
ATOM     60  C   UNL A   1      48.723  26.736  31.560  1.00  0.00     0.010 A 
ATOM     61  C   UNL A   1      49.204  27.606  29.346  1.00  0.00     0.010 A 
ATOM     62  C   UNL A   1      50.090  26.558  31.787  1.00  0.00     0.020 A 
ATOM     63  C   UNL A   1      50.569  27.404  29.558  1.00  0.00     0.020 A 
ATOM     64  C   UNL A   1      51.005  26.900  30.786  1.00  0.00     0.054 A 
BRANCH  64  65
ATOM     65  S   UNL A   1      52.773  26.652  31.098  1.00  0.00     0.124 S 
ATOM     66  O   UNL A   1      53.339  26.788  29.759  1.00  0.00    -0.237 OA
ATOM     67  O   UNL A   1      53.092  27.732  32.029  1.00  0.00    -0.237 OA
ATOM     68  O   UNL A   1      52.838  25.308  31.668  1.00  0.00    -0.744 OA
ENDBRANCH  64  65
ENDBRANCH  38  59
ENDBRANCH  12  13
ENDBRANCH   5   7
ENDBRANCH   2   3
ENDBRANCH   1   2
BRANCH   1  69
ATOM     69  C   UNL A   1      33.826  26.671  24.906  1.00  0.00     0.118 C 
BRANCH  69  70
ATOM     70  N   UNL A   1      33.112  26.449  23.657  1.00  0.00    -0.352 N 
ATOM     71  C   UNL A   1      32.089  25.581  23.360  1.00  0.00     0.255 C 
ATOM     72  H   UNL A   1      33.409  27.010  22.905  1.00  0.00     0.163 HD
ATOM     73  O   UNL A   1      31.762  25.416  22.188  1.00  0.00    -0.269 OA
BRANCH  71  74
ATOM     74  C   UNL A   1      31.367  24.869  24.434  1.00  0.00     0.082 A 
ATOM     75  C   UNL A   1      30.415  25.553  25.200  1.00  0.00     0.021 A 
ATOM     76  C   UNL A   1      31.549  23.492  24.632  1.00  0.00     0.140 A 
ATOM     77  C   UNL A   1      29.754  24.886  26.221  1.00  0.00     0.042 A 
ATOM     78  N   UNL A   1      30.904  22.846  25.634  1.00  0.00    -0.219 NA
ATOM     79  C   UNL A   1      30.048  23.549  26.399  1.00  0.00     0.131 A 
ATOM     80  Cl  UNL A   1      29.299  22.645  27.649  1.00  0.00    -0.062 Cl
BRANCH  76  81
ATOM     81  N   UNL A   1      32.434  22.766  23.859  1.00  0.00    -0.367 N 
ATOM     82  H   UNL A   1      32.388  22.844  22.878  1.00  0.00     0.162 HD
BRANCH  81  83
ATOM     83  C   UNL A   1      33.430  21.892  24.455  1.00  0.00     0.152 C 
BRANCH  83  84
ATOM     84  C   UNL A   1      34.813  22.137  23.802  1.00  0.00     0.192 C 
ATOM     85  C   UNL A   1      35.907  21.402  24.627  1.00  0.00     0.296 C 
ATOM     86  O   UNL A   1      35.018  23.560  23.661  1.00  0.00    -0.364 OA
ATOM     87  N   UNL A   1      37.222  22.055  24.679  1.00  0.00    -0.328 N 
ATOM     88  C   UNL A   1      35.713  24.109  24.776  1.00  0.00     0.225 C 
ATOM     89  C   UNL A   1      38.057  21.538  25.772  1.00  0.00     0.262 C 
ATOM     90  C   UNL A   1      37.128  23.526  24.827  1.00  0.00     0.210 C 
ATOM     91  H   UNL A   1      37.654  21.837  23.782  1.00  0.00     0.348 HD
ATOM     92  C   UNL A   1      38.851  22.737  26.260  1.00  0.00     0.068 C 
ATOM     93  C   UNL A   1      37.856  23.871  26.120  1.00  0.00     0.073 C 
ENDBRANCH  83  84
ENDBRANCH  81  83
ENDBRANCH  76  81
ENDBRANCH  71  74
ENDBRANCH  69  70
ENDBRANCH   1  69
TORSDOF 16
ENDMDL
