MODEL 1
REMARK VINA RESULT:     -11.2      0.000      0.000
REMARK SMILES N#CCC(=O)N/N=C/c1ccc(OCc2ccc(C(=O)NCCCNC(=O)c3ccc(-c4c5nc(c(-c6ccc(S(=O)(=O)[O-])cc6)c6ccc([nH]6)c(-c6ccc(S(=O)(=O)[O-])cc6)c6nc(c(-c7ccc(S(=O)(=O)[O-])cc7)c7ccc4[nH]7)C=C6)C=C5)cc3)cc2)c(Br)c1
REMARK SMILES IDX 19 1 20 2 21 3 18 5 15 6 16 7 89 8 17 9 88 10 14 11 13 12
REMARK SMILES IDX 12 13 9 14 10 15 92 16 11 17 90 18 91 19 8 20 7 21 6 22 4 23
REMARK SMILES IDX 5 24 3 26 2 27 1 28 22 29 23 30 24 31 25 32 26 33 27 35
REMARK SMILES IDX 28 36 29 37 87 38 30 39 86 40 31 41 32 42 33 43 80 44 34 45
REMARK SMILES IDX 85 46 79 47 81 48 35 49 84 50 78 51 77 52 36 54 66 55 47 56
REMARK SMILES IDX 65 57 48 58 51 59 64 60 82 61 49 62 50 63 63 65 83 66 52 67
REMARK SMILES IDX 37 68 38 69 46 70 39 71 45 72 40 73 41 74 42 75 43 76 44 77
REMARK SMILES IDX 67 78 68 79 76 80 69 81 75 82 70 83 71 84 72 85 73 86 74 87
REMARK SMILES IDX 53 88 54 89 62 90 55 91 61 92 56 93 57 94 58 95 59 96 60 97
REMARK H PARENT 21 4 6 25 25 34 81 53 51 64
REMARK Flexibility Score: inf
ROOT
ATOM      1  C   UNL A   1      32.334  29.069  27.298  1.00  0.00     0.251 C 
ATOM      2  O   UNL A   1      31.404  28.656  27.990  1.00  0.00    -0.269 OA
ATOM      3  N   UNL A   1      33.146  30.044  27.813  1.00  0.00    -0.352 N 
ATOM      4  H   UNL A   1      32.885  30.360  28.708  1.00  0.00     0.163 HD
ENDROOT
BRANCH   1   5
ATOM      5  C   UNL A   1      32.590  28.443  25.979  1.00  0.00     0.039 A 
ATOM      6  C   UNL A   1      33.251  27.168  23.555  1.00  0.00    -0.011 A 
ATOM      7  C   UNL A   1      33.686  26.642  24.780  1.00  0.00     0.008 A 
ATOM      8  C   UNL A   1      32.438  28.309  23.560  1.00  0.00     0.008 A 
ATOM      9  C   UNL A   1      33.352  27.270  25.980  1.00  0.00     0.014 A 
ATOM     10  C   UNL A   1      32.101  28.935  24.766  1.00  0.00     0.014 A 
BRANCH   6  11
ATOM     11  C   UNL A   1      33.684  26.530  22.253  1.00  0.00     0.265 C 
BRANCH  11  12
ATOM     12  O   UNL A   1      32.806  25.549  21.690  1.00  0.00    -0.488 OA
BRANCH  12  13
ATOM     13  C   UNL A   1      32.531  24.434  22.429  1.00  0.00     0.134 A 
ATOM     14  C   UNL A   1      32.312  22.053  23.892  1.00  0.00    -0.004 A 
ATOM     15  C   UNL A   1      33.452  22.285  23.129  1.00  0.00     0.013 A 
ATOM     16  C   UNL A   1      31.299  23.015  23.954  1.00  0.00     0.029 A 
ATOM     17  C   UNL A   1      33.561  23.479  22.413  1.00  0.00     0.048 A 
ATOM     18  C   UNL A   1      31.415  24.216  23.245  1.00  0.00     0.060 A 
ATOM     19  Br  UNL A   1      30.080  25.519  23.600  1.00  0.00    -0.047 Br
BRANCH  14  20
ATOM     20  C   UNL A   1      32.206  20.801  24.664  1.00  0.00     0.141 C 
ATOM     21  N   UNL A   1      33.209  20.368  25.362  1.00  0.00    -0.181 NA
BRANCH  21  22
ATOM     22  N   UNL A   1      32.993  19.230  26.070  1.00  0.00    -0.246 N 
ATOM     23  C   UNL A   1      33.056  17.973  25.509  1.00  0.00     0.254 C 
ATOM     24  O   UNL A   1      32.538  17.018  26.094  1.00  0.00    -0.272 OA
ATOM     25  H   UNL A   1      32.783  19.307  27.028  1.00  0.00     0.193 HD
BRANCH  23  26
ATOM     26  C   UNL A   1      33.867  17.774  24.254  1.00  0.00     0.221 C 
BRANCH  26  27
ATOM     27  C   UNL A   1      33.008  17.764  23.000  1.00  0.00     0.072 C 
ATOM     28  N   UNL A   1      32.296  17.756  21.959  1.00  0.00    -0.198 NA
ENDBRANCH  26  27
ENDBRANCH  23  26
ENDBRANCH  21  22
ENDBRANCH  14  20
ENDBRANCH  12  13
ENDBRANCH  11  12
ENDBRANCH   6  11
ENDBRANCH   1   5
BRANCH   3  29
ATOM     29  C   UNL A   1      34.326  30.692  27.270  1.00  0.00     0.118 C 
BRANCH  29  30
ATOM     30  C   UNL A   1      34.565  32.039  27.948  1.00  0.00     0.042 C 
BRANCH  30  31
ATOM     31  C   UNL A   1      35.865  32.089  28.745  1.00  0.00     0.118 C 
BRANCH  31  32
ATOM     32  N   UNL A   1      35.668  31.688  30.132  1.00  0.00    -0.352 N 
ATOM     33  C   UNL A   1      36.415  30.841  30.905  1.00  0.00     0.251 C 
ATOM     34  H   UNL A   1      34.884  32.084  30.576  1.00  0.00     0.163 HD
ATOM     35  O   UNL A   1      35.950  30.431  31.974  1.00  0.00    -0.269 OA
BRANCH  33  36
ATOM     36  C   UNL A   1      37.760  30.411  30.470  1.00  0.00     0.039 A 
ATOM     37  C   UNL A   1      38.025  30.290  29.104  1.00  0.00     0.014 A 
ATOM     38  C   UNL A   1      38.748  30.092  31.405  1.00  0.00     0.014 A 
ATOM     39  C   UNL A   1      39.293  29.892  28.676  1.00  0.00     0.010 A 
ATOM     40  C   UNL A   1      40.033  29.768  30.977  1.00  0.00     0.010 A 
ATOM     41  C   UNL A   1      40.316  29.653  29.608  1.00  0.00    -0.014 A 
BRANCH  41  42
ATOM     42  C   UNL A   1      41.681  29.266  29.171  1.00  0.00     0.031 A 
ATOM     43  C   UNL A   1      42.787  30.289  29.154  1.00  0.00     0.074 A 
ATOM     44  C   UNL A   1      41.914  28.008  28.748  1.00  0.00     0.049 A 
ATOM     45  N   UNL A   1      44.023  30.159  28.748  1.00  0.00    -0.248 NA
ATOM     46  C   UNL A   1      42.452  31.641  29.635  1.00  0.00     0.031 C 
ATOM     47  C   UNL A   1      40.918  26.934  28.690  1.00  0.00     0.029 A 
ATOM     48  N   UNL A   1      43.061  27.418  28.281  1.00  0.00    -0.354 N 
ATOM     49  C   UNL A   1      44.610  31.409  28.916  1.00  0.00     0.074 A 
ATOM     50  C   UNL A   1      43.581  32.298  29.408  1.00  0.00     0.031 C 
ATOM     51  C   UNL A   1      41.506  25.811  28.244  1.00  0.00     0.029 A 
ATOM     52  C   UNL A   1      42.904  26.094  27.942  1.00  0.00     0.049 A 
ATOM     53  H   UNL A   1      43.916  27.897  28.196  1.00  0.00     0.167 HD
ATOM     54  C   UNL A   1      45.896  31.777  28.705  1.00  0.00     0.031 A 
ATOM     55  C   UNL A   1      43.787  25.209  27.437  1.00  0.00     0.031 A 
ATOM     56  C   UNL A   1      46.921  30.887  28.225  1.00  0.00     0.049 A 
ATOM     57  C   UNL A   1      45.202  25.654  27.185  1.00  0.00     0.074 A 
ATOM     58  C   UNL A   1      48.260  31.155  28.008  1.00  0.00     0.029 A 
ATOM     59  N   UNL A   1      46.719  29.555  27.897  1.00  0.00    -0.354 N 
ATOM     60  N   UNL A   1      45.747  26.828  27.394  1.00  0.00    -0.248 NA
ATOM     61  C   UNL A   1      46.125  24.648  26.640  1.00  0.00     0.031 C 
ATOM     62  C   UNL A   1      48.861  29.997  27.505  1.00  0.00     0.029 A 
ATOM     63  C   UNL A   1      47.909  28.992  27.465  1.00  0.00     0.049 A 
ATOM     64  H   UNL A   1      45.860  29.081  27.962  1.00  0.00     0.167 HD
ATOM     65  C   UNL A   1      47.085  26.692  27.039  1.00  0.00     0.074 A 
ATOM     66  C   UNL A   1      47.269  25.318  26.618  1.00  0.00     0.031 C 
ATOM     67  C   UNL A   1      48.074  27.619  27.060  1.00  0.00     0.031 A 
BRANCH  54  68
ATOM     68  C   UNL A   1      46.274  33.206  29.001  1.00  0.00    -0.014 A 
ATOM     69  C   UNL A   1      46.154  34.201  28.014  1.00  0.00     0.010 A 
ATOM     70  C   UNL A   1      46.696  33.570  30.292  1.00  0.00     0.010 A 
ATOM     71  C   UNL A   1      46.475  35.529  28.306  1.00  0.00     0.020 A 
ATOM     72  C   UNL A   1      46.991  34.903  30.595  1.00  0.00     0.020 A 
ATOM     73  C   UNL A   1      46.890  35.872  29.595  1.00  0.00     0.054 A 
BRANCH  73  74
ATOM     74  S   UNL A   1      47.256  37.612  29.955  1.00  0.00     0.124 S 
ATOM     75  O   UNL A   1      48.160  37.961  28.861  1.00  0.00    -0.237 OA
ATOM     76  O   UNL A   1      45.936  38.234  29.900  1.00  0.00    -0.237 OA
ATOM     77  O   UNL A   1      47.869  37.572  31.280  1.00  0.00    -0.744 OA
ENDBRANCH  73  74
ENDBRANCH  54  68
BRANCH  55  78
ATOM     78  C   UNL A   1      43.366  23.811  27.141  1.00  0.00    -0.014 A 
ATOM     79  C   UNL A   1      42.904  23.460  25.861  1.00  0.00     0.010 A 
ATOM     80  C   UNL A   1      43.400  22.828  28.147  1.00  0.00     0.010 A 
ATOM     81  C   UNL A   1      42.447  22.165  25.601  1.00  0.00     0.020 A 
ATOM     82  C   UNL A   1      42.974  21.523  27.883  1.00  0.00     0.020 A 
ATOM     83  C   UNL A   1      42.481  21.206  26.616  1.00  0.00     0.054 A 
BRANCH  83  84
ATOM     84  S   UNL A   1      41.895  19.526  26.257  1.00  0.00     0.124 S 
ATOM     85  O   UNL A   1      42.295  18.802  27.458  1.00  0.00    -0.237 OA
ATOM     86  O   UNL A   1      40.458  19.723  26.084  1.00  0.00    -0.237 OA
ATOM     87  O   UNL A   1      42.618  19.168  25.038  1.00  0.00    -0.744 OA
ENDBRANCH  83  84
ENDBRANCH  55  78
BRANCH  67  88
ATOM     88  C   UNL A   1      49.454  27.168  26.666  1.00  0.00    -0.014 A 
ATOM     89  C   UNL A   1      50.374  26.703  27.623  1.00  0.00     0.010 A 
ATOM     90  C   UNL A   1      49.817  27.162  25.306  1.00  0.00     0.010 A 
ATOM     91  C   UNL A   1      51.645  26.276  27.230  1.00  0.00     0.020 A 
ATOM     92  C   UNL A   1      51.075  26.707  24.907  1.00  0.00     0.020 A 
ATOM     93  C   UNL A   1      51.988  26.281  25.874  1.00  0.00     0.054 A 
BRANCH  93  94
ATOM     94  S   UNL A   1      53.628  25.682  25.387  1.00  0.00     0.124 S 
ATOM     95  O   UNL A   1      54.341  26.929  25.124  1.00  0.00    -0.237 OA
ATOM     96  O   UNL A   1      54.066  24.947  26.572  1.00  0.00    -0.237 OA
ATOM     97  O   UNL A   1      53.362  24.855  24.212  1.00  0.00    -0.744 OA
ENDBRANCH  93  94
ENDBRANCH  67  88
ENDBRANCH  41  42
ENDBRANCH  33  36
ENDBRANCH  31  32
ENDBRANCH  30  31
ENDBRANCH  29  30
ENDBRANCH   3  29
TORSDOF 20
ENDMDL
MODEL 2
REMARK VINA RESULT:     -10.9      5.739      9.721
REMARK SMILES N#CCC(=O)N/N=C/c1ccc(OCc2ccc(C(=O)NCCCNC(=O)c3ccc(-c4c5nc(c(-c6ccc(S(=O)(=O)[O-])cc6)c6ccc([nH]6)c(-c6ccc(S(=O)(=O)[O-])cc6)c6nc(c(-c7ccc(S(=O)(=O)[O-])cc7)c7ccc4[nH]7)C=C6)C=C5)cc3)cc2)c(Br)c1
REMARK SMILES IDX 19 1 20 2 21 3 18 5 15 6 16 7 89 8 17 9 88 10 14 11 13 12
REMARK SMILES IDX 12 13 9 14 10 15 92 16 11 17 90 18 91 19 8 20 7 21 6 22 4 23
REMARK SMILES IDX 5 24 3 26 2 27 1 28 22 29 23 30 24 31 25 32 26 33 27 35
REMARK SMILES IDX 28 36 29 37 87 38 30 39 86 40 31 41 32 42 33 43 80 44 34 45
REMARK SMILES IDX 85 46 79 47 81 48 35 49 84 50 78 51 77 52 36 54 66 55 47 56
REMARK SMILES IDX 65 57 48 58 51 59 64 60 82 61 49 62 50 63 63 65 83 66 52 67
REMARK SMILES IDX 37 68 38 69 46 70 39 71 45 72 40 73 41 74 42 75 43 76 44 77
REMARK SMILES IDX 67 78 68 79 76 80 69 81 75 82 70 83 71 84 72 85 73 86 74 87
REMARK SMILES IDX 53 88 54 89 62 90 55 91 61 92 56 93 57 94 58 95 59 96 60 97
REMARK H PARENT 21 4 6 25 25 34 81 53 51 64
REMARK Flexibility Score: inf
ROOT
ATOM      1  C   UNL A   1      32.088  28.739  27.243  1.00  0.00     0.251 C 
ATOM      2  O   UNL A   1      31.282  28.125  27.942  1.00  0.00    -0.269 OA
ATOM      3  N   UNL A   1      32.588  29.923  27.714  1.00  0.00    -0.352 N 
ATOM      4  H   UNL A   1      32.222  30.203  28.584  1.00  0.00     0.163 HD
ENDROOT
BRANCH   1   5
ATOM      5  C   UNL A   1      32.547  28.139  25.968  1.00  0.00     0.039 A 
ATOM      6  C   UNL A   1      33.228  27.041  23.464  1.00  0.00    -0.011 A 
ATOM      7  C   UNL A   1      32.243  28.033  23.564  1.00  0.00     0.008 A 
ATOM      8  C   UNL A   1      33.906  26.642  24.623  1.00  0.00     0.008 A 
ATOM      9  C   UNL A   1      31.912  28.581  24.803  1.00  0.00     0.014 A 
ATOM     10  C   UNL A   1      33.575  27.197  25.865  1.00  0.00     0.014 A 
BRANCH   6  11
ATOM     11  C   UNL A   1      33.526  26.392  22.130  1.00  0.00     0.265 C 
BRANCH  11  12
ATOM     12  O   UNL A   1      32.696  25.290  21.746  1.00  0.00    -0.488 OA
BRANCH  12  13
ATOM     13  C   UNL A   1      32.568  24.248  22.620  1.00  0.00     0.134 A 
ATOM     14  C   UNL A   1      32.658  22.045  24.351  1.00  0.00    -0.004 A 
ATOM     15  C   UNL A   1      33.734  22.297  23.507  1.00  0.00     0.013 A 
ATOM     16  C   UNL A   1      31.554  22.904  24.359  1.00  0.00     0.029 A 
ATOM     17  C   UNL A   1      33.689  23.403  22.655  1.00  0.00     0.048 A 
ATOM     18  C   UNL A   1      31.516  24.020  23.515  1.00  0.00     0.060 A 
ATOM     19  Br  UNL A   1      30.070  25.219  23.791  1.00  0.00    -0.047 Br
BRANCH  14  20
ATOM     20  C   UNL A   1      32.715  20.888  25.263  1.00  0.00     0.141 C 
ATOM     21  N   UNL A   1      32.303  19.721  24.877  1.00  0.00    -0.181 NA
BRANCH  21  22
ATOM     22  N   UNL A   1      32.438  18.715  25.778  1.00  0.00    -0.246 N 
ATOM     23  C   UNL A   1      32.920  17.468  25.446  1.00  0.00     0.254 C 
ATOM     24  O   UNL A   1      32.716  16.514  26.202  1.00  0.00    -0.272 OA
ATOM     25  H   UNL A   1      32.181  18.886  26.713  1.00  0.00     0.193 HD
BRANCH  23  26
ATOM     26  C   UNL A   1      33.795  17.325  24.227  1.00  0.00     0.221 C 
BRANCH  26  27
ATOM     27  C   UNL A   1      33.039  17.579  22.933  1.00  0.00     0.072 C 
ATOM     28  N   UNL A   1      32.411  17.789  21.860  1.00  0.00    -0.198 NA
ENDBRANCH  26  27
ENDBRANCH  23  26
ENDBRANCH  21  22
ENDBRANCH  14  20
ENDBRANCH  12  13
ENDBRANCH  11  12
ENDBRANCH   6  11
ENDBRANCH   1   5
BRANCH   3  29
ATOM     29  C   UNL A   1      33.565  30.839  27.155  1.00  0.00     0.118 C 
BRANCH  29  30
ATOM     30  C   UNL A   1      34.015  31.856  28.201  1.00  0.00     0.042 C 
BRANCH  30  31
ATOM     31  C   UNL A   1      34.028  33.290  27.680  1.00  0.00     0.118 C 
BRANCH  31  32
ATOM     32  N   UNL A   1      33.333  34.201  28.579  1.00  0.00    -0.352 N 
ATOM     33  C   UNL A   1      33.547  34.437  29.911  1.00  0.00     0.251 C 
ATOM     34  H   UNL A   1      32.605  34.722  28.170  1.00  0.00     0.163 HD
ATOM     35  O   UNL A   1      32.696  35.057  30.558  1.00  0.00    -0.269 OA
BRANCH  33  36
ATOM     36  C   UNL A   1      34.774  33.952  30.575  1.00  0.00     0.039 A 
ATOM     37  C   UNL A   1      34.690  32.862  31.445  1.00  0.00     0.014 A 
ATOM     38  C   UNL A   1      36.000  34.593  30.374  1.00  0.00     0.014 A 
ATOM     39  C   UNL A   1      35.842  32.387  32.076  1.00  0.00     0.010 A 
ATOM     40  C   UNL A   1      37.159  34.073  30.945  1.00  0.00     0.010 A 
ATOM     41  C   UNL A   1      37.091  32.972  31.811  1.00  0.00    -0.014 A 
BRANCH  41  42
ATOM     42  C   UNL A   1      38.331  32.458  32.443  1.00  0.00     0.031 A 
ATOM     43  C   UNL A   1      39.256  31.557  31.666  1.00  0.00     0.074 A 
ATOM     44  C   UNL A   1      38.602  32.764  33.727  1.00  0.00     0.049 A 
ATOM     45  N   UNL A   1      40.350  30.960  32.063  1.00  0.00    -0.248 NA
ATOM     46  C   UNL A   1      38.892  31.274  30.267  1.00  0.00     0.031 C 
ATOM     47  C   UNL A   1      37.769  33.603  34.593  1.00  0.00     0.029 A 
ATOM     48  N   UNL A   1      39.652  32.401  34.532  1.00  0.00    -0.354 N 
ATOM     49  C   UNL A   1      40.799  30.226  30.971  1.00  0.00     0.074 A 
ATOM     50  C   UNL A   1      39.830  30.407  29.912  1.00  0.00     0.031 C 
ATOM     51  C   UNL A   1      38.356  33.714  35.797  1.00  0.00     0.029 A 
ATOM     52  C   UNL A   1      39.580  32.921  35.804  1.00  0.00     0.049 A 
ATOM     53  H   UNL A   1      40.388  31.823  34.228  1.00  0.00     0.167 HD
ATOM     54  C   UNL A   1      41.928  29.488  30.851  1.00  0.00     0.031 A 
ATOM     55  C   UNL A   1      40.404  32.770  36.859  1.00  0.00     0.031 A 
ATOM     56  C   UNL A   1      42.896  29.319  31.903  1.00  0.00     0.049 A 
ATOM     57  C   UNL A   1      41.637  31.920  36.706  1.00  0.00     0.074 A 
ATOM     58  C   UNL A   1      44.087  28.617  31.871  1.00  0.00     0.029 A 
ATOM     59  N   UNL A   1      42.785  29.864  33.173  1.00  0.00    -0.354 N 
ATOM     60  N   UNL A   1      42.065  31.272  35.650  1.00  0.00    -0.248 NA
ATOM     61  C   UNL A   1      42.505  31.793  37.886  1.00  0.00     0.031 C 
ATOM     62  C   UNL A   1      44.677  28.699  33.137  1.00  0.00     0.029 A 
ATOM     63  C   UNL A   1      43.881  29.502  33.938  1.00  0.00     0.049 A 
ATOM     64  H   UNL A   1      42.039  30.425  33.484  1.00  0.00     0.167 HD
ATOM     65  C   UNL A   1      43.270  30.689  36.027  1.00  0.00     0.074 A 
ATOM     66  C   UNL A   1      43.509  31.075  37.403  1.00  0.00     0.031 C 
ATOM     67  C   UNL A   1      44.106  29.905  35.302  1.00  0.00     0.031 A 
BRANCH  54  68
ATOM     68  C   UNL A   1      42.188  28.813  29.528  1.00  0.00    -0.014 A 
ATOM     69  C   UNL A   1      41.623  27.558  29.238  1.00  0.00     0.010 A 
ATOM     70  C   UNL A   1      42.952  29.464  28.543  1.00  0.00     0.010 A 
ATOM     71  C   UNL A   1      41.841  26.954  27.997  1.00  0.00     0.020 A 
ATOM     72  C   UNL A   1      43.149  28.875  27.291  1.00  0.00     0.020 A 
ATOM     73  C   UNL A   1      42.602  27.617  27.031  1.00  0.00     0.054 A 
BRANCH  73  74
ATOM     74  S   UNL A   1      42.829  26.826  25.413  1.00  0.00     0.124 S 
ATOM     75  O   UNL A   1      42.635  27.951  24.500  1.00  0.00    -0.237 OA
ATOM     76  O   UNL A   1      44.194  26.314  25.497  1.00  0.00    -0.237 OA
ATOM     77  O   UNL A   1      41.784  25.807  25.375  1.00  0.00    -0.744 OA
ENDBRANCH  73  74
ENDBRANCH  54  68
BRANCH  55  78
ATOM     78  C   UNL A   1      40.099  33.440  38.154  1.00  0.00    -0.014 A 
ATOM     79  C   UNL A   1      39.363  32.772  39.148  1.00  0.00     0.010 A 
ATOM     80  C   UNL A   1      40.522  34.760  38.391  1.00  0.00     0.010 A 
ATOM     81  C   UNL A   1      39.021  33.423  40.337  1.00  0.00     0.020 A 
ATOM     82  C   UNL A   1      40.210  35.405  39.591  1.00  0.00     0.020 A 
ATOM     83  C   UNL A   1      39.444  34.738  40.548  1.00  0.00     0.054 A 
BRANCH  83  84
ATOM     84  S   UNL A   1      39.000  35.563  42.103  1.00  0.00     0.124 S 
ATOM     85  O   UNL A   1      39.393  36.943  41.836  1.00  0.00    -0.237 OA
ATOM     86  O   UNL A   1      37.563  35.319  42.191  1.00  0.00    -0.237 OA
ATOM     87  O   UNL A   1      39.806  34.864  43.101  1.00  0.00    -0.744 OA
ENDBRANCH  83  84
ENDBRANCH  55  78
BRANCH  67  88
ATOM     88  C   UNL A   1      45.381  29.455  35.964  1.00  0.00    -0.014 A 
ATOM     89  C   UNL A   1      46.549  30.237  35.908  1.00  0.00     0.010 A 
ATOM     90  C   UNL A   1      45.392  28.253  36.695  1.00  0.00     0.010 A 
ATOM     91  C   UNL A   1      47.716  29.804  36.542  1.00  0.00     0.020 A 
ATOM     92  C   UNL A   1      46.549  27.834  37.355  1.00  0.00     0.020 A 
ATOM     93  C   UNL A   1      47.709  28.604  37.262  1.00  0.00     0.054 A 
BRANCH  93  94
ATOM     94  S   UNL A   1      49.226  28.087  38.110  1.00  0.00     0.124 S 
ATOM     95  O   UNL A   1      50.181  29.100  37.669  1.00  0.00    -0.237 OA
ATOM     96  O   UNL A   1      48.845  28.154  39.519  1.00  0.00    -0.237 OA
ATOM     97  O   UNL A   1      49.466  26.739  37.600  1.00  0.00    -0.744 OA
ENDBRANCH  93  94
ENDBRANCH  67  88
ENDBRANCH  41  42
ENDBRANCH  33  36
ENDBRANCH  31  32
ENDBRANCH  30  31
ENDBRANCH  29  30
ENDBRANCH   3  29
TORSDOF 20
ENDMDL
MODEL 3
REMARK VINA RESULT:     -10.8      0.785      7.975
REMARK SMILES N#CCC(=O)N/N=C/c1ccc(OCc2ccc(C(=O)NCCCNC(=O)c3ccc(-c4c5nc(c(-c6ccc(S(=O)(=O)[O-])cc6)c6ccc([nH]6)c(-c6ccc(S(=O)(=O)[O-])cc6)c6nc(c(-c7ccc(S(=O)(=O)[O-])cc7)c7ccc4[nH]7)C=C6)C=C5)cc3)cc2)c(Br)c1
REMARK SMILES IDX 19 1 20 2 21 3 18 5 15 6 16 7 89 8 17 9 88 10 14 11 13 12
REMARK SMILES IDX 12 13 9 14 10 15 92 16 11 17 90 18 91 19 8 20 7 21 6 22 4 23
REMARK SMILES IDX 5 24 3 26 2 27 1 28 22 29 23 30 24 31 25 32 26 33 27 35
REMARK SMILES IDX 28 36 29 37 87 38 30 39 86 40 31 41 32 42 33 43 80 44 34 45
REMARK SMILES IDX 85 46 79 47 81 48 35 49 84 50 78 51 77 52 36 54 66 55 47 56
REMARK SMILES IDX 65 57 48 58 51 59 64 60 82 61 49 62 50 63 63 65 83 66 52 67
REMARK SMILES IDX 37 68 38 69 46 70 39 71 45 72 40 73 41 74 42 75 43 76 44 77
REMARK SMILES IDX 67 78 68 79 76 80 69 81 75 82 70 83 71 84 72 85 73 86 74 87
REMARK SMILES IDX 53 88 54 89 62 90 55 91 61 92 56 93 57 94 58 95 59 96 60 97
REMARK H PARENT 21 4 6 25 25 34 81 53 51 64
REMARK Flexibility Score: inf
ROOT
ATOM      1  C   UNL A   1      32.294  29.150  27.280  1.00  0.00     0.251 C 
ATOM      2  O   UNL A   1      31.430  28.661  28.008  1.00  0.00    -0.269 OA
ATOM      3  N   UNL A   1      33.118  30.111  27.801  1.00  0.00    -0.352 N 
ATOM      4  H   UNL A   1      32.918  30.356  28.734  1.00  0.00     0.163 HD
ENDROOT
BRANCH   1   5
ATOM      5  C   UNL A   1      32.465  28.626  25.903  1.00  0.00     0.039 A 
ATOM      6  C   UNL A   1      32.973  27.547  23.351  1.00  0.00    -0.011 A 
ATOM      7  C   UNL A   1      33.523  26.958  24.498  1.00  0.00     0.008 A 
ATOM      8  C   UNL A   1      32.123  28.651  23.500  1.00  0.00     0.008 A 
ATOM      9  C   UNL A   1      33.265  27.488  25.761  1.00  0.00     0.014 A 
ATOM     10  C   UNL A   1      31.862  29.179  24.770  1.00  0.00     0.014 A 
BRANCH   6  11
ATOM     11  C   UNL A   1      33.322  27.017  21.977  1.00  0.00     0.265 C 
BRANCH  11  12
ATOM     12  O   UNL A   1      32.472  25.996  21.443  1.00  0.00    -0.488 OA
BRANCH  12  13
ATOM     13  C   UNL A   1      32.244  24.885  22.205  1.00  0.00     0.134 A 
ATOM     14  C   UNL A   1      32.125  22.521  23.705  1.00  0.00    -0.004 A 
ATOM     15  C   UNL A   1      33.237  22.769  22.907  1.00  0.00     0.013 A 
ATOM     16  C   UNL A   1      31.091  23.459  23.784  1.00  0.00     0.029 A 
ATOM     17  C   UNL A   1      33.296  23.955  22.171  1.00  0.00     0.048 A 
ATOM     18  C   UNL A   1      31.158  24.653  23.056  1.00  0.00     0.060 A 
ATOM     19  Br  UNL A   1      29.803  25.929  23.431  1.00  0.00    -0.047 Br
BRANCH  14  20
ATOM     20  C   UNL A   1      32.072  21.278  24.497  1.00  0.00     0.141 C 
ATOM     21  N   UNL A   1      33.000  21.004  25.360  1.00  0.00    -0.181 NA
BRANCH  21  22
ATOM     22  N   UNL A   1      32.833  19.857  26.067  1.00  0.00    -0.246 N 
ATOM     23  C   UNL A   1      33.008  18.605  25.520  1.00  0.00     0.254 C 
ATOM     24  O   UNL A   1      32.533  17.618  26.089  1.00  0.00    -0.272 OA
ATOM     25  H   UNL A   1      32.577  19.924  27.015  1.00  0.00     0.193 HD
BRANCH  23  26
ATOM     26  C   UNL A   1      33.885  18.457  24.302  1.00  0.00     0.221 C 
BRANCH  26  27
ATOM     27  C   UNL A   1      33.961  17.021  23.808  1.00  0.00     0.072 C 
ATOM     28  N   UNL A   1      34.025  15.830  23.399  1.00  0.00    -0.198 NA
ENDBRANCH  26  27
ENDBRANCH  23  26
ENDBRANCH  21  22
ENDBRANCH  14  20
ENDBRANCH  12  13
ENDBRANCH  11  12
ENDBRANCH   6  11
ENDBRANCH   1   5
BRANCH   3  29
ATOM     29  C   UNL A   1      34.236  30.832  27.221  1.00  0.00     0.118 C 
BRANCH  29  30
ATOM     30  C   UNL A   1      34.686  31.965  28.139  1.00  0.00     0.042 C 
BRANCH  30  31
ATOM     31  C   UNL A   1      36.037  31.704  28.799  1.00  0.00     0.118 C 
BRANCH  31  32
ATOM     32  N   UNL A   1      35.890  31.143  30.135  1.00  0.00    -0.352 N 
ATOM     33  C   UNL A   1      36.684  30.240  30.790  1.00  0.00     0.251 C 
ATOM     34  H   UNL A   1      35.106  31.458  30.640  1.00  0.00     0.163 HD
ATOM     35  O   UNL A   1      36.261  29.697  31.815  1.00  0.00    -0.269 OA
BRANCH  33  36
ATOM     36  C   UNL A   1      38.031  29.910  30.278  1.00  0.00     0.039 A 
ATOM     37  C   UNL A   1      38.237  29.854  28.897  1.00  0.00     0.014 A 
ATOM     38  C   UNL A   1      39.079  29.617  31.155  1.00  0.00     0.014 A 
ATOM     39  C   UNL A   1      39.505  29.550  28.397  1.00  0.00     0.010 A 
ATOM     40  C   UNL A   1      40.359  29.387  30.656  1.00  0.00     0.010 A 
ATOM     41  C   UNL A   1      40.583  29.340  29.273  1.00  0.00    -0.014 A 
BRANCH  41  42
ATOM     42  C   UNL A   1      41.946  29.052  28.760  1.00  0.00     0.031 A 
ATOM     43  C   UNL A   1      42.302  27.660  28.304  1.00  0.00     0.074 A 
ATOM     44  C   UNL A   1      42.874  30.029  28.747  1.00  0.00     0.049 A 
ATOM     45  N   UNL A   1      43.453  27.200  27.886  1.00  0.00    -0.248 NA
ATOM     46  C   UNL A   1      41.231  26.650  28.346  1.00  0.00     0.031 C 
ATOM     47  C   UNL A   1      42.659  31.410  29.189  1.00  0.00     0.029 A 
ATOM     48  N   UNL A   1      44.187  30.011  28.350  1.00  0.00    -0.354 N 
ATOM     49  C   UNL A   1      43.247  25.850  27.623  1.00  0.00     0.074 A 
ATOM     50  C   UNL A   1      41.878  25.552  27.982  1.00  0.00     0.031 C 
ATOM     51  C   UNL A   1      43.792  32.111  29.011  1.00  0.00     0.029 A 
ATOM     52  C   UNL A   1      44.823  31.224  28.486  1.00  0.00     0.049 A 
ATOM     53  H   UNL A   1      44.634  29.206  28.001  1.00  0.00     0.167 HD
ATOM     54  C   UNL A   1      44.111  24.945  27.105  1.00  0.00     0.031 A 
ATOM     55  C   UNL A   1      46.096  31.579  28.222  1.00  0.00     0.031 A 
ATOM     56  C   UNL A   1      45.470  25.248  26.739  1.00  0.00     0.049 A 
ATOM     57  C   UNL A   1      47.043  30.546  27.675  1.00  0.00     0.074 A 
ATOM     58  C   UNL A   1      46.416  24.409  26.178  1.00  0.00     0.029 A 
ATOM     59  N   UNL A   1      46.072  26.488  26.890  1.00  0.00    -0.354 N 
ATOM     60  N   UNL A   1      46.815  29.286  27.392  1.00  0.00    -0.248 NA
ATOM     61  C   UNL A   1      48.418  30.987  27.400  1.00  0.00     0.031 C 
ATOM     62  C   UNL A   1      47.606  25.130  26.031  1.00  0.00     0.029 A 
ATOM     63  C   UNL A   1      47.382  26.432  26.445  1.00  0.00     0.049 A 
ATOM     64  H   UNL A   1      45.633  27.288  27.258  1.00  0.00     0.167 HD
ATOM     65  C   UNL A   1      48.007  28.794  26.872  1.00  0.00     0.074 A 
ATOM     66  C   UNL A   1      48.948  29.895  26.866  1.00  0.00     0.031 C 
ATOM     67  C   UNL A   1      48.300  27.543  26.437  1.00  0.00     0.031 A 
BRANCH  54  68
ATOM     68  C   UNL A   1      43.612  23.539  26.893  1.00  0.00    -0.014 A 
ATOM     69  C   UNL A   1      43.213  22.745  27.983  1.00  0.00     0.010 A 
ATOM     70  C   UNL A   1      43.481  23.027  25.590  1.00  0.00     0.010 A 
ATOM     71  C   UNL A   1      42.720  21.454  27.776  1.00  0.00     0.020 A 
ATOM     72  C   UNL A   1      42.961  21.747  25.377  1.00  0.00     0.020 A 
ATOM     73  C   UNL A   1      42.596  20.964  26.474  1.00  0.00     0.054 A 
BRANCH  73  74
ATOM     74  S   UNL A   1      41.910  19.301  26.234  1.00  0.00     0.124 S 
ATOM     75  O   UNL A   1      42.287  18.638  27.481  1.00  0.00    -0.237 OA
ATOM     76  O   UNL A   1      40.483  19.565  26.071  1.00  0.00    -0.237 OA
ATOM     77  O   UNL A   1      42.591  18.812  25.039  1.00  0.00    -0.744 OA
ENDBRANCH  73  74
ENDBRANCH  54  68
BRANCH  55  78
ATOM     78  C   UNL A   1      46.553  32.976  28.465  1.00  0.00    -0.014 A 
ATOM     79  C   UNL A   1      46.036  34.039  27.705  1.00  0.00     0.010 A 
ATOM     80  C   UNL A   1      47.529  33.247  29.441  1.00  0.00     0.010 A 
ATOM     81  C   UNL A   1      46.513  35.341  27.887  1.00  0.00     0.020 A 
ATOM     82  C   UNL A   1      47.986  34.552  29.649  1.00  0.00     0.020 A 
ATOM     83  C   UNL A   1      47.489  35.587  28.856  1.00  0.00     0.054 A 
BRANCH  83  84
ATOM     84  S   UNL A   1      48.087  37.285  29.087  1.00  0.00     0.124 S 
ATOM     85  O   UNL A   1      47.340  37.712  30.265  1.00  0.00    -0.237 OA
ATOM     86  O   UNL A   1      49.521  37.091  29.281  1.00  0.00    -0.237 OA
ATOM     87  O   UNL A   1      47.718  37.948  27.837  1.00  0.00    -0.744 OA
ENDBRANCH  83  84
ENDBRANCH  55  78
BRANCH  67  88
ATOM     88  C   UNL A   1      49.674  27.310  25.871  1.00  0.00    -0.014 A 
ATOM     89  C   UNL A   1      49.934  27.459  24.497  1.00  0.00     0.010 A 
ATOM     90  C   UNL A   1      50.734  26.987  26.739  1.00  0.00     0.010 A 
ATOM     91  C   UNL A   1      51.222  27.251  23.997  1.00  0.00     0.020 A 
ATOM     92  C   UNL A   1      52.028  26.809  26.247  1.00  0.00     0.020 A 
ATOM     93  C   UNL A   1      52.262  26.927  24.876  1.00  0.00     0.054 A 
BRANCH  93  94
ATOM     94  S   UNL A   1      53.932  26.704  24.206  1.00  0.00     0.124 S 
ATOM     95  O   UNL A   1      54.148  25.273  24.400  1.00  0.00    -0.237 OA
ATOM     96  O   UNL A   1      53.781  27.134  22.818  1.00  0.00    -0.237 OA
ATOM     97  O   UNL A   1      54.758  27.578  25.037  1.00  0.00    -0.744 OA
ENDBRANCH  93  94
ENDBRANCH  67  88
ENDBRANCH  41  42
ENDBRANCH  33  36
ENDBRANCH  31  32
ENDBRANCH  30  31
ENDBRANCH  29  30
ENDBRANCH   3  29
TORSDOF 20
ENDMDL
