MODEL 1
REMARK VINA RESULT:     -11.9      0.000      0.000
REMARK SMILES Cc1ccc(-c2c[nH]c(=O)cc2C(=O)NCCCNC(=O)c2ccc(-c3c4nc(c(-c5ccc(S(=O)(=O)[O-])cc5)c5ccc([nH]5)c(-c5ccc(S(=O)(=O)[O-])cc5)c5nc(c(-c6ccc(S(=O)(=O)[O-])cc6)c6ccc3[nH]6)C=C5)C=C4)cc2)cc1Cl
REMARK SMILES IDX 18 1 17 2 16 3 15 4 13 5 14 6 12 8 6 9 7 10 8 11 11 12 9 13
REMARK SMILES IDX 10 15 5 16 1 17 2 18 3 19 83 20 4 21 82 22 84 23 19 24 20 25
REMARK SMILES IDX 21 27 22 28 23 29 81 30 24 31 80 32 25 33 26 34 27 35 74 36
REMARK SMILES IDX 28 37 79 38 73 39 75 40 29 41 78 42 72 43 71 44 30 46 60 47
REMARK SMILES IDX 41 48 59 49 42 50 45 51 58 52 76 53 43 54 44 55 57 57 77 58
REMARK SMILES IDX 46 59 31 60 32 61 40 62 33 63 39 64 34 65 35 66 36 67 37 68
REMARK SMILES IDX 38 69 61 70 62 71 70 72 63 73 69 74 64 75 65 76 66 77 67 78
REMARK SMILES IDX 68 79 47 80 48 81 56 82 49 83 55 84 50 85 51 86 52 87 53 88
REMARK SMILES IDX 54 89
REMARK H PARENT 15 7 8 14 19 26 75 45 45 56
REMARK Flexibility Score: inf
ROOT
ATOM      1  C   UNL A   1      34.004  28.942  25.990  1.00  0.00     0.118 C 
ENDROOT
BRANCH   1   2
ATOM      2  C   UNL A   1      33.434  27.759  26.778  1.00  0.00     0.042 C 
BRANCH   2   3
ATOM      3  C   UNL A   1      31.975  27.958  27.190  1.00  0.00     0.118 C 
BRANCH   3   4
ATOM      4  N   UNL A   1      31.211  26.741  26.998  1.00  0.00    -0.352 N 
ATOM      5  C   UNL A   1      30.697  26.062  25.943  1.00  0.00     0.252 C 
ATOM      6  O   UNL A   1      30.084  25.042  26.270  1.00  0.00    -0.269 OA
ATOM      7  H   UNL A   1      31.015  26.293  27.854  1.00  0.00     0.163 HD
BRANCH   5   8
ATOM      8  C   UNL A   1      30.878  26.436  24.489  1.00  0.00     0.054 A 
ATOM      9  C   UNL A   1      31.944  25.786  23.679  1.00  0.00     0.011 A 
ATOM     10  C   UNL A   1      32.159  26.219  22.420  1.00  0.00     0.095 A 
ATOM     11  N   UNL A   1      31.410  27.223  21.873  1.00  0.00    -0.328 N 
ATOM     12  C   UNL A   1      30.074  27.326  23.881  1.00  0.00     0.086 A 
ATOM     13  C   UNL A   1      30.358  27.817  22.513  1.00  0.00     0.248 A 
ATOM     14  H   UNL A   1      31.640  27.535  20.969  1.00  0.00     0.169 HD
ATOM     15  O   UNL A   1      29.698  28.714  22.010  1.00  0.00    -0.270 OA
BRANCH   9  16
ATOM     16  C   UNL A   1      32.759  24.617  24.081  1.00  0.00    -0.015 A 
ATOM     17  C   UNL A   1      35.040  21.150  25.313  1.00  0.00     0.046 C 
ATOM     18  C   UNL A   1      34.276  22.365  24.872  1.00  0.00    -0.032 A 
ATOM     19  C   UNL A   1      33.024  22.206  24.263  1.00  0.00     0.005 A 
ATOM     20  C   UNL A   1      34.774  23.665  25.049  1.00  0.00     0.044 A 
ATOM     21  C   UNL A   1      32.284  23.318  23.856  1.00  0.00     0.009 A 
ATOM     22  C   UNL A   1      34.019  24.781  24.668  1.00  0.00     0.029 A 
ATOM     23  Cl  UNL A   1      36.333  23.947  25.741  1.00  0.00    -0.084 Cl
ENDBRANCH   9  16
ENDBRANCH   5   8
ENDBRANCH   3   4
ENDBRANCH   2   3
ENDBRANCH   1   2
BRANCH   1  24
ATOM     24  N   UNL A   1      33.806  30.207  26.687  1.00  0.00    -0.352 N 
ATOM     25  C   UNL A   1      34.497  30.760  27.736  1.00  0.00     0.251 C 
ATOM     26  H   UNL A   1      33.056  30.751  26.354  1.00  0.00     0.163 HD
ATOM     27  O   UNL A   1      33.999  31.695  28.357  1.00  0.00    -0.269 OA
BRANCH  25  28
ATOM     28  C   UNL A   1      35.829  30.244  28.114  1.00  0.00     0.039 A 
ATOM     29  C   UNL A   1      36.879  30.340  27.196  1.00  0.00     0.014 A 
ATOM     30  C   UNL A   1      36.033  29.619  29.347  1.00  0.00     0.014 A 
ATOM     31  C   UNL A   1      38.144  29.857  27.536  1.00  0.00     0.010 A 
ATOM     32  C   UNL A   1      37.311  29.209  29.714  1.00  0.00     0.010 A 
ATOM     33  C   UNL A   1      38.380  29.315  28.811  1.00  0.00    -0.014 A 
BRANCH  33  34
ATOM     34  C   UNL A   1      39.735  28.864  29.220  1.00  0.00     0.031 A 
ATOM     35  C   UNL A   1      40.651  29.795  29.968  1.00  0.00     0.074 A 
ATOM     36  C   UNL A   1      40.160  27.636  28.859  1.00  0.00     0.049 A 
ATOM     37  N   UNL A   1      41.885  29.598  30.357  1.00  0.00    -0.248 NA
ATOM     38  C   UNL A   1      40.126  31.130  30.303  1.00  0.00     0.031 C 
ATOM     39  C   UNL A   1      39.375  26.656  28.099  1.00  0.00     0.029 A 
ATOM     40  N   UNL A   1      41.357  27.001  29.074  1.00  0.00    -0.354 N 
ATOM     41  C   UNL A   1      42.290  30.786  30.955  1.00  0.00     0.074 A 
ATOM     42  C   UNL A   1      41.185  31.713  30.846  1.00  0.00     0.031 C 
ATOM     43  C   UNL A   1      40.100  25.536  27.945  1.00  0.00     0.029 A 
ATOM     44  C   UNL A   1      41.415  25.732  28.545  1.00  0.00     0.049 A 
ATOM     45  H   UNL A   1      42.104  27.415  29.563  1.00  0.00     0.167 HD
ATOM     46  C   UNL A   1      43.470  31.073  31.554  1.00  0.00     0.031 A 
ATOM     47  C   UNL A   1      42.416  24.831  28.535  1.00  0.00     0.031 A 
ATOM     48  C   UNL A   1      44.556  30.137  31.680  1.00  0.00     0.049 A 
ATOM     49  C   UNL A   1      43.721  25.186  29.198  1.00  0.00     0.074 A 
ATOM     50  C   UNL A   1      45.762  30.307  32.338  1.00  0.00     0.029 A 
ATOM     51  N   UNL A   1      44.572  28.862  31.136  1.00  0.00    -0.354 N 
ATOM     52  N   UNL A   1      44.051  26.285  29.835  1.00  0.00    -0.248 NA
ATOM     53  C   UNL A   1      44.785  24.173  29.150  1.00  0.00     0.031 C 
ATOM     54  C   UNL A   1      46.534  29.160  32.134  1.00  0.00     0.029 A 
ATOM     55  C   UNL A   1      45.783  28.248  31.412  1.00  0.00     0.049 A 
ATOM     56  H   UNL A   1      43.834  28.454  30.628  1.00  0.00     0.167 HD
ATOM     57  C   UNL A   1      45.348  26.079  30.295  1.00  0.00     0.074 A 
ATOM     58  C   UNL A   1      45.733  24.748  29.878  1.00  0.00     0.031 C 
ATOM     59  C   UNL A   1      46.147  26.917  31.000  1.00  0.00     0.031 A 
BRANCH  46  60
ATOM     60  C   UNL A   1      43.667  32.459  32.113  1.00  0.00    -0.014 A 
ATOM     61  C   UNL A   1      44.149  33.510  31.312  1.00  0.00     0.010 A 
ATOM     62  C   UNL A   1      43.276  32.733  33.437  1.00  0.00     0.010 A 
ATOM     63  C   UNL A   1      44.258  34.803  31.831  1.00  0.00     0.020 A 
ATOM     64  C   UNL A   1      43.356  34.031  33.951  1.00  0.00     0.020 A 
ATOM     65  C   UNL A   1      43.855  35.056  33.146  1.00  0.00     0.054 A 
BRANCH  65  66
ATOM     66  S   UNL A   1      43.949  36.757  33.770  1.00  0.00     0.124 S 
ATOM     67  O   UNL A   1      45.122  36.695  34.639  1.00  0.00    -0.237 OA
ATOM     68  O   UNL A   1      44.113  37.537  32.547  1.00  0.00    -0.237 OA
ATOM     69  O   UNL A   1      42.675  36.945  34.459  1.00  0.00    -0.744 OA
ENDBRANCH  65  66
ENDBRANCH  46  60
BRANCH  47  70
ATOM     70  C   UNL A   1      42.236  23.504  27.881  1.00  0.00    -0.014 A 
ATOM     71  C   UNL A   1      41.606  22.450  28.566  1.00  0.00     0.010 A 
ATOM     72  C   UNL A   1      42.723  23.277  26.581  1.00  0.00     0.010 A 
ATOM     73  C   UNL A   1      41.507  21.184  27.984  1.00  0.00     0.020 A 
ATOM     74  C   UNL A   1      42.594  22.021  25.981  1.00  0.00     0.020 A 
ATOM     75  C   UNL A   1      42.006  20.976  26.696  1.00  0.00     0.054 A 
BRANCH  75  76
ATOM     76  S   UNL A   1      41.865  19.324  25.957  1.00  0.00     0.124 S 
ATOM     77  O   UNL A   1      42.357  18.470  27.032  1.00  0.00    -0.237 OA
ATOM     78  O   UNL A   1      40.435  19.228  25.674  1.00  0.00    -0.237 OA
ATOM     79  O   UNL A   1      42.723  19.404  24.777  1.00  0.00    -0.744 OA
ENDBRANCH  75  76
ENDBRANCH  47  70
BRANCH  59  80
ATOM     80  C   UNL A   1      47.501  26.403  31.412  1.00  0.00    -0.014 A 
ATOM     81  C   UNL A   1      47.704  25.785  32.658  1.00  0.00     0.010 A 
ATOM     82  C   UNL A   1      48.577  26.496  30.509  1.00  0.00     0.010 A 
ATOM     83  C   UNL A   1      48.967  25.299  33.008  1.00  0.00     0.020 A 
ATOM     84  C   UNL A   1      49.832  25.981  30.841  1.00  0.00     0.020 A 
ATOM     85  C   UNL A   1      50.022  25.399  32.096  1.00  0.00     0.054 A 
BRANCH  85  86
ATOM     86  S   UNL A   1      51.640  24.721  32.557  1.00  0.00     0.124 S 
ATOM     87  O   UNL A   1      51.481  23.306  32.231  1.00  0.00    -0.237 OA
ATOM     88  O   UNL A   1      52.555  25.467  31.694  1.00  0.00    -0.237 OA
ATOM     89  O   UNL A   1      51.751  25.024  33.981  1.00  0.00    -0.744 OA
ENDBRANCH  85  86
ENDBRANCH  59  80
ENDBRANCH  33  34
ENDBRANCH  25  28
ENDBRANCH   1  24
TORSDOF 14
ENDMDL
MODEL 2
REMARK VINA RESULT:     -11.4      2.251      2.855
REMARK SMILES Cc1ccc(-c2c[nH]c(=O)cc2C(=O)NCCCNC(=O)c2ccc(-c3c4nc(c(-c5ccc(S(=O)(=O)[O-])cc5)c5ccc([nH]5)c(-c5ccc(S(=O)(=O)[O-])cc5)c5nc(c(-c6ccc(S(=O)(=O)[O-])cc6)c6ccc3[nH]6)C=C5)C=C4)cc2)cc1Cl
REMARK SMILES IDX 18 1 17 2 16 3 15 4 13 5 14 6 12 8 6 9 7 10 8 11 11 12 9 13
REMARK SMILES IDX 10 15 5 16 1 17 2 18 3 19 83 20 4 21 82 22 84 23 19 24 20 25
REMARK SMILES IDX 21 27 22 28 23 29 81 30 24 31 80 32 25 33 26 34 27 35 74 36
REMARK SMILES IDX 28 37 79 38 73 39 75 40 29 41 78 42 72 43 71 44 30 46 60 47
REMARK SMILES IDX 41 48 59 49 42 50 45 51 58 52 76 53 43 54 44 55 57 57 77 58
REMARK SMILES IDX 46 59 31 60 32 61 40 62 33 63 39 64 34 65 35 66 36 67 37 68
REMARK SMILES IDX 38 69 61 70 62 71 70 72 63 73 69 74 64 75 65 76 66 77 67 78
REMARK SMILES IDX 68 79 47 80 48 81 56 82 49 83 55 84 50 85 51 86 52 87 53 88
REMARK SMILES IDX 54 89
REMARK H PARENT 15 7 8 14 19 26 75 45 45 56
REMARK Flexibility Score: inf
ROOT
ATOM      1  C   UNL A   1      34.064  29.065  26.039  1.00  0.00     0.118 C 
ENDROOT
BRANCH   1   2
ATOM      2  C   UNL A   1      33.433  27.990  26.929  1.00  0.00     0.042 C 
BRANCH   2   3
ATOM      3  C   UNL A   1      31.958  28.252  27.236  1.00  0.00     0.118 C 
BRANCH   3   4
ATOM      4  N   UNL A   1      31.170  27.048  27.061  1.00  0.00    -0.352 N 
ATOM      5  C   UNL A   1      30.686  26.336  26.013  1.00  0.00     0.252 C 
ATOM      6  O   UNL A   1      30.030  25.349  26.354  1.00  0.00    -0.269 OA
ATOM      7  H   UNL A   1      30.922  26.644  27.925  1.00  0.00     0.163 HD
BRANCH   5   8
ATOM      8  C   UNL A   1      30.944  26.641  24.554  1.00  0.00     0.054 A 
ATOM      9  C   UNL A   1      32.100  26.017  23.855  1.00  0.00     0.011 A 
ATOM     10  C   UNL A   1      32.375  26.393  22.589  1.00  0.00     0.095 A 
ATOM     11  N   UNL A   1      31.607  27.315  21.937  1.00  0.00    -0.328 N 
ATOM     12  C   UNL A   1      30.131  27.443  23.843  1.00  0.00     0.086 A 
ATOM     13  C   UNL A   1      30.480  27.875  22.470  1.00  0.00     0.248 A 
ATOM     14  H   UNL A   1      31.879  27.591  21.032  1.00  0.00     0.169 HD
ATOM     15  O   UNL A   1      29.803  28.699  21.873  1.00  0.00    -0.270 OA
BRANCH   9  16
ATOM     16  C   UNL A   1      32.954  24.926  24.378  1.00  0.00    -0.015 A 
ATOM     17  C   UNL A   1      35.550  21.794  25.857  1.00  0.00     0.046 C 
ATOM     18  C   UNL A   1      34.624  22.864  25.358  1.00  0.00    -0.032 A 
ATOM     19  C   UNL A   1      34.960  24.210  25.552  1.00  0.00     0.005 A 
ATOM     20  C   UNL A   1      33.424  22.563  24.695  1.00  0.00     0.044 A 
ATOM     21  C   UNL A   1      34.126  25.228  25.085  1.00  0.00     0.009 A 
ATOM     22  C   UNL A   1      32.601  23.583  24.201  1.00  0.00     0.029 A 
ATOM     23  Cl  UNL A   1      32.907  20.930  24.463  1.00  0.00    -0.084 Cl
ENDBRANCH   9  16
ENDBRANCH   5   8
ENDBRANCH   3   4
ENDBRANCH   2   3
ENDBRANCH   1   2
BRANCH   1  24
ATOM     24  N   UNL A   1      33.797  30.409  26.536  1.00  0.00    -0.352 N 
ATOM     25  C   UNL A   1      34.338  31.084  27.601  1.00  0.00     0.251 C 
ATOM     26  H   UNL A   1      33.121  30.913  26.027  1.00  0.00     0.163 HD
ATOM     27  O   UNL A   1      33.778  32.095  28.018  1.00  0.00    -0.269 OA
BRANCH  25  28
ATOM     28  C   UNL A   1      35.583  30.610  28.238  1.00  0.00     0.039 A 
ATOM     29  C   UNL A   1      36.812  31.056  27.741  1.00  0.00     0.014 A 
ATOM     30  C   UNL A   1      35.546  29.688  29.287  1.00  0.00     0.014 A 
ATOM     31  C   UNL A   1      37.998  30.617  28.331  1.00  0.00     0.010 A 
ATOM     32  C   UNL A   1      36.726  29.312  29.923  1.00  0.00     0.010 A 
ATOM     33  C   UNL A   1      37.965  29.765  29.449  1.00  0.00    -0.014 A 
BRANCH  33  34
ATOM     34  C   UNL A   1      39.213  29.346  30.136  1.00  0.00     0.031 A 
ATOM     35  C   UNL A   1      39.665  30.053  31.387  1.00  0.00     0.074 A 
ATOM     36  C   UNL A   1      39.971  28.370  29.596  1.00  0.00     0.049 A 
ATOM     37  N   UNL A   1      40.752  29.865  32.091  1.00  0.00    -0.248 NA
ATOM     38  C   UNL A   1      38.799  31.127  31.902  1.00  0.00     0.031 C 
ATOM     39  C   UNL A   1      39.657  27.635  28.365  1.00  0.00     0.029 A 
ATOM     40  N   UNL A   1      41.165  27.830  30.004  1.00  0.00    -0.354 N 
ATOM     41  C   UNL A   1      40.712  30.809  33.112  1.00  0.00     0.074 A 
ATOM     42  C   UNL A   1      39.514  31.595  32.915  1.00  0.00     0.031 C 
ATOM     43  C   UNL A   1      40.614  26.721  28.142  1.00  0.00     0.029 A 
ATOM     44  C   UNL A   1      41.634  26.834  29.177  1.00  0.00     0.049 A 
ATOM     45  H   UNL A   1      41.639  28.125  30.814  1.00  0.00     0.167 HD
ATOM     46  C   UNL A   1      41.588  30.994  34.127  1.00  0.00     0.031 A 
ATOM     47  C   UNL A   1      42.764  26.103  29.240  1.00  0.00     0.031 A 
ATOM     48  C   UNL A   1      42.766  30.192  34.330  1.00  0.00     0.049 A 
ATOM     49  C   UNL A   1      43.724  26.343  30.376  1.00  0.00     0.074 A 
ATOM     50  C   UNL A   1      43.673  30.250  35.374  1.00  0.00     0.029 A 
ATOM     51  N   UNL A   1      43.202  29.192  33.475  1.00  0.00    -0.354 N 
ATOM     52  N   UNL A   1      43.623  27.182  31.379  1.00  0.00    -0.248 NA
ATOM     53  C   UNL A   1      44.946  25.527  30.393  1.00  0.00     0.031 C 
ATOM     54  C   UNL A   1      44.694  29.332  35.114  1.00  0.00     0.029 A 
ATOM     55  C   UNL A   1      44.386  28.651  33.948  1.00  0.00     0.049 A 
ATOM     56  H   UNL A   1      42.739  28.909  32.653  1.00  0.00     0.167 HD
ATOM     57  C   UNL A   1      44.750  26.969  32.165  1.00  0.00     0.074 A 
ATOM     58  C   UNL A   1      45.508  25.911  31.531  1.00  0.00     0.031 C 
ATOM     59  C   UNL A   1      45.123  27.590  33.311  1.00  0.00     0.031 A 
BRANCH  46  60
ATOM     60  C   UNL A   1      41.323  32.114  35.100  1.00  0.00    -0.014 A 
ATOM     61  C   UNL A   1      41.752  33.428  34.838  1.00  0.00     0.010 A 
ATOM     62  C   UNL A   1      40.554  31.864  36.251  1.00  0.00     0.010 A 
ATOM     63  C   UNL A   1      41.435  34.465  35.720  1.00  0.00     0.020 A 
ATOM     64  C   UNL A   1      40.210  32.903  37.121  1.00  0.00     0.020 A 
ATOM     65  C   UNL A   1      40.662  34.197  36.854  1.00  0.00     0.054 A 
BRANCH  65  66
ATOM     66  S   UNL A   1      40.214  35.575  37.945  1.00  0.00     0.124 S 
ATOM     67  O   UNL A   1      39.986  36.655  36.988  1.00  0.00    -0.237 OA
ATOM     68  O   UNL A   1      39.021  35.072  38.621  1.00  0.00    -0.237 OA
ATOM     69  O   UNL A   1      41.388  35.738  38.799  1.00  0.00    -0.744 OA
ENDBRANCH  65  66
ENDBRANCH  46  60
BRANCH  47  70
ATOM     70  C   UNL A   1      43.059  25.073  28.205  1.00  0.00    -0.014 A 
ATOM     71  C   UNL A   1      42.633  23.744  28.379  1.00  0.00     0.010 A 
ATOM     72  C   UNL A   1      43.796  25.406  27.054  1.00  0.00     0.010 A 
ATOM     73  C   UNL A   1      42.976  22.760  27.448  1.00  0.00     0.020 A 
ATOM     74  C   UNL A   1      44.110  24.432  26.102  1.00  0.00     0.020 A 
ATOM     75  C   UNL A   1      43.718  23.110  26.317  1.00  0.00     0.054 A 
BRANCH  75  76
ATOM     76  S   UNL A   1      44.151  21.818  25.119  1.00  0.00     0.124 S 
ATOM     77  O   UNL A   1      43.138  20.803  25.389  1.00  0.00    -0.237 OA
ATOM     78  O   UNL A   1      44.023  22.517  23.842  1.00  0.00    -0.237 OA
ATOM     79  O   UNL A   1      45.517  21.455  25.488  1.00  0.00    -0.744 OA
ENDBRANCH  75  76
ENDBRANCH  47  70
BRANCH  59  80
ATOM     80  C   UNL A   1      46.382  27.112  33.983  1.00  0.00    -0.014 A 
ATOM     81  C   UNL A   1      46.363  26.059  34.914  1.00  0.00     0.010 A 
ATOM     82  C   UNL A   1      47.614  27.695  33.634  1.00  0.00     0.010 A 
ATOM     83  C   UNL A   1      47.549  25.621  35.509  1.00  0.00     0.020 A 
ATOM     84  C   UNL A   1      48.806  27.238  34.200  1.00  0.00     0.020 A 
ATOM     85  C   UNL A   1      48.763  26.212  35.147  1.00  0.00     0.054 A 
BRANCH  85  86
ATOM     86  S   UNL A   1      50.293  25.596  35.901  1.00  0.00     0.124 S 
ATOM     87  O   UNL A   1      50.455  26.495  37.041  1.00  0.00    -0.237 OA
ATOM     88  O   UNL A   1      49.950  24.214  36.233  1.00  0.00    -0.237 OA
ATOM     89  O   UNL A   1      51.287  25.747  34.842  1.00  0.00    -0.744 OA
ENDBRANCH  85  86
ENDBRANCH  59  80
ENDBRANCH  33  34
ENDBRANCH  25  28
ENDBRANCH   1  24
TORSDOF 14
ENDMDL
MODEL 3
REMARK VINA RESULT:     -11.4      2.949      9.412
REMARK SMILES Cc1ccc(-c2c[nH]c(=O)cc2C(=O)NCCCNC(=O)c2ccc(-c3c4nc(c(-c5ccc(S(=O)(=O)[O-])cc5)c5ccc([nH]5)c(-c5ccc(S(=O)(=O)[O-])cc5)c5nc(c(-c6ccc(S(=O)(=O)[O-])cc6)c6ccc3[nH]6)C=C5)C=C4)cc2)cc1Cl
REMARK SMILES IDX 18 1 17 2 16 3 15 4 13 5 14 6 12 8 6 9 7 10 8 11 11 12 9 13
REMARK SMILES IDX 10 15 5 16 1 17 2 18 3 19 83 20 4 21 82 22 84 23 19 24 20 25
REMARK SMILES IDX 21 27 22 28 23 29 81 30 24 31 80 32 25 33 26 34 27 35 74 36
REMARK SMILES IDX 28 37 79 38 73 39 75 40 29 41 78 42 72 43 71 44 30 46 60 47
REMARK SMILES IDX 41 48 59 49 42 50 45 51 58 52 76 53 43 54 44 55 57 57 77 58
REMARK SMILES IDX 46 59 31 60 32 61 40 62 33 63 39 64 34 65 35 66 36 67 37 68
REMARK SMILES IDX 38 69 61 70 62 71 70 72 63 73 69 74 64 75 65 76 66 77 67 78
REMARK SMILES IDX 68 79 47 80 48 81 56 82 49 83 55 84 50 85 51 86 52 87 53 88
REMARK SMILES IDX 54 89
REMARK H PARENT 15 7 8 14 19 26 75 45 45 56
REMARK Flexibility Score: inf
ROOT
ATOM      1  C   UNL A   1      36.406  23.289  26.232  1.00  0.00     0.118 C 
ENDROOT
BRANCH   1   2
ATOM      2  C   UNL A   1      36.164  24.027  24.912  1.00  0.00     0.042 C 
BRANCH   2   3
ATOM      3  C   UNL A   1      36.251  23.114  23.688  1.00  0.00     0.118 C 
BRANCH   3   4
ATOM      4  N   UNL A   1      35.174  23.391  22.757  1.00  0.00    -0.352 N 
ATOM      5  C   UNL A   1      33.843  23.144  22.697  1.00  0.00     0.252 C 
ATOM      6  O   UNL A   1      33.313  23.570  21.667  1.00  0.00    -0.269 OA
ATOM      7  H   UNL A   1      35.492  23.885  21.966  1.00  0.00     0.163 HD
BRANCH   5   8
ATOM      8  C   UNL A   1      33.027  22.472  23.778  1.00  0.00     0.054 A 
ATOM      9  C   UNL A   1      32.355  23.291  24.823  1.00  0.00     0.011 A 
ATOM     10  C   UNL A   1      31.731  22.663  25.841  1.00  0.00     0.095 A 
ATOM     11  N   UNL A   1      31.689  21.300  25.918  1.00  0.00    -0.328 N 
ATOM     12  C   UNL A   1      32.855  21.138  23.812  1.00  0.00     0.086 A 
ATOM     13  C   UNL A   1      32.204  20.470  24.962  1.00  0.00     0.248 A 
ATOM     14  H   UNL A   1      31.263  20.891  26.707  1.00  0.00     0.169 HD
ATOM     15  O   UNL A   1      32.159  19.252  25.046  1.00  0.00    -0.270 OA
BRANCH   9  16
ATOM     16  C   UNL A   1      32.211  24.765  24.821  1.00  0.00    -0.015 A 
ATOM     17  C   UNL A   1      31.789  29.071  24.942  1.00  0.00     0.046 C 
ATOM     18  C   UNL A   1      31.935  27.579  24.866  1.00  0.00    -0.032 A 
ATOM     19  C   UNL A   1      32.894  26.941  25.665  1.00  0.00     0.005 A 
ATOM     20  C   UNL A   1      31.138  26.792  24.021  1.00  0.00     0.044 A 
ATOM     21  C   UNL A   1      33.043  25.553  25.628  1.00  0.00     0.009 A 
ATOM     22  C   UNL A   1      31.267  25.398  24.005  1.00  0.00     0.029 A 
ATOM     23  Cl  UNL A   1      29.970  27.505  22.964  1.00  0.00    -0.084 Cl
ENDBRANCH   9  16
ENDBRANCH   5   8
ENDBRANCH   3   4
ENDBRANCH   2   3
ENDBRANCH   1   2
BRANCH   1  24
ATOM     24  N   UNL A   1      37.600  22.453  26.177  1.00  0.00    -0.352 N 
ATOM     25  C   UNL A   1      38.923  22.785  26.329  1.00  0.00     0.251 C 
ATOM     26  H   UNL A   1      37.431  21.499  26.003  1.00  0.00     0.163 HD
ATOM     27  O   UNL A   1      39.786  21.990  25.969  1.00  0.00    -0.269 OA
BRANCH  25  28
ATOM     28  C   UNL A   1      39.309  24.080  26.926  1.00  0.00     0.039 A 
ATOM     29  C   UNL A   1      38.942  24.356  28.246  1.00  0.00     0.014 A 
ATOM     30  C   UNL A   1      39.986  25.044  26.172  1.00  0.00     0.014 A 
ATOM     31  C   UNL A   1      39.298  25.575  28.825  1.00  0.00     0.010 A 
ATOM     32  C   UNL A   1      40.407  26.226  26.774  1.00  0.00     0.010 A 
ATOM     33  C   UNL A   1      40.062  26.509  28.104  1.00  0.00    -0.014 A 
BRANCH  33  34
ATOM     34  C   UNL A   1      40.515  27.780  28.726  1.00  0.00     0.031 A 
ATOM     35  C   UNL A   1      41.908  27.897  29.285  1.00  0.00     0.074 A 
ATOM     36  C   UNL A   1      39.647  28.806  28.842  1.00  0.00     0.049 A 
ATOM     37  N   UNL A   1      42.460  28.904  29.913  1.00  0.00    -0.248 NA
ATOM     38  C   UNL A   1      42.790  26.725  29.145  1.00  0.00     0.031 C 
ATOM     39  C   UNL A   1      38.258  28.799  28.371  1.00  0.00     0.029 A 
ATOM     40  N   UNL A   1      39.799  30.051  29.397  1.00  0.00    -0.354 N 
ATOM     41  C   UNL A   1      43.738  28.479  30.263  1.00  0.00     0.074 A 
ATOM     42  C   UNL A   1      43.867  27.111  29.813  1.00  0.00     0.031 C 
ATOM     43  C   UNL A   1      37.700  29.993  28.627  1.00  0.00     0.029 A 
ATOM     44  C   UNL A   1      38.668  30.833  29.323  1.00  0.00     0.049 A 
ATOM     45  H   UNL A   1      40.639  30.358  29.808  1.00  0.00     0.167 HD
ATOM     46  C   UNL A   1      44.717  29.172  30.891  1.00  0.00     0.031 A 
ATOM     47  C   UNL A   1      38.434  32.080  29.774  1.00  0.00     0.031 A 
ATOM     48  C   UNL A   1      44.589  30.542  31.314  1.00  0.00     0.049 A 
ATOM     49  C   UNL A   1      39.540  32.819  30.480  1.00  0.00     0.074 A 
ATOM     50  C   UNL A   1      45.551  31.355  31.887  1.00  0.00     0.029 A 
ATOM     51  N   UNL A   1      43.431  31.298  31.216  1.00  0.00    -0.354 N 
ATOM     52  N   UNL A   1      40.770  32.429  30.723  1.00  0.00    -0.248 NA
ATOM     53  C   UNL A   1      39.231  34.173  30.962  1.00  0.00     0.031 C 
ATOM     54  C   UNL A   1      44.955  32.581  32.198  1.00  0.00     0.029 A 
ATOM     55  C   UNL A   1      43.644  32.556  31.752  1.00  0.00     0.049 A 
ATOM     56  H   UNL A   1      42.583  30.985  30.824  1.00  0.00     0.167 HD
ATOM     57  C   UNL A   1      41.389  33.503  31.353  1.00  0.00     0.074 A 
ATOM     58  C   UNL A   1      40.406  34.562  31.437  1.00  0.00     0.031 C 
ATOM     59  C   UNL A   1      42.658  33.604  31.819  1.00  0.00     0.031 A 
BRANCH  46  60
ATOM     60  C   UNL A   1      46.018  28.466  31.175  1.00  0.00    -0.014 A 
ATOM     61  C   UNL A   1      46.204  27.720  32.353  1.00  0.00     0.010 A 
ATOM     62  C   UNL A   1      47.038  28.476  30.205  1.00  0.00     0.010 A 
ATOM     63  C   UNL A   1      47.393  27.016  32.565  1.00  0.00     0.020 A 
ATOM     64  C   UNL A   1      48.216  27.750  30.400  1.00  0.00     0.020 A 
ATOM     65  C   UNL A   1      48.390  27.031  31.584  1.00  0.00     0.054 A 
BRANCH  65  66
ATOM     66  S   UNL A   1      49.894  26.056  31.860  1.00  0.00     0.124 S 
ATOM     67  O   UNL A   1      49.938  25.224  30.661  1.00  0.00    -0.237 OA
ATOM     68  O   UNL A   1      50.928  27.084  31.950  1.00  0.00    -0.237 OA
ATOM     69  O   UNL A   1      49.622  25.341  33.105  1.00  0.00    -0.744 OA
ENDBRANCH  65  66
ENDBRANCH  46  60
BRANCH  47  70
ATOM     70  C   UNL A   1      37.103  32.720  29.577  1.00  0.00    -0.014 A 
ATOM     71  C   UNL A   1      36.731  33.219  28.316  1.00  0.00     0.010 A 
ATOM     72  C   UNL A   1      36.212  32.865  30.656  1.00  0.00     0.010 A 
ATOM     73  C   UNL A   1      35.516  33.889  28.148  1.00  0.00     0.020 A 
ATOM     74  C   UNL A   1      34.981  33.503  30.483  1.00  0.00     0.020 A 
ATOM     75  C   UNL A   1      34.650  34.031  29.235  1.00  0.00     0.054 A 
BRANCH  75  76
ATOM     76  S   UNL A   1      33.077  34.903  28.994  1.00  0.00     0.124 S 
ATOM     77  O   UNL A   1      32.486  34.834  30.326  1.00  0.00    -0.237 OA
ATOM     78  O   UNL A   1      33.515  36.228  28.562  1.00  0.00    -0.237 OA
ATOM     79  O   UNL A   1      32.402  34.111  27.968  1.00  0.00    -0.744 OA
ENDBRANCH  75  76
ENDBRANCH  47  70
BRANCH  59  80
ATOM     80  C   UNL A   1      43.076  34.921  32.417  1.00  0.00    -0.014 A 
ATOM     81  C   UNL A   1      43.608  35.952  31.623  1.00  0.00     0.010 A 
ATOM     82  C   UNL A   1      42.882  35.146  33.792  1.00  0.00     0.010 A 
ATOM     83  C   UNL A   1      43.970  37.172  32.201  1.00  0.00     0.020 A 
ATOM     84  C   UNL A   1      43.210  36.375  34.367  1.00  0.00     0.020 A 
ATOM     85  C   UNL A   1      43.767  37.376  33.569  1.00  0.00     0.054 A 
BRANCH  85  86
ATOM     86  S   UNL A   1      44.204  38.984  34.286  1.00  0.00     0.124 S 
ATOM     87  O   UNL A   1      44.178  38.696  35.717  1.00  0.00    -0.237 OA
ATOM     88  O   UNL A   1      45.527  39.237  33.718  1.00  0.00    -0.237 OA
ATOM     89  O   UNL A   1      43.148  39.874  33.810  1.00  0.00    -0.744 OA
ENDBRANCH  85  86
ENDBRANCH  59  80
ENDBRANCH  33  34
ENDBRANCH  25  28
ENDBRANCH   1  24
TORSDOF 14
ENDMDL
