MODEL 1
REMARK VINA RESULT:     -10.8      0.000      0.000
REMARK SMILES O=C(NCCCNC(=O)C1(NC(=O)c2ccncc2Cl)CCCCC1)c1ccc(-c2c3nc(c(-c4ccc(S(=O)(=O)[O-])cc4)c4ccc([nH]4)c(-c4ccc(S(=O)(=O)[O-])cc4)c4nc(c(-c5ccc(S(=O)(=O)[O-])cc5)c5ccc2[nH]5)C=C4)C=C3)cc1
REMARK SMILES IDX 4 1 3 2 1 3 2 4 26 6 27 7 85 8 28 9 84 10 29 11 30 12 31 13
REMARK SMILES IDX 78 14 32 15 83 16 77 17 79 18 33 19 82 20 76 21 75 22 34 24
REMARK SMILES IDX 64 25 45 26 63 27 46 28 49 29 62 30 80 31 47 32 48 33 61 35
REMARK SMILES IDX 81 36 50 37 35 38 36 39 44 40 37 41 43 42 38 43 39 44 40 45
REMARK SMILES IDX 41 46 42 47 65 48 66 49 74 50 67 51 73 52 68 53 69 54 70 55
REMARK SMILES IDX 71 56 72 57 51 58 52 59 60 60 53 61 59 62 54 63 55 64 56 65
REMARK SMILES IDX 57 66 58 67 5 68 6 69 7 70 8 71 9 73 10 74 21 75 25 76 22 77
REMARK SMILES IDX 24 78 23 79 11 80 12 81 13 83 14 84 15 85 19 86 16 87 18 88
REMARK SMILES IDX 20 89 17 90
REMARK H PARENT 3 5 79 23 49 34 7 72 11 82
REMARK Flexibility Score: inf
ROOT
ATOM      1  C   UNL A   1      33.727  27.817  26.871  1.00  0.00     0.118 C 
ENDROOT
BRANCH   1   2
ATOM      2  N   UNL A   1      33.411  29.230  27.031  1.00  0.00    -0.352 N 
ATOM      3  O   UNL A   1      33.649  31.310  27.867  1.00  0.00    -0.269 OA
ATOM      4  C   UNL A   1      34.159  30.218  27.626  1.00  0.00     0.251 C 
ATOM      5  H   UNL A   1      32.542  29.516  26.665  1.00  0.00     0.163 HD
BRANCH   4   6
ATOM      6  C   UNL A   1      35.568  29.956  27.988  1.00  0.00     0.039 A 
ATOM      7  C   UNL A   1      36.582  30.095  27.038  1.00  0.00     0.014 A 
ATOM      8  C   UNL A   1      35.879  29.570  29.295  1.00  0.00     0.014 A 
ATOM      9  C   UNL A   1      37.882  29.716  27.353  1.00  0.00     0.010 A 
ATOM     10  C   UNL A   1      37.204  29.272  29.632  1.00  0.00     0.010 A 
ATOM     11  C   UNL A   1      38.214  29.311  28.658  1.00  0.00    -0.014 A 
BRANCH  11  12
ATOM     12  C   UNL A   1      39.627  28.986  28.994  1.00  0.00     0.031 A 
ATOM     13  C   UNL A   1      40.510  29.979  29.704  1.00  0.00     0.074 A 
ATOM     14  C   UNL A   1      40.111  27.772  28.661  1.00  0.00     0.049 A 
ATOM     15  N   UNL A   1      41.760  29.851  30.074  1.00  0.00    -0.248 NA
ATOM     16  C   UNL A   1      39.922  31.287  30.032  1.00  0.00     0.031 C 
ATOM     17  C   UNL A   1      39.358  26.723  27.966  1.00  0.00     0.029 A 
ATOM     18  N   UNL A   1      41.343  27.205  28.875  1.00  0.00    -0.354 N 
ATOM     19  C   UNL A   1      42.117  31.066  30.649  1.00  0.00     0.074 A 
ATOM     20  C   UNL A   1      40.957  31.927  30.557  1.00  0.00     0.031 C 
ATOM     21  C   UNL A   1      40.124  25.628  27.860  1.00  0.00     0.029 A 
ATOM     22  C   UNL A   1      41.442  25.914  28.412  1.00  0.00     0.049 A 
ATOM     23  H   UNL A   1      42.084  27.678  29.318  1.00  0.00     0.167 HD
ATOM     24  C   UNL A   1      43.300  31.429  31.204  1.00  0.00     0.031 A 
ATOM     25  C   UNL A   1      42.480  25.056  28.414  1.00  0.00     0.031 A 
ATOM     26  C   UNL A   1      44.450  30.564  31.294  1.00  0.00     0.049 A 
ATOM     27  C   UNL A   1      43.786  25.494  29.013  1.00  0.00     0.074 A 
ATOM     28  C   UNL A   1      45.679  30.826  31.875  1.00  0.00     0.029 A 
ATOM     29  N   UNL A   1      44.517  29.274  30.787  1.00  0.00    -0.354 N 
ATOM     30  N   UNL A   1      44.090  26.635  29.583  1.00  0.00    -0.248 NA
ATOM     31  C   UNL A   1      44.887  24.523  28.975  1.00  0.00     0.031 C 
ATOM     32  C   UNL A   1      46.509  29.720  31.663  1.00  0.00     0.029 A 
ATOM     33  C   UNL A   1      45.775  28.738  31.018  1.00  0.00     0.049 A 
ATOM     34  H   UNL A   1      43.780  28.808  30.331  1.00  0.00     0.167 HD
ATOM     35  C   UNL A   1      45.409  26.506  30.004  1.00  0.00     0.074 A 
ATOM     36  C   UNL A   1      45.836  25.172  29.634  1.00  0.00     0.031 C 
ATOM     37  C   UNL A   1      46.192  27.410  30.645  1.00  0.00     0.031 A 
BRANCH  24  38
ATOM     38  C   UNL A   1      43.429  32.839  31.728  1.00  0.00    -0.014 A 
ATOM     39  C   UNL A   1      43.010  33.185  33.025  1.00  0.00     0.010 A 
ATOM     40  C   UNL A   1      44.028  33.826  30.921  1.00  0.00     0.010 A 
ATOM     41  C   UNL A   1      43.144  34.498  33.488  1.00  0.00     0.020 A 
ATOM     42  C   UNL A   1      44.194  35.133  31.391  1.00  0.00     0.020 A 
ATOM     43  C   UNL A   1      43.733  35.464  32.666  1.00  0.00     0.054 A 
BRANCH  43  44
ATOM     44  S   UNL A   1      43.906  37.156  33.298  1.00  0.00     0.124 S 
ATOM     45  O   UNL A   1      42.786  37.244  34.233  1.00  0.00    -0.237 OA
ATOM     46  O   UNL A   1      45.233  37.137  33.909  1.00  0.00    -0.237 OA
ATOM     47  O   UNL A   1      43.785  37.989  32.103  1.00  0.00    -0.744 OA
ENDBRANCH  43  44
ENDBRANCH  24  38
BRANCH  25  48
ATOM     48  C   UNL A   1      42.319  23.698  27.829  1.00  0.00    -0.014 A 
ATOM     49  C   UNL A   1      42.705  23.439  26.502  1.00  0.00     0.010 A 
ATOM     50  C   UNL A   1      41.795  22.647  28.605  1.00  0.00     0.010 A 
ATOM     51  C   UNL A   1      42.549  22.162  25.955  1.00  0.00     0.020 A 
ATOM     52  C   UNL A   1      41.670  21.361  28.073  1.00  0.00     0.020 A 
ATOM     53  C   UNL A   1      42.036  21.130  26.746  1.00  0.00     0.054 A 
BRANCH  53  54
ATOM     54  S   UNL A   1      41.886  19.471  26.028  1.00  0.00     0.124 S 
ATOM     55  O   UNL A   1      42.735  19.575  24.846  1.00  0.00    -0.237 OA
ATOM     56  O   UNL A   1      42.393  18.617  27.099  1.00  0.00    -0.237 OA
ATOM     57  O   UNL A   1      40.455  19.341  25.762  1.00  0.00    -0.744 OA
ENDBRANCH  53  54
ENDBRANCH  25  48
BRANCH  37  58
ATOM     58  C   UNL A   1      47.578  26.965  31.038  1.00  0.00    -0.014 A 
ATOM     59  C   UNL A   1      48.694  27.217  30.221  1.00  0.00     0.010 A 
ATOM     60  C   UNL A   1      47.763  26.302  32.264  1.00  0.00     0.010 A 
ATOM     61  C   UNL A   1      49.963  26.770  30.603  1.00  0.00     0.020 A 
ATOM     62  C   UNL A   1      49.034  25.883  32.666  1.00  0.00     0.020 A 
ATOM     63  C   UNL A   1      50.123  26.103  31.822  1.00  0.00     0.054 A 
BRANCH  63  64
ATOM     64  S   UNL A   1      51.782  25.551  32.305  1.00  0.00     0.124 S 
ATOM     65  O   UNL A   1      52.587  25.969  31.160  1.00  0.00    -0.237 OA
ATOM     66  O   UNL A   1      52.018  26.289  33.542  1.00  0.00    -0.237 OA
ATOM     67  O   UNL A   1      51.633  24.106  32.467  1.00  0.00    -0.744 OA
ENDBRANCH  63  64
ENDBRANCH  37  58
ENDBRANCH  11  12
ENDBRANCH   4   6
ENDBRANCH   1   2
BRANCH   1  68
ATOM     68  C   UNL A   1      33.661  27.378  25.414  1.00  0.00     0.042 C 
BRANCH  68  69
ATOM     69  C   UNL A   1      33.417  25.887  25.240  1.00  0.00     0.117 C 
BRANCH  69  70
ATOM     70  N   UNL A   1      34.096  25.295  24.090  1.00  0.00    -0.354 N 
ATOM     71  C   UNL A   1      34.788  24.158  23.832  1.00  0.00     0.245 C 
ATOM     72  H   UNL A   1      34.034  25.873  23.295  1.00  0.00     0.163 HD
ATOM     73  O   UNL A   1      34.954  23.947  22.618  1.00  0.00    -0.272 OA
BRANCH  71  74
ATOM     74  C   UNL A   1      35.472  23.194  24.870  1.00  0.00     0.119 C 
ATOM     75  C   UNL A   1      36.154  21.994  24.184  1.00  0.00     0.038 C 
ATOM     76  C   UNL A   1      36.562  24.061  25.579  1.00  0.00     0.038 C 
ATOM     77  C   UNL A   1      37.166  21.228  25.031  1.00  0.00     0.003 C 
ATOM     78  C   UNL A   1      37.604  23.274  26.379  1.00  0.00     0.003 C 
ATOM     79  C   UNL A   1      38.240  22.169  25.548  1.00  0.00     0.000 C 
BRANCH  74  80
ATOM     80  N   UNL A   1      34.528  22.666  25.910  1.00  0.00    -0.338 N 
ATOM     81  C   UNL A   1      33.288  22.083  25.758  1.00  0.00     0.253 C 
ATOM     82  H   UNL A   1      34.843  22.747  26.840  1.00  0.00     0.164 HD
ATOM     83  O   UNL A   1      32.338  22.481  26.429  1.00  0.00    -0.269 OA
BRANCH  81  84
ATOM     84  C   UNL A   1      33.102  20.909  24.885  1.00  0.00     0.061 A 
ATOM     85  C   UNL A   1      33.722  19.707  25.240  1.00  0.00     0.035 A 
ATOM     86  C   UNL A   1      32.403  20.985  23.684  1.00  0.00     0.072 A 
ATOM     87  C   UNL A   1      33.494  18.596  24.445  1.00  0.00     0.112 A 
ATOM     88  C   UNL A   1      32.193  19.806  22.985  1.00  0.00     0.132 A 
ATOM     89  Cl  UNL A   1      31.923  22.470  22.964  1.00  0.00    -0.082 Cl
ATOM     90  N   UNL A   1      32.706  18.607  23.349  1.00  0.00    -0.263 NA
ENDBRANCH  81  84
ENDBRANCH  74  80
ENDBRANCH  71  74
ENDBRANCH  69  70
ENDBRANCH  68  69
ENDBRANCH   1  68
TORSDOF 15
ENDMDL
MODEL 2
REMARK VINA RESULT:     -10.7      2.847      9.438
REMARK SMILES O=C(NCCCNC(=O)C1(NC(=O)c2ccncc2Cl)CCCCC1)c1ccc(-c2c3nc(c(-c4ccc(S(=O)(=O)[O-])cc4)c4ccc([nH]4)c(-c4ccc(S(=O)(=O)[O-])cc4)c4nc(c(-c5ccc(S(=O)(=O)[O-])cc5)c5ccc2[nH]5)C=C4)C=C3)cc1
REMARK SMILES IDX 4 1 3 2 1 3 2 4 26 6 27 7 85 8 28 9 84 10 29 11 30 12 31 13
REMARK SMILES IDX 78 14 32 15 83 16 77 17 79 18 33 19 82 20 76 21 75 22 34 24
REMARK SMILES IDX 64 25 45 26 63 27 46 28 49 29 62 30 80 31 47 32 48 33 61 35
REMARK SMILES IDX 81 36 50 37 35 38 36 39 44 40 37 41 43 42 38 43 39 44 40 45
REMARK SMILES IDX 41 46 42 47 65 48 66 49 74 50 67 51 73 52 68 53 69 54 70 55
REMARK SMILES IDX 71 56 72 57 51 58 52 59 60 60 53 61 59 62 54 63 55 64 56 65
REMARK SMILES IDX 57 66 58 67 5 68 6 69 7 70 8 71 9 73 10 74 21 75 25 76 22 77
REMARK SMILES IDX 24 78 23 79 11 80 12 81 13 83 14 84 15 85 19 86 16 87 18 88
REMARK SMILES IDX 20 89 17 90
REMARK H PARENT 3 5 79 23 49 34 7 72 11 82
REMARK Flexibility Score: inf
ROOT
ATOM      1  C   UNL A   1      36.460  24.227  25.366  1.00  0.00     0.118 C 
ENDROOT
BRANCH   1   2
ATOM      2  N   UNL A   1      37.340  23.082  25.562  1.00  0.00    -0.352 N 
ATOM      3  O   UNL A   1      39.287  22.035  26.002  1.00  0.00    -0.269 OA
ATOM      4  C   UNL A   1      38.600  23.048  26.111  1.00  0.00     0.251 C 
ATOM      5  H   UNL A   1      36.985  22.215  25.258  1.00  0.00     0.163 HD
BRANCH   4   6
ATOM      6  C   UNL A   1      39.127  24.236  26.814  1.00  0.00     0.039 A 
ATOM      7  C   UNL A   1      38.851  24.440  28.168  1.00  0.00     0.014 A 
ATOM      8  C   UNL A   1      39.911  25.156  26.112  1.00  0.00     0.014 A 
ATOM      9  C   UNL A   1      39.238  25.627  28.782  1.00  0.00     0.010 A 
ATOM     10  C   UNL A   1      40.373  26.308  26.758  1.00  0.00     0.010 A 
ATOM     11  C   UNL A   1      40.015  26.571  28.090  1.00  0.00    -0.014 A 
BRANCH  11  12
ATOM     12  C   UNL A   1      40.485  27.797  28.790  1.00  0.00     0.031 A 
ATOM     13  C   UNL A   1      41.888  27.898  29.333  1.00  0.00     0.074 A 
ATOM     14  C   UNL A   1      39.635  28.835  28.927  1.00  0.00     0.049 A 
ATOM     15  N   UNL A   1      42.456  28.896  29.963  1.00  0.00    -0.248 NA
ATOM     16  C   UNL A   1      42.762  26.728  29.157  1.00  0.00     0.031 C 
ATOM     17  C   UNL A   1      38.249  28.859  28.450  1.00  0.00     0.029 A 
ATOM     18  N   UNL A   1      39.811  30.075  29.489  1.00  0.00    -0.354 N 
ATOM     19  C   UNL A   1      43.739  28.466  30.285  1.00  0.00     0.074 A 
ATOM     20  C   UNL A   1      43.857  27.107  29.800  1.00  0.00     0.031 C 
ATOM     21  C   UNL A   1      37.721  30.068  28.691  1.00  0.00     0.029 A 
ATOM     22  C   UNL A   1      38.701  30.881  29.402  1.00  0.00     0.049 A 
ATOM     23  H   UNL A   1      40.652  30.359  29.914  1.00  0.00     0.167 HD
ATOM     24  C   UNL A   1      44.727  29.142  30.921  1.00  0.00     0.031 A 
ATOM     25  C   UNL A   1      38.483  32.130  29.854  1.00  0.00     0.031 A 
ATOM     26  C   UNL A   1      44.603  30.497  31.399  1.00  0.00     0.049 A 
ATOM     27  C   UNL A   1      39.587  32.846  30.578  1.00  0.00     0.074 A 
ATOM     28  C   UNL A   1      45.560  31.281  32.019  1.00  0.00     0.029 A 
ATOM     29  N   UNL A   1      43.452  31.267  31.316  1.00  0.00    -0.354 N 
ATOM     30  N   UNL A   1      40.804  32.433  30.840  1.00  0.00    -0.248 NA
ATOM     31  C   UNL A   1      39.289  34.200  31.061  1.00  0.00     0.031 C 
ATOM     32  C   UNL A   1      44.970  32.501  32.367  1.00  0.00     0.029 A 
ATOM     33  C   UNL A   1      43.667  32.507  31.896  1.00  0.00     0.049 A 
ATOM     34  H   UNL A   1      42.606  30.976  30.904  1.00  0.00     0.167 HD
ATOM     35  C   UNL A   1      41.429  33.492  31.489  1.00  0.00     0.074 A 
ATOM     36  C   UNL A   1      40.459  34.566  31.565  1.00  0.00     0.031 C 
ATOM     37  C   UNL A   1      42.695  33.569  31.970  1.00  0.00     0.031 A 
BRANCH  24  38
ATOM     38  C   UNL A   1      46.026  28.415  31.177  1.00  0.00    -0.014 A 
ATOM     39  C   UNL A   1      47.081  28.444  30.248  1.00  0.00     0.010 A 
ATOM     40  C   UNL A   1      46.210  27.732  32.394  1.00  0.00     0.010 A 
ATOM     41  C   UNL A   1      48.277  27.766  30.510  1.00  0.00     0.020 A 
ATOM     42  C   UNL A   1      47.415  27.080  32.675  1.00  0.00     0.020 A 
ATOM     43  C   UNL A   1      48.434  27.086  31.722  1.00  0.00     0.054 A 
BRANCH  43  44
ATOM     44  S   UNL A   1      50.000  26.225  32.040  1.00  0.00     0.124 S 
ATOM     45  O   UNL A   1      50.369  26.749  33.354  1.00  0.00    -0.237 OA
ATOM     46  O   UNL A   1      49.604  24.819  32.014  1.00  0.00    -0.237 OA
ATOM     47  O   UNL A   1      50.860  26.648  30.938  1.00  0.00    -0.744 OA
ENDBRANCH  43  44
ENDBRANCH  24  38
BRANCH  25  48
ATOM     48  C   UNL A   1      37.163  32.780  29.630  1.00  0.00    -0.014 A 
ATOM     49  C   UNL A   1      36.169  32.743  30.624  1.00  0.00     0.010 A 
ATOM     50  C   UNL A   1      36.898  33.457  28.425  1.00  0.00     0.010 A 
ATOM     51  C   UNL A   1      34.929  33.351  30.409  1.00  0.00     0.020 A 
ATOM     52  C   UNL A   1      35.672  34.095  28.220  1.00  0.00     0.020 A 
ATOM     53  C   UNL A   1      34.690  34.027  29.209  1.00  0.00     0.054 A 
BRANCH  53  54
ATOM     54  S   UNL A   1      33.090  34.848  28.972  1.00  0.00     0.124 S 
ATOM     55  O   UNL A   1      32.548  34.853  30.326  1.00  0.00    -0.237 OA
ATOM     56  O   UNL A   1      33.480  36.151  28.440  1.00  0.00    -0.237 OA
ATOM     57  O   UNL A   1      32.397  33.978  28.023  1.00  0.00    -0.744 OA
ENDBRANCH  53  54
ENDBRANCH  25  48
BRANCH  37  58
ATOM     58  C   UNL A   1      43.123  34.881  32.576  1.00  0.00    -0.014 A 
ATOM     59  C   UNL A   1      43.836  35.840  31.834  1.00  0.00     0.010 A 
ATOM     60  C   UNL A   1      42.780  35.165  33.910  1.00  0.00     0.010 A 
ATOM     61  C   UNL A   1      44.240  37.038  32.433  1.00  0.00     0.020 A 
ATOM     62  C   UNL A   1      43.151  36.375  34.502  1.00  0.00     0.020 A 
ATOM     63  C   UNL A   1      43.896  37.296  33.764  1.00  0.00     0.054 A 
BRANCH  63  64
ATOM     64  S   UNL A   1      44.414  38.865  34.512  1.00  0.00     0.124 S 
ATOM     65  O   UNL A   1      44.407  38.541  35.936  1.00  0.00    -0.237 OA
ATOM     66  O   UNL A   1      45.732  39.081  33.922  1.00  0.00    -0.237 OA
ATOM     67  O   UNL A   1      43.385  39.810  34.083  1.00  0.00    -0.744 OA
ENDBRANCH  63  64
ENDBRANCH  37  58
ENDBRANCH  11  12
ENDBRANCH   4   6
ENDBRANCH   1   2
BRANCH   1  68
ATOM     68  C   UNL A   1      35.016  23.908  25.733  1.00  0.00     0.042 C 
BRANCH  68  69
ATOM     69  C   UNL A   1      34.008  24.870  25.124  1.00  0.00     0.117 C 
BRANCH  69  70
ATOM     70  N   UNL A   1      32.950  25.292  26.037  1.00  0.00    -0.354 N 
ATOM     71  C   UNL A   1      32.282  26.441  26.309  1.00  0.00     0.245 C 
ATOM     72  H   UNL A   1      32.640  24.548  26.603  1.00  0.00     0.163 HD
ATOM     73  O   UNL A   1      31.256  26.265  26.990  1.00  0.00    -0.272 OA
BRANCH  71  74
ATOM     74  C   UNL A   1      32.724  27.911  25.968  1.00  0.00     0.119 C 
ATOM     75  C   UNL A   1      31.710  28.954  26.479  1.00  0.00     0.038 C 
ATOM     76  C   UNL A   1      34.082  28.115  26.714  1.00  0.00     0.038 C 
ATOM     77  C   UNL A   1      32.215  30.392  26.561  1.00  0.00     0.003 C 
ATOM     78  C   UNL A   1      34.547  29.570  26.838  1.00  0.00     0.003 C 
ATOM     79  C   UNL A   1      33.464  30.463  27.421  1.00  0.00     0.000 C 
BRANCH  74  80
ATOM     80  N   UNL A   1      32.941  28.147  24.503  1.00  0.00    -0.338 N 
ATOM     81  C   UNL A   1      32.162  27.780  23.427  1.00  0.00     0.253 C 
ATOM     82  H   UNL A   1      33.764  28.640  24.276  1.00  0.00     0.164 HD
ATOM     83  O   UNL A   1      32.673  27.208  22.466  1.00  0.00    -0.269 OA
BRANCH  81  84
ATOM     84  C   UNL A   1      30.739  28.162  23.354  1.00  0.00     0.061 A 
ATOM     85  C   UNL A   1      30.414  29.520  23.291  1.00  0.00     0.035 A 
ATOM     86  C   UNL A   1      29.717  27.221  23.431  1.00  0.00     0.072 A 
ATOM     87  C   UNL A   1      29.079  29.866  23.165  1.00  0.00     0.112 A 
ATOM     88  C   UNL A   1      28.416  27.666  23.248  1.00  0.00     0.132 A 
ATOM     89  Cl  UNL A   1      29.975  25.582  23.880  1.00  0.00    -0.082 Cl
ATOM     90  N   UNL A   1      28.074  28.967  23.096  1.00  0.00    -0.263 NA
ENDBRANCH  81  84
ENDBRANCH  74  80
ENDBRANCH  71  74
ENDBRANCH  69  70
ENDBRANCH  68  69
ENDBRANCH   1  68
TORSDOF 15
ENDMDL
MODEL 3
REMARK VINA RESULT:     -10.6      0.561      8.288
REMARK SMILES O=C(NCCCNC(=O)C1(NC(=O)c2ccncc2Cl)CCCCC1)c1ccc(-c2c3nc(c(-c4ccc(S(=O)(=O)[O-])cc4)c4ccc([nH]4)c(-c4ccc(S(=O)(=O)[O-])cc4)c4nc(c(-c5ccc(S(=O)(=O)[O-])cc5)c5ccc2[nH]5)C=C4)C=C3)cc1
REMARK SMILES IDX 4 1 3 2 1 3 2 4 26 6 27 7 85 8 28 9 84 10 29 11 30 12 31 13
REMARK SMILES IDX 78 14 32 15 83 16 77 17 79 18 33 19 82 20 76 21 75 22 34 24
REMARK SMILES IDX 64 25 45 26 63 27 46 28 49 29 62 30 80 31 47 32 48 33 61 35
REMARK SMILES IDX 81 36 50 37 35 38 36 39 44 40 37 41 43 42 38 43 39 44 40 45
REMARK SMILES IDX 41 46 42 47 65 48 66 49 74 50 67 51 73 52 68 53 69 54 70 55
REMARK SMILES IDX 71 56 72 57 51 58 52 59 60 60 53 61 59 62 54 63 55 64 56 65
REMARK SMILES IDX 57 66 58 67 5 68 6 69 7 70 8 71 9 73 10 74 21 75 25 76 22 77
REMARK SMILES IDX 24 78 23 79 11 80 12 81 13 83 14 84 15 85 19 86 16 87 18 88
REMARK SMILES IDX 20 89 17 90
REMARK H PARENT 3 5 79 23 49 34 7 72 11 82
REMARK Flexibility Score: inf
ROOT
ATOM      1  C   UNL A   1      33.718  27.625  26.757  1.00  0.00     0.118 C 
ENDROOT
BRANCH   1   2
ATOM      2  N   UNL A   1      33.345  29.028  26.882  1.00  0.00    -0.352 N 
ATOM      3  O   UNL A   1      33.482  31.130  27.685  1.00  0.00    -0.269 OA
ATOM      4  C   UNL A   1      34.039  30.054  27.477  1.00  0.00     0.251 C 
ATOM      5  H   UNL A   1      32.476  29.274  26.488  1.00  0.00     0.163 HD
BRANCH   4   6
ATOM      6  C   UNL A   1      35.447  29.852  27.881  1.00  0.00     0.039 A 
ATOM      7  C   UNL A   1      36.482  30.059  26.966  1.00  0.00     0.014 A 
ATOM      8  C   UNL A   1      35.735  29.456  29.189  1.00  0.00     0.014 A 
ATOM      9  C   UNL A   1      37.789  29.736  27.317  1.00  0.00     0.010 A 
ATOM     10  C   UNL A   1      37.061  29.215  29.564  1.00  0.00     0.010 A 
ATOM     11  C   UNL A   1      38.098  29.322  28.624  1.00  0.00    -0.014 A 
BRANCH  11  12
ATOM     12  C   UNL A   1      39.514  29.057  29.000  1.00  0.00     0.031 A 
ATOM     13  C   UNL A   1      40.185  27.754  28.650  1.00  0.00     0.074 A 
ATOM     14  C   UNL A   1      40.202  30.013  29.657  1.00  0.00     0.049 A 
ATOM     15  N   UNL A   1      41.411  27.367  28.899  1.00  0.00    -0.248 NA
ATOM     16  C   UNL A   1      39.376  26.752  27.939  1.00  0.00     0.031 C 
ATOM     17  C   UNL A   1      39.664  31.315  30.060  1.00  0.00     0.029 A 
ATOM     18  N   UNL A   1      41.505  30.048  30.088  1.00  0.00    -0.354 N 
ATOM     19  C   UNL A   1      41.514  26.071  28.404  1.00  0.00     0.074 A 
ATOM     20  C   UNL A   1      40.216  25.729  27.861  1.00  0.00     0.031 C 
ATOM     21  C   UNL A   1      40.639  32.039  30.628  1.00  0.00     0.029 A 
ATOM     22  C   UNL A   1      41.851  31.231  30.698  1.00  0.00     0.049 A 
ATOM     23  H   UNL A   1      42.131  29.297  29.973  1.00  0.00     0.167 HD
ATOM     24  C   UNL A   1      42.589  25.245  28.400  1.00  0.00     0.031 A 
ATOM     25  C   UNL A   1      43.007  31.624  31.264  1.00  0.00     0.031 A 
ATOM     26  C   UNL A   1      43.880  25.595  28.940  1.00  0.00     0.049 A 
ATOM     27  C   UNL A   1      44.174  30.679  31.268  1.00  0.00     0.074 A 
ATOM     28  C   UNL A   1      45.041  24.842  28.946  1.00  0.00     0.029 A 
ATOM     29  N   UNL A   1      44.179  26.792  29.574  1.00  0.00    -0.354 N 
ATOM     30  N   UNL A   1      44.259  29.471  30.763  1.00  0.00    -0.248 NA
ATOM     31  C   UNL A   1      45.406  31.154  31.912  1.00  0.00     0.031 C 
ATOM     32  C   UNL A   1      46.024  25.558  29.639  1.00  0.00     0.029 A 
ATOM     33  C   UNL A   1      45.498  26.788  29.998  1.00  0.00     0.049 A 
ATOM     34  H   UNL A   1      43.547  27.536  29.703  1.00  0.00     0.167 HD
ATOM     35  C   UNL A   1      45.564  29.055  30.999  1.00  0.00     0.074 A 
ATOM     36  C   UNL A   1      46.234  30.146  31.677  1.00  0.00     0.031 C 
ATOM     37  C   UNL A   1      46.156  27.878  30.674  1.00  0.00     0.031 A 
BRANCH  24  38
ATOM     38  C   UNL A   1      42.411  23.860  27.826  1.00  0.00    -0.014 A 
ATOM     39  C   UNL A   1      42.740  23.568  26.490  1.00  0.00     0.010 A 
ATOM     40  C   UNL A   1      41.951  22.819  28.655  1.00  0.00     0.010 A 
ATOM     41  C   UNL A   1      42.571  22.276  25.983  1.00  0.00     0.020 A 
ATOM     42  C   UNL A   1      41.810  21.518  28.162  1.00  0.00     0.020 A 
ATOM     43  C   UNL A   1      42.103  21.259  26.823  1.00  0.00     0.054 A 
BRANCH  43  44
ATOM     44  S   UNL A   1      41.904  19.590  26.141  1.00  0.00     0.124 S 
ATOM     45  O   UNL A   1      42.741  19.651  24.945  1.00  0.00    -0.237 OA
ATOM     46  O   UNL A   1      42.410  18.741  27.218  1.00  0.00    -0.237 OA
ATOM     47  O   UNL A   1      40.468  19.484  25.891  1.00  0.00    -0.744 OA
ENDBRANCH  43  44
ENDBRANCH  24  38
BRANCH  25  48
ATOM     48  C   UNL A   1      43.112  32.978  31.872  1.00  0.00    -0.014 A 
ATOM     49  C   UNL A   1      42.833  33.174  33.236  1.00  0.00     0.010 A 
ATOM     50  C   UNL A   1      43.512  34.079  31.092  1.00  0.00     0.010 A 
ATOM     51  C   UNL A   1      42.929  34.448  33.803  1.00  0.00     0.020 A 
ATOM     52  C   UNL A   1      43.644  35.347  31.663  1.00  0.00     0.020 A 
ATOM     53  C   UNL A   1      43.338  35.526  33.013  1.00  0.00     0.054 A 
BRANCH  53  54
ATOM     54  S   UNL A   1      43.500  37.161  33.782  1.00  0.00     0.124 S 
ATOM     55  O   UNL A   1      43.818  38.005  32.636  1.00  0.00    -0.237 OA
ATOM     56  O   UNL A   1      42.179  37.364  34.372  1.00  0.00    -0.237 OA
ATOM     57  O   UNL A   1      44.583  36.979  34.747  1.00  0.00    -0.744 OA
ENDBRANCH  53  54
ENDBRANCH  25  48
BRANCH  37  58
ATOM     58  C   UNL A   1      47.620  27.730  31.002  1.00  0.00    -0.014 A 
ATOM     59  C   UNL A   1      48.053  27.150  32.208  1.00  0.00     0.010 A 
ATOM     60  C   UNL A   1      48.579  28.159  30.066  1.00  0.00     0.010 A 
ATOM     61  C   UNL A   1      49.418  27.049  32.492  1.00  0.00     0.020 A 
ATOM     62  C   UNL A   1      49.944  28.029  30.331  1.00  0.00     0.020 A 
ATOM     63  C   UNL A   1      50.355  27.492  31.552  1.00  0.00     0.054 A 
BRANCH  63  64
ATOM     64  S   UNL A   1      52.120  27.331  31.935  1.00  0.00     0.124 S 
ATOM     65  O   UNL A   1      52.348  28.481  32.807  1.00  0.00    -0.237 OA
ATOM     66  O   UNL A   1      52.189  26.026  32.585  1.00  0.00    -0.237 OA
ATOM     67  O   UNL A   1      52.767  27.404  30.627  1.00  0.00    -0.744 OA
ENDBRANCH  63  64
ENDBRANCH  37  58
ENDBRANCH  11  12
ENDBRANCH   4   6
ENDBRANCH   1   2
BRANCH   1  68
ATOM     68  C   UNL A   1      33.818  27.188  25.301  1.00  0.00     0.042 C 
BRANCH  68  69
ATOM     69  C   UNL A   1      33.444  25.731  25.077  1.00  0.00     0.117 C 
BRANCH  69  70
ATOM     70  N   UNL A   1      34.137  25.095  23.961  1.00  0.00    -0.354 N 
ATOM     71  C   UNL A   1      34.871  23.971  23.767  1.00  0.00     0.245 C 
ATOM     72  H   UNL A   1      34.048  25.619  23.132  1.00  0.00     0.163 HD
ATOM     73  O   UNL A   1      35.037  23.691  22.568  1.00  0.00    -0.272 OA
BRANCH  71  74
ATOM     74  C   UNL A   1      35.599  23.101  24.857  1.00  0.00     0.119 C 
ATOM     75  C   UNL A   1      36.367  21.918  24.236  1.00  0.00     0.038 C 
ATOM     76  C   UNL A   1      36.621  24.068  25.539  1.00  0.00     0.038 C 
ATOM     77  C   UNL A   1      37.414  21.258  25.130  1.00  0.00     0.003 C 
ATOM     78  C   UNL A   1      37.699  23.387  26.387  1.00  0.00     0.003 C 
ATOM     79  C   UNL A   1      38.416  22.289  25.616  1.00  0.00     0.000 C 
BRANCH  74  80
ATOM     80  N   UNL A   1      34.676  22.561  25.909  1.00  0.00    -0.338 N 
ATOM     81  C   UNL A   1      33.424  21.998  25.776  1.00  0.00     0.253 C 
ATOM     82  H   UNL A   1      35.015  22.617  26.832  1.00  0.00     0.164 HD
ATOM     83  O   UNL A   1      32.497  22.391  26.480  1.00  0.00    -0.269 OA
BRANCH  81  84
ATOM     84  C   UNL A   1      33.201  20.846  24.881  1.00  0.00     0.061 A 
ATOM     85  C   UNL A   1      33.872  19.650  25.151  1.00  0.00     0.035 A 
ATOM     86  C   UNL A   1      32.414  20.941  23.738  1.00  0.00     0.072 A 
ATOM     87  C   UNL A   1      33.612  18.558  24.339  1.00  0.00     0.112 A 
ATOM     88  C   UNL A   1      32.179  19.779  23.018  1.00  0.00     0.132 A 
ATOM     89  Cl  UNL A   1      31.848  22.435  23.103  1.00  0.00    -0.082 Cl
ATOM     90  N   UNL A   1      32.745  18.583  23.305  1.00  0.00    -0.263 NA
ENDBRANCH  81  84
ENDBRANCH  74  80
ENDBRANCH  71  74
ENDBRANCH  69  70
ENDBRANCH  68  69
ENDBRANCH   1  68
TORSDOF 15
ENDMDL
