MODEL 1
REMARK VINA RESULT:     -11.6      0.000      0.000
REMARK SMILES O=C(COc1ccccc1/C=N\N1CC[NH+](Cc2ccc(Cl)cc2)CC1)NCCCNC(=O)c1ccc(-c2c3nc(c(-c4ccc(S(=O)(=O)[O-])cc4)c4ccc([nH]4)c(-c4ccc(S(=O)(=O)[O-])cc4)c4nc(c(-c5ccc(S(=O)(=O)[O-])cc5)c5ccc2[nH]5)C=C4)C=C3)cc1
REMARK SMILES IDX 1 1 2 2 27 3 3 5 4 6 5 7 6 8 10 9 7 10 9 11 8 12 11 13 12 14
REMARK SMILES IDX 13 15 14 16 26 17 15 18 25 19 16 20 17 22 18 23 19 24 24 25
REMARK SMILES IDX 20 26 23 27 21 28 22 29 28 30 29 31 30 32 31 33 32 34 33 36
REMARK SMILES IDX 34 37 35 38 93 39 36 40 92 41 37 42 38 43 39 44 86 45 40 46
REMARK SMILES IDX 91 47 85 48 87 49 41 50 90 51 84 52 83 53 42 55 72 56 53 57
REMARK SMILES IDX 71 58 54 59 57 60 70 61 88 62 55 63 56 64 69 66 89 67 58 68
REMARK SMILES IDX 43 69 44 70 52 71 45 72 51 73 46 74 47 75 48 76 49 77 50 78
REMARK SMILES IDX 73 79 74 80 82 81 75 82 81 83 76 84 77 85 78 86 79 87 80 88
REMARK SMILES IDX 59 89 60 90 68 91 61 92 67 93 62 94 63 95 64 96 65 97 66 98
REMARK H PARENT 27 4 16 21 31 35 87 54 57 65
REMARK Flexibility Score: inf
ROOT
ATOM      1  O   UNL A   1      36.918  23.938  25.874  1.00  0.00    -0.271 OA
ATOM      2  C   UNL A   1      37.389  22.857  25.527  1.00  0.00     0.257 C 
ATOM      3  N   UNL A   1      38.469  22.262  26.167  1.00  0.00    -0.353 N 
ATOM      4  H   UNL A   1      38.575  21.283  26.143  1.00  0.00     0.163 HD
ENDROOT
BRANCH   2   5
ATOM      5  C   UNL A   1      36.790  22.075  24.335  1.00  0.00     0.329 C 
BRANCH   5   6
ATOM      6  O   UNL A   1      35.625  22.629  23.720  1.00  0.00    -0.483 OA
BRANCH   6   7
ATOM      7  C   UNL A   1      34.432  22.017  24.039  1.00  0.00     0.128 A 
ATOM      8  C   UNL A   1      34.383  21.166  25.145  1.00  0.00     0.047 A 
ATOM      9  C   UNL A   1      33.341  22.038  23.154  1.00  0.00     0.037 A 
ATOM     10  C   UNL A   1      33.259  20.355  25.360  1.00  0.00     0.004 A 
ATOM     11  C   UNL A   1      32.256  21.179  23.335  1.00  0.00     0.013 A 
ATOM     12  C   UNL A   1      32.204  20.350  24.448  1.00  0.00     0.001 A 
BRANCH   9  13
ATOM     13  C   UNL A   1      33.413  22.961  22.027  1.00  0.00     0.145 C 
ATOM     14  N   UNL A   1      33.278  24.246  21.918  1.00  0.00    -0.185 NA
BRANCH  14  15
ATOM     15  N   UNL A   1      32.737  24.947  22.918  1.00  0.00    -0.286 NA
ATOM     16  C   UNL A   1      31.505  25.632  22.505  1.00  0.00     0.200 C 
ATOM     17  C   UNL A   1      33.501  25.871  23.774  1.00  0.00     0.200 C 
ATOM     18  C   UNL A   1      30.622  25.863  23.732  1.00  0.00     0.286 C 
ATOM     19  C   UNL A   1      32.661  26.168  25.054  1.00  0.00     0.286 C 
ATOM     20  N   UNL A   1      31.253  26.571  24.857  1.00  0.00    -0.328 N 
ATOM     21  H   UNL A   1      30.775  26.254  25.700  1.00  0.00     0.348 HD
BRANCH  20  22
ATOM     22  C   UNL A   1      30.991  28.011  24.887  1.00  0.00     0.299 C 
BRANCH  22  23
ATOM     23  C   UNL A   1      31.828  28.817  25.850  1.00  0.00     0.006 A 
ATOM     24  C   UNL A   1      32.788  28.174  26.648  1.00  0.00     0.011 A 
ATOM     25  C   UNL A   1      31.731  30.214  25.896  1.00  0.00     0.011 A 
ATOM     26  C   UNL A   1      33.694  28.917  27.401  1.00  0.00     0.021 A 
ATOM     27  C   UNL A   1      32.644  30.960  26.643  1.00  0.00     0.021 A 
ATOM     28  C   UNL A   1      33.633  30.308  27.377  1.00  0.00     0.041 A 
ATOM     29  Cl  UNL A   1      34.802  31.224  28.243  1.00  0.00    -0.084 Cl
ENDBRANCH  22  23
ENDBRANCH  20  22
ENDBRANCH  14  15
ENDBRANCH   9  13
ENDBRANCH   6   7
ENDBRANCH   5   6
ENDBRANCH   2   5
BRANCH   3  30
ATOM     30  C   UNL A   1      39.449  23.085  26.875  1.00  0.00     0.117 C 
BRANCH  30  31
ATOM     31  C   UNL A   1      40.858  22.528  26.959  1.00  0.00     0.042 C 
BRANCH  31  32
ATOM     32  C   UNL A   1      41.965  23.563  27.111  1.00  0.00     0.118 C 
BRANCH  32  33
ATOM     33  N   UNL A   1      42.237  24.363  25.922  1.00  0.00    -0.352 N 
ATOM     34  C   UNL A   1      42.170  25.730  25.751  1.00  0.00     0.251 C 
ATOM     35  H   UNL A   1      42.507  23.853  25.125  1.00  0.00     0.163 HD
ATOM     36  O   UNL A   1      42.395  26.217  24.642  1.00  0.00    -0.269 OA
BRANCH  34  37
ATOM     37  C   UNL A   1      41.787  26.618  26.877  1.00  0.00     0.039 A 
ATOM     38  C   UNL A   1      40.768  26.213  27.746  1.00  0.00     0.014 A 
ATOM     39  C   UNL A   1      42.434  27.835  27.098  1.00  0.00     0.014 A 
ATOM     40  C   UNL A   1      40.456  26.991  28.868  1.00  0.00     0.010 A 
ATOM     41  C   UNL A   1      42.201  28.548  28.271  1.00  0.00     0.010 A 
ATOM     42  C   UNL A   1      41.196  28.148  29.162  1.00  0.00    -0.014 A 
BRANCH  42  43
ATOM     43  C   UNL A   1      40.909  28.963  30.374  1.00  0.00     0.031 A 
ATOM     44  C   UNL A   1      41.732  28.776  31.625  1.00  0.00     0.074 A 
ATOM     45  C   UNL A   1      39.888  29.845  30.370  1.00  0.00     0.049 A 
ATOM     46  N   UNL A   1      41.639  29.395  32.775  1.00  0.00    -0.248 NA
ATOM     47  C   UNL A   1      42.777  27.739  31.591  1.00  0.00     0.031 C 
ATOM     48  C   UNL A   1      38.976  30.082  29.248  1.00  0.00     0.029 A 
ATOM     49  N   UNL A   1      39.448  30.712  31.341  1.00  0.00    -0.354 N 
ATOM     50  C   UNL A   1      42.598  28.814  33.598  1.00  0.00     0.074 A 
ATOM     51  C   UNL A   1      43.215  27.749  32.841  1.00  0.00     0.031 C 
ATOM     52  C   UNL A   1      38.117  31.061  29.578  1.00  0.00     0.029 A 
ATOM     53  C   UNL A   1      38.390  31.496  30.943  1.00  0.00     0.049 A 
ATOM     54  H   UNL A   1      39.852  30.766  32.236  1.00  0.00     0.167 HD
ATOM     55  C   UNL A   1      42.961  29.153  34.859  1.00  0.00     0.031 A 
ATOM     56  C   UNL A   1      37.720  32.464  31.599  1.00  0.00     0.031 A 
ATOM     57  C   UNL A   1      42.357  30.222  35.608  1.00  0.00     0.049 A 
ATOM     58  C   UNL A   1      38.148  32.833  32.995  1.00  0.00     0.074 A 
ATOM     59  C   UNL A   1      42.687  30.680  36.872  1.00  0.00     0.029 A 
ATOM     60  N   UNL A   1      41.301  31.002  35.163  1.00  0.00    -0.354 N 
ATOM     61  N   UNL A   1      39.106  32.318  33.730  1.00  0.00    -0.248 NA
ATOM     62  C   UNL A   1      37.418  33.932  33.641  1.00  0.00     0.031 C 
ATOM     63  C   UNL A   1      41.793  31.702  37.213  1.00  0.00     0.029 A 
ATOM     64  C   UNL A   1      40.954  31.927  36.134  1.00  0.00     0.049 A 
ATOM     65  H   UNL A   1      40.861  30.912  34.287  1.00  0.00     0.167 HD
ATOM     66  C   UNL A   1      39.119  33.058  34.908  1.00  0.00     0.074 A 
ATOM     67  C   UNL A   1      38.084  34.064  34.779  1.00  0.00     0.031 C 
ATOM     68  C   UNL A   1      39.919  32.922  35.995  1.00  0.00     0.031 A 
BRANCH  55  69
ATOM     69  C   UNL A   1      44.065  28.353  35.504  1.00  0.00    -0.014 A 
ATOM     70  C   UNL A   1      45.414  28.734  35.372  1.00  0.00     0.010 A 
ATOM     71  C   UNL A   1      43.749  27.223  36.280  1.00  0.00     0.010 A 
ATOM     72  C   UNL A   1      46.427  27.974  35.962  1.00  0.00     0.020 A 
ATOM     73  C   UNL A   1      44.757  26.479  36.900  1.00  0.00     0.020 A 
ATOM     74  C   UNL A   1      46.092  26.849  36.721  1.00  0.00     0.054 A 
BRANCH  74  75
ATOM     75  S   UNL A   1      47.427  25.895  37.494  1.00  0.00     0.124 S 
ATOM     76  O   UNL A   1      47.068  24.527  37.131  1.00  0.00    -0.237 OA
ATOM     77  O   UNL A   1      48.620  26.426  36.839  1.00  0.00    -0.237 OA
ATOM     78  O   UNL A   1      47.305  26.214  38.914  1.00  0.00    -0.744 OA
ENDBRANCH  74  75
ENDBRANCH  55  69
BRANCH  56  79
ATOM     79  C   UNL A   1      36.598  33.183  30.931  1.00  0.00    -0.014 A 
ATOM     80  C   UNL A   1      36.825  33.952  29.776  1.00  0.00     0.010 A 
ATOM     81  C   UNL A   1      35.292  33.097  31.447  1.00  0.00     0.010 A 
ATOM     82  C   UNL A   1      35.775  34.645  29.165  1.00  0.00     0.020 A 
ATOM     83  C   UNL A   1      34.233  33.763  30.820  1.00  0.00     0.020 A 
ATOM     84  C   UNL A   1      34.484  34.544  29.691  1.00  0.00     0.054 A 
BRANCH  84  85
ATOM     85  S   UNL A   1      33.128  35.416  28.857  1.00  0.00     0.124 S 
ATOM     86  O   UNL A   1      32.495  34.341  28.102  1.00  0.00    -0.237 OA
ATOM     87  O   UNL A   1      32.355  35.942  29.980  1.00  0.00    -0.237 OA
ATOM     88  O   UNL A   1      33.814  36.427  28.055  1.00  0.00    -0.744 OA
ENDBRANCH  84  85
ENDBRANCH  56  79
BRANCH  68  89
ATOM     89  C   UNL A   1      39.746  33.921  37.110  1.00  0.00    -0.014 A 
ATOM     90  C   UNL A   1      40.286  35.216  37.033  1.00  0.00     0.010 A 
ATOM     91  C   UNL A   1      39.009  33.554  38.251  1.00  0.00     0.010 A 
ATOM     92  C   UNL A   1      40.146  36.105  38.104  1.00  0.00     0.020 A 
ATOM     93  C   UNL A   1      38.835  34.450  39.308  1.00  0.00     0.020 A 
ATOM     94  C   UNL A   1      39.427  35.713  39.237  1.00  0.00     0.054 A 
BRANCH  94  95
ATOM     95  S   UNL A   1      39.259  36.880  40.615  1.00  0.00     0.124 S 
ATOM     96  O   UNL A   1      40.575  36.799  41.242  1.00  0.00    -0.237 OA
ATOM     97  O   UNL A   1      38.963  38.139  39.934  1.00  0.00    -0.237 OA
ATOM     98  O   UNL A   1      38.158  36.331  41.403  1.00  0.00    -0.744 OA
ENDBRANCH  94  95
ENDBRANCH  68  89
ENDBRANCH  42  43
ENDBRANCH  34  37
ENDBRANCH  32  33
ENDBRANCH  31  32
ENDBRANCH  30  31
ENDBRANCH   3  30
TORSDOF 19
ENDMDL
MODEL 2
REMARK VINA RESULT:     -11.6      1.485      2.138
REMARK SMILES O=C(COc1ccccc1/C=N\N1CC[NH+](Cc2ccc(Cl)cc2)CC1)NCCCNC(=O)c1ccc(-c2c3nc(c(-c4ccc(S(=O)(=O)[O-])cc4)c4ccc([nH]4)c(-c4ccc(S(=O)(=O)[O-])cc4)c4nc(c(-c5ccc(S(=O)(=O)[O-])cc5)c5ccc2[nH]5)C=C4)C=C3)cc1
REMARK SMILES IDX 1 1 2 2 27 3 3 5 4 6 5 7 6 8 10 9 7 10 9 11 8 12 11 13 12 14
REMARK SMILES IDX 13 15 14 16 26 17 15 18 25 19 16 20 17 22 18 23 19 24 24 25
REMARK SMILES IDX 20 26 23 27 21 28 22 29 28 30 29 31 30 32 31 33 32 34 33 36
REMARK SMILES IDX 34 37 35 38 93 39 36 40 92 41 37 42 38 43 39 44 86 45 40 46
REMARK SMILES IDX 91 47 85 48 87 49 41 50 90 51 84 52 83 53 42 55 72 56 53 57
REMARK SMILES IDX 71 58 54 59 57 60 70 61 88 62 55 63 56 64 69 66 89 67 58 68
REMARK SMILES IDX 43 69 44 70 52 71 45 72 51 73 46 74 47 75 48 76 49 77 50 78
REMARK SMILES IDX 73 79 74 80 82 81 75 82 81 83 76 84 77 85 78 86 79 87 80 88
REMARK SMILES IDX 59 89 60 90 68 91 61 92 67 93 62 94 63 95 64 96 65 97 66 98
REMARK H PARENT 27 4 16 21 31 35 87 54 57 65
REMARK Flexibility Score: inf
ROOT
ATOM      1  O   UNL A   1      38.357  19.326  24.968  1.00  0.00    -0.271 OA
ATOM      2  C   UNL A   1      37.708  20.360  25.114  1.00  0.00     0.257 C 
ATOM      3  N   UNL A   1      38.289  21.575  25.453  1.00  0.00    -0.353 N 
ATOM      4  H   UNL A   1      37.852  22.418  25.190  1.00  0.00     0.163 HD
ENDROOT
BRANCH   2   5
ATOM      5  C   UNL A   1      36.174  20.371  24.917  1.00  0.00     0.329 C 
BRANCH   5   6
ATOM      6  O   UNL A   1      35.575  21.625  24.581  1.00  0.00    -0.483 OA
BRANCH   6   7
ATOM      7  C   UNL A   1      34.595  22.069  25.443  1.00  0.00     0.128 A 
ATOM      8  C   UNL A   1      34.973  22.650  26.655  1.00  0.00     0.047 A 
ATOM      9  C   UNL A   1      33.244  21.741  25.243  1.00  0.00     0.037 A 
ATOM     10  C   UNL A   1      34.012  22.900  27.646  1.00  0.00     0.004 A 
ATOM     11  C   UNL A   1      32.305  21.927  26.258  1.00  0.00     0.013 A 
ATOM     12  C   UNL A   1      32.683  22.525  27.453  1.00  0.00     0.001 A 
BRANCH   9  13
ATOM     13  C   UNL A   1      32.881  21.164  23.953  1.00  0.00     0.145 C 
ATOM     14  N   UNL A   1      32.472  21.673  22.834  1.00  0.00    -0.185 NA
BRANCH  14  15
ATOM     15  N   UNL A   1      32.034  22.935  22.795  1.00  0.00    -0.286 NA
ATOM     16  C   UNL A   1      33.129  23.891  22.593  1.00  0.00     0.200 C 
ATOM     17  C   UNL A   1      31.110  23.509  23.790  1.00  0.00     0.200 C 
ATOM     18  C   UNL A   1      32.576  25.159  21.941  1.00  0.00     0.286 C 
ATOM     19  C   UNL A   1      30.505  24.820  23.203  1.00  0.00     0.286 C 
ATOM     20  N   UNL A   1      31.450  25.804  22.635  1.00  0.00    -0.328 N 
ATOM     21  H   UNL A   1      30.913  26.292  21.919  1.00  0.00     0.348 HD
BRANCH  20  22
ATOM     22  C   UNL A   1      31.837  26.903  23.522  1.00  0.00     0.299 C 
BRANCH  22  23
ATOM     23  C   UNL A   1      31.017  28.165  23.410  1.00  0.00     0.006 A 
ATOM     24  C   UNL A   1      29.997  28.252  22.449  1.00  0.00     0.011 A 
ATOM     25  C   UNL A   1      31.193  29.222  24.313  1.00  0.00     0.011 A 
ATOM     26  C   UNL A   1      29.112  29.327  22.453  1.00  0.00     0.021 A 
ATOM     27  C   UNL A   1      30.300  30.295  24.324  1.00  0.00     0.021 A 
ATOM     28  C   UNL A   1      29.253  30.333  23.406  1.00  0.00     0.041 A 
ATOM     29  Cl  UNL A   1      28.111  31.617  23.461  1.00  0.00    -0.084 Cl
ENDBRANCH  22  23
ENDBRANCH  20  22
ENDBRANCH  14  15
ENDBRANCH   9  13
ENDBRANCH   6   7
ENDBRANCH   5   6
ENDBRANCH   2   5
BRANCH   3  30
ATOM     30  C   UNL A   1      39.546  21.607  26.200  1.00  0.00     0.117 C 
BRANCH  30  31
ATOM     31  C   UNL A   1      39.926  22.939  26.820  1.00  0.00     0.042 C 
BRANCH  31  32
ATOM     32  C   UNL A   1      41.414  23.261  26.823  1.00  0.00     0.118 C 
BRANCH  32  33
ATOM     33  N   UNL A   1      41.858  24.158  25.761  1.00  0.00    -0.352 N 
ATOM     34  C   UNL A   1      42.083  25.518  25.800  1.00  0.00     0.251 C 
ATOM     35  H   UNL A   1      42.023  23.729  24.890  1.00  0.00     0.163 HD
ATOM     36  O   UNL A   1      42.414  26.110  24.771  1.00  0.00    -0.269 OA
BRANCH  34  37
ATOM     37  C   UNL A   1      41.885  26.285  27.055  1.00  0.00     0.039 A 
ATOM     38  C   UNL A   1      42.668  27.420  27.289  1.00  0.00     0.014 A 
ATOM     39  C   UNL A   1      40.923  25.908  27.994  1.00  0.00     0.014 A 
ATOM     40  C   UNL A   1      42.433  28.209  28.421  1.00  0.00     0.010 A 
ATOM     41  C   UNL A   1      40.615  26.754  29.057  1.00  0.00     0.010 A 
ATOM     42  C   UNL A   1      41.378  27.905  29.297  1.00  0.00    -0.014 A 
BRANCH  42  43
ATOM     43  C   UNL A   1      41.084  28.758  30.481  1.00  0.00     0.031 A 
ATOM     44  C   UNL A   1      41.907  28.620  31.738  1.00  0.00     0.074 A 
ATOM     45  C   UNL A   1      40.055  29.631  30.446  1.00  0.00     0.049 A 
ATOM     46  N   UNL A   1      41.808  29.277  32.866  1.00  0.00    -0.248 NA
ATOM     47  C   UNL A   1      42.961  27.592  31.740  1.00  0.00     0.031 C 
ATOM     48  C   UNL A   1      39.142  29.823  29.316  1.00  0.00     0.029 A 
ATOM     49  N   UNL A   1      39.607  30.527  31.387  1.00  0.00    -0.354 N 
ATOM     50  C   UNL A   1      42.771  28.732  33.709  1.00  0.00     0.074 A 
ATOM     51  C   UNL A   1      43.397  27.647  32.989  1.00  0.00     0.031 C 
ATOM     52  C   UNL A   1      38.275  30.805  29.612  1.00  0.00     0.029 A 
ATOM     53  C   UNL A   1      38.543  31.288  30.963  1.00  0.00     0.049 A 
ATOM     54  H   UNL A   1      40.010  30.614  32.280  1.00  0.00     0.167 HD
ATOM     55  C   UNL A   1      43.129  29.117  34.958  1.00  0.00     0.031 A 
ATOM     56  C   UNL A   1      37.865  32.272  31.585  1.00  0.00     0.031 A 
ATOM     57  C   UNL A   1      42.516  30.205  35.670  1.00  0.00     0.049 A 
ATOM     58  C   UNL A   1      38.288  32.691  32.968  1.00  0.00     0.074 A 
ATOM     59  C   UNL A   1      42.841  30.709  36.919  1.00  0.00     0.029 A 
ATOM     60  N   UNL A   1      41.454  30.961  35.198  1.00  0.00    -0.354 N 
ATOM     61  N   UNL A   1      39.250  32.210  33.720  1.00  0.00    -0.248 NA
ATOM     62  C   UNL A   1      37.549  33.806  33.575  1.00  0.00     0.031 C 
ATOM     63  C   UNL A   1      41.939  31.734  37.224  1.00  0.00     0.029 A 
ATOM     64  C   UNL A   1      41.099  31.915  36.137  1.00  0.00     0.049 A 
ATOM     65  H   UNL A   1      41.016  30.837  34.325  1.00  0.00     0.167 HD
ATOM     66  C   UNL A   1      39.255  32.989  34.873  1.00  0.00     0.074 A 
ATOM     67  C   UNL A   1      38.213  33.981  34.709  1.00  0.00     0.031 C 
ATOM     68  C   UNL A   1      40.056  32.896  35.964  1.00  0.00     0.031 A 
BRANCH  55  69
ATOM     69  C   UNL A   1      44.240  28.348  35.631  1.00  0.00    -0.014 A 
ATOM     70  C   UNL A   1      45.583  28.747  35.503  1.00  0.00     0.010 A 
ATOM     71  C   UNL A   1      43.934  27.230  36.428  1.00  0.00     0.010 A 
ATOM     72  C   UNL A   1      46.603  28.016  36.119  1.00  0.00     0.020 A 
ATOM     73  C   UNL A   1      44.947  26.516  37.074  1.00  0.00     0.020 A 
ATOM     74  C   UNL A   1      46.278  26.903  36.899  1.00  0.00     0.054 A 
BRANCH  74  75
ATOM     75  S   UNL A   1      47.620  25.986  37.705  1.00  0.00     0.124 S 
ATOM     76  O   UNL A   1      47.600  24.721  36.976  1.00  0.00    -0.237 OA
ATOM     77  O   UNL A   1      48.782  26.836  37.456  1.00  0.00    -0.237 OA
ATOM     78  O   UNL A   1      47.197  25.907  39.101  1.00  0.00    -0.744 OA
ENDBRANCH  74  75
ENDBRANCH  55  69
BRANCH  56  79
ATOM     79  C   UNL A   1      36.737  32.958  30.892  1.00  0.00    -0.014 A 
ATOM     80  C   UNL A   1      35.409  32.758  31.310  1.00  0.00     0.010 A 
ATOM     81  C   UNL A   1      36.988  33.821  29.810  1.00  0.00     0.010 A 
ATOM     82  C   UNL A   1      34.352  33.384  30.642  1.00  0.00     0.020 A 
ATOM     83  C   UNL A   1      35.935  34.474  29.160  1.00  0.00     0.020 A 
ATOM     84  C   UNL A   1      34.622  34.240  29.572  1.00  0.00     0.054 A 
BRANCH  84  85
ATOM     85  S   UNL A   1      33.238  35.076  28.748  1.00  0.00     0.124 S 
ATOM     86  O   UNL A   1      32.650  33.993  27.969  1.00  0.00    -0.237 OA
ATOM     87  O   UNL A   1      32.440  35.551  29.877  1.00  0.00    -0.237 OA
ATOM     88  O   UNL A   1      33.888  36.128  27.969  1.00  0.00    -0.744 OA
ENDBRANCH  84  85
ENDBRANCH  56  79
BRANCH  68  89
ATOM     89  C   UNL A   1      39.874  33.931  37.044  1.00  0.00    -0.014 A 
ATOM     90  C   UNL A   1      39.148  33.657  38.217  1.00  0.00     0.010 A 
ATOM     91  C   UNL A   1      40.461  35.200  36.885  1.00  0.00     0.010 A 
ATOM     92  C   UNL A   1      38.959  34.653  39.180  1.00  0.00     0.020 A 
ATOM     93  C   UNL A   1      40.305  36.187  37.861  1.00  0.00     0.020 A 
ATOM     94  C   UNL A   1      39.533  35.914  38.992  1.00  0.00     0.054 A 
BRANCH  94  95
ATOM     95  S   UNL A   1      39.274  37.190  40.253  1.00  0.00     0.124 S 
ATOM     96  O   UNL A   1      40.644  37.549  40.607  1.00  0.00    -0.237 OA
ATOM     97  O   UNL A   1      38.524  38.212  39.527  1.00  0.00    -0.237 OA
ATOM     98  O   UNL A   1      38.521  36.499  41.298  1.00  0.00    -0.744 OA
ENDBRANCH  94  95
ENDBRANCH  68  89
ENDBRANCH  42  43
ENDBRANCH  34  37
ENDBRANCH  32  33
ENDBRANCH  31  32
ENDBRANCH  30  31
ENDBRANCH   3  30
TORSDOF 19
ENDMDL
MODEL 3
REMARK VINA RESULT:     -11.1      4.954     12.614
REMARK SMILES O=C(COc1ccccc1/C=N\N1CC[NH+](Cc2ccc(Cl)cc2)CC1)NCCCNC(=O)c1ccc(-c2c3nc(c(-c4ccc(S(=O)(=O)[O-])cc4)c4ccc([nH]4)c(-c4ccc(S(=O)(=O)[O-])cc4)c4nc(c(-c5ccc(S(=O)(=O)[O-])cc5)c5ccc2[nH]5)C=C4)C=C3)cc1
REMARK SMILES IDX 1 1 2 2 27 3 3 5 4 6 5 7 6 8 10 9 7 10 9 11 8 12 11 13 12 14
REMARK SMILES IDX 13 15 14 16 26 17 15 18 25 19 16 20 17 22 18 23 19 24 24 25
REMARK SMILES IDX 20 26 23 27 21 28 22 29 28 30 29 31 30 32 31 33 32 34 33 36
REMARK SMILES IDX 34 37 35 38 93 39 36 40 92 41 37 42 38 43 39 44 86 45 40 46
REMARK SMILES IDX 91 47 85 48 87 49 41 50 90 51 84 52 83 53 42 55 72 56 53 57
REMARK SMILES IDX 71 58 54 59 57 60 70 61 88 62 55 63 56 64 69 66 89 67 58 68
REMARK SMILES IDX 43 69 44 70 52 71 45 72 51 73 46 74 47 75 48 76 49 77 50 78
REMARK SMILES IDX 73 79 74 80 82 81 75 82 81 83 76 84 77 85 78 86 79 87 80 88
REMARK SMILES IDX 59 89 60 90 68 91 61 92 67 93 62 94 63 95 64 96 65 97 66 98
REMARK H PARENT 27 4 16 21 31 35 87 54 57 65
REMARK Flexibility Score: inf
ROOT
ATOM      1  O   UNL A   1      36.160  34.771  33.552  1.00  0.00    -0.271 OA
ATOM      2  C   UNL A   1      36.962  34.291  32.754  1.00  0.00     0.257 C 
ATOM      3  N   UNL A   1      36.573  33.597  31.616  1.00  0.00    -0.353 N 
ATOM      4  H   UNL A   1      37.167  33.569  30.831  1.00  0.00     0.163 HD
ENDROOT
BRANCH   2   5
ATOM      5  C   UNL A   1      38.487  34.442  32.971  1.00  0.00     0.329 C 
BRANCH   5   6
ATOM      6  O   UNL A   1      39.128  33.437  33.760  1.00  0.00    -0.483 OA
BRANCH   6   7
ATOM      7  C   UNL A   1      38.726  33.364  35.076  1.00  0.00     0.128 A 
ATOM      8  C   UNL A   1      38.991  34.440  35.925  1.00  0.00     0.047 A 
ATOM      9  C   UNL A   1      38.278  32.157  35.637  1.00  0.00     0.037 A 
ATOM     10  C   UNL A   1      38.806  34.309  37.309  1.00  0.00     0.004 A 
ATOM     11  C   UNL A   1      38.161  32.009  37.019  1.00  0.00     0.013 A 
ATOM     12  C   UNL A   1      38.406  33.090  37.857  1.00  0.00     0.001 A 
BRANCH   9  13
ATOM     13  C   UNL A   1      37.980  31.064  34.718  1.00  0.00     0.145 C 
ATOM     14  N   UNL A   1      38.648  30.025  34.324  1.00  0.00    -0.185 NA
BRANCH  14  15
ATOM     15  N   UNL A   1      39.962  29.951  34.549  1.00  0.00    -0.286 NA
ATOM     16  C   UNL A   1      40.547  28.723  33.998  1.00  0.00     0.200 C 
ATOM     17  C   UNL A   1      40.579  30.194  35.866  1.00  0.00     0.200 C 
ATOM     18  C   UNL A   1      42.030  28.958  33.707  1.00  0.00     0.286 C 
ATOM     19  C   UNL A   1      42.105  30.436  35.659  1.00  0.00     0.286 C 
ATOM     20  N   UNL A   1      42.838  29.453  34.833  1.00  0.00    -0.328 N 
ATOM     21  H   UNL A   1      43.606  29.984  34.424  1.00  0.00     0.348 HD
BRANCH  20  22
ATOM     22  C   UNL A   1      43.553  28.408  35.569  1.00  0.00     0.299 C 
BRANCH  22  23
ATOM     23  C   UNL A   1      43.461  27.014  34.997  1.00  0.00     0.006 A 
ATOM     24  C   UNL A   1      44.290  26.642  33.926  1.00  0.00     0.011 A 
ATOM     25  C   UNL A   1      42.627  26.050  35.578  1.00  0.00     0.011 A 
ATOM     26  C   UNL A   1      44.354  25.315  33.510  1.00  0.00     0.021 A 
ATOM     27  C   UNL A   1      42.698  24.717  35.168  1.00  0.00     0.021 A 
ATOM     28  C   UNL A   1      43.575  24.353  34.148  1.00  0.00     0.041 A 
ATOM     29  Cl  UNL A   1      43.715  22.703  33.686  1.00  0.00    -0.084 Cl
ENDBRANCH  22  23
ENDBRANCH  20  22
ENDBRANCH  14  15
ENDBRANCH   9  13
ENDBRANCH   6   7
ENDBRANCH   5   6
ENDBRANCH   2   5
BRANCH   3  30
ATOM     30  C   UNL A   1      35.284  32.906  31.580  1.00  0.00     0.117 C 
BRANCH  30  31
ATOM     31  C   UNL A   1      34.353  33.278  30.441  1.00  0.00     0.042 C 
BRANCH  31  32
ATOM     32  C   UNL A   1      34.826  32.878  29.050  1.00  0.00     0.118 C 
BRANCH  32  33
ATOM     33  N   UNL A   1      34.045  31.827  28.406  1.00  0.00    -0.352 N 
ATOM     34  C   UNL A   1      34.422  30.549  28.049  1.00  0.00     0.251 C 
ATOM     35  H   UNL A   1      33.113  32.064  28.197  1.00  0.00     0.163 HD
ATOM     36  O   UNL A   1      33.620  29.819  27.464  1.00  0.00    -0.269 OA
BRANCH  34  37
ATOM     37  C   UNL A   1      35.797  30.060  28.319  1.00  0.00     0.039 A 
ATOM     38  C   UNL A   1      36.765  30.164  27.315  1.00  0.00     0.014 A 
ATOM     39  C   UNL A   1      36.147  29.518  29.558  1.00  0.00     0.014 A 
ATOM     40  C   UNL A   1      38.090  29.794  27.581  1.00  0.00     0.010 A 
ATOM     41  C   UNL A   1      37.482  29.260  29.855  1.00  0.00     0.010 A 
ATOM     42  C   UNL A   1      38.469  29.374  28.867  1.00  0.00    -0.014 A 
BRANCH  42  43
ATOM     43  C   UNL A   1      39.880  29.022  29.181  1.00  0.00     0.031 A 
ATOM     44  C   UNL A   1      40.773  30.019  29.880  1.00  0.00     0.074 A 
ATOM     45  C   UNL A   1      40.377  27.824  28.809  1.00  0.00     0.049 A 
ATOM     46  N   UNL A   1      42.024  29.893  30.244  1.00  0.00    -0.248 NA
ATOM     47  C   UNL A   1      40.194  31.338  30.185  1.00  0.00     0.031 C 
ATOM     48  C   UNL A   1      39.642  26.790  28.075  1.00  0.00     0.029 A 
ATOM     49  N   UNL A   1      41.619  27.269  29.002  1.00  0.00    -0.354 N 
ATOM     50  C   UNL A   1      42.382  31.116  30.803  1.00  0.00     0.074 A 
ATOM     51  C   UNL A   1      41.239  31.991  30.668  1.00  0.00     0.031 C 
ATOM     52  C   UNL A   1      40.430  25.714  27.922  1.00  0.00     0.029 A 
ATOM     53  C   UNL A   1      41.736  25.990  28.510  1.00  0.00     0.049 A 
ATOM     54  H   UNL A   1      42.356  27.743  29.450  1.00  0.00     0.167 HD
ATOM     55  C   UNL A   1      43.542  31.474  31.403  1.00  0.00     0.031 A 
ATOM     56  C   UNL A   1      42.773  25.130  28.537  1.00  0.00     0.031 A 
ATOM     57  C   UNL A   1      44.674  30.599  31.550  1.00  0.00     0.049 A 
ATOM     58  C   UNL A   1      44.049  25.545  29.221  1.00  0.00     0.074 A 
ATOM     59  C   UNL A   1      45.877  30.848  32.189  1.00  0.00     0.029 A 
ATOM     60  N   UNL A   1      44.745  29.307  31.053  1.00  0.00    -0.354 N 
ATOM     61  N   UNL A   1      44.342  26.682  29.808  1.00  0.00    -0.248 NA
ATOM     62  C   UNL A   1      45.127  24.548  29.270  1.00  0.00     0.031 C 
ATOM     63  C   UNL A   1      46.695  29.724  32.031  1.00  0.00     0.029 A 
ATOM     64  C   UNL A   1      45.977  28.751  31.355  1.00  0.00     0.049 A 
ATOM     65  H   UNL A   1      44.026  28.852  30.557  1.00  0.00     0.167 HD
ATOM     66  C   UNL A   1      45.622  26.522  30.328  1.00  0.00     0.074 A 
ATOM     67  C   UNL A   1      46.039  25.174  30.000  1.00  0.00     0.031 C 
ATOM     68  C   UNL A   1      46.381  27.408  31.020  1.00  0.00     0.031 A 
BRANCH  55  69
ATOM     69  C   UNL A   1      43.639  32.878  31.948  1.00  0.00    -0.014 A 
ATOM     70  C   UNL A   1      44.182  33.923  31.177  1.00  0.00     0.010 A 
ATOM     71  C   UNL A   1      43.152  33.164  33.236  1.00  0.00     0.010 A 
ATOM     72  C   UNL A   1      44.281  35.215  31.701  1.00  0.00     0.020 A 
ATOM     73  C   UNL A   1      43.217  34.461  33.752  1.00  0.00     0.020 A 
ATOM     74  C   UNL A   1      43.799  35.475  32.987  1.00  0.00     0.054 A 
BRANCH  74  75
ATOM     75  S   UNL A   1      43.919  37.166  33.632  1.00  0.00     0.124 S 
ATOM     76  O   UNL A   1      45.226  37.148  34.281  1.00  0.00    -0.237 OA
ATOM     77  O   UNL A   1      43.830  37.978  32.421  1.00  0.00    -0.237 OA
ATOM     78  O   UNL A   1      42.777  37.274  34.537  1.00  0.00    -0.744 OA
ENDBRANCH  74  75
ENDBRANCH  55  69
BRANCH  56  79
ATOM     79  C   UNL A   1      42.639  23.775  27.931  1.00  0.00    -0.014 A 
ATOM     80  C   UNL A   1      42.985  23.552  26.586  1.00  0.00     0.010 A 
ATOM     81  C   UNL A   1      42.166  22.696  28.701  1.00  0.00     0.010 A 
ATOM     82  C   UNL A   1      42.835  22.285  26.014  1.00  0.00     0.020 A 
ATOM     83  C   UNL A   1      42.044  21.420  28.141  1.00  0.00     0.020 A 
ATOM     84  C   UNL A   1      42.367  21.226  26.796  1.00  0.00     0.054 A 
BRANCH  84  85
ATOM     85  S   UNL A   1      42.221  19.581  26.045  1.00  0.00     0.124 S 
ATOM     86  O   UNL A   1      40.793  19.504  25.755  1.00  0.00    -0.237 OA
ATOM     87  O   UNL A   1      43.099  19.687  24.882  1.00  0.00    -0.237 OA
ATOM     88  O   UNL A   1      42.696  18.682  27.095  1.00  0.00    -0.744 OA
ENDBRANCH  84  85
ENDBRANCH  56  79
BRANCH  68  89
ATOM     89  C   UNL A   1      47.719  26.928  31.521  1.00  0.00    -0.014 A 
ATOM     90  C   UNL A   1      48.884  27.040  30.742  1.00  0.00     0.010 A 
ATOM     91  C   UNL A   1      47.810  26.369  32.809  1.00  0.00     0.010 A 
ATOM     92  C   UNL A   1      50.102  26.545  31.217  1.00  0.00     0.020 A 
ATOM     93  C   UNL A   1      49.031  25.906  33.303  1.00  0.00     0.020 A 
ATOM     94  C   UNL A   1      50.166  25.974  32.492  1.00  0.00     0.054 A 
BRANCH  94  95
ATOM     95  S   UNL A   1      51.756  25.337  33.087  1.00  0.00     0.124 S 
ATOM     96  O   UNL A   1      52.093  24.357  32.059  1.00  0.00    -0.237 OA
ATOM     97  O   UNL A   1      52.592  26.535  33.113  1.00  0.00    -0.237 OA
ATOM     98  O   UNL A   1      51.436  24.779  34.399  1.00  0.00    -0.744 OA
ENDBRANCH  94  95
ENDBRANCH  68  89
ENDBRANCH  42  43
ENDBRANCH  34  37
ENDBRANCH  32  33
ENDBRANCH  31  32
ENDBRANCH  30  31
ENDBRANCH   3  30
TORSDOF 19
ENDMDL
