MODEL 1
REMARK VINA RESULT:     -10.0      0.000      0.000
REMARK SMILES CN(C)C(=O)CC[NH2+]Cc1cc(C(=O)NCCCNC(=O)c2ccc(-c3c4nc(c(-c5ccc(S(=O)(=O)[O-])cc5)c5ccc([nH]5)c(-c5ccc(S(=O)(=O)[O-])cc5)c5nc(c(-c6ccc(S(=O)(=O)[O-])cc6)c6ccc3[nH]6)C=C5)C=C4)cc2)cs1
REMARK SMILES IDX 16 1 15 2 13 3 14 4 12 6 10 7 11 8 83 9 82 10 9 11 8 12 7 15
REMARK SMILES IDX 6 16 4 17 1 18 2 19 3 20 5 21 17 22 18 23 19 24 20 25 21 27
REMARK SMILES IDX 22 28 23 29 81 30 24 31 80 32 25 33 26 34 27 35 74 36 28 37
REMARK SMILES IDX 79 38 73 39 75 40 29 41 78 42 72 43 71 44 30 46 60 47 41 48
REMARK SMILES IDX 59 49 42 50 45 51 58 52 76 53 43 54 44 55 57 57 77 58 46 59
REMARK SMILES IDX 31 60 32 61 40 62 33 63 39 64 34 65 35 66 36 67 37 68 38 69
REMARK SMILES IDX 61 70 62 71 70 72 63 73 69 74 64 75 65 76 66 77 67 78 68 79
REMARK SMILES IDX 47 80 48 81 56 82 49 83 55 84 50 85 51 86 52 87 53 88 54 89
REMARK H PARENT 15 5 8 13 8 14 19 26 75 45 45 56
REMARK Flexibility Score: inf
ROOT
ATOM      1  C   UNL A   1      32.598  27.736  24.695  1.00  0.00     0.118 C 
ENDROOT
BRANCH   1   2
ATOM      2  N   UNL A   1      31.546  27.157  25.518  1.00  0.00    -0.352 N 
ATOM      3  C   UNL A   1      31.242  25.850  25.817  1.00  0.00     0.252 C 
ATOM      4  O   UNL A   1      30.232  25.628  26.492  1.00  0.00    -0.269 OA
ATOM      5  H   UNL A   1      30.946  27.818  25.933  1.00  0.00     0.163 HD
BRANCH   3   6
ATOM      6  C   UNL A   1      32.060  24.765  25.286  1.00  0.00     0.051 A 
ATOM      7  C   UNL A   1      32.570  22.821  24.112  1.00  0.00     0.059 A 
ATOM      8  C   UNL A   1      31.873  24.011  24.083  1.00  0.00     0.035 A 
ATOM      9  S   UNL A   1      33.827  22.879  25.269  1.00  0.00    -0.142 S 
ATOM     10  C   UNL A   1      33.213  24.337  25.924  1.00  0.00     0.079 A 
BRANCH   7  11
ATOM     11  C   UNL A   1      32.286  21.585  23.317  1.00  0.00     0.308 C 
BRANCH  11  12
ATOM     12  N   UNL A   1      32.408  20.372  24.138  1.00  0.00    -0.341 N 
ATOM     13  H   UNL A   1      33.304  20.403  24.624  1.00  0.00     0.346 HD
ATOM     14  H   UNL A   1      31.613  20.369  24.777  1.00  0.00     0.346 HD
BRANCH  12  15
ATOM     15  C   UNL A   1      32.340  19.117  23.373  1.00  0.00     0.270 C 
BRANCH  15  16
ATOM     16  C   UNL A   1      32.352  17.878  24.273  1.00  0.00     0.161 C 
BRANCH  16  17
ATOM     17  C   UNL A   1      33.770  17.492  24.652  1.00  0.00     0.227 C 
ATOM     18  C   UNL A   1      35.400  15.797  25.304  1.00  0.00     0.146 C 
ATOM     19  N   UNL A   1      34.019  16.200  25.099  1.00  0.00    -0.349 N 
ATOM     20  C   UNL A   1      33.011  15.209  25.454  1.00  0.00     0.146 C 
ATOM     21  O   UNL A   1      34.678  18.311  24.483  1.00  0.00    -0.275 OA
ENDBRANCH  16  17
ENDBRANCH  15  16
ENDBRANCH  12  15
ENDBRANCH  11  12
ENDBRANCH   7  11
ENDBRANCH   3   6
ENDBRANCH   1   2
BRANCH   1  22
ATOM     22  C   UNL A   1      33.859  28.105  25.460  1.00  0.00     0.042 C 
BRANCH  22  23
ATOM     23  C   UNL A   1      33.665  28.278  26.958  1.00  0.00     0.118 C 
BRANCH  23  24
ATOM     24  N   UNL A   1      33.548  29.675  27.354  1.00  0.00    -0.352 N 
ATOM     25  C   UNL A   1      34.416  30.497  28.029  1.00  0.00     0.251 C 
ATOM     26  H   UNL A   1      32.700  30.104  27.094  1.00  0.00     0.163 HD
ATOM     27  O   UNL A   1      34.015  31.592  28.417  1.00  0.00    -0.269 OA
BRANCH  25  28
ATOM     28  C   UNL A   1      35.811  30.081  28.308  1.00  0.00     0.039 A 
ATOM     29  C   UNL A   1      36.744  30.109  27.265  1.00  0.00     0.014 A 
ATOM     30  C   UNL A   1      36.200  29.622  29.568  1.00  0.00     0.014 A 
ATOM     31  C   UNL A   1      38.069  29.733  27.504  1.00  0.00     0.010 A 
ATOM     32  C   UNL A   1      37.539  29.347  29.830  1.00  0.00     0.010 A 
ATOM     33  C   UNL A   1      38.486  29.381  28.797  1.00  0.00    -0.014 A 
BRANCH  33  34
ATOM     34  C   UNL A   1      39.898  29.020  29.084  1.00  0.00     0.031 A 
ATOM     35  C   UNL A   1      40.827  30.029  29.710  1.00  0.00     0.074 A 
ATOM     36  C   UNL A   1      40.360  27.803  28.732  1.00  0.00     0.049 A 
ATOM     37  N   UNL A   1      42.098  29.912  30.001  1.00  0.00    -0.248 NA
ATOM     38  C   UNL A   1      40.264  31.353  30.025  1.00  0.00     0.031 C 
ATOM     39  C   UNL A   1      39.577  26.757  28.072  1.00  0.00     0.029 A 
ATOM     40  N   UNL A   1      41.604  27.241  28.879  1.00  0.00    -0.354 N 
ATOM     41  C   UNL A   1      42.486  31.146  30.510  1.00  0.00     0.074 A 
ATOM     42  C   UNL A   1      41.333  32.016  30.437  1.00  0.00     0.031 C 
ATOM     43  C   UNL A   1      40.345  25.669  27.905  1.00  0.00     0.029 A 
ATOM     44  C   UNL A   1      41.687  25.952  28.407  1.00  0.00     0.049 A 
ATOM     45  H   UNL A   1      42.365  27.716  29.283  1.00  0.00     0.167 HD
ATOM     46  C   UNL A   1      43.687  31.519  31.015  1.00  0.00     0.031 A 
ATOM     47  C   UNL A   1      42.723  25.093  28.381  1.00  0.00     0.031 A 
ATOM     48  C   UNL A   1      44.828  30.646  31.103  1.00  0.00     0.049 A 
ATOM     49  C   UNL A   1      44.042  25.523  28.964  1.00  0.00     0.074 A 
ATOM     50  C   UNL A   1      46.073  30.907  31.648  1.00  0.00     0.029 A 
ATOM     51  N   UNL A   1      44.861  29.340  30.635  1.00  0.00    -0.354 N 
ATOM     52  N   UNL A   1      44.370  26.675  29.498  1.00  0.00    -0.248 NA
ATOM     53  C   UNL A   1      45.123  24.529  28.957  1.00  0.00     0.031 C 
ATOM     54  C   UNL A   1      46.874  29.775  31.466  1.00  0.00     0.029 A 
ATOM     55  C   UNL A   1      46.110  28.787  30.865  1.00  0.00     0.049 A 
ATOM     56  H   UNL A   1      44.109  28.875  30.203  1.00  0.00     0.167 HD
ATOM     57  C   UNL A   1      45.688  26.533  29.922  1.00  0.00     0.074 A 
ATOM     58  C   UNL A   1      46.087  25.178  29.594  1.00  0.00     0.031 C 
ATOM     59  C   UNL A   1      46.492  27.439  30.531  1.00  0.00     0.031 A 
BRANCH  46  60
ATOM     60  C   UNL A   1      43.825  32.935  31.514  1.00  0.00    -0.014 A 
ATOM     61  C   UNL A   1      43.728  33.236  32.885  1.00  0.00     0.010 A 
ATOM     62  C   UNL A   1      44.087  33.976  30.604  1.00  0.00     0.010 A 
ATOM     63  C   UNL A   1      43.846  34.555  33.332  1.00  0.00     0.020 A 
ATOM     64  C   UNL A   1      44.237  35.293  31.051  1.00  0.00     0.020 A 
ATOM     65  C   UNL A   1      44.097  35.576  32.410  1.00  0.00     0.054 A 
BRANCH  65  66
ATOM     66  S   UNL A   1      44.267  37.275  33.021  1.00  0.00     0.124 S 
ATOM     67  O   UNL A   1      43.945  38.057  31.830  1.00  0.00    -0.237 OA
ATOM     68  O   UNL A   1      43.276  37.330  34.094  1.00  0.00    -0.237 OA
ATOM     69  O   UNL A   1      45.658  37.351  33.458  1.00  0.00    -0.744 OA
ENDBRANCH  65  66
ENDBRANCH  46  60
BRANCH  47  70
ATOM     70  C   UNL A   1      42.543  23.727  27.814  1.00  0.00    -0.014 A 
ATOM     71  C   UNL A   1      42.035  22.685  28.610  1.00  0.00     0.010 A 
ATOM     72  C   UNL A   1      42.862  23.465  26.470  1.00  0.00     0.010 A 
ATOM     73  C   UNL A   1      41.870  21.402  28.079  1.00  0.00     0.020 A 
ATOM     74  C   UNL A   1      42.671  22.191  25.926  1.00  0.00     0.020 A 
ATOM     75  C   UNL A   1      42.187  21.164  26.739  1.00  0.00     0.054 A 
BRANCH  75  76
ATOM     76  S   UNL A   1      41.915  19.505  26.057  1.00  0.00     0.124 S 
ATOM     77  O   UNL A   1      42.792  19.508  24.890  1.00  0.00    -0.237 OA
ATOM     78  O   UNL A   1      42.329  18.639  27.158  1.00  0.00    -0.237 OA
ATOM     79  O   UNL A   1      40.483  19.486  25.765  1.00  0.00    -0.744 OA
ENDBRANCH  75  76
ENDBRANCH  47  70
BRANCH  59  80
ATOM     80  C   UNL A   1      47.870  26.979  30.928  1.00  0.00    -0.014 A 
ATOM     81  C   UNL A   1      48.107  26.343  32.160  1.00  0.00     0.010 A 
ATOM     82  C   UNL A   1      48.941  27.161  30.034  1.00  0.00     0.010 A 
ATOM     83  C   UNL A   1      49.399  25.940  32.509  1.00  0.00     0.020 A 
ATOM     84  C   UNL A   1      50.228  26.733  30.365  1.00  0.00     0.020 A 
ATOM     85  C   UNL A   1      50.452  26.144  31.611  1.00  0.00     0.054 A 
BRANCH  85  86
ATOM     86  S   UNL A   1      52.117  25.599  32.079  1.00  0.00     0.124 S 
ATOM     87  O   UNL A   1      51.923  24.166  32.278  1.00  0.00    -0.237 OA
ATOM     88  O   UNL A   1      52.916  25.970  30.914  1.00  0.00    -0.237 OA
ATOM     89  O   UNL A   1      52.403  26.364  33.292  1.00  0.00    -0.744 OA
ENDBRANCH  85  86
ENDBRANCH  59  80
ENDBRANCH  33  34
ENDBRANCH  25  28
ENDBRANCH  23  24
ENDBRANCH  22  23
ENDBRANCH   1  22
TORSDOF 18
ENDMDL
MODEL 2
REMARK VINA RESULT:      -9.6      1.693      2.353
REMARK SMILES CN(C)C(=O)CC[NH2+]Cc1cc(C(=O)NCCCNC(=O)c2ccc(-c3c4nc(c(-c5ccc(S(=O)(=O)[O-])cc5)c5ccc([nH]5)c(-c5ccc(S(=O)(=O)[O-])cc5)c5nc(c(-c6ccc(S(=O)(=O)[O-])cc6)c6ccc3[nH]6)C=C5)C=C4)cc2)cs1
REMARK SMILES IDX 16 1 15 2 13 3 14 4 12 6 10 7 11 8 83 9 82 10 9 11 8 12 7 15
REMARK SMILES IDX 6 16 4 17 1 18 2 19 3 20 5 21 17 22 18 23 19 24 20 25 21 27
REMARK SMILES IDX 22 28 23 29 81 30 24 31 80 32 25 33 26 34 27 35 74 36 28 37
REMARK SMILES IDX 79 38 73 39 75 40 29 41 78 42 72 43 71 44 30 46 60 47 41 48
REMARK SMILES IDX 59 49 42 50 45 51 58 52 76 53 43 54 44 55 57 57 77 58 46 59
REMARK SMILES IDX 31 60 32 61 40 62 33 63 39 64 34 65 35 66 36 67 37 68 38 69
REMARK SMILES IDX 61 70 62 71 70 72 63 73 69 74 64 75 65 76 66 77 67 78 68 79
REMARK SMILES IDX 47 80 48 81 56 82 49 83 55 84 50 85 51 86 52 87 53 88 54 89
REMARK H PARENT 15 5 8 13 8 14 19 26 75 45 45 56
REMARK Flexibility Score: inf
ROOT
ATOM      1  C   UNL A   1      33.306  28.514  23.971  1.00  0.00     0.118 C 
ENDROOT
BRANCH   1   2
ATOM      2  N   UNL A   1      32.074  28.716  23.221  1.00  0.00    -0.352 N 
ATOM      3  C   UNL A   1      31.224  27.823  22.614  1.00  0.00     0.252 C 
ATOM      4  O   UNL A   1      30.272  28.273  21.968  1.00  0.00    -0.269 OA
ATOM      5  H   UNL A   1      31.803  29.659  23.132  1.00  0.00     0.163 HD
BRANCH   3   6
ATOM      6  C   UNL A   1      31.491  26.390  22.682  1.00  0.00     0.051 A 
ATOM      7  C   UNL A   1      31.616  24.259  23.610  1.00  0.00     0.059 A 
ATOM      8  C   UNL A   1      30.848  25.399  23.493  1.00  0.00     0.035 A 
ATOM      9  S   UNL A   1      32.770  24.170  22.353  1.00  0.00    -0.142 S 
ATOM     10  C   UNL A   1      32.448  25.784  21.884  1.00  0.00     0.079 A 
BRANCH   7  11
ATOM     11  C   UNL A   1      31.549  23.230  24.695  1.00  0.00     0.308 C 
BRANCH  11  12
ATOM     12  N   UNL A   1      32.879  22.694  25.018  1.00  0.00    -0.341 N 
ATOM     13  H   UNL A   1      33.580  23.302  24.592  1.00  0.00     0.346 HD
ATOM     14  H   UNL A   1      32.946  22.668  26.035  1.00  0.00     0.346 HD
BRANCH  12  15
ATOM     15  C   UNL A   1      33.107  21.321  24.542  1.00  0.00     0.270 C 
BRANCH  15  16
ATOM     16  C   UNL A   1      34.593  20.951  24.505  1.00  0.00     0.161 C 
BRANCH  16  17
ATOM     17  C   UNL A   1      35.402  21.849  25.423  1.00  0.00     0.227 C 
ATOM     18  C   UNL A   1      36.865  23.775  25.752  1.00  0.00     0.146 C 
ATOM     19  N   UNL A   1      36.222  22.821  24.863  1.00  0.00    -0.349 N 
ATOM     20  C   UNL A   1      36.562  22.942  23.451  1.00  0.00     0.146 C 
ATOM     21  O   UNL A   1      35.255  21.743  26.644  1.00  0.00    -0.275 OA
ENDBRANCH  16  17
ENDBRANCH  15  16
ENDBRANCH  12  15
ENDBRANCH  11  12
ENDBRANCH   7  11
ENDBRANCH   3   6
ENDBRANCH   1   2
BRANCH   1  22
ATOM     22  C   UNL A   1      33.103  27.931  25.360  1.00  0.00     0.042 C 
BRANCH  22  23
ATOM     23  C   UNL A   1      34.152  28.340  26.381  1.00  0.00     0.118 C 
BRANCH  23  24
ATOM     24  N   UNL A   1      33.861  29.623  27.007  1.00  0.00    -0.352 N 
ATOM     25  C   UNL A   1      34.591  30.382  27.890  1.00  0.00     0.251 C 
ATOM     26  H   UNL A   1      32.993  30.014  26.755  1.00  0.00     0.163 HD
ATOM     27  O   UNL A   1      34.051  31.345  28.429  1.00  0.00    -0.269 OA
BRANCH  25  28
ATOM     28  C   UNL A   1      35.999  30.050  28.209  1.00  0.00     0.039 A 
ATOM     29  C   UNL A   1      36.308  29.584  29.492  1.00  0.00     0.014 A 
ATOM     30  C   UNL A   1      37.023  30.235  27.278  1.00  0.00     0.014 A 
ATOM     31  C   UNL A   1      37.627  29.254  29.815  1.00  0.00     0.010 A 
ATOM     32  C   UNL A   1      38.316  29.809  27.567  1.00  0.00     0.010 A 
ATOM     33  C   UNL A   1      38.638  29.332  28.844  1.00  0.00    -0.014 A 
BRANCH  33  34
ATOM     34  C   UNL A   1      40.039  28.944  29.152  1.00  0.00     0.031 A 
ATOM     35  C   UNL A   1      40.971  29.928  29.810  1.00  0.00     0.074 A 
ATOM     36  C   UNL A   1      40.487  27.724  28.793  1.00  0.00     0.049 A 
ATOM     37  N   UNL A   1      42.235  29.787  30.123  1.00  0.00    -0.248 NA
ATOM     38  C   UNL A   1      40.424  31.257  30.131  1.00  0.00     0.031 C 
ATOM     39  C   UNL A   1      39.699  26.700  28.104  1.00  0.00     0.029 A 
ATOM     40  N   UNL A   1      41.719  27.140  28.955  1.00  0.00    -0.354 N 
ATOM     41  C   UNL A   1      42.634  31.007  30.656  1.00  0.00     0.074 A 
ATOM     42  C   UNL A   1      41.497  31.897  30.573  1.00  0.00     0.031 C 
ATOM     43  C   UNL A   1      40.453  25.602  27.936  1.00  0.00     0.029 A 
ATOM     44  C   UNL A   1      41.789  25.856  28.467  1.00  0.00     0.049 A 
ATOM     45  H   UNL A   1      42.480  27.596  29.380  1.00  0.00     0.167 HD
ATOM     46  C   UNL A   1      43.830  31.353  31.188  1.00  0.00     0.031 A 
ATOM     47  C   UNL A   1      42.812  24.980  28.449  1.00  0.00     0.031 A 
ATOM     48  C   UNL A   1      44.955  30.461  31.285  1.00  0.00     0.049 A 
ATOM     49  C   UNL A   1      44.126  25.380  29.062  1.00  0.00     0.074 A 
ATOM     50  C   UNL A   1      46.194  30.693  31.857  1.00  0.00     0.029 A 
ATOM     51  N   UNL A   1      44.976  29.161  30.800  1.00  0.00    -0.354 N 
ATOM     52  N   UNL A   1      44.463  26.520  29.619  1.00  0.00    -0.248 NA
ATOM     53  C   UNL A   1      45.191  24.368  29.063  1.00  0.00     0.031 C 
ATOM     54  C   UNL A   1      46.980  29.551  31.675  1.00  0.00     0.029 A 
ATOM     55  C   UNL A   1      46.211  28.584  31.046  1.00  0.00     0.049 A 
ATOM     56  H   UNL A   1      44.224  28.714  30.348  1.00  0.00     0.167 HD
ATOM     57  C   UNL A   1      45.769  26.350  30.065  1.00  0.00     0.074 A 
ATOM     58  C   UNL A   1      46.153  24.993  29.726  1.00  0.00     0.031 C 
ATOM     59  C   UNL A   1      46.577  27.234  30.702  1.00  0.00     0.031 A 
BRANCH  46  60
ATOM     60  C   UNL A   1      43.982  32.760  31.709  1.00  0.00    -0.014 A 
ATOM     61  C   UNL A   1      44.419  33.803  30.870  1.00  0.00     0.010 A 
ATOM     62  C   UNL A   1      43.655  33.052  33.045  1.00  0.00     0.010 A 
ATOM     63  C   UNL A   1      44.568  35.100  31.369  1.00  0.00     0.020 A 
ATOM     64  C   UNL A   1      43.772  34.355  33.540  1.00  0.00     0.020 A 
ATOM     65  C   UNL A   1      44.245  35.367  32.703  1.00  0.00     0.054 A 
BRANCH  65  66
ATOM     66  S   UNL A   1      44.427  37.064  33.317  1.00  0.00     0.124 S 
ATOM     67  O   UNL A   1      44.975  37.750  32.149  1.00  0.00    -0.237 OA
ATOM     68  O   UNL A   1      43.056  37.425  33.670  1.00  0.00    -0.237 OA
ATOM     69  O   UNL A   1      45.343  36.929  34.446  1.00  0.00    -0.744 OA
ENDBRANCH  65  66
ENDBRANCH  46  60
BRANCH  47  70
ATOM     70  C   UNL A   1      42.620  23.625  27.860  1.00  0.00    -0.014 A 
ATOM     71  C   UNL A   1      41.967  22.616  28.589  1.00  0.00     0.010 A 
ATOM     72  C   UNL A   1      43.075  23.342  26.560  1.00  0.00     0.010 A 
ATOM     73  C   UNL A   1      41.791  21.343  28.038  1.00  0.00     0.020 A 
ATOM     74  C   UNL A   1      42.875  22.080  25.993  1.00  0.00     0.020 A 
ATOM     75  C   UNL A   1      42.244  21.084  26.742  1.00  0.00     0.054 A 
BRANCH  75  76
ATOM     76  S   UNL A   1      41.958  19.441  26.027  1.00  0.00     0.124 S 
ATOM     77  O   UNL A   1      42.777  19.487  24.820  1.00  0.00    -0.237 OA
ATOM     78  O   UNL A   1      42.434  18.549  27.083  1.00  0.00    -0.237 OA
ATOM     79  O   UNL A   1      40.514  19.412  25.804  1.00  0.00    -0.744 OA
ENDBRANCH  75  76
ENDBRANCH  47  70
BRANCH  59  80
ATOM     80  C   UNL A   1      47.940  26.746  31.118  1.00  0.00    -0.014 A 
ATOM     81  C   UNL A   1      49.059  26.889  30.278  1.00  0.00     0.010 A 
ATOM     82  C   UNL A   1      48.105  26.164  32.387  1.00  0.00     0.010 A 
ATOM     83  C   UNL A   1      50.309  26.413  30.683  1.00  0.00     0.020 A 
ATOM     84  C   UNL A   1      49.358  25.714  32.808  1.00  0.00     0.020 A 
ATOM     85  C   UNL A   1      50.449  25.823  31.944  1.00  0.00     0.054 A 
BRANCH  85  86
ATOM     86  S   UNL A   1      52.084  25.228  32.454  1.00  0.00     0.124 S 
ATOM     87  O   UNL A   1      52.940  25.737  31.386  1.00  0.00    -0.237 OA
ATOM     88  O   UNL A   1      52.263  25.859  33.759  1.00  0.00    -0.237 OA
ATOM     89  O   UNL A   1      51.928  23.775  32.489  1.00  0.00    -0.744 OA
ENDBRANCH  85  86
ENDBRANCH  59  80
ENDBRANCH  33  34
ENDBRANCH  25  28
ENDBRANCH  23  24
ENDBRANCH  22  23
ENDBRANCH   1  22
TORSDOF 18
ENDMDL
MODEL 3
REMARK VINA RESULT:      -9.6      3.007      9.650
REMARK SMILES CN(C)C(=O)CC[NH2+]Cc1cc(C(=O)NCCCNC(=O)c2ccc(-c3c4nc(c(-c5ccc(S(=O)(=O)[O-])cc5)c5ccc([nH]5)c(-c5ccc(S(=O)(=O)[O-])cc5)c5nc(c(-c6ccc(S(=O)(=O)[O-])cc6)c6ccc3[nH]6)C=C5)C=C4)cc2)cs1
REMARK SMILES IDX 16 1 15 2 13 3 14 4 12 6 10 7 11 8 83 9 82 10 9 11 8 12 7 15
REMARK SMILES IDX 6 16 4 17 1 18 2 19 3 20 5 21 17 22 18 23 19 24 20 25 21 27
REMARK SMILES IDX 22 28 23 29 81 30 24 31 80 32 25 33 26 34 27 35 74 36 28 37
REMARK SMILES IDX 79 38 73 39 75 40 29 41 78 42 72 43 71 44 30 46 60 47 41 48
REMARK SMILES IDX 59 49 42 50 45 51 58 52 76 53 43 54 44 55 57 57 77 58 46 59
REMARK SMILES IDX 31 60 32 61 40 62 33 63 39 64 34 65 35 66 36 67 37 68 38 69
REMARK SMILES IDX 61 70 62 71 70 72 63 73 69 74 64 75 65 76 66 77 67 78 68 79
REMARK SMILES IDX 47 80 48 81 56 82 49 83 55 84 50 85 51 86 52 87 53 88 54 89
REMARK H PARENT 15 5 8 13 8 14 19 26 75 45 45 56
REMARK Flexibility Score: inf
ROOT
ATOM      1  C   UNL A   1      35.030  22.906  26.524  1.00  0.00     0.118 C 
ENDROOT
BRANCH   1   2
ATOM      2  N   UNL A   1      33.759  23.214  27.165  1.00  0.00    -0.352 N 
ATOM      3  C   UNL A   1      32.548  23.597  26.642  1.00  0.00     0.252 C 
ATOM      4  O   UNL A   1      31.636  23.873  27.428  1.00  0.00    -0.269 OA
ATOM      5  H   UNL A   1      33.770  23.133  28.146  1.00  0.00     0.163 HD
BRANCH   3   6
ATOM      6  C   UNL A   1      32.380  23.737  25.199  1.00  0.00     0.051 A 
ATOM      7  C   UNL A   1      31.949  24.788  23.167  1.00  0.00     0.059 A 
ATOM      8  C   UNL A   1      32.591  24.895  24.383  1.00  0.00     0.035 A 
ATOM      9  S   UNL A   1      31.596  23.155  22.807  1.00  0.00    -0.142 S 
ATOM     10  C   UNL A   1      32.000  22.672  24.399  1.00  0.00     0.079 A 
BRANCH   7  11
ATOM     11  C   UNL A   1      31.528  25.904  22.263  1.00  0.00     0.308 C 
BRANCH  11  12
ATOM     12  N   UNL A   1      30.955  27.028  23.017  1.00  0.00    -0.341 N 
ATOM     13  H   UNL A   1      30.031  27.231  22.635  1.00  0.00     0.346 HD
ATOM     14  H   UNL A   1      30.923  26.739  23.995  1.00  0.00     0.346 HD
BRANCH  12  15
ATOM     15  C   UNL A   1      31.758  28.260  22.965  1.00  0.00     0.270 C 
BRANCH  15  16
ATOM     16  C   UNL A   1      31.639  29.092  24.245  1.00  0.00     0.161 C 
BRANCH  16  17
ATOM     17  C   UNL A   1      32.950  29.112  25.008  1.00  0.00     0.227 C 
ATOM     18  C   UNL A   1      34.229  29.683  27.007  1.00  0.00     0.146 C 
ATOM     19  N   UNL A   1      33.020  29.806  26.211  1.00  0.00    -0.349 N 
ATOM     20  C   UNL A   1      32.007  30.714  26.732  1.00  0.00     0.146 C 
ATOM     21  O   UNL A   1      33.901  28.451  24.580  1.00  0.00    -0.275 OA
ENDBRANCH  16  17
ENDBRANCH  15  16
ENDBRANCH  12  15
ENDBRANCH  11  12
ENDBRANCH   7  11
ENDBRANCH   3   6
ENDBRANCH   1   2
BRANCH   1  22
ATOM     22  C   UNL A   1      35.808  24.127  26.060  1.00  0.00     0.042 C 
BRANCH  22  23
ATOM     23  C   UNL A   1      36.860  23.845  25.000  1.00  0.00     0.118 C 
BRANCH  23  24
ATOM     24  N   UNL A   1      37.822  22.831  25.413  1.00  0.00    -0.352 N 
ATOM     25  C   UNL A   1      38.992  22.936  26.125  1.00  0.00     0.251 C 
ATOM     26  H   UNL A   1      37.594  21.914  25.136  1.00  0.00     0.163 HD
ATOM     27  O   UNL A   1      39.735  21.959  26.189  1.00  0.00    -0.269 OA
BRANCH  25  28
ATOM     28  C   UNL A   1      39.374  24.200  26.797  1.00  0.00     0.039 A 
ATOM     29  C   UNL A   1      38.957  24.416  28.115  1.00  0.00     0.014 A 
ATOM     30  C   UNL A   1      40.098  25.192  26.133  1.00  0.00     0.014 A 
ATOM     31  C   UNL A   1      39.313  25.595  28.776  1.00  0.00     0.010 A 
ATOM     32  C   UNL A   1      40.540  26.316  26.823  1.00  0.00     0.010 A 
ATOM     33  C   UNL A   1      40.137  26.541  28.146  1.00  0.00    -0.014 A 
BRANCH  33  34
ATOM     34  C   UNL A   1      40.566  27.781  28.844  1.00  0.00     0.031 A 
ATOM     35  C   UNL A   1      41.938  27.867  29.462  1.00  0.00     0.074 A 
ATOM     36  C   UNL A   1      39.702  28.809  28.969  1.00  0.00     0.049 A 
ATOM     37  N   UNL A   1      42.477  28.848  30.141  1.00  0.00    -0.248 NA
ATOM     38  C   UNL A   1      42.810  26.688  29.326  1.00  0.00     0.031 C 
ATOM     39  C   UNL A   1      38.329  28.828  28.461  1.00  0.00     0.029 A 
ATOM     40  N   UNL A   1      39.851  30.036  29.565  1.00  0.00    -0.354 N 
ATOM     41  C   UNL A   1      43.734  28.397  30.528  1.00  0.00     0.074 A 
ATOM     42  C   UNL A   1      43.858  27.035  30.057  1.00  0.00     0.031 C 
ATOM     43  C   UNL A   1      37.775  30.020  28.733  1.00  0.00     0.029 A 
ATOM     44  C   UNL A   1      38.737  30.835  29.470  1.00  0.00     0.049 A 
ATOM     45  H   UNL A   1      40.679  30.318  30.017  1.00  0.00     0.167 HD
ATOM     46  C   UNL A   1      44.709  29.061  31.193  1.00  0.00     0.031 A 
ATOM     47  C   UNL A   1      38.511  32.083  29.923  1.00  0.00     0.031 A 
ATOM     48  C   UNL A   1      44.590  30.422  31.646  1.00  0.00     0.049 A 
ATOM     49  C   UNL A   1      39.615  32.807  30.645  1.00  0.00     0.074 A 
ATOM     50  C   UNL A   1      45.538  31.206  32.280  1.00  0.00     0.029 A 
ATOM     51  N   UNL A   1      43.452  31.203  31.508  1.00  0.00    -0.354 N 
ATOM     52  N   UNL A   1      40.821  32.384  30.944  1.00  0.00    -0.248 NA
ATOM     53  C   UNL A   1      39.334  34.185  31.071  1.00  0.00     0.031 C 
ATOM     54  C   UNL A   1      44.957  32.445  32.569  1.00  0.00     0.029 A 
ATOM     55  C   UNL A   1      43.668  32.455  32.059  1.00  0.00     0.049 A 
ATOM     56  H   UNL A   1      42.613  30.911  31.082  1.00  0.00     0.167 HD
ATOM     57  C   UNL A   1      41.453  33.456  31.565  1.00  0.00     0.074 A 
ATOM     58  C   UNL A   1      40.501  34.549  31.584  1.00  0.00     0.031 C 
ATOM     59  C   UNL A   1      42.709  33.531  32.070  1.00  0.00     0.031 A 
BRANCH  46  60
ATOM     60  C   UNL A   1      45.993  28.321  31.472  1.00  0.00    -0.014 A 
ATOM     61  C   UNL A   1      47.078  28.386  30.578  1.00  0.00     0.010 A 
ATOM     62  C   UNL A   1      46.130  27.576  32.657  1.00  0.00     0.010 A 
ATOM     63  C   UNL A   1      48.259  27.685  30.843  1.00  0.00     0.020 A 
ATOM     64  C   UNL A   1      47.320  26.898  32.941  1.00  0.00     0.020 A 
ATOM     65  C   UNL A   1      48.370  26.943  32.022  1.00  0.00     0.054 A 
BRANCH  65  66
ATOM     66  S   UNL A   1      49.921  26.061  32.349  1.00  0.00     0.124 S 
ATOM     67  O   UNL A   1      49.832  25.818  33.787  1.00  0.00    -0.237 OA
ATOM     68  O   UNL A   1      49.799  24.874  31.505  1.00  0.00    -0.237 OA
ATOM     69  O   UNL A   1      50.954  27.009  31.941  1.00  0.00    -0.744 OA
ENDBRANCH  65  66
ENDBRANCH  46  60
BRANCH  47  70
ATOM     70  C   UNL A   1      37.197  32.739  29.675  1.00  0.00    -0.014 A 
ATOM     71  C   UNL A   1      36.215  32.772  30.681  1.00  0.00     0.010 A 
ATOM     72  C   UNL A   1      36.927  33.349  28.438  1.00  0.00     0.010 A 
ATOM     73  C   UNL A   1      34.980  33.384  30.447  1.00  0.00     0.020 A 
ATOM     74  C   UNL A   1      35.704  33.988  28.209  1.00  0.00     0.020 A 
ATOM     75  C   UNL A   1      34.733  33.990  29.212  1.00  0.00     0.054 A 
BRANCH  75  76
ATOM     76  S   UNL A   1      33.144  34.824  28.949  1.00  0.00     0.124 S 
ATOM     77  O   UNL A   1      32.558  34.794  30.285  1.00  0.00    -0.237 OA
ATOM     78  O   UNL A   1      33.554  36.141  28.466  1.00  0.00    -0.237 OA
ATOM     79  O   UNL A   1      32.478  33.986  27.953  1.00  0.00    -0.744 OA
ENDBRANCH  75  76
ENDBRANCH  47  70
BRANCH  59  80
ATOM     80  C   UNL A   1      43.144  34.855  32.643  1.00  0.00    -0.014 A 
ATOM     81  C   UNL A   1      42.952  35.167  34.001  1.00  0.00     0.010 A 
ATOM     82  C   UNL A   1      43.785  35.788  31.809  1.00  0.00     0.010 A 
ATOM     83  C   UNL A   1      43.351  36.410  34.501  1.00  0.00     0.020 A 
ATOM     84  C   UNL A   1      44.213  37.019  32.311  1.00  0.00     0.020 A 
ATOM     85  C   UNL A   1      43.974  37.330  33.652  1.00  0.00     0.054 A 
BRANCH  85  86
ATOM     86  S   UNL A   1      44.497  38.928  34.327  1.00  0.00     0.124 S 
ATOM     87  O   UNL A   1      44.475  38.673  35.765  1.00  0.00    -0.237 OA
ATOM     88  O   UNL A   1      45.822  39.108  33.740  1.00  0.00    -0.237 OA
ATOM     89  O   UNL A   1      43.478  39.859  33.845  1.00  0.00    -0.744 OA
ENDBRANCH  85  86
ENDBRANCH  59  80
ENDBRANCH  33  34
ENDBRANCH  25  28
ENDBRANCH  23  24
ENDBRANCH  22  23
ENDBRANCH   1  22
TORSDOF 18
ENDMDL
