MODEL 1
REMARK VINA RESULT:     -11.8      0.000      0.000
REMARK SMILES C=CC[C@@]1(C(=O)NCCCNC(=O)c2ccc(-c3c4nc(c(-c5ccc(S(=O)(=O)[O-])cc5)c5ccc([nH]5)c(-c5ccc(S(=O)(=O)[O-])cc5)c5nc(c(-c6ccc(S(=O)(=O)[O-])cc6)c6ccc3[nH]6)C=C5)C=C4)cc2)CCCN(C(=O)c2ccc3c(c2)OCO3)C1
REMARK SMILES IDX 9 1 8 2 7 3 5 4 6 5 4 7 74 8 89 9 75 10 77 11 76 12 3 13
REMARK SMILES IDX 2 14 1 15 78 16 79 17 80 18 81 19 85 20 82 21 84 22 83 23
REMARK SMILES IDX 86 24 88 25 87 26 10 27 11 28 12 29 13 31 14 32 15 33 73 34
REMARK SMILES IDX 16 35 72 36 17 37 18 38 19 39 66 40 20 41 71 42 65 43 67 44
REMARK SMILES IDX 21 45 70 46 64 47 63 48 22 50 52 51 33 52 51 53 34 54 37 55
REMARK SMILES IDX 50 56 68 57 35 58 36 59 49 61 69 62 38 63 23 64 24 65 32 66
REMARK SMILES IDX 25 67 31 68 26 69 27 70 28 71 29 72 30 73 53 74 54 75 62 76
REMARK SMILES IDX 55 77 61 78 56 79 57 80 58 81 59 82 60 83 39 84 40 85 48 86
REMARK SMILES IDX 41 87 47 88 42 89 43 90 44 91 45 92 46 93
REMARK H PARENT 7 6 11 30 67 49 37 60
REMARK Flexibility Score: inf
ROOT
ATOM      1  C   UNL A   1      33.718  28.567  24.524  1.00  0.00     0.042 C 
ENDROOT
BRANCH   1   2
ATOM      2  C   UNL A   1      33.830  27.139  24.074  1.00  0.00     0.117 C 
BRANCH   2   3
ATOM      3  N   UNL A   1      32.809  26.276  24.564  1.00  0.00    -0.355 N 
ATOM      4  C   UNL A   1      32.975  25.036  25.079  1.00  0.00     0.228 C 
ATOM      5  O   UNL A   1      32.100  24.694  25.889  1.00  0.00    -0.274 OA
ATOM      6  H   UNL A   1      31.886  26.616  24.525  1.00  0.00     0.163 HD
BRANCH   4   7
ATOM      7  C   UNL A   1      34.074  24.023  24.631  1.00  0.00     0.070 C 
ATOM      8  C   UNL A   1      34.203  24.240  23.095  1.00  0.00     0.021 C 
ATOM      9  C   UNL A   1      33.923  22.488  24.771  1.00  0.00     0.137 C 
ATOM     10  C   UNL A   1      32.924  23.736  22.387  1.00  0.00     0.023 C 
ATOM     11  N   UNL A   1      32.784  21.895  24.075  1.00  0.00    -0.338 N 
ATOM     12  C   UNL A   1      32.614  22.260  22.670  1.00  0.00     0.120 C 
BRANCH   7  13
ATOM     13  C   UNL A   1      35.384  24.357  25.430  1.00  0.00     0.045 C 
BRANCH  13  14
ATOM     14  C   UNL A   1      36.567  23.435  25.285  1.00  0.00    -0.034 C 
ATOM     15  C   UNL A   1      37.726  23.612  25.937  1.00  0.00     0.004 C 
ENDBRANCH  13  14
ENDBRANCH   7  13
BRANCH  11  16
ATOM     16  C   UNL A   1      32.127  20.844  24.738  1.00  0.00     0.254 C 
ATOM     17  O   UNL A   1      31.279  21.006  25.612  1.00  0.00    -0.269 OA
BRANCH  16  18
ATOM     18  C   UNL A   1      32.447  19.463  24.386  1.00  0.00     0.043 A 
ATOM     19  C   UNL A   1      32.448  19.016  23.046  1.00  0.00     0.018 A 
ATOM     20  C   UNL A   1      32.793  18.633  25.448  1.00  0.00     0.064 A 
ATOM     21  C   UNL A   1      32.924  17.738  22.749  1.00  0.00     0.051 A 
ATOM     22  C   UNL A   1      33.317  17.417  25.112  1.00  0.00     0.166 A 
ATOM     23  C   UNL A   1      33.407  16.991  23.803  1.00  0.00     0.165 A 
ATOM     24  O   UNL A   1      33.910  16.555  25.982  1.00  0.00    -0.454 OA
ATOM     25  O   UNL A   1      34.096  15.818  23.708  1.00  0.00    -0.454 OA
ATOM     26  C   UNL A   1      34.652  15.762  25.040  1.00  0.00     0.468 C 
ENDBRANCH  16  18
ENDBRANCH  11  16
ENDBRANCH   4   7
ENDBRANCH   2   3
ENDBRANCH   1   2
BRANCH   1  27
ATOM     27  C   UNL A   1      34.364  28.724  25.880  1.00  0.00     0.118 C 
BRANCH  27  28
ATOM     28  N   UNL A   1      33.908  29.946  26.560  1.00  0.00    -0.352 N 
ATOM     29  C   UNL A   1      34.365  30.545  27.709  1.00  0.00     0.251 C 
ATOM     30  H   UNL A   1      33.155  30.406  26.124  1.00  0.00     0.163 HD
ATOM     31  O   UNL A   1      33.664  31.345  28.311  1.00  0.00    -0.269 OA
BRANCH  29  32
ATOM     32  C   UNL A   1      35.724  30.219  28.171  1.00  0.00     0.039 A 
ATOM     33  C   UNL A   1      35.937  29.606  29.405  1.00  0.00     0.014 A 
ATOM     34  C   UNL A   1      36.797  30.520  27.334  1.00  0.00     0.014 A 
ATOM     35  C   UNL A   1      37.234  29.237  29.757  1.00  0.00     0.010 A 
ATOM     36  C   UNL A   1      38.036  29.980  27.594  1.00  0.00     0.010 A 
ATOM     37  C   UNL A   1      38.284  29.386  28.834  1.00  0.00    -0.014 A 
BRANCH  37  38
ATOM     38  C   UNL A   1      39.678  29.003  29.138  1.00  0.00     0.031 A 
ATOM     39  C   UNL A   1      40.599  30.027  29.755  1.00  0.00     0.074 A 
ATOM     40  C   UNL A   1      40.130  27.791  28.769  1.00  0.00     0.049 A 
ATOM     41  N   UNL A   1      41.882  29.944  29.991  1.00  0.00    -0.248 NA
ATOM     42  C   UNL A   1      40.015  31.337  30.098  1.00  0.00     0.031 C 
ATOM     43  C   UNL A   1      39.340  26.756  28.096  1.00  0.00     0.029 A 
ATOM     44  N   UNL A   1      41.371  27.228  28.903  1.00  0.00    -0.354 N 
ATOM     45  C   UNL A   1      42.252  31.193  30.476  1.00  0.00     0.074 A 
ATOM     46  C   UNL A   1      41.089  32.043  30.412  1.00  0.00     0.031 C 
ATOM     47  C   UNL A   1      40.103  25.667  27.920  1.00  0.00     0.029 A 
ATOM     48  C   UNL A   1      41.445  25.945  28.416  1.00  0.00     0.049 A 
ATOM     49  H   UNL A   1      42.135  27.696  29.309  1.00  0.00     0.167 HD
ATOM     50  C   UNL A   1      43.447  31.587  30.973  1.00  0.00     0.031 A 
ATOM     51  C   UNL A   1      42.486  25.093  28.375  1.00  0.00     0.031 A 
ATOM     52  C   UNL A   1      44.586  30.718  31.059  1.00  0.00     0.049 A 
ATOM     53  C   UNL A   1      43.801  25.541  28.949  1.00  0.00     0.074 A 
ATOM     54  C   UNL A   1      45.831  30.978  31.601  1.00  0.00     0.029 A 
ATOM     55  N   UNL A   1      44.612  29.411  30.591  1.00  0.00    -0.354 N 
ATOM     56  N   UNL A   1      44.117  26.702  29.476  1.00  0.00    -0.248 NA
ATOM     57  C   UNL A   1      44.894  24.562  28.942  1.00  0.00     0.031 C 
ATOM     58  C   UNL A   1      46.628  29.845  31.410  1.00  0.00     0.029 A 
ATOM     59  C   UNL A   1      45.860  28.857  30.811  1.00  0.00     0.049 A 
ATOM     60  H   UNL A   1      43.855  28.947  30.165  1.00  0.00     0.167 HD
ATOM     61  C   UNL A   1      45.441  26.585  29.884  1.00  0.00     0.074 A 
ATOM     62  C   UNL A   1      45.856  25.233  29.560  1.00  0.00     0.031 C 
ATOM     63  C   UNL A   1      46.242  27.508  30.473  1.00  0.00     0.031 A 
BRANCH  50  64
ATOM     64  C   UNL A   1      43.561  33.008  31.464  1.00  0.00    -0.014 A 
ATOM     65  C   UNL A   1      43.920  34.055  30.592  1.00  0.00     0.010 A 
ATOM     66  C   UNL A   1      43.309  33.305  32.814  1.00  0.00     0.010 A 
ATOM     67  C   UNL A   1      44.079  35.357  31.071  1.00  0.00     0.020 A 
ATOM     68  C   UNL A   1      43.430  34.615  33.291  1.00  0.00     0.020 A 
ATOM     69  C   UNL A   1      43.835  35.628  32.420  1.00  0.00     0.054 A 
BRANCH  69  70
ATOM     70  S   UNL A   1      44.036  37.330  33.012  1.00  0.00     0.124 S 
ATOM     71  O   UNL A   1      42.865  37.490  33.870  1.00  0.00    -0.237 OA
ATOM     72  O   UNL A   1      45.319  37.277  33.706  1.00  0.00    -0.237 OA
ATOM     73  O   UNL A   1      44.025  38.127  31.788  1.00  0.00    -0.744 OA
ENDBRANCH  69  70
ENDBRANCH  50  64
BRANCH  51  74
ATOM     74  C   UNL A   1      42.305  23.734  27.797  1.00  0.00    -0.014 A 
ATOM     75  C   UNL A   1      42.538  23.499  26.431  1.00  0.00     0.010 A 
ATOM     76  C   UNL A   1      41.945  22.652  28.623  1.00  0.00     0.010 A 
ATOM     77  C   UNL A   1      42.400  22.214  25.898  1.00  0.00     0.020 A 
ATOM     78  C   UNL A   1      41.835  21.361  28.101  1.00  0.00     0.020 A 
ATOM     79  C   UNL A   1      42.055  21.152  26.739  1.00  0.00     0.054 A 
BRANCH  79  80
ATOM     80  S   UNL A   1      41.940  19.483  26.035  1.00  0.00     0.124 S 
ATOM     81  O   UNL A   1      42.812  19.583  24.869  1.00  0.00    -0.237 OA
ATOM     82  O   UNL A   1      42.436  18.647  27.126  1.00  0.00    -0.237 OA
ATOM     83  O   UNL A   1      40.517  19.332  25.742  1.00  0.00    -0.744 OA
ENDBRANCH  79  80
ENDBRANCH  51  74
BRANCH  63  84
ATOM     84  C   UNL A   1      47.638  27.077  30.833  1.00  0.00    -0.014 A 
ATOM     85  C   UNL A   1      47.868  26.083  31.798  1.00  0.00     0.010 A 
ATOM     86  C   UNL A   1      48.730  27.635  30.143  1.00  0.00     0.010 A 
ATOM     87  C   UNL A   1      49.171  25.676  32.091  1.00  0.00     0.020 A 
ATOM     88  C   UNL A   1      50.031  27.206  30.408  1.00  0.00     0.020 A 
ATOM     89  C   UNL A   1      50.244  26.239  31.393  1.00  0.00     0.054 A 
BRANCH  89  90
ATOM     90  S   UNL A   1      51.921  25.659  31.760  1.00  0.00     0.124 S 
ATOM     91  O   UNL A   1      52.590  25.828  30.473  1.00  0.00    -0.237 OA
ATOM     92  O   UNL A   1      52.350  26.571  32.817  1.00  0.00    -0.237 OA
ATOM     93  O   UNL A   1      51.725  24.273  32.182  1.00  0.00    -0.744 OA
ENDBRANCH  89  90
ENDBRANCH  63  84
ENDBRANCH  37  38
ENDBRANCH  29  32
ENDBRANCH  27  28
ENDBRANCH   1  27
TORSDOF 17
ENDMDL
MODEL 2
REMARK VINA RESULT:     -11.5      3.704      8.645
REMARK SMILES C=CC[C@@]1(C(=O)NCCCNC(=O)c2ccc(-c3c4nc(c(-c5ccc(S(=O)(=O)[O-])cc5)c5ccc([nH]5)c(-c5ccc(S(=O)(=O)[O-])cc5)c5nc(c(-c6ccc(S(=O)(=O)[O-])cc6)c6ccc3[nH]6)C=C5)C=C4)cc2)CCCN(C(=O)c2ccc3c(c2)OCO3)C1
REMARK SMILES IDX 9 1 8 2 7 3 5 4 6 5 4 7 74 8 89 9 75 10 77 11 76 12 3 13
REMARK SMILES IDX 2 14 1 15 78 16 79 17 80 18 81 19 85 20 82 21 84 22 83 23
REMARK SMILES IDX 86 24 88 25 87 26 10 27 11 28 12 29 13 31 14 32 15 33 73 34
REMARK SMILES IDX 16 35 72 36 17 37 18 38 19 39 66 40 20 41 71 42 65 43 67 44
REMARK SMILES IDX 21 45 70 46 64 47 63 48 22 50 52 51 33 52 51 53 34 54 37 55
REMARK SMILES IDX 50 56 68 57 35 58 36 59 49 61 69 62 38 63 23 64 24 65 32 66
REMARK SMILES IDX 25 67 31 68 26 69 27 70 28 71 29 72 30 73 53 74 54 75 62 76
REMARK SMILES IDX 55 77 61 78 56 79 57 80 58 81 59 82 60 83 39 84 40 85 48 86
REMARK SMILES IDX 41 87 47 88 42 89 43 90 44 91 45 92 46 93
REMARK H PARENT 7 6 11 30 67 49 37 60
REMARK Flexibility Score: inf
ROOT
ATOM      1  C   UNL A   1      38.532  20.051  24.878  1.00  0.00     0.042 C 
ENDROOT
BRANCH   1   2
ATOM      2  C   UNL A   1      37.235  20.792  25.028  1.00  0.00     0.117 C 
BRANCH   2   3
ATOM      3  N   UNL A   1      36.799  21.479  23.859  1.00  0.00    -0.355 N 
ATOM      4  C   UNL A   1      36.238  22.708  23.804  1.00  0.00     0.228 C 
ATOM      5  O   UNL A   1      36.418  23.307  22.733  1.00  0.00    -0.274 OA
ATOM      6  H   UNL A   1      36.918  21.010  23.002  1.00  0.00     0.163 HD
BRANCH   4   7
ATOM      7  C   UNL A   1      35.318  23.321  24.905  1.00  0.00     0.070 C 
ATOM      8  C   UNL A   1      34.215  22.248  25.133  1.00  0.00     0.021 C 
ATOM      9  C   UNL A   1      34.519  24.633  24.712  1.00  0.00     0.137 C 
ATOM     10  C   UNL A   1      33.299  22.168  23.890  1.00  0.00     0.023 C 
ATOM     11  N   UNL A   1      33.566  24.639  23.605  1.00  0.00    -0.338 N 
ATOM     12  C   UNL A   1      32.643  23.507  23.530  1.00  0.00     0.120 C 
BRANCH   7  13
ATOM     13  C   UNL A   1      36.208  23.593  26.171  1.00  0.00     0.045 C 
BRANCH  13  14
ATOM     14  C   UNL A   1      37.553  24.243  25.975  1.00  0.00    -0.034 C 
ATOM     15  C   UNL A   1      38.668  23.838  26.604  1.00  0.00     0.004 C 
ENDBRANCH  13  14
ENDBRANCH   7  13
BRANCH  11  16
ATOM     16  C   UNL A   1      33.455  25.841  22.885  1.00  0.00     0.254 C 
ATOM     17  O   UNL A   1      34.140  26.121  21.904  1.00  0.00    -0.269 OA
BRANCH  16  18
ATOM     18  C   UNL A   1      32.471  26.837  23.301  1.00  0.00     0.043 A 
ATOM     19  C   UNL A   1      32.599  27.552  24.512  1.00  0.00     0.018 A 
ATOM     20  C   UNL A   1      31.428  27.065  22.409  1.00  0.00     0.064 A 
ATOM     21  C   UNL A   1      31.729  28.609  24.781  1.00  0.00     0.051 A 
ATOM     22  C   UNL A   1      30.640  28.149  22.673  1.00  0.00     0.166 A 
ATOM     23  C   UNL A   1      30.800  28.917  23.809  1.00  0.00     0.165 A 
ATOM     24  O   UNL A   1      29.714  28.669  21.821  1.00  0.00    -0.454 OA
ATOM     25  O   UNL A   1      30.003  30.022  23.778  1.00  0.00    -0.454 OA
ATOM     26  C   UNL A   1      29.594  29.982  22.394  1.00  0.00     0.468 C 
ENDBRANCH  16  18
ENDBRANCH  11  16
ENDBRANCH   4   7
ENDBRANCH   2   3
ENDBRANCH   1   2
BRANCH   1  27
ATOM     27  C   UNL A   1      39.362  20.222  26.128  1.00  0.00     0.118 C 
BRANCH  27  28
ATOM     28  N   UNL A   1      40.516  19.310  26.142  1.00  0.00    -0.352 N 
ATOM     29  C   UNL A   1      41.861  19.582  26.096  1.00  0.00     0.251 C 
ATOM     30  H   UNL A   1      40.287  18.354  26.193  1.00  0.00     0.163 HD
ATOM     31  O   UNL A   1      42.658  18.712  25.773  1.00  0.00    -0.269 OA
BRANCH  29  32
ATOM     32  C   UNL A   1      42.313  20.932  26.472  1.00  0.00     0.039 A 
ATOM     33  C   UNL A   1      42.497  21.282  27.808  1.00  0.00     0.014 A 
ATOM     34  C   UNL A   1      42.573  21.849  25.456  1.00  0.00     0.014 A 
ATOM     35  C   UNL A   1      43.011  22.543  28.108  1.00  0.00     0.010 A 
ATOM     36  C   UNL A   1      43.261  23.006  25.742  1.00  0.00     0.010 A 
ATOM     37  C   UNL A   1      43.434  23.395  27.072  1.00  0.00    -0.014 A 
BRANCH  37  38
ATOM     38  C   UNL A   1      43.999  24.737  27.321  1.00  0.00     0.031 A 
ATOM     39  C   UNL A   1      43.074  25.858  27.724  1.00  0.00     0.074 A 
ATOM     40  C   UNL A   1      45.305  24.962  27.085  1.00  0.00     0.049 A 
ATOM     41  N   UNL A   1      43.335  27.129  27.873  1.00  0.00    -0.248 NA
ATOM     42  C   UNL A   1      41.653  25.514  27.932  1.00  0.00     0.031 C 
ATOM     43  C   UNL A   1      46.270  23.964  26.617  1.00  0.00     0.029 A 
ATOM     44  N   UNL A   1      46.043  26.110  27.200  1.00  0.00    -0.354 N 
ATOM     45  C   UNL A   1      42.114  27.730  28.158  1.00  0.00     0.074 A 
ATOM     46  C   UNL A   1      41.100  26.708  28.068  1.00  0.00     0.031 C 
ATOM     47  C   UNL A   1      47.483  24.532  26.532  1.00  0.00     0.029 A 
ATOM     48  C   UNL A   1      47.370  25.942  26.886  1.00  0.00     0.049 A 
ATOM     49  H   UNL A   1      45.660  26.971  27.482  1.00  0.00     0.167 HD
ATOM     50  C   UNL A   1      41.863  29.012  28.507  1.00  0.00     0.031 A 
ATOM     51  C   UNL A   1      48.379  26.833  26.882  1.00  0.00     0.031 A 
ATOM     52  C   UNL A   1      42.890  30.008  28.624  1.00  0.00     0.049 A 
ATOM     53  C   UNL A   1      48.085  28.248  27.292  1.00  0.00     0.074 A 
ATOM     54  C   UNL A   1      42.773  31.324  29.032  1.00  0.00     0.029 A 
ATOM     55  N   UNL A   1      44.230  29.791  28.335  1.00  0.00    -0.354 N 
ATOM     56  N   UNL A   1      46.936  28.786  27.632  1.00  0.00    -0.248 NA
ATOM     57  C   UNL A   1      49.223  29.174  27.335  1.00  0.00     0.031 C 
ATOM     58  C   UNL A   1      44.035  31.918  28.937  1.00  0.00     0.029 A 
ATOM     59  C   UNL A   1      44.950  30.955  28.534  1.00  0.00     0.049 A 
ATOM     60  H   UNL A   1      44.612  28.935  28.033  1.00  0.00     0.167 HD
ATOM     61  C   UNL A   1      47.217  30.109  27.953  1.00  0.00     0.074 A 
ATOM     62  C   UNL A   1      48.648  30.281  27.783  1.00  0.00     0.031 C 
ATOM     63  C   UNL A   1      46.373  31.093  28.352  1.00  0.00     0.031 A 
BRANCH  50  64
ATOM     64  C   UNL A   1      40.431  29.387  28.794  1.00  0.00    -0.014 A 
ATOM     65  C   UNL A   1      39.992  29.640  30.108  1.00  0.00     0.010 A 
ATOM     66  C   UNL A   1      39.509  29.488  27.738  1.00  0.00     0.010 A 
ATOM     67  C   UNL A   1      38.650  29.930  30.366  1.00  0.00     0.020 A 
ATOM     68  C   UNL A   1      38.172  29.816  27.987  1.00  0.00     0.020 A 
ATOM     69  C   UNL A   1      37.748  30.014  29.302  1.00  0.00     0.054 A 
BRANCH  69  70
ATOM     70  S   UNL A   1      36.015  30.406  29.665  1.00  0.00     0.124 S 
ATOM     71  O   UNL A   1      36.034  31.867  29.678  1.00  0.00    -0.237 OA
ATOM     72  O   UNL A   1      35.308  29.798  28.542  1.00  0.00    -0.237 OA
ATOM     73  O   UNL A   1      35.780  29.775  30.961  1.00  0.00    -0.744 OA
ENDBRANCH  69  70
ENDBRANCH  50  64
BRANCH  51  74
ATOM     74  C   UNL A   1      49.750  26.393  26.506  1.00  0.00    -0.014 A 
ATOM     75  C   UNL A   1      50.611  25.833  27.465  1.00  0.00     0.010 A 
ATOM     76  C   UNL A   1      50.185  26.486  25.170  1.00  0.00     0.010 A 
ATOM     77  C   UNL A   1      51.886  25.389  27.102  1.00  0.00     0.020 A 
ATOM     78  C   UNL A   1      51.446  26.015  24.796  1.00  0.00     0.020 A 
ATOM     79  C   UNL A   1      52.293  25.478  25.768  1.00  0.00     0.054 A 
BRANCH  79  80
ATOM     80  S   UNL A   1      53.929  24.841  25.309  1.00  0.00     0.124 S 
ATOM     81  O   UNL A   1      53.651  23.427  25.078  1.00  0.00    -0.237 OA
ATOM     82  O   UNL A   1      54.250  25.625  24.119  1.00  0.00    -0.237 OA
ATOM     83  O   UNL A   1      54.752  25.134  26.481  1.00  0.00    -0.744 OA
ENDBRANCH  79  80
ENDBRANCH  51  74
BRANCH  63  84
ATOM     84  C   UNL A   1      46.980  32.435  28.662  1.00  0.00    -0.014 A 
ATOM     85  C   UNL A   1      47.687  32.658  29.855  1.00  0.00     0.010 A 
ATOM     86  C   UNL A   1      46.892  33.467  27.709  1.00  0.00     0.010 A 
ATOM     87  C   UNL A   1      48.270  33.902  30.105  1.00  0.00     0.020 A 
ATOM     88  C   UNL A   1      47.502  34.700  27.940  1.00  0.00     0.020 A 
ATOM     89  C   UNL A   1      48.175  34.914  29.145  1.00  0.00     0.054 A 
BRANCH  89  90
ATOM     90  S   UNL A   1      48.980  36.504  29.475  1.00  0.00     0.124 S 
ATOM     91  O   UNL A   1      48.705  36.695  30.896  1.00  0.00    -0.237 OA
ATOM     92  O   UNL A   1      50.375  36.231  29.135  1.00  0.00    -0.237 OA
ATOM     93  O   UNL A   1      48.297  37.433  28.578  1.00  0.00    -0.744 OA
ENDBRANCH  89  90
ENDBRANCH  63  84
ENDBRANCH  37  38
ENDBRANCH  29  32
ENDBRANCH  27  28
ENDBRANCH   1  27
TORSDOF 17
ENDMDL
MODEL 3
REMARK VINA RESULT:     -11.5      3.676      9.587
REMARK SMILES C=CC[C@@]1(C(=O)NCCCNC(=O)c2ccc(-c3c4nc(c(-c5ccc(S(=O)(=O)[O-])cc5)c5ccc([nH]5)c(-c5ccc(S(=O)(=O)[O-])cc5)c5nc(c(-c6ccc(S(=O)(=O)[O-])cc6)c6ccc3[nH]6)C=C5)C=C4)cc2)CCCN(C(=O)c2ccc3c(c2)OCO3)C1
REMARK SMILES IDX 9 1 8 2 7 3 5 4 6 5 4 7 74 8 89 9 75 10 77 11 76 12 3 13
REMARK SMILES IDX 2 14 1 15 78 16 79 17 80 18 81 19 85 20 82 21 84 22 83 23
REMARK SMILES IDX 86 24 88 25 87 26 10 27 11 28 12 29 13 31 14 32 15 33 73 34
REMARK SMILES IDX 16 35 72 36 17 37 18 38 19 39 66 40 20 41 71 42 65 43 67 44
REMARK SMILES IDX 21 45 70 46 64 47 63 48 22 50 52 51 33 52 51 53 34 54 37 55
REMARK SMILES IDX 50 56 68 57 35 58 36 59 49 61 69 62 38 63 23 64 24 65 32 66
REMARK SMILES IDX 25 67 31 68 26 69 27 70 28 71 29 72 30 73 53 74 54 75 62 76
REMARK SMILES IDX 55 77 61 78 56 79 57 80 58 81 59 82 60 83 39 84 40 85 48 86
REMARK SMILES IDX 41 87 47 88 42 89 43 90 44 91 45 92 46 93
REMARK H PARENT 7 6 11 30 67 49 37 60
REMARK Flexibility Score: inf
ROOT
ATOM      1  C   UNL A   1      38.653  19.876  25.105  1.00  0.00     0.042 C 
ENDROOT
BRANCH   1   2
ATOM      2  C   UNL A   1      37.426  20.733  25.227  1.00  0.00     0.117 C 
BRANCH   2   3
ATOM      3  N   UNL A   1      37.046  21.409  24.033  1.00  0.00    -0.355 N 
ATOM      4  C   UNL A   1      36.511  22.648  23.939  1.00  0.00     0.228 C 
ATOM      5  O   UNL A   1      36.741  23.227  22.866  1.00  0.00    -0.274 OA
ATOM      6  H   UNL A   1      37.188  20.926  23.188  1.00  0.00     0.163 HD
BRANCH   4   7
ATOM      7  C   UNL A   1      35.563  23.294  24.996  1.00  0.00     0.070 C 
ATOM      8  C   UNL A   1      34.541  22.173  25.341  1.00  0.00     0.021 C 
ATOM      9  C   UNL A   1      34.669  24.524  24.698  1.00  0.00     0.137 C 
ATOM     10  C   UNL A   1      33.619  21.914  24.127  1.00  0.00     0.023 C 
ATOM     11  N   UNL A   1      33.706  24.360  23.612  1.00  0.00    -0.338 N 
ATOM     12  C   UNL A   1      32.865  23.165  23.659  1.00  0.00     0.120 C 
BRANCH   7  13
ATOM     13  C   UNL A   1      36.445  23.744  26.215  1.00  0.00     0.045 C 
BRANCH  13  14
ATOM     14  C   UNL A   1      37.885  24.110  25.961  1.00  0.00    -0.034 C 
ATOM     15  C   UNL A   1      38.890  23.765  26.780  1.00  0.00     0.004 C 
ENDBRANCH  13  14
ENDBRANCH   7  13
BRANCH  11  16
ATOM     16  C   UNL A   1      33.501  25.480  22.788  1.00  0.00     0.254 C 
ATOM     17  O   UNL A   1      33.870  25.549  21.618  1.00  0.00    -0.269 OA
BRANCH  16  18
ATOM     18  C   UNL A   1      32.805  26.647  23.324  1.00  0.00     0.043 A 
ATOM     19  C   UNL A   1      33.503  27.773  23.813  1.00  0.00     0.018 A 
ATOM     20  C   UNL A   1      31.414  26.594  23.280  1.00  0.00     0.064 A 
ATOM     21  C   UNL A   1      32.794  28.925  24.154  1.00  0.00     0.051 A 
ATOM     22  C   UNL A   1      30.762  27.761  23.556  1.00  0.00     0.166 A 
ATOM     23  C   UNL A   1      31.429  28.902  23.954  1.00  0.00     0.165 A 
ATOM     24  O   UNL A   1      29.433  27.979  23.361  1.00  0.00    -0.454 OA
ATOM     25  O   UNL A   1      30.587  29.971  24.026  1.00  0.00    -0.454 OA
ATOM     26  C   UNL A   1      29.440  29.416  23.347  1.00  0.00     0.468 C 
ENDBRANCH  16  18
ENDBRANCH  11  16
ENDBRANCH   4   7
ENDBRANCH   2   3
ENDBRANCH   1   2
BRANCH   1  27
ATOM     27  C   UNL A   1      39.641  20.248  26.184  1.00  0.00     0.118 C 
BRANCH  27  28
ATOM     28  N   UNL A   1      40.867  19.440  26.098  1.00  0.00    -0.352 N 
ATOM     29  C   UNL A   1      42.178  19.829  25.963  1.00  0.00     0.251 C 
ATOM     30  H   UNL A   1      40.726  18.467  26.144  1.00  0.00     0.163 HD
ATOM     31  O   UNL A   1      43.021  19.037  25.567  1.00  0.00    -0.269 OA
BRANCH  29  32
ATOM     32  C   UNL A   1      42.537  21.207  26.335  1.00  0.00     0.039 A 
ATOM     33  C   UNL A   1      42.788  21.552  27.662  1.00  0.00     0.014 A 
ATOM     34  C   UNL A   1      42.640  22.159  25.323  1.00  0.00     0.014 A 
ATOM     35  C   UNL A   1      43.212  22.848  27.951  1.00  0.00     0.010 A 
ATOM     36  C   UNL A   1      43.245  23.368  25.584  1.00  0.00     0.010 A 
ATOM     37  C   UNL A   1      43.482  23.750  26.906  1.00  0.00    -0.014 A 
BRANCH  37  38
ATOM     38  C   UNL A   1      43.946  25.133  27.142  1.00  0.00     0.031 A 
ATOM     39  C   UNL A   1      45.404  25.460  26.934  1.00  0.00     0.074 A 
ATOM     40  C   UNL A   1      43.090  26.046  27.633  1.00  0.00     0.049 A 
ATOM     41  N   UNL A   1      46.045  26.568  27.197  1.00  0.00    -0.248 NA
ATOM     42  C   UNL A   1      46.268  24.381  26.418  1.00  0.00     0.031 C 
ATOM     43  C   UNL A   1      41.677  25.809  27.942  1.00  0.00     0.029 A 
ATOM     44  N   UNL A   1      43.287  27.360  27.967  1.00  0.00    -0.354 N 
ATOM     45  C   UNL A   1      47.378  26.305  26.907  1.00  0.00     0.074 A 
ATOM     46  C   UNL A   1      47.473  24.913  26.543  1.00  0.00     0.031 C 
ATOM     47  C   UNL A   1      41.124  26.954  28.375  1.00  0.00     0.029 A 
ATOM     48  C   UNL A   1      42.153  27.986  28.424  1.00  0.00     0.049 A 
ATOM     49  H   UNL A   1      44.157  27.812  27.886  1.00  0.00     0.167 HD
ATOM     50  C   UNL A   1      48.428  27.158  26.903  1.00  0.00     0.031 A 
ATOM     51  C   UNL A   1      41.970  29.253  28.840  1.00  0.00     0.031 A 
ATOM     52  C   UNL A   1      48.308  28.549  27.237  1.00  0.00     0.049 A 
ATOM     53  C   UNL A   1      43.142  30.192  28.809  1.00  0.00     0.074 A 
ATOM     54  C   UNL A   1      49.282  29.530  27.207  1.00  0.00     0.029 A 
ATOM     55  N   UNL A   1      47.134  29.157  27.658  1.00  0.00    -0.354 N 
ATOM     56  N   UNL A   1      44.385  29.948  28.460  1.00  0.00    -0.248 NA
ATOM     57  C   UNL A   1      42.888  31.581  29.211  1.00  0.00     0.031 C 
ATOM     58  C   UNL A   1      48.709  30.720  27.665  1.00  0.00     0.029 A 
ATOM     59  C   UNL A   1      47.362  30.497  27.914  1.00  0.00     0.049 A 
ATOM     60  H   UNL A   1      46.267  28.702  27.761  1.00  0.00     0.167 HD
ATOM     61  C   UNL A   1      45.057  31.159  28.578  1.00  0.00     0.074 A 
ATOM     62  C   UNL A   1      44.075  32.136  29.012  1.00  0.00     0.031 C 
ATOM     63  C   UNL A   1      46.364  31.441  28.349  1.00  0.00     0.031 A 
BRANCH  50  64
ATOM     64  C   UNL A   1      49.775  26.602  26.515  1.00  0.00    -0.014 A 
ATOM     65  C   UNL A   1      50.241  26.679  25.188  1.00  0.00     0.010 A 
ATOM     66  C   UNL A   1      50.587  25.994  27.487  1.00  0.00     0.010 A 
ATOM     67  C   UNL A   1      51.465  26.109  24.830  1.00  0.00     0.020 A 
ATOM     68  C   UNL A   1      51.831  25.455  27.140  1.00  0.00     0.020 A 
ATOM     69  C   UNL A   1      52.252  25.498  25.810  1.00  0.00     0.054 A 
BRANCH  69  70
ATOM     70  S   UNL A   1      53.842  24.779  25.319  1.00  0.00     0.124 S 
ATOM     71  O   UNL A   1      53.469  23.399  25.019  1.00  0.00    -0.237 OA
ATOM     72  O   UNL A   1      54.217  25.592  24.165  1.00  0.00    -0.237 OA
ATOM     73  O   UNL A   1      54.682  24.954  26.501  1.00  0.00    -0.744 OA
ENDBRANCH  69  70
ENDBRANCH  50  64
BRANCH  51  74
ATOM     74  C   UNL A   1      40.620  29.696  29.285  1.00  0.00    -0.014 A 
ATOM     75  C   UNL A   1      39.603  29.943  28.348  1.00  0.00     0.010 A 
ATOM     76  C   UNL A   1      40.332  29.826  30.656  1.00  0.00     0.010 A 
ATOM     77  C   UNL A   1      38.326  30.325  28.771  1.00  0.00     0.020 A 
ATOM     78  C   UNL A   1      39.049  30.178  31.085  1.00  0.00     0.020 A 
ATOM     79  C   UNL A   1      38.057  30.435  30.138  1.00  0.00     0.054 A 
BRANCH  79  80
ATOM     80  S   UNL A   1      36.377  30.876  30.664  1.00  0.00     0.124 S 
ATOM     81  O   UNL A   1      36.086  29.842  31.652  1.00  0.00    -0.237 OA
ATOM     82  O   UNL A   1      36.556  32.225  31.195  1.00  0.00    -0.237 OA
ATOM     83  O   UNL A   1      35.599  30.799  29.429  1.00  0.00    -0.744 OA
ENDBRANCH  79  80
ENDBRANCH  51  74
BRANCH  63  84
ATOM     84  C   UNL A   1      46.801  32.869  28.533  1.00  0.00    -0.014 A 
ATOM     85  C   UNL A   1      47.361  33.310  29.744  1.00  0.00     0.010 A 
ATOM     86  C   UNL A   1      46.707  33.763  27.450  1.00  0.00     0.010 A 
ATOM     87  C   UNL A   1      47.791  34.632  29.879  1.00  0.00     0.020 A 
ATOM     88  C   UNL A   1      47.166  35.075  27.571  1.00  0.00     0.020 A 
ATOM     89  C   UNL A   1      47.692  35.505  28.791  1.00  0.00     0.054 A 
BRANCH  89  90
ATOM     90  S   UNL A   1      48.300  37.202  28.980  1.00  0.00     0.124 S 
ATOM     91  O   UNL A   1      47.723  37.590  30.264  1.00  0.00    -0.237 OA
ATOM     92  O   UNL A   1      49.750  37.024  28.970  1.00  0.00    -0.237 OA
ATOM     93  O   UNL A   1      47.755  37.898  27.817  1.00  0.00    -0.744 OA
ENDBRANCH  89  90
ENDBRANCH  63  84
ENDBRANCH  37  38
ENDBRANCH  29  32
ENDBRANCH  27  28
ENDBRANCH   1  27
TORSDOF 17
ENDMDL
