MODEL 1
REMARK VINA RESULT:     -12.8      0.000      0.000
REMARK SMILES Cc1cc2[nH]c(=O)[nH]c2cc1S(=O)(=O)NCCC(=O)NCCCNC(=O)c1ccc(-c2c3nc(c(-c4ccc(S(=O)(=O)[O-])cc4)c4ccc([nH]4)c(-c4ccc(S(=O)(=O)[O-])cc4)c4nc(c(-c5ccc(S(=O)(=O)[O-])cc5)c5ccc2[nH]5)C=C4)C=C3)cc1
REMARK SMILES IDX 21 1 20 2 18 3 19 4 17 6 16 7 15 8 12 10 13 11 14 12 11 13
REMARK SMILES IDX 1 14 2 15 3 16 4 17 10 18 5 19 9 20 6 21 8 23 7 24 22 26
REMARK SMILES IDX 23 27 24 28 25 29 26 31 27 32 28 33 86 34 29 35 85 36 30 37
REMARK SMILES IDX 31 38 32 39 79 40 33 41 84 42 78 43 80 44 34 45 83 46 77 47
REMARK SMILES IDX 76 48 35 50 65 51 46 52 64 53 47 54 50 55 63 56 81 57 48 58
REMARK SMILES IDX 49 59 62 61 82 62 51 63 36 64 37 65 45 66 38 67 44 68 39 69
REMARK SMILES IDX 40 70 41 71 42 72 43 73 66 74 67 75 75 76 68 77 74 78 69 79
REMARK SMILES IDX 70 80 71 81 72 82 73 83 52 84 53 85 61 86 54 87 60 88 55 89
REMARK SMILES IDX 56 90 57 91 58 92 59 93
REMARK H PARENT 20 5 15 9 5 22 8 25 24 30 80 49 50 60
REMARK Flexibility Score: inf
ROOT
ATOM      1  C   UNL A   1      39.441  21.647  26.134  1.00  0.00     0.117 C 
ENDROOT
BRANCH   1   2
ATOM      2  N   UNL A   1      38.591  22.825  26.072  1.00  0.00    -0.356 N 
ATOM      3  C   UNL A   1      37.313  22.948  25.617  1.00  0.00     0.221 C 
ATOM      4  O   UNL A   1      36.788  24.064  25.656  1.00  0.00    -0.275 OA
ATOM      5  H   UNL A   1      38.998  23.655  26.409  1.00  0.00     0.163 HD
BRANCH   3   6
ATOM      6  C   UNL A   1      36.541  21.752  25.101  1.00  0.00     0.116 C 
BRANCH   6   7
ATOM      7  C   UNL A   1      35.321  22.103  24.263  1.00  0.00     0.109 C 
BRANCH   7   8
ATOM      8  N   UNL A   1      34.227  22.734  24.995  1.00  0.00    -0.211 NA
ATOM      9  H   UNL A   1      34.650  23.104  25.846  1.00  0.00     0.141 HD
BRANCH   8  10
ATOM     10  S   UNL A   1      32.834  21.968  25.493  1.00  0.00     0.240 S 
ATOM     11  O   UNL A   1      31.730  22.694  24.909  1.00  0.00    -0.207 OA
ATOM     12  O   UNL A   1      32.972  21.839  26.929  1.00  0.00    -0.207 OA
BRANCH  10  13
ATOM     13  C   UNL A   1      32.779  20.331  24.813  1.00  0.00     0.087 A 
ATOM     14  C   UNL A   1      32.130  21.005  22.400  1.00  0.00     0.046 C 
ATOM     15  C   UNL A   1      32.389  19.998  23.485  1.00  0.00    -0.029 A 
ATOM     16  C   UNL A   1      32.340  18.634  23.113  1.00  0.00     0.033 A 
ATOM     17  C   UNL A   1      32.699  17.689  24.049  1.00  0.00     0.067 A 
ATOM     18  C   UNL A   1      33.173  19.337  25.737  1.00  0.00     0.050 A 
ATOM     19  N   UNL A   1      32.745  16.304  23.948  1.00  0.00    -0.306 N 
ATOM     20  C   UNL A   1      33.121  18.035  25.322  1.00  0.00     0.068 A 
ATOM     21  C   UNL A   1      33.211  15.778  25.164  1.00  0.00     0.323 A 
ATOM     22  H   UNL A   1      32.494  15.778  23.154  1.00  0.00     0.171 HD
ATOM     23  N   UNL A   1      33.447  16.873  26.007  1.00  0.00    -0.306 N 
ATOM     24  O   UNL A   1      33.340  14.600  25.447  1.00  0.00    -0.248 OA
ATOM     25  H   UNL A   1      33.786  16.825  26.930  1.00  0.00     0.171 HD
ENDBRANCH  10  13
ENDBRANCH   8  10
ENDBRANCH   7   8
ENDBRANCH   6   7
ENDBRANCH   3   6
ENDBRANCH   1   2
BRANCH   1  26
ATOM     26  C   UNL A   1      40.476  21.739  27.262  1.00  0.00     0.042 C 
BRANCH  26  27
ATOM     27  C   UNL A   1      41.826  21.127  26.905  1.00  0.00     0.118 C 
BRANCH  27  28
ATOM     28  N   UNL A   1      42.442  21.753  25.753  1.00  0.00    -0.352 N 
ATOM     29  C   UNL A   1      42.819  23.017  25.404  1.00  0.00     0.251 C 
ATOM     30  H   UNL A   1      42.638  21.102  25.042  1.00  0.00     0.163 HD
ATOM     31  O   UNL A   1      43.364  23.103  24.298  1.00  0.00    -0.269 OA
BRANCH  29  32
ATOM     32  C   UNL A   1      42.612  24.265  26.195  1.00  0.00     0.039 A 
ATOM     33  C   UNL A   1      43.222  24.604  27.403  1.00  0.00     0.014 A 
ATOM     34  C   UNL A   1      41.674  25.167  25.649  1.00  0.00     0.014 A 
ATOM     35  C   UNL A   1      42.856  25.780  28.069  1.00  0.00     0.010 A 
ATOM     36  C   UNL A   1      41.307  26.337  26.307  1.00  0.00     0.010 A 
ATOM     37  C   UNL A   1      41.874  26.632  27.540  1.00  0.00    -0.014 A 
BRANCH  37  38
ATOM     38  C   UNL A   1      41.585  27.906  28.208  1.00  0.00     0.031 A 
ATOM     39  C   UNL A   1      42.645  28.932  28.019  1.00  0.00     0.074 A 
ATOM     40  C   UNL A   1      40.429  28.217  28.838  1.00  0.00     0.049 A 
ATOM     41  N   UNL A   1      43.436  29.412  28.918  1.00  0.00    -0.248 NA
ATOM     42  C   UNL A   1      42.959  29.378  26.651  1.00  0.00     0.031 C 
ATOM     43  C   UNL A   1      39.194  27.426  28.870  1.00  0.00     0.029 A 
ATOM     44  N   UNL A   1      40.074  29.354  29.515  1.00  0.00    -0.354 N 
ATOM     45  C   UNL A   1      44.204  30.382  28.278  1.00  0.00     0.074 A 
ATOM     46  C   UNL A   1      43.988  30.201  26.867  1.00  0.00     0.031 C 
ATOM     47  C   UNL A   1      38.174  28.193  29.327  1.00  0.00     0.029 A 
ATOM     48  C   UNL A   1      38.709  29.467  29.777  1.00  0.00     0.049 A 
ATOM     49  H   UNL A   1      40.730  30.034  29.795  1.00  0.00     0.167 HD
ATOM     50  C   UNL A   1      44.764  31.406  28.981  1.00  0.00     0.031 A 
ATOM     51  C   UNL A   1      38.060  30.522  30.333  1.00  0.00     0.031 A 
ATOM     52  C   UNL A   1      44.701  31.158  30.396  1.00  0.00     0.049 A 
ATOM     53  C   UNL A   1      39.042  31.277  31.137  1.00  0.00     0.074 A 
ATOM     54  C   UNL A   1      45.388  30.388  31.306  1.00  0.00     0.029 A 
ATOM     55  N   UNL A   1      43.509  31.518  30.968  1.00  0.00    -0.354 N 
ATOM     56  N   UNL A   1      39.604  30.797  32.209  1.00  0.00    -0.248 NA
ATOM     57  C   UNL A   1      39.656  32.478  30.585  1.00  0.00     0.031 C 
ATOM     58  C   UNL A   1      44.475  30.133  32.371  1.00  0.00     0.029 A 
ATOM     59  C   UNL A   1      43.279  30.802  32.113  1.00  0.00     0.049 A 
ATOM     60  H   UNL A   1      42.898  32.198  30.604  1.00  0.00     0.167 HD
ATOM     61  C   UNL A   1      40.866  31.352  32.200  1.00  0.00     0.074 A 
ATOM     62  C   UNL A   1      40.781  32.497  31.303  1.00  0.00     0.031 C 
ATOM     63  C   UNL A   1      41.942  30.653  32.655  1.00  0.00     0.031 A 
BRANCH  50  64
ATOM     64  C   UNL A   1      44.979  32.804  28.449  1.00  0.00    -0.014 A 
ATOM     65  C   UNL A   1      43.940  33.739  28.277  1.00  0.00     0.010 A 
ATOM     66  C   UNL A   1      46.300  33.301  28.356  1.00  0.00     0.010 A 
ATOM     67  C   UNL A   1      44.193  35.088  28.008  1.00  0.00     0.020 A 
ATOM     68  C   UNL A   1      46.565  34.658  28.120  1.00  0.00     0.020 A 
ATOM     69  C   UNL A   1      45.505  35.541  27.936  1.00  0.00     0.054 A 
BRANCH  69  70
ATOM     70  S   UNL A   1      45.785  37.306  27.645  1.00  0.00     0.124 S 
ATOM     71  O   UNL A   1      44.603  37.670  26.869  1.00  0.00    -0.237 OA
ATOM     72  O   UNL A   1      45.836  37.842  29.003  1.00  0.00    -0.237 OA
ATOM     73  O   UNL A   1      47.048  37.340  26.913  1.00  0.00    -0.744 OA
ENDBRANCH  69  70
ENDBRANCH  50  64
BRANCH  51  74
ATOM     74  C   UNL A   1      36.730  31.108  30.018  1.00  0.00    -0.014 A 
ATOM     75  C   UNL A   1      36.432  31.458  28.687  1.00  0.00     0.010 A 
ATOM     76  C   UNL A   1      35.927  31.659  31.039  1.00  0.00     0.010 A 
ATOM     77  C   UNL A   1      35.447  32.411  28.394  1.00  0.00     0.020 A 
ATOM     78  C   UNL A   1      34.936  32.614  30.751  1.00  0.00     0.020 A 
ATOM     79  C   UNL A   1      34.736  33.017  29.431  1.00  0.00     0.054 A 
BRANCH  79  80
ATOM     80  S   UNL A   1      33.636  34.408  29.028  1.00  0.00     0.124 S 
ATOM     81  O   UNL A   1      32.680  33.785  28.117  1.00  0.00    -0.237 OA
ATOM     82  O   UNL A   1      33.102  34.779  30.337  1.00  0.00    -0.237 OA
ATOM     83  O   UNL A   1      34.527  35.394  28.422  1.00  0.00    -0.744 OA
ENDBRANCH  79  80
ENDBRANCH  51  74
BRANCH  63  84
ATOM     84  C   UNL A   1      41.718  29.543  33.647  1.00  0.00    -0.014 A 
ATOM     85  C   UNL A   1      41.960  29.856  34.997  1.00  0.00     0.010 A 
ATOM     86  C   UNL A   1      41.421  28.210  33.304  1.00  0.00     0.010 A 
ATOM     87  C   UNL A   1      41.969  28.864  35.974  1.00  0.00     0.020 A 
ATOM     88  C   UNL A   1      41.399  27.210  34.291  1.00  0.00     0.020 A 
ATOM     89  C   UNL A   1      41.705  27.543  35.614  1.00  0.00     0.054 A 
BRANCH  89  90
ATOM     90  S   UNL A   1      41.795  26.280  36.913  1.00  0.00     0.124 S 
ATOM     91  O   UNL A   1      42.859  26.795  37.773  1.00  0.00    -0.237 OA
ATOM     92  O   UNL A   1      40.454  26.318  37.494  1.00  0.00    -0.237 OA
ATOM     93  O   UNL A   1      42.122  25.052  36.192  1.00  0.00    -0.744 OA
ENDBRANCH  89  90
ENDBRANCH  63  84
ENDBRANCH  37  38
ENDBRANCH  29  32
ENDBRANCH  27  28
ENDBRANCH  26  27
ENDBRANCH   1  26
TORSDOF 17
ENDMDL
MODEL 2
REMARK VINA RESULT:     -12.1      5.636     12.300
REMARK SMILES Cc1cc2[nH]c(=O)[nH]c2cc1S(=O)(=O)NCCC(=O)NCCCNC(=O)c1ccc(-c2c3nc(c(-c4ccc(S(=O)(=O)[O-])cc4)c4ccc([nH]4)c(-c4ccc(S(=O)(=O)[O-])cc4)c4nc(c(-c5ccc(S(=O)(=O)[O-])cc5)c5ccc2[nH]5)C=C4)C=C3)cc1
REMARK SMILES IDX 21 1 20 2 18 3 19 4 17 6 16 7 15 8 12 10 13 11 14 12 11 13
REMARK SMILES IDX 1 14 2 15 3 16 4 17 10 18 5 19 9 20 6 21 8 23 7 24 22 26
REMARK SMILES IDX 23 27 24 28 25 29 26 31 27 32 28 33 86 34 29 35 85 36 30 37
REMARK SMILES IDX 31 38 32 39 79 40 33 41 84 42 78 43 80 44 34 45 83 46 77 47
REMARK SMILES IDX 76 48 35 50 65 51 46 52 64 53 47 54 50 55 63 56 81 57 48 58
REMARK SMILES IDX 49 59 62 61 82 62 51 63 36 64 37 65 45 66 38 67 44 68 39 69
REMARK SMILES IDX 40 70 41 71 42 72 43 73 66 74 67 75 75 76 68 77 74 78 69 79
REMARK SMILES IDX 70 80 71 81 72 82 73 83 52 84 53 85 61 86 54 87 60 88 55 89
REMARK SMILES IDX 56 90 57 91 58 92 59 93
REMARK H PARENT 20 5 15 9 5 22 8 25 24 30 80 49 50 60
REMARK Flexibility Score: inf
ROOT
ATOM      1  C   UNL A   1      33.328  35.920  29.044  1.00  0.00     0.117 C 
ENDROOT
BRANCH   1   2
ATOM      2  N   UNL A   1      33.405  37.020  29.992  1.00  0.00    -0.356 N 
ATOM      3  C   UNL A   1      32.979  37.081  31.285  1.00  0.00     0.221 C 
ATOM      4  O   UNL A   1      33.147  38.136  31.902  1.00  0.00    -0.275 OA
ATOM      5  H   UNL A   1      33.827  37.840  29.650  1.00  0.00     0.163 HD
BRANCH   3   6
ATOM      6  C   UNL A   1      32.343  35.885  31.963  1.00  0.00     0.116 C 
BRANCH   6   7
ATOM      7  C   UNL A   1      33.183  35.269  33.071  1.00  0.00     0.109 C 
BRANCH   7   8
ATOM      8  N   UNL A   1      34.509  34.814  32.664  1.00  0.00    -0.211 NA
ATOM      9  H   UNL A   1      34.543  34.951  31.654  1.00  0.00     0.141 HD
BRANCH   8  10
ATOM     10  S   UNL A   1      35.125  33.287  32.922  1.00  0.00     0.240 S 
ATOM     11  O   UNL A   1      34.335  32.380  32.123  1.00  0.00    -0.207 OA
ATOM     12  O   UNL A   1      35.196  33.153  34.363  1.00  0.00    -0.207 OA
BRANCH  10  13
ATOM     13  C   UNL A   1      36.782  33.202  32.296  1.00  0.00     0.087 A 
ATOM     14  C   UNL A   1      37.479  31.031  33.522  1.00  0.00     0.046 C 
ATOM     15  C   UNL A   1      37.759  32.235  32.668  1.00  0.00    -0.029 A 
ATOM     16  C   UNL A   1      39.060  32.340  32.121  1.00  0.00     0.033 A 
ATOM     17  C   UNL A   1      39.314  33.359  31.231  1.00  0.00     0.067 A 
ATOM     18  C   UNL A   1      37.069  34.215  31.354  1.00  0.00     0.050 A 
ATOM     19  N   UNL A   1      40.483  33.684  30.553  1.00  0.00    -0.306 N 
ATOM     20  C   UNL A   1      38.337  34.262  30.845  1.00  0.00     0.068 A 
ATOM     21  C   UNL A   1      40.234  34.792  29.727  1.00  0.00     0.323 A 
ATOM     22  H   UNL A   1      41.344  33.213  30.637  1.00  0.00     0.171 HD
ATOM     23  N   UNL A   1      38.888  35.135  29.917  1.00  0.00    -0.306 N 
ATOM     24  O   UNL A   1      41.040  35.370  29.020  1.00  0.00    -0.248 OA
ATOM     25  H   UNL A   1      38.414  35.871  29.468  1.00  0.00     0.171 HD
ENDBRANCH  10  13
ENDBRANCH   8  10
ENDBRANCH   7   8
ENDBRANCH   6   7
ENDBRANCH   3   6
ENDBRANCH   1   2
BRANCH   1  26
ATOM     26  C   UNL A   1      34.371  34.833  29.332  1.00  0.00     0.042 C 
BRANCH  26  27
ATOM     27  C   UNL A   1      34.811  34.062  28.093  1.00  0.00     0.118 C 
BRANCH  27  28
ATOM     28  N   UNL A   1      34.062  32.839  27.895  1.00  0.00    -0.352 N 
ATOM     29  C   UNL A   1      34.338  31.503  27.905  1.00  0.00     0.251 C 
ATOM     30  H   UNL A   1      33.112  33.016  27.705  1.00  0.00     0.163 HD
ATOM     31  O   UNL A   1      33.357  30.774  27.717  1.00  0.00    -0.269 OA
BRANCH  29  32
ATOM     32  C   UNL A   1      35.674  30.865  28.083  1.00  0.00     0.039 A 
ATOM     33  C   UNL A   1      36.002  29.527  27.857  1.00  0.00     0.014 A 
ATOM     34  C   UNL A   1      36.686  31.726  28.556  1.00  0.00     0.014 A 
ATOM     35  C   UNL A   1      37.289  29.061  28.155  1.00  0.00     0.010 A 
ATOM     36  C   UNL A   1      37.966  31.267  28.853  1.00  0.00     0.010 A 
ATOM     37  C   UNL A   1      38.263  29.921  28.685  1.00  0.00    -0.014 A 
BRANCH  37  38
ATOM     38  C   UNL A   1      39.629  29.426  28.891  1.00  0.00     0.031 A 
ATOM     39  C   UNL A   1      39.939  29.105  30.309  1.00  0.00     0.074 A 
ATOM     40  C   UNL A   1      40.518  29.146  27.910  1.00  0.00     0.049 A 
ATOM     41  N   UNL A   1      40.766  29.719  31.086  1.00  0.00    -0.248 NA
ATOM     42  C   UNL A   1      39.142  28.071  30.989  1.00  0.00     0.031 C 
ATOM     43  C   UNL A   1      40.273  29.142  26.463  1.00  0.00     0.029 A 
ATOM     44  N   UNL A   1      41.816  28.715  27.995  1.00  0.00    -0.354 N 
ATOM     45  C   UNL A   1      40.760  29.018  32.289  1.00  0.00     0.074 A 
ATOM     46  C   UNL A   1      39.632  28.127  32.230  1.00  0.00     0.031 C 
ATOM     47  C   UNL A   1      41.297  28.520  25.830  1.00  0.00     0.029 A 
ATOM     48  C   UNL A   1      42.342  28.233  26.798  1.00  0.00     0.049 A 
ATOM     49  H   UNL A   1      42.333  28.745  28.833  1.00  0.00     0.167 HD
ATOM     50  C   UNL A   1      41.831  29.064  33.130  1.00  0.00     0.031 A 
ATOM     51  C   UNL A   1      43.554  27.650  26.604  1.00  0.00     0.031 A 
ATOM     52  C   UNL A   1      42.742  30.110  32.752  1.00  0.00     0.049 A 
ATOM     53  C   UNL A   1      44.448  28.111  27.685  1.00  0.00     0.074 A 
ATOM     54  C   UNL A   1      42.800  31.478  32.885  1.00  0.00     0.029 A 
ATOM     55  N   UNL A   1      43.625  29.747  31.770  1.00  0.00    -0.354 N 
ATOM     56  N   UNL A   1      44.836  29.348  27.810  1.00  0.00    -0.248 NA
ATOM     57  C   UNL A   1      44.685  27.254  28.841  1.00  0.00     0.031 C 
ATOM     58  C   UNL A   1      43.607  31.942  31.805  1.00  0.00     0.029 A 
ATOM     59  C   UNL A   1      44.068  30.844  31.079  1.00  0.00     0.049 A 
ATOM     60  H   UNL A   1      43.903  28.822  31.584  1.00  0.00     0.167 HD
ATOM     61  C   UNL A   1      44.943  29.527  29.173  1.00  0.00     0.074 A 
ATOM     62  C   UNL A   1      45.019  28.186  29.737  1.00  0.00     0.031 C 
ATOM     63  C   UNL A   1      44.632  30.721  29.749  1.00  0.00     0.031 A 
BRANCH  50  64
ATOM     64  C   UNL A   1      42.283  27.926  34.017  1.00  0.00    -0.014 A 
ATOM     65  C   UNL A   1      42.987  26.803  33.542  1.00  0.00     0.010 A 
ATOM     66  C   UNL A   1      42.236  28.097  35.420  1.00  0.00     0.010 A 
ATOM     67  C   UNL A   1      43.593  25.886  34.406  1.00  0.00     0.020 A 
ATOM     68  C   UNL A   1      42.870  27.202  36.296  1.00  0.00     0.020 A 
ATOM     69  C   UNL A   1      43.536  26.094  35.780  1.00  0.00     0.054 A 
BRANCH  69  70
ATOM     70  S   UNL A   1      44.385  24.915  36.859  1.00  0.00     0.124 S 
ATOM     71  O   UNL A   1      45.773  25.353  36.744  1.00  0.00    -0.237 OA
ATOM     72  O   UNL A   1      43.752  25.163  38.152  1.00  0.00    -0.237 OA
ATOM     73  O   UNL A   1      44.088  23.619  36.257  1.00  0.00    -0.744 OA
ENDBRANCH  69  70
ENDBRANCH  50  64
BRANCH  51  74
ATOM     74  C   UNL A   1      43.945  26.511  25.732  1.00  0.00    -0.014 A 
ATOM     75  C   UNL A   1      42.962  25.588  25.327  1.00  0.00     0.010 A 
ATOM     76  C   UNL A   1      45.298  26.124  25.618  1.00  0.00     0.010 A 
ATOM     77  C   UNL A   1      43.309  24.289  24.932  1.00  0.00     0.020 A 
ATOM     78  C   UNL A   1      45.652  24.824  25.220  1.00  0.00     0.020 A 
ATOM     79  C   UNL A   1      44.650  23.900  24.924  1.00  0.00     0.054 A 
BRANCH  79  80
ATOM     80  S   UNL A   1      45.041  22.148  24.631  1.00  0.00     0.124 S 
ATOM     81  O   UNL A   1      44.606  21.968  23.248  1.00  0.00    -0.237 OA
ATOM     82  O   UNL A   1      46.486  22.107  24.842  1.00  0.00    -0.237 OA
ATOM     83  O   UNL A   1      44.248  21.441  25.633  1.00  0.00    -0.744 OA
ENDBRANCH  79  80
ENDBRANCH  51  74
BRANCH  63  84
ATOM     84  C   UNL A   1      44.709  31.970  28.912  1.00  0.00    -0.014 A 
ATOM     85  C   UNL A   1      45.915  32.690  28.977  1.00  0.00     0.010 A 
ATOM     86  C   UNL A   1      43.630  32.521  28.195  1.00  0.00     0.010 A 
ATOM     87  C   UNL A   1      46.032  33.951  28.399  1.00  0.00     0.020 A 
ATOM     88  C   UNL A   1      43.751  33.781  27.584  1.00  0.00     0.020 A 
ATOM     89  C   UNL A   1      44.943  34.499  27.719  1.00  0.00     0.054 A 
BRANCH  89  90
ATOM     90  S   UNL A   1      45.125  36.171  27.043  1.00  0.00     0.124 S 
ATOM     91  O   UNL A   1      45.713  36.898  28.166  1.00  0.00    -0.237 OA
ATOM     92  O   UNL A   1      46.017  35.964  25.904  1.00  0.00    -0.237 OA
ATOM     93  O   UNL A   1      43.761  36.565  26.697  1.00  0.00    -0.744 OA
ENDBRANCH  89  90
ENDBRANCH  63  84
ENDBRANCH  37  38
ENDBRANCH  29  32
ENDBRANCH  27  28
ENDBRANCH  26  27
ENDBRANCH   1  26
TORSDOF 17
ENDMDL
MODEL 3
REMARK VINA RESULT:     -12.0      2.041      3.423
REMARK SMILES Cc1cc2[nH]c(=O)[nH]c2cc1S(=O)(=O)NCCC(=O)NCCCNC(=O)c1ccc(-c2c3nc(c(-c4ccc(S(=O)(=O)[O-])cc4)c4ccc([nH]4)c(-c4ccc(S(=O)(=O)[O-])cc4)c4nc(c(-c5ccc(S(=O)(=O)[O-])cc5)c5ccc2[nH]5)C=C4)C=C3)cc1
REMARK SMILES IDX 21 1 20 2 18 3 19 4 17 6 16 7 15 8 12 10 13 11 14 12 11 13
REMARK SMILES IDX 1 14 2 15 3 16 4 17 10 18 5 19 9 20 6 21 8 23 7 24 22 26
REMARK SMILES IDX 23 27 24 28 25 29 26 31 27 32 28 33 86 34 29 35 85 36 30 37
REMARK SMILES IDX 31 38 32 39 79 40 33 41 84 42 78 43 80 44 34 45 83 46 77 47
REMARK SMILES IDX 76 48 35 50 65 51 46 52 64 53 47 54 50 55 63 56 81 57 48 58
REMARK SMILES IDX 49 59 62 61 82 62 51 63 36 64 37 65 45 66 38 67 44 68 39 69
REMARK SMILES IDX 40 70 41 71 42 72 43 73 66 74 67 75 75 76 68 77 74 78 69 79
REMARK SMILES IDX 70 80 71 81 72 82 73 83 52 84 53 85 61 86 54 87 60 88 55 89
REMARK SMILES IDX 56 90 57 91 58 92 59 93
REMARK H PARENT 20 5 15 9 5 22 8 25 24 30 80 49 50 60
REMARK Flexibility Score: inf
ROOT
ATOM      1  C   UNL A   1      38.240  21.842  25.724  1.00  0.00     0.117 C 
ENDROOT
BRANCH   1   2
ATOM      2  N   UNL A   1      37.080  21.057  25.331  1.00  0.00    -0.356 N 
ATOM      3  C   UNL A   1      35.755  21.337  25.479  1.00  0.00     0.221 C 
ATOM      4  O   UNL A   1      34.938  20.508  25.071  1.00  0.00    -0.275 OA
ATOM      5  H   UNL A   1      37.282  20.199  24.895  1.00  0.00     0.163 HD
BRANCH   3   6
ATOM      6  C   UNL A   1      35.288  22.637  26.100  1.00  0.00     0.116 C 
BRANCH   6   7
ATOM      7  C   UNL A   1      34.057  22.507  26.984  1.00  0.00     0.109 C 
BRANCH   7   8
ATOM      8  N   UNL A   1      32.833  22.122  26.288  1.00  0.00    -0.211 NA
ATOM      9  H   UNL A   1      33.111  21.966  25.319  1.00  0.00     0.141 HD
BRANCH   8  10
ATOM     10  S   UNL A   1      31.443  23.037  26.206  1.00  0.00     0.240 S 
ATOM     11  O   UNL A   1      31.481  23.951  27.323  1.00  0.00    -0.207 OA
ATOM     12  O   UNL A   1      30.371  22.074  26.059  1.00  0.00    -0.207 OA
BRANCH  10  13
ATOM     13  C   UNL A   1      31.471  24.031  24.737  1.00  0.00     0.087 A 
ATOM     14  C   UNL A   1      32.670  22.319  23.210  1.00  0.00     0.046 C 
ATOM     15  C   UNL A   1      32.091  23.674  23.507  1.00  0.00    -0.029 A 
ATOM     16  C   UNL A   1      32.078  24.607  22.443  1.00  0.00     0.033 A 
ATOM     17  C   UNL A   1      31.440  25.811  22.640  1.00  0.00     0.067 A 
ATOM     18  C   UNL A   1      30.796  25.263  24.892  1.00  0.00     0.050 A 
ATOM     19  N   UNL A   1      31.275  26.888  21.776  1.00  0.00    -0.306 N 
ATOM     20  C   UNL A   1      30.801  26.122  23.829  1.00  0.00     0.068 A 
ATOM     21  C   UNL A   1      30.518  27.876  22.425  1.00  0.00     0.323 A 
ATOM     22  H   UNL A   1      31.631  26.947  20.859  1.00  0.00     0.171 HD
ATOM     23  N   UNL A   1      30.224  27.379  23.702  1.00  0.00    -0.306 N 
ATOM     24  O   UNL A   1      30.214  28.970  21.982  1.00  0.00    -0.248 OA
ATOM     25  H   UNL A   1      29.699  27.843  24.392  1.00  0.00     0.171 HD
ENDBRANCH  10  13
ENDBRANCH   8  10
ENDBRANCH   7   8
ENDBRANCH   6   7
ENDBRANCH   3   6
ENDBRANCH   1   2
BRANCH   1  26
ATOM     26  C   UNL A   1      39.534  21.021  25.683  1.00  0.00     0.042 C 
BRANCH  26  27
ATOM     27  C   UNL A   1      40.691  21.664  26.440  1.00  0.00     0.118 C 
BRANCH  27  28
ATOM     28  N   UNL A   1      41.734  22.155  25.563  1.00  0.00    -0.352 N 
ATOM     29  C   UNL A   1      42.450  23.310  25.437  1.00  0.00     0.251 C 
ATOM     30  H   UNL A   1      41.992  21.487  24.888  1.00  0.00     0.163 HD
ATOM     31  O   UNL A   1      43.302  23.290  24.541  1.00  0.00    -0.269 OA
BRANCH  29  32
ATOM     32  C   UNL A   1      42.282  24.561  26.231  1.00  0.00     0.039 A 
ATOM     33  C   UNL A   1      42.947  24.902  27.410  1.00  0.00     0.014 A 
ATOM     34  C   UNL A   1      41.322  25.463  25.725  1.00  0.00     0.014 A 
ATOM     35  C   UNL A   1      42.613  26.082  28.087  1.00  0.00     0.010 A 
ATOM     36  C   UNL A   1      40.988  26.637  26.395  1.00  0.00     0.010 A 
ATOM     37  C   UNL A   1      41.610  26.934  27.600  1.00  0.00    -0.014 A 
BRANCH  37  38
ATOM     38  C   UNL A   1      41.355  28.211  28.276  1.00  0.00     0.031 A 
ATOM     39  C   UNL A   1      42.404  29.236  28.030  1.00  0.00     0.074 A 
ATOM     40  C   UNL A   1      40.231  28.525  28.961  1.00  0.00     0.049 A 
ATOM     41  N   UNL A   1      43.238  29.720  28.887  1.00  0.00    -0.248 NA
ATOM     42  C   UNL A   1      42.650  29.676  26.647  1.00  0.00     0.031 C 
ATOM     43  C   UNL A   1      38.999  27.735  29.058  1.00  0.00     0.029 A 
ATOM     44  N   UNL A   1      39.910  29.665  29.650  1.00  0.00    -0.354 N 
ATOM     45  C   UNL A   1      43.973  30.687  28.206  1.00  0.00     0.074 A 
ATOM     46  C   UNL A   1      43.688  30.500  26.808  1.00  0.00     0.031 C 
ATOM     47  C   UNL A   1      38.003  28.504  29.561  1.00  0.00     0.029 A 
ATOM     48  C   UNL A   1      38.559  29.779  29.978  1.00  0.00     0.049 A 
ATOM     49  H   UNL A   1      40.578  30.346  29.894  1.00  0.00     0.167 HD
ATOM     50  C   UNL A   1      44.568  31.714  28.876  1.00  0.00     0.031 A 
ATOM     51  C   UNL A   1      37.938  30.837  30.561  1.00  0.00     0.031 A 
ATOM     52  C   UNL A   1      44.574  31.472  30.294  1.00  0.00     0.049 A 
ATOM     53  C   UNL A   1      38.959  31.595  31.312  1.00  0.00     0.074 A 
ATOM     54  C   UNL A   1      45.306  30.707  31.172  1.00  0.00     0.029 A 
ATOM     55  N   UNL A   1      43.412  31.835  30.922  1.00  0.00    -0.354 N 
ATOM     56  N   UNL A   1      39.573  31.120  32.358  1.00  0.00    -0.248 NA
ATOM     57  C   UNL A   1      39.544  32.794  30.725  1.00  0.00     0.031 C 
ATOM     58  C   UNL A   1      44.447  30.456  32.282  1.00  0.00     0.029 A 
ATOM     59  C   UNL A   1      43.239  31.124  32.080  1.00  0.00     0.049 A 
ATOM     60  H   UNL A   1      42.784  32.514  30.586  1.00  0.00     0.167 HD
ATOM     61  C   UNL A   1      40.833  31.675  32.284  1.00  0.00     0.074 A 
ATOM     62  C   UNL A   1      40.704  32.816  31.387  1.00  0.00     0.031 C 
ATOM     63  C   UNL A   1      41.930  30.977  32.688  1.00  0.00     0.031 A 
BRANCH  50  64
ATOM     64  C   UNL A   1      44.756  33.110  28.328  1.00  0.00    -0.014 A 
ATOM     65  C   UNL A   1      43.750  33.819  27.644  1.00  0.00     0.010 A 
ATOM     66  C   UNL A   1      45.892  33.850  28.730  1.00  0.00     0.010 A 
ATOM     67  C   UNL A   1      43.869  35.182  27.355  1.00  0.00     0.020 A 
ATOM     68  C   UNL A   1      46.006  35.226  28.475  1.00  0.00     0.020 A 
ATOM     69  C   UNL A   1      44.995  35.880  27.777  1.00  0.00     0.054 A 
BRANCH  69  70
ATOM     70  S   UNL A   1      45.080  37.655  27.434  1.00  0.00     0.124 S 
ATOM     71  O   UNL A   1      45.292  38.207  28.769  1.00  0.00    -0.237 OA
ATOM     72  O   UNL A   1      46.221  37.744  26.527  1.00  0.00    -0.237 OA
ATOM     73  O   UNL A   1      43.782  37.953  26.834  1.00  0.00    -0.744 OA
ENDBRANCH  69  70
ENDBRANCH  50  64
BRANCH  51  74
ATOM     74  C   UNL A   1      36.594  31.421  30.310  1.00  0.00    -0.014 A 
ATOM     75  C   UNL A   1      36.106  31.476  28.990  1.00  0.00     0.010 A 
ATOM     76  C   UNL A   1      35.976  32.245  31.275  1.00  0.00     0.010 A 
ATOM     77  C   UNL A   1      35.117  32.399  28.623  1.00  0.00     0.020 A 
ATOM     78  C   UNL A   1      34.983  33.172  30.913  1.00  0.00     0.020 A 
ATOM     79  C   UNL A   1      34.593  33.273  29.577  1.00  0.00     0.054 A 
BRANCH  79  80
ATOM     80  S   UNL A   1      33.488  34.604  29.018  1.00  0.00     0.124 S 
ATOM     81  O   UNL A   1      32.830  34.995  30.261  1.00  0.00    -0.237 OA
ATOM     82  O   UNL A   1      34.424  35.584  28.471  1.00  0.00    -0.237 OA
ATOM     83  O   UNL A   1      32.628  33.953  28.033  1.00  0.00    -0.744 OA
ENDBRANCH  79  80
ENDBRANCH  51  74
BRANCH  63  84
ATOM     84  C   UNL A   1      41.755  29.871  33.695  1.00  0.00    -0.014 A 
ATOM     85  C   UNL A   1      42.066  30.190  35.029  1.00  0.00     0.010 A 
ATOM     86  C   UNL A   1      41.440  28.538  33.373  1.00  0.00     0.010 A 
ATOM     87  C   UNL A   1      42.123  29.202  36.009  1.00  0.00     0.020 A 
ATOM     88  C   UNL A   1      41.467  27.542  34.364  1.00  0.00     0.020 A 
ATOM     89  C   UNL A   1      41.840  27.879  35.668  1.00  0.00     0.054 A 
BRANCH  89  90
ATOM     90  S   UNL A   1      41.994  26.622  36.966  1.00  0.00     0.124 S 
ATOM     91  O   UNL A   1      43.096  27.142  37.773  1.00  0.00    -0.237 OA
ATOM     92  O   UNL A   1      40.683  26.660  37.610  1.00  0.00    -0.237 OA
ATOM     93  O   UNL A   1      42.290  25.392  36.235  1.00  0.00    -0.744 OA
ENDBRANCH  89  90
ENDBRANCH  63  84
ENDBRANCH  37  38
ENDBRANCH  29  32
ENDBRANCH  27  28
ENDBRANCH  26  27
ENDBRANCH   1  26
TORSDOF 17
ENDMDL
