MODEL 1
REMARK VINA RESULT:     -10.2      0.000      0.000
REMARK SMILES CCc1cc(OCCC(=O)NCCCNC(=O)c2ccc(-c3c4nc(c(-c5ccc(S(=O)(=O)[O-])cc5)c5ccc([nH]5)c(-c5ccc(S(=O)(=O)[O-])cc5)c5nc(c(-c6ccc(S(=O)(=O)[O-])cc6)c6ccc3[nH]6)C=C5)C=C4)cc2)nc(-c2cnccn2)n1
REMARK SMILES IDX 12 1 11 2 9 3 10 4 8 6 7 7 6 8 5 9 3 10 4 11 86 12 79 13
REMARK SMILES IDX 78 14 2 15 1 16 80 17 81 18 85 19 82 20 84 21 83 22 13 23
REMARK SMILES IDX 14 24 15 25 16 26 17 28 18 29 19 30 77 31 20 32 76 33 21 34
REMARK SMILES IDX 22 35 23 36 70 37 24 38 75 39 69 40 71 41 25 42 74 43 68 44
REMARK SMILES IDX 67 45 26 47 56 48 37 49 55 50 38 51 41 52 54 53 72 54 39 55
REMARK SMILES IDX 40 56 53 58 73 59 42 60 27 61 28 62 36 63 29 64 35 65 30 66
REMARK SMILES IDX 31 67 32 68 33 69 34 70 57 71 58 72 66 73 59 74 65 75 60 76
REMARK SMILES IDX 61 77 62 78 63 79 64 80 43 81 44 82 52 83 45 84 51 85 46 86
REMARK SMILES IDX 47 87 48 88 49 89 50 90
REMARK H PARENT 11 5 15 27 71 46 41 57
REMARK Flexibility Score: inf
ROOT
ATOM      1  C   UNL A   1      36.976  33.246  32.876  1.00  0.00     0.117 C 
ENDROOT
BRANCH   1   2
ATOM      2  N   UNL A   1      37.486  32.746  34.263  1.00  0.00    -0.356 N 
ATOM      3  C   UNL A   1      37.735  31.469  34.653  1.00  0.00     0.223 C 
ATOM      4  O   UNL A   1      37.754  31.193  35.851  1.00  0.00    -0.275 OA
ATOM      5  H   UNL A   1      37.647  33.442  34.940  1.00  0.00     0.163 HD
BRANCH   3   6
ATOM      6  C   UNL A   1      38.015  30.450  33.572  1.00  0.00     0.141 C 
BRANCH   6   7
ATOM      7  C   UNL A   1      39.408  29.790  33.560  1.00  0.00     0.241 C 
BRANCH   7   8
ATOM      8  O   UNL A   1      39.964  29.245  34.784  1.00  0.00    -0.477 OA
BRANCH   8   9
ATOM      9  C   UNL A   1      41.317  28.877  34.762  1.00  0.00     0.217 A 
ATOM     10  C   UNL A   1      43.680  29.252  36.559  1.00  0.00     0.048 A 
ATOM     11  C   UNL A   1      42.375  29.933  35.597  1.00  0.00     0.092 A 
ATOM     12  N   UNL A   1      43.810  27.471  36.683  1.00  0.00    -0.231 NA
ATOM     13  C   UNL A   1      42.776  26.418  35.581  1.00  0.00     0.183 A 
ATOM     14  N   UNL A   1      41.496  27.162  34.709  1.00  0.00    -0.192 NA
BRANCH  10  15
ATOM     15  C   UNL A   1      44.883  30.199  36.554  1.00  0.00     0.053 C 
ATOM     16  C   UNL A   1      45.582  30.339  35.234  1.00  0.00     0.011 C 
ENDBRANCH  10  15
BRANCH  13  17
ATOM     17  C   UNL A   1      43.464  25.386  34.444  1.00  0.00     0.126 A 
ATOM     18  C   UNL A   1      42.911  23.786  34.851  1.00  0.00     0.143 A 
ATOM     19  N   UNL A   1      45.247  25.536  33.877  1.00  0.00    -0.250 NA
ATOM     20  N   UNL A   1      44.002  22.454  34.920  1.00  0.00    -0.261 NA
ATOM     21  C   UNL A   1      46.360  24.142  33.994  1.00  0.00     0.132 A 
ATOM     22  C   UNL A   1      45.707  22.637  34.551  1.00  0.00     0.131 A 
ENDBRANCH  13  17
ENDBRANCH   8   9
ENDBRANCH   7   8
ENDBRANCH   6   7
ENDBRANCH   3   6
ENDBRANCH   1   2
BRANCH   1  23
ATOM     23  C   UNL A   1      35.460  32.376  31.544  1.00  0.00     0.042 C 
BRANCH  23  24
ATOM     24  C   UNL A   1      34.783  33.456  30.100  1.00  0.00     0.118 C 
BRANCH  24  25
ATOM     25  N   UNL A   1      33.754  32.615  28.918  1.00  0.00    -0.352 N 
ATOM     26  C   UNL A   1      34.125  31.223  27.999  1.00  0.00     0.251 C 
ATOM     27  H   UNL A   1      32.860  33.001  28.776  1.00  0.00     0.163 HD
ATOM     28  O   UNL A   1      33.196  31.285  27.155  1.00  0.00    -0.269 OA
BRANCH  26  29
ATOM     29  C   UNL A   1      35.852  30.001  28.443  1.00  0.00     0.039 A 
ATOM     30  C   UNL A   1      36.364  29.386  29.681  1.00  0.00     0.014 A 
ATOM     31  C   UNL A   1      37.087  29.831  27.485  1.00  0.00     0.014 A 
ATOM     32  C   UNL A   1      37.748  29.191  30.003  1.00  0.00     0.010 A 
ATOM     33  C   UNL A   1      38.433  29.725  27.798  1.00  0.00     0.010 A 
ATOM     34  C   UNL A   1      38.776  29.455  29.091  1.00  0.00    -0.014 A 
BRANCH  34  35
ATOM     35  C   UNL A   1      40.180  29.075  29.288  1.00  0.00     0.031 A 
ATOM     36  C   UNL A   1      40.707  27.717  28.932  1.00  0.00     0.074 A 
ATOM     37  C   UNL A   1      40.875  29.953  30.033  1.00  0.00     0.049 A 
ATOM     38  N   UNL A   1      41.932  27.273  29.019  1.00  0.00    -0.248 NA
ATOM     39  C   UNL A   1      39.740  26.712  28.455  1.00  0.00     0.031 C 
ATOM     40  C   UNL A   1      40.311  31.194  30.587  1.00  0.00     0.029 A 
ATOM     41  N   UNL A   1      42.165  29.957  30.462  1.00  0.00    -0.354 N 
ATOM     42  C   UNL A   1      41.897  25.954  28.581  1.00  0.00     0.074 A 
ATOM     43  C   UNL A   1      40.514  25.644  28.287  1.00  0.00     0.031 C 
ATOM     44  C   UNL A   1      41.276  31.886  31.197  1.00  0.00     0.029 A 
ATOM     45  C   UNL A   1      42.505  31.116  31.116  1.00  0.00     0.049 A 
ATOM     46  H   UNL A   1      42.789  29.209  30.320  1.00  0.00     0.167 HD
ATOM     47  C   UNL A   1      42.942  25.103  28.436  1.00  0.00     0.031 A 
ATOM     48  C   UNL A   1      43.698  31.521  31.571  1.00  0.00     0.031 A 
ATOM     49  C   UNL A   1      44.285  25.472  28.816  1.00  0.00     0.049 A 
ATOM     50  C   UNL A   1      44.850  30.598  31.329  1.00  0.00     0.074 A 
ATOM     51  C   UNL A   1      45.461  24.758  28.677  1.00  0.00     0.029 A 
ATOM     52  N   UNL A   1      44.618  26.675  29.436  1.00  0.00    -0.354 N 
ATOM     53  N   UNL A   1      44.839  29.409  30.768  1.00  0.00    -0.248 NA
ATOM     54  C   UNL A   1      46.167  31.067  31.754  1.00  0.00     0.031 C 
ATOM     55  C   UNL A   1      46.488  25.502  29.270  1.00  0.00     0.029 A 
ATOM     56  C   UNL A   1      45.971  26.714  29.710  1.00  0.00     0.049 A 
ATOM     57  H   UNL A   1      43.980  27.394  29.648  1.00  0.00     0.167 HD
ATOM     58  C   UNL A   1      46.157  28.986  30.758  1.00  0.00     0.074 A 
ATOM     59  C   UNL A   1      46.935  30.067  31.341  1.00  0.00     0.031 C 
ATOM     60  C   UNL A   1      46.684  27.816  30.317  1.00  0.00     0.031 A 
BRANCH  47  61
ATOM     61  C   UNL A   1      42.683  23.729  27.858  1.00  0.00    -0.014 A 
ATOM     62  C   UNL A   1      42.805  23.488  26.475  1.00  0.00     0.010 A 
ATOM     63  C   UNL A   1      42.362  22.648  28.700  1.00  0.00     0.010 A 
ATOM     64  C   UNL A   1      42.573  22.213  25.944  1.00  0.00     0.020 A 
ATOM     65  C   UNL A   1      42.156  21.363  28.177  1.00  0.00     0.020 A 
ATOM     66  C   UNL A   1      42.248  21.158  26.800  1.00  0.00     0.054 A 
BRANCH  66  67
ATOM     67  S   UNL A   1      41.974  19.512  26.082  1.00  0.00     0.124 S 
ATOM     68  O   UNL A   1      40.522  19.491  25.915  1.00  0.00    -0.237 OA
ATOM     69  O   UNL A   1      42.747  19.570  24.844  1.00  0.00    -0.237 OA
ATOM     70  O   UNL A   1      42.494  18.598  27.097  1.00  0.00    -0.744 OA
ENDBRANCH  66  67
ENDBRANCH  47  61
BRANCH  48  71
ATOM     71  C   UNL A   1      43.828  32.858  32.204  1.00  0.00    -0.014 A 
ATOM     72  C   UNL A   1      43.653  33.019  33.589  1.00  0.00     0.010 A 
ATOM     73  C   UNL A   1      44.223  33.968  31.433  1.00  0.00     0.010 A 
ATOM     74  C   UNL A   1      43.833  34.272  34.184  1.00  0.00     0.020 A 
ATOM     75  C   UNL A   1      44.442  35.211  32.029  1.00  0.00     0.020 A 
ATOM     76  C   UNL A   1      44.225  35.360  33.398  1.00  0.00     0.054 A 
BRANCH  76  77
ATOM     77  S   UNL A   1      44.464  36.972  34.193  1.00  0.00     0.124 S 
ATOM     78  O   UNL A   1      44.635  37.853  33.042  1.00  0.00    -0.237 OA
ATOM     79  O   UNL A   1      43.223  37.141  34.944  1.00  0.00    -0.237 OA
ATOM     80  O   UNL A   1      45.659  36.776  35.013  1.00  0.00    -0.744 OA
ENDBRANCH  76  77
ENDBRANCH  48  71
BRANCH  60  81
ATOM     81  C   UNL A   1      48.172  27.677  30.450  1.00  0.00    -0.014 A 
ATOM     82  C   UNL A   1      49.033  28.087  29.417  1.00  0.00     0.010 A 
ATOM     83  C   UNL A   1      48.707  27.158  31.641  1.00  0.00     0.010 A 
ATOM     84  C   UNL A   1      50.411  27.936  29.559  1.00  0.00     0.020 A 
ATOM     85  C   UNL A   1      50.086  27.046  31.801  1.00  0.00     0.020 A 
ATOM     86  C   UNL A   1      50.928  27.420  30.751  1.00  0.00     0.054 A 
BRANCH  86  87
ATOM     87  S   UNL A   1      52.723  27.276  30.923  1.00  0.00     0.124 S 
ATOM     88  O   UNL A   1      52.972  28.032  32.148  1.00  0.00    -0.237 OA
ATOM     89  O   UNL A   1      52.917  25.832  31.024  1.00  0.00    -0.237 OA
ATOM     90  O   UNL A   1      53.240  27.885  29.699  1.00  0.00    -0.744 OA
ENDBRANCH  86  87
ENDBRANCH  60  81
ENDBRANCH  34  35
ENDBRANCH  26  29
ENDBRANCH  24  25
ENDBRANCH  23  24
ENDBRANCH   1  23
TORSDOF 18
ENDMDL
MODEL 2
REMARK VINA RESULT:     -10.1      5.018     12.360
REMARK SMILES CCc1cc(OCCC(=O)NCCCNC(=O)c2ccc(-c3c4nc(c(-c5ccc(S(=O)(=O)[O-])cc5)c5ccc([nH]5)c(-c5ccc(S(=O)(=O)[O-])cc5)c5nc(c(-c6ccc(S(=O)(=O)[O-])cc6)c6ccc3[nH]6)C=C5)C=C4)cc2)nc(-c2cnccn2)n1
REMARK SMILES IDX 12 1 11 2 9 3 10 4 8 6 7 7 6 8 5 9 3 10 4 11 86 12 79 13
REMARK SMILES IDX 78 14 2 15 1 16 80 17 81 18 85 19 82 20 84 21 83 22 13 23
REMARK SMILES IDX 14 24 15 25 16 26 17 28 18 29 19 30 77 31 20 32 76 33 21 34
REMARK SMILES IDX 22 35 23 36 70 37 24 38 75 39 69 40 71 41 25 42 74 43 68 44
REMARK SMILES IDX 67 45 26 47 56 48 37 49 55 50 38 51 41 52 54 53 72 54 39 55
REMARK SMILES IDX 40 56 53 58 73 59 42 60 27 61 28 62 36 63 29 64 35 65 30 66
REMARK SMILES IDX 31 67 32 68 33 69 34 70 57 71 58 72 66 73 59 74 65 75 60 76
REMARK SMILES IDX 61 77 62 78 63 79 64 80 43 81 44 82 52 83 45 84 51 85 46 86
REMARK SMILES IDX 47 87 48 88 49 89 50 90
REMARK H PARENT 11 5 15 27 71 46 41 57
REMARK Flexibility Score: inf
ROOT
ATOM      1  C   UNL A   1      40.556  22.329  27.174  1.00  0.00     0.117 C 
ENDROOT
BRANCH   1   2
ATOM      2  N   UNL A   1      39.802  21.531  26.066  1.00  0.00    -0.356 N 
ATOM      3  C   UNL A   1      38.494  21.623  25.711  1.00  0.00     0.223 C 
ATOM      4  O   UNL A   1      37.961  20.690  25.112  1.00  0.00    -0.275 OA
ATOM      5  H   UNL A   1      40.340  20.881  25.561  1.00  0.00     0.163 HD
BRANCH   3   6
ATOM      6  C   UNL A   1      37.766  22.905  26.048  1.00  0.00     0.141 C 
BRANCH   6   7
ATOM      7  C   UNL A   1      36.572  23.299  25.157  1.00  0.00     0.241 C 
BRANCH   7   8
ATOM      8  O   UNL A   1      35.925  24.585  25.336  1.00  0.00    -0.477 OA
BRANCH   8   9
ATOM      9  C   UNL A   1      34.603  24.704  24.882  1.00  0.00     0.217 A 
ATOM     10  C   UNL A   1      32.475  22.826  23.937  1.00  0.00     0.048 A 
ATOM     11  C   UNL A   1      34.096  23.490  23.787  1.00  0.00     0.092 A 
ATOM     12  N   UNL A   1      31.438  23.399  25.280  1.00  0.00    -0.231 NA
ATOM     13  C   UNL A   1      31.977  24.856  26.268  1.00  0.00     0.183 A 
ATOM     14  N   UNL A   1      33.592  25.413  26.086  1.00  0.00    -0.192 NA
BRANCH  10  15
ATOM     15  C   UNL A   1      31.944  22.423  22.558  1.00  0.00     0.053 C 
ATOM     16  C   UNL A   1      31.960  20.950  22.272  1.00  0.00     0.011 C 
ENDBRANCH  10  15
BRANCH  13  17
ATOM     17  C   UNL A   1      31.083  26.281  26.301  1.00  0.00     0.126 A 
ATOM     18  C   UNL A   1      30.939  26.797  24.644  1.00  0.00     0.143 A 
ATOM     19  N   UNL A   1      31.363  27.630  27.575  1.00  0.00    -0.250 NA
ATOM     20  N   UNL A   1      31.240  28.432  24.187  1.00  0.00    -0.261 NA
ATOM     21  C   UNL A   1      31.705  29.310  27.065  1.00  0.00     0.132 A 
ATOM     22  C   UNL A   1      31.668  29.656  25.367  1.00  0.00     0.131 A 
ENDBRANCH  13  17
ENDBRANCH   8   9
ENDBRANCH   7   8
ENDBRANCH   6   7
ENDBRANCH   3   6
ENDBRANCH   1   2
BRANCH   1  23
ATOM     23  C   UNL A   1      42.666  22.225  27.784  1.00  0.00     0.042 C 
BRANCH  23  24
ATOM     24  C   UNL A   1      44.007  22.823  26.540  1.00  0.00     0.118 C 
BRANCH  24  25
ATOM     25  N   UNL A   1      43.518  24.134  25.442  1.00  0.00    -0.352 N 
ATOM     26  C   UNL A   1      42.638  25.550  25.818  1.00  0.00     0.251 C 
ATOM     27  H   UNL A   1      43.788  24.030  24.501  1.00  0.00     0.163 HD
ATOM     28  O   UNL A   1      42.332  25.912  24.653  1.00  0.00    -0.269 OA
BRANCH  26  29
ATOM     29  C   UNL A   1      42.301  26.163  27.863  1.00  0.00     0.039 A 
ATOM     30  C   UNL A   1      41.134  26.091  28.760  1.00  0.00     0.014 A 
ATOM     31  C   UNL A   1      43.241  27.137  28.662  1.00  0.00     0.014 A 
ATOM     32  C   UNL A   1      40.802  27.051  29.773  1.00  0.00     0.010 A 
ATOM     33  C   UNL A   1      42.909  28.120  29.581  1.00  0.00     0.010 A 
ATOM     34  C   UNL A   1      41.650  28.114  30.107  1.00  0.00    -0.014 A 
BRANCH  34  35
ATOM     35  C   UNL A   1      41.464  28.991  31.270  1.00  0.00     0.031 A 
ATOM     36  C   UNL A   1      42.219  28.804  32.551  1.00  0.00     0.074 A 
ATOM     37  C   UNL A   1      40.397  29.804  31.165  1.00  0.00     0.049 A 
ATOM     38  N   UNL A   1      42.176  29.535  33.632  1.00  0.00    -0.248 NA
ATOM     39  C   UNL A   1      43.106  27.632  32.657  1.00  0.00     0.031 C 
ATOM     40  C   UNL A   1      39.503  29.845  29.997  1.00  0.00     0.029 A 
ATOM     41  N   UNL A   1      39.873  30.726  32.015  1.00  0.00    -0.354 N 
ATOM     42  C   UNL A   1      43.048  28.938  34.537  1.00  0.00     0.074 A 
ATOM     43  C   UNL A   1      43.561  27.743  33.902  1.00  0.00     0.031 C 
ATOM     44  C   UNL A   1      38.601  30.815  30.165  1.00  0.00     0.029 A 
ATOM     45  C   UNL A   1      38.827  31.425  31.463  1.00  0.00     0.049 A 
ATOM     46  H   UNL A   1      40.206  30.876  32.929  1.00  0.00     0.167 HD
ATOM     47  C   UNL A   1      43.380  29.375  35.777  1.00  0.00     0.031 A 
ATOM     48  C   UNL A   1      38.148  32.471  31.950  1.00  0.00     0.031 A 
ATOM     49  C   UNL A   1      42.768  30.545  36.362  1.00  0.00     0.049 A 
ATOM     50  C   UNL A   1      38.586  32.983  33.286  1.00  0.00     0.074 A 
ATOM     51  C   UNL A   1      43.035  31.157  37.573  1.00  0.00     0.029 A 
ATOM     52  N   UNL A   1      41.740  31.270  35.765  1.00  0.00    -0.354 N 
ATOM     53  N   UNL A   1      39.524  32.508  34.075  1.00  0.00    -0.248 NA
ATOM     54  C   UNL A   1      37.900  34.171  33.790  1.00  0.00     0.031 C 
ATOM     55  C   UNL A   1      42.125  32.209  37.733  1.00  0.00     0.029 A 
ATOM     56  C   UNL A   1      41.342  32.305  36.589  1.00  0.00     0.049 A 
ATOM     57  H   UNL A   1      41.352  31.073  34.881  1.00  0.00     0.167 HD
ATOM     58  C   UNL A   1      39.555  33.352  35.172  1.00  0.00     0.074 A 
ATOM     59  C   UNL A   1      38.560  34.382  34.921  1.00  0.00     0.031 C 
ATOM     60  C   UNL A   1      40.324  33.286  36.289  1.00  0.00     0.031 A 
BRANCH  47  61
ATOM     61  C   UNL A   1      44.422  28.608  36.560  1.00  0.00    -0.014 A 
ATOM     62  C   UNL A   1      45.780  28.980  36.519  1.00  0.00     0.010 A 
ATOM     63  C   UNL A   1      44.047  27.534  37.389  1.00  0.00     0.010 A 
ATOM     64  C   UNL A   1      46.742  28.273  37.252  1.00  0.00     0.020 A 
ATOM     65  C   UNL A   1      45.001  26.840  38.147  1.00  0.00     0.020 A 
ATOM     66  C   UNL A   1      46.345  27.205  38.061  1.00  0.00     0.054 A 
BRANCH  66  67
ATOM     67  S   UNL A   1      47.613  26.322  39.017  1.00  0.00     0.124 S 
ATOM     68  O   UNL A   1      46.961  26.166  40.315  1.00  0.00    -0.237 OA
ATOM     69  O   UNL A   1      47.790  25.091  38.252  1.00  0.00    -0.237 OA
ATOM     70  O   UNL A   1      48.757  27.232  39.002  1.00  0.00    -0.744 OA
ENDBRANCH  66  67
ENDBRANCH  47  61
BRANCH  48  71
ATOM     71  C   UNL A   1      37.079  33.099  31.133  1.00  0.00    -0.014 A 
ATOM     72  C   UNL A   1      37.370  33.668  29.881  1.00  0.00     0.010 A 
ATOM     73  C   UNL A   1      35.739  33.046  31.562  1.00  0.00     0.010 A 
ATOM     74  C   UNL A   1      36.348  34.206  29.093  1.00  0.00     0.020 A 
ATOM     75  C   UNL A   1      34.711  33.547  30.762  1.00  0.00     0.020 A 
ATOM     76  C   UNL A   1      35.025  34.143  29.541  1.00  0.00     0.054 A 
BRANCH  76  77
ATOM     77  S   UNL A   1      33.714  34.835  28.497  1.00  0.00     0.124 S 
ATOM     78  O   UNL A   1      33.855  34.049  27.275  1.00  0.00    -0.237 OA
ATOM     79  O   UNL A   1      32.513  34.574  29.285  1.00  0.00    -0.237 OA
ATOM     80  O   UNL A   1      34.080  36.246  28.378  1.00  0.00    -0.744 OA
ENDBRANCH  76  77
ENDBRANCH  48  71
BRANCH  60  81
ATOM     81  C   UNL A   1      40.106  34.376  37.297  1.00  0.00    -0.014 A 
ATOM     82  C   UNL A   1      39.318  34.158  38.440  1.00  0.00     0.010 A 
ATOM     83  C   UNL A   1      40.727  35.621  37.104  1.00  0.00     0.010 A 
ATOM     84  C   UNL A   1      39.118  35.189  39.355  1.00  0.00     0.020 A 
ATOM     85  C   UNL A   1      40.565  36.640  38.040  1.00  0.00     0.020 A 
ATOM     86  C   UNL A   1      39.746  36.422  39.151  1.00  0.00     0.054 A 
BRANCH  86  87
ATOM     87  S   UNL A   1      39.505  37.729  40.379  1.00  0.00     0.124 S 
ATOM     88  O   UNL A   1      38.629  38.656  39.666  1.00  0.00    -0.237 OA
ATOM     89  O   UNL A   1      38.889  37.009  41.491  1.00  0.00    -0.237 OA
ATOM     90  O   UNL A   1      40.857  38.219  40.634  1.00  0.00    -0.744 OA
ENDBRANCH  86  87
ENDBRANCH  60  81
ENDBRANCH  34  35
ENDBRANCH  26  29
ENDBRANCH  24  25
ENDBRANCH  23  24
ENDBRANCH   1  23
TORSDOF 18
ENDMDL
MODEL 3
REMARK VINA RESULT:      -9.7      4.949     12.163
REMARK SMILES CCc1cc(OCCC(=O)NCCCNC(=O)c2ccc(-c3c4nc(c(-c5ccc(S(=O)(=O)[O-])cc5)c5ccc([nH]5)c(-c5ccc(S(=O)(=O)[O-])cc5)c5nc(c(-c6ccc(S(=O)(=O)[O-])cc6)c6ccc3[nH]6)C=C5)C=C4)cc2)nc(-c2cnccn2)n1
REMARK SMILES IDX 12 1 11 2 9 3 10 4 8 6 7 7 6 8 5 9 3 10 4 11 86 12 79 13
REMARK SMILES IDX 78 14 2 15 1 16 80 17 81 18 85 19 82 20 84 21 83 22 13 23
REMARK SMILES IDX 14 24 15 25 16 26 17 28 18 29 19 30 77 31 20 32 76 33 21 34
REMARK SMILES IDX 22 35 23 36 70 37 24 38 75 39 69 40 71 41 25 42 74 43 68 44
REMARK SMILES IDX 67 45 26 47 56 48 37 49 55 50 38 51 41 52 54 53 72 54 39 55
REMARK SMILES IDX 40 56 53 58 73 59 42 60 27 61 28 62 36 63 29 64 35 65 30 66
REMARK SMILES IDX 31 67 32 68 33 69 34 70 57 71 58 72 66 73 59 74 65 75 60 76
REMARK SMILES IDX 61 77 62 78 63 79 64 80 43 81 44 82 52 83 45 84 51 85 46 86
REMARK SMILES IDX 47 87 48 88 49 89 50 90
REMARK H PARENT 11 5 15 27 71 46 41 57
REMARK Flexibility Score: inf
ROOT
ATOM      1  C   UNL A   1      39.961  22.562  26.889  1.00  0.00     0.117 C 
ENDROOT
BRANCH   1   2
ATOM      2  N   UNL A   1      38.978  21.850  25.909  1.00  0.00    -0.356 N 
ATOM      3  C   UNL A   1      37.738  22.251  25.529  1.00  0.00     0.223 C 
ATOM      4  O   UNL A   1      36.946  21.425  25.075  1.00  0.00    -0.275 OA
ATOM      5  H   UNL A   1      39.297  21.006  25.516  1.00  0.00     0.163 HD
BRANCH   3   6
ATOM      6  C   UNL A   1      37.407  23.721  25.656  1.00  0.00     0.141 C 
BRANCH   6   7
ATOM      7  C   UNL A   1      35.921  24.124  25.585  1.00  0.00     0.241 C 
BRANCH   7   8
ATOM      8  O   UNL A   1      35.554  25.512  25.380  1.00  0.00    -0.477 OA
BRANCH   8   9
ATOM      9  C   UNL A   1      34.238  25.878  25.695  1.00  0.00     0.217 A 
ATOM     10  C   UNL A   1      32.679  28.429  25.807  1.00  0.00     0.048 A 
ATOM     11  C   UNL A   1      34.050  27.458  26.327  1.00  0.00     0.092 A 
ATOM     12  N   UNL A   1      31.567  27.750  24.580  1.00  0.00    -0.231 NA
ATOM     13  C   UNL A   1      31.714  25.972  24.125  1.00  0.00     0.183 A 
ATOM     14  N   UNL A   1      33.108  25.110  24.642  1.00  0.00    -0.192 NA
BRANCH  10  15
ATOM     15  C   UNL A   1      32.238  29.360  26.940  1.00  0.00     0.053 C 
ATOM     16  C   UNL A   1      31.811  30.733  26.510  1.00  0.00     0.011 C 
ENDBRANCH  10  15
BRANCH  13  17
ATOM     17  C   UNL A   1      30.465  24.881  24.406  1.00  0.00     0.126 A 
ATOM     18  C   UNL A   1      29.453  25.611  25.621  1.00  0.00     0.143 A 
ATOM     19  N   UNL A   1      30.741  23.030  24.549  1.00  0.00    -0.250 NA
ATOM     20  N   UNL A   1      28.906  24.712  26.987  1.00  0.00    -0.261 NA
ATOM     21  C   UNL A   1      30.189  22.135  25.996  1.00  0.00     0.132 A 
ATOM     22  C   UNL A   1      29.311  23.019  27.200  1.00  0.00     0.131 A 
ENDBRANCH  13  17
ENDBRANCH   8   9
ENDBRANCH   7   8
ENDBRANCH   6   7
ENDBRANCH   3   6
ENDBRANCH   1   2
BRANCH   1  23
ATOM     23  C   UNL A   1      41.933  21.914  27.612  1.00  0.00     0.042 C 
BRANCH  23  24
ATOM     24  C   UNL A   1      43.483  22.358  26.560  1.00  0.00     0.118 C 
BRANCH  24  25
ATOM     25  N   UNL A   1      43.303  23.743  25.459  1.00  0.00    -0.352 N 
ATOM     26  C   UNL A   1      42.629  25.278  25.796  1.00  0.00     0.251 C 
ATOM     27  H   UNL A   1      43.631  23.608  24.541  1.00  0.00     0.163 HD
ATOM     28  O   UNL A   1      42.484  25.697  24.620  1.00  0.00    -0.269 OA
BRANCH  26  29
ATOM     29  C   UNL A   1      42.221  25.914  27.821  1.00  0.00     0.039 A 
ATOM     30  C   UNL A   1      41.002  25.931  28.649  1.00  0.00     0.014 A 
ATOM     31  C   UNL A   1      43.185  26.812  28.678  1.00  0.00     0.014 A 
ATOM     32  C   UNL A   1      40.687  26.913  29.646  1.00  0.00     0.010 A 
ATOM     33  C   UNL A   1      42.877  27.817  29.582  1.00  0.00     0.010 A 
ATOM     34  C   UNL A   1      41.592  27.908  30.034  1.00  0.00    -0.014 A 
BRANCH  34  35
ATOM     35  C   UNL A   1      41.407  28.796  31.188  1.00  0.00     0.031 A 
ATOM     36  C   UNL A   1      42.194  28.649  32.455  1.00  0.00     0.074 A 
ATOM     37  C   UNL A   1      40.315  29.577  31.095  1.00  0.00     0.049 A 
ATOM     38  N   UNL A   1      42.154  29.393  33.526  1.00  0.00    -0.248 NA
ATOM     39  C   UNL A   1      43.116  27.503  32.558  1.00  0.00     0.031 C 
ATOM     40  C   UNL A   1      39.395  29.576  29.947  1.00  0.00     0.029 A 
ATOM     41  N   UNL A   1      39.784  30.496  31.944  1.00  0.00    -0.354 N 
ATOM     42  C   UNL A   1      43.061  28.834  34.420  1.00  0.00     0.074 A 
ATOM     43  C   UNL A   1      43.594  27.645  33.790  1.00  0.00     0.031 C 
ATOM     44  C   UNL A   1      38.469  30.523  30.121  1.00  0.00     0.029 A 
ATOM     45  C   UNL A   1      38.706  31.157  31.405  1.00  0.00     0.049 A 
ATOM     46  H   UNL A   1      40.132  30.669  32.848  1.00  0.00     0.167 HD
ATOM     47  C   UNL A   1      43.407  29.298  35.646  1.00  0.00     0.031 A 
ATOM     48  C   UNL A   1      38.008  32.191  31.893  1.00  0.00     0.031 A 
ATOM     49  C   UNL A   1      42.775  30.458  36.229  1.00  0.00     0.049 A 
ATOM     50  C   UNL A   1      38.460  32.734  33.212  1.00  0.00     0.074 A 
ATOM     51  C   UNL A   1      43.051  31.095  37.425  1.00  0.00     0.029 A 
ATOM     52  N   UNL A   1      41.714  31.145  35.644  1.00  0.00    -0.354 N 
ATOM     53  N   UNL A   1      39.428  32.297  33.987  1.00  0.00    -0.248 NA
ATOM     54  C   UNL A   1      37.752  33.910  33.714  1.00  0.00     0.031 C 
ATOM     55  C   UNL A   1      42.115  32.124  37.590  1.00  0.00     0.029 A 
ATOM     56  C   UNL A   1      41.305  32.181  36.462  1.00  0.00     0.049 A 
ATOM     57  H   UNL A   1      41.313  30.925  34.772  1.00  0.00     0.167 HD
ATOM     58  C   UNL A   1      39.459  33.157  35.070  1.00  0.00     0.074 A 
ATOM     59  C   UNL A   1      38.431  34.155  34.827  1.00  0.00     0.031 C 
ATOM     60  C   UNL A   1      40.254  33.129  36.171  1.00  0.00     0.031 A 
BRANCH  47  61
ATOM     61  C   UNL A   1      44.487  28.572  36.417  1.00  0.00    -0.014 A 
ATOM     62  C   UNL A   1      45.836  28.967  36.324  1.00  0.00     0.010 A 
ATOM     63  C   UNL A   1      44.158  27.514  37.285  1.00  0.00     0.010 A 
ATOM     64  C   UNL A   1      46.833  28.298  37.045  1.00  0.00     0.020 A 
ATOM     65  C   UNL A   1      45.148  26.859  38.031  1.00  0.00     0.020 A 
ATOM     66  C   UNL A   1      46.482  27.246  37.894  1.00  0.00     0.054 A 
BRANCH  66  67
ATOM     67  S   UNL A   1      47.795  26.413  38.833  1.00  0.00     0.124 S 
ATOM     68  O   UNL A   1      47.280  26.478  40.199  1.00  0.00    -0.237 OA
ATOM     69  O   UNL A   1      47.820  25.081  38.235  1.00  0.00    -0.237 OA
ATOM     70  O   UNL A   1      48.979  27.230  38.577  1.00  0.00    -0.744 OA
ENDBRANCH  66  67
ENDBRANCH  47  61
BRANCH  48  71
ATOM     71  C   UNL A   1      36.905  32.777  31.090  1.00  0.00    -0.014 A 
ATOM     72  C   UNL A   1      35.563  32.496  31.397  1.00  0.00     0.010 A 
ATOM     73  C   UNL A   1      37.192  33.702  30.067  1.00  0.00     0.010 A 
ATOM     74  C   UNL A   1      34.531  33.097  30.671  1.00  0.00     0.020 A 
ATOM     75  C   UNL A   1      36.163  34.333  29.366  1.00  0.00     0.020 A 
ATOM     76  C   UNL A   1      34.839  34.011  29.659  1.00  0.00     0.054 A 
BRANCH  76  77
ATOM     77  S   UNL A   1      33.483  34.788  28.739  1.00  0.00     0.124 S 
ATOM     78  O   UNL A   1      32.558  35.145  29.810  1.00  0.00    -0.237 OA
ATOM     79  O   UNL A   1      34.151  35.906  28.078  1.00  0.00    -0.237 OA
ATOM     80  O   UNL A   1      33.024  33.727  27.844  1.00  0.00    -0.744 OA
ENDBRANCH  76  77
ENDBRANCH  48  71
BRANCH  60  81
ATOM     81  C   UNL A   1      40.026  34.226  37.169  1.00  0.00    -0.014 A 
ATOM     82  C   UNL A   1      40.693  35.458  37.055  1.00  0.00     0.010 A 
ATOM     83  C   UNL A   1      39.109  34.023  38.213  1.00  0.00     0.010 A 
ATOM     84  C   UNL A   1      40.476  36.457  38.002  1.00  0.00     0.020 A 
ATOM     85  C   UNL A   1      38.858  35.036  39.135  1.00  0.00     0.020 A 
ATOM     86  C   UNL A   1      39.558  36.240  39.033  1.00  0.00     0.054 A 
BRANCH  86  87
ATOM     87  S   UNL A   1      39.264  37.572  40.223  1.00  0.00     0.124 S 
ATOM     88  O   UNL A   1      38.245  38.367  39.542  1.00  0.00    -0.237 OA
ATOM     89  O   UNL A   1      38.809  36.845  41.406  1.00  0.00    -0.237 OA
ATOM     90  O   UNL A   1      40.570  38.213  40.355  1.00  0.00    -0.744 OA
ENDBRANCH  86  87
ENDBRANCH  60  81
ENDBRANCH  34  35
ENDBRANCH  26  29
ENDBRANCH  24  25
ENDBRANCH  23  24
ENDBRANCH   1  23
TORSDOF 18
ENDMDL
