MODEL 1
REMARK VINA RESULT:     -10.3      0.000      0.000
REMARK SMILES C[C@H](NC(=O)OCc1ccccc1)C(=O)NCC(=O)N1CCC[C@H]1C(=O)NCCCNC(=O)c1ccc(-c2c3nc(c(-c4ccc(S(=O)(=O)[O-])cc4)c4ccc([nH]4)c(-c4ccc(S(=O)(=O)[O-])cc4)c4nc(c(-c5ccc(S(=O)(=O)[O-])cc5)c5ccc2[nH]5)C=C4)C=C3)cc1
REMARK SMILES IDX 20 1 21 2 22 3 23 4 24 5 18 6 19 7 17 8 16 9 14 10 15 11
REMARK SMILES IDX 2 13 1 14 3 15 4 16 5 18 6 19 7 20 8 21 9 22 13 23 10 24
REMARK SMILES IDX 12 25 11 26 25 27 26 28 27 29 28 31 29 32 30 33 31 34 32 35
REMARK SMILES IDX 33 37 34 38 35 39 93 40 36 41 92 42 37 43 38 44 39 45 86 46
REMARK SMILES IDX 40 47 91 48 85 49 87 50 41 51 90 52 84 53 83 54 42 56 72 57
REMARK SMILES IDX 53 58 71 59 54 60 57 61 70 62 88 63 55 64 56 65 69 67 89 68
REMARK SMILES IDX 58 69 43 70 44 71 52 72 45 73 51 74 46 75 47 76 48 77 49 78
REMARK SMILES IDX 50 79 73 80 74 81 82 82 75 83 81 84 76 85 77 86 78 87 79 88
REMARK SMILES IDX 80 89 59 90 60 91 68 92 61 93 67 94 62 95 63 96 64 97 65 98
REMARK SMILES IDX 66 99
REMARK H PARENT 16 12 3 17 27 30 31 36 87 55 57 66
REMARK Flexibility Score: inf
ROOT
ATOM      1  N   UNL A   1      31.659  27.046  23.359  1.00  0.00    -0.329 N 
ATOM      2  C   UNL A   1      30.668  27.312  22.343  1.00  0.00     0.120 C 
ATOM      3  C   UNL A   1      30.258  28.747  22.601  1.00  0.00     0.024 C 
ATOM      4  C   UNL A   1      30.343  28.883  24.117  1.00  0.00     0.037 C 
ATOM      5  C   UNL A   1      31.386  27.836  24.570  1.00  0.00     0.174 C 
ENDROOT
BRANCH   1   6
ATOM      6  C   UNL A   1      32.536  25.985  23.333  1.00  0.00     0.242 C 
ATOM      7  O   UNL A   1      33.743  26.113  23.536  1.00  0.00    -0.273 OA
BRANCH   6   8
ATOM      8  C   UNL A   1      31.994  24.634  22.857  1.00  0.00     0.216 C 
BRANCH   8   9
ATOM      9  N   UNL A   1      31.191  23.953  23.852  1.00  0.00    -0.345 N 
ATOM     10  C   UNL A   1      31.411  22.775  24.502  1.00  0.00     0.242 C 
ATOM     11  O   UNL A   1      30.555  22.398  25.308  1.00  0.00    -0.273 OA
ATOM     12  H   UNL A   1      30.357  24.412  24.099  1.00  0.00     0.164 HD
BRANCH  10  13
ATOM     13  C   UNL A   1      32.726  21.987  24.310  1.00  0.00     0.171 C 
ATOM     14  C   UNL A   1      32.404  20.629  23.697  1.00  0.00     0.042 C 
BRANCH  13  15
ATOM     15  N   UNL A   1      33.465  21.996  25.571  1.00  0.00    -0.310 N 
ATOM     16  C   UNL A   1      34.715  21.577  25.886  1.00  0.00     0.408 C 
ATOM     17  H   UNL A   1      32.963  22.376  26.328  1.00  0.00     0.167 HD
ATOM     18  O   UNL A   1      35.069  21.543  27.059  1.00  0.00    -0.225 OA
BRANCH  16  19
ATOM     19  O   UNL A   1      35.445  21.182  24.825  1.00  0.00    -0.445 OA
BRANCH  19  20
ATOM     20  C   UNL A   1      36.319  22.179  24.272  1.00  0.00     0.270 C 
BRANCH  20  21
ATOM     21  C   UNL A   1      37.467  22.531  25.184  1.00  0.00    -0.011 A 
ATOM     22  C   UNL A   1      38.443  21.588  25.534  1.00  0.00     0.007 A 
ATOM     23  C   UNL A   1      37.543  23.818  25.733  1.00  0.00     0.007 A 
ATOM     24  C   UNL A   1      39.493  21.938  26.385  1.00  0.00     0.000 A 
ATOM     25  C   UNL A   1      38.589  24.166  26.587  1.00  0.00     0.000 A 
ATOM     26  C   UNL A   1      39.566  23.227  26.909  1.00  0.00     0.000 A 
ENDBRANCH  20  21
ENDBRANCH  19  20
ENDBRANCH  16  19
ENDBRANCH  13  15
ENDBRANCH  10  13
ENDBRANCH   8   9
ENDBRANCH   6   8
ENDBRANCH   1   6
BRANCH   5  27
ATOM     27  C   UNL A   1      30.816  27.005  25.737  1.00  0.00     0.242 C 
ATOM     28  O   UNL A   1      30.168  25.969  25.565  1.00  0.00    -0.273 OA
ATOM     29  N   UNL A   1      31.081  27.391  27.022  1.00  0.00    -0.354 N 
ATOM     30  H   UNL A   1      30.537  26.959  27.720  1.00  0.00     0.163 HD
BRANCH  29  31
ATOM     31  C   UNL A   1      32.061  28.357  27.490  1.00  0.00     0.117 C 
BRANCH  31  32
ATOM     32  C   UNL A   1      33.453  28.097  26.951  1.00  0.00     0.042 C 
BRANCH  32  33
ATOM     33  C   UNL A   1      34.038  29.277  26.190  1.00  0.00     0.118 C 
BRANCH  33  34
ATOM     34  N   UNL A   1      33.860  30.553  26.878  1.00  0.00    -0.352 N 
ATOM     35  C   UNL A   1      34.590  31.123  27.893  1.00  0.00     0.251 C 
ATOM     36  H   UNL A   1      33.095  31.089  26.564  1.00  0.00     0.163 HD
ATOM     37  O   UNL A   1      34.182  32.140  28.448  1.00  0.00    -0.269 OA
BRANCH  35  38
ATOM     38  C   UNL A   1      35.844  30.485  28.343  1.00  0.00     0.039 A 
ATOM     39  C   UNL A   1      37.045  30.837  27.723  1.00  0.00     0.014 A 
ATOM     40  C   UNL A   1      35.842  29.575  29.402  1.00  0.00     0.014 A 
ATOM     41  C   UNL A   1      38.251  30.360  28.238  1.00  0.00     0.010 A 
ATOM     42  C   UNL A   1      37.045  29.184  29.976  1.00  0.00     0.010 A 
ATOM     43  C   UNL A   1      38.263  29.582  29.408  1.00  0.00    -0.014 A 
BRANCH  43  44
ATOM     44  C   UNL A   1      39.535  29.210  30.078  1.00  0.00     0.031 A 
ATOM     45  C   UNL A   1      40.036  30.008  31.251  1.00  0.00     0.074 A 
ATOM     46  C   UNL A   1      40.280  28.207  29.574  1.00  0.00     0.049 A 
ATOM     47  N   UNL A   1      41.159  29.886  31.909  1.00  0.00    -0.248 NA
ATOM     48  C   UNL A   1      39.174  31.102  31.731  1.00  0.00     0.031 C 
ATOM     49  C   UNL A   1      39.924  27.384  28.413  1.00  0.00     0.029 A 
ATOM     50  N   UNL A   1      41.499  27.709  29.965  1.00  0.00    -0.354 N 
ATOM     51  C   UNL A   1      41.146  30.892  32.868  1.00  0.00     0.074 A 
ATOM     52  C   UNL A   1      39.930  31.649  32.671  1.00  0.00     0.031 C 
ATOM     53  C   UNL A   1      40.883  26.469  28.207  1.00  0.00     0.029 A 
ATOM     54  C   UNL A   1      41.950  26.671  29.181  1.00  0.00     0.049 A 
ATOM     55  H   UNL A   1      42.002  28.060  30.733  1.00  0.00     0.167 HD
ATOM     56  C   UNL A   1      42.057  31.150  33.837  1.00  0.00     0.031 A 
ATOM     57  C   UNL A   1      43.101  25.971  29.228  1.00  0.00     0.031 A 
ATOM     58  C   UNL A   1      43.265  30.392  34.026  1.00  0.00     0.049 A 
ATOM     59  C   UNL A   1      44.115  26.303  30.288  1.00  0.00     0.074 A 
ATOM     60  C   UNL A   1      44.224  30.537  35.014  1.00  0.00     0.029 A 
ATOM     61  N   UNL A   1      43.689  29.355  33.207  1.00  0.00    -0.354 N 
ATOM     62  N   UNL A   1      44.047  27.206  31.238  1.00  0.00    -0.248 NA
ATOM     63  C   UNL A   1      45.359  25.522  30.285  1.00  0.00     0.031 C 
ATOM     64  C   UNL A   1      45.259  29.635  34.752  1.00  0.00     0.029 A 
ATOM     65  C   UNL A   1      44.914  28.879  33.644  1.00  0.00     0.049 A 
ATOM     66  H   UNL A   1      43.191  29.008  32.432  1.00  0.00     0.167 HD
ATOM     67  C   UNL A   1      45.230  27.089  31.957  1.00  0.00     0.074 A 
ATOM     68  C   UNL A   1      45.985  26.012  31.347  1.00  0.00     0.031 C 
ATOM     69  C   UNL A   1      45.656  27.810  33.022  1.00  0.00     0.031 A 
BRANCH  56  70
ATOM     70  C   UNL A   1      41.786  32.308  34.762  1.00  0.00    -0.014 A 
ATOM     71  C   UNL A   1      41.052  32.134  35.950  1.00  0.00     0.010 A 
ATOM     72  C   UNL A   1      42.314  33.578  34.464  1.00  0.00     0.010 A 
ATOM     73  C   UNL A   1      40.818  33.217  36.802  1.00  0.00     0.020 A 
ATOM     74  C   UNL A   1      42.109  34.656  35.331  1.00  0.00     0.020 A 
ATOM     75  C   UNL A   1      41.348  34.472  36.486  1.00  0.00     0.054 A 
BRANCH  75  76
ATOM     76  S   UNL A   1      41.051  35.850  37.628  1.00  0.00     0.124 S 
ATOM     77  O   UNL A   1      39.906  36.512  37.008  1.00  0.00    -0.237 OA
ATOM     78  O   UNL A   1      40.774  35.165  38.888  1.00  0.00    -0.237 OA
ATOM     79  O   UNL A   1      42.300  36.605  37.594  1.00  0.00    -0.744 OA
ENDBRANCH  75  76
ENDBRANCH  56  70
BRANCH  57  80
ATOM     80  C   UNL A   1      43.356  24.889  28.235  1.00  0.00    -0.014 A 
ATOM     81  C   UNL A   1      43.981  25.177  27.010  1.00  0.00     0.010 A 
ATOM     82  C   UNL A   1      42.982  23.561  28.516  1.00  0.00     0.010 A 
ATOM     83  C   UNL A   1      44.215  24.161  26.078  1.00  0.00     0.020 A 
ATOM     84  C   UNL A   1      43.245  22.538  27.601  1.00  0.00     0.020 A 
ATOM     85  C   UNL A   1      43.850  22.846  26.382  1.00  0.00     0.054 A 
BRANCH  85  86
ATOM     86  S   UNL A   1      44.213  21.536  25.181  1.00  0.00     0.124 S 
ATOM     87  O   UNL A   1      43.125  20.594  25.420  1.00  0.00    -0.237 OA
ATOM     88  O   UNL A   1      44.162  22.254  23.909  1.00  0.00    -0.237 OA
ATOM     89  O   UNL A   1      45.542  21.073  25.572  1.00  0.00    -0.744 OA
ENDBRANCH  85  86
ENDBRANCH  57  80
BRANCH  69  90
ATOM     90  C   UNL A   1      46.995  27.454  33.615  1.00  0.00    -0.014 A 
ATOM     91  C   UNL A   1      48.128  28.250  33.374  1.00  0.00     0.010 A 
ATOM     92  C   UNL A   1      47.102  26.351  34.483  1.00  0.00     0.010 A 
ATOM     93  C   UNL A   1      49.350  27.940  33.977  1.00  0.00     0.020 A 
ATOM     94  C   UNL A   1      48.313  26.057  35.112  1.00  0.00     0.020 A 
ATOM     95  C   UNL A   1      49.432  26.848  34.848  1.00  0.00     0.054 A 
BRANCH  95  96
ATOM     96  S   UNL A   1      51.014  26.512  35.670  1.00  0.00     0.124 S 
ATOM     97  O   UNL A   1      50.646  26.587  37.082  1.00  0.00    -0.237 OA
ATOM     98  O   UNL A   1      51.351  25.178  35.177  1.00  0.00    -0.237 OA
ATOM     99  O   UNL A   1      51.886  27.583  35.196  1.00  0.00    -0.744 OA
ENDBRANCH  95  96
ENDBRANCH  69  90
ENDBRANCH  43  44
ENDBRANCH  35  38
ENDBRANCH  33  34
ENDBRANCH  32  33
ENDBRANCH  31  32
ENDBRANCH  29  31
ENDBRANCH   5  27
TORSDOF 21
ENDMDL
MODEL 2
REMARK VINA RESULT:     -10.3      4.604      5.743
REMARK SMILES C[C@H](NC(=O)OCc1ccccc1)C(=O)NCC(=O)N1CCC[C@H]1C(=O)NCCCNC(=O)c1ccc(-c2c3nc(c(-c4ccc(S(=O)(=O)[O-])cc4)c4ccc([nH]4)c(-c4ccc(S(=O)(=O)[O-])cc4)c4nc(c(-c5ccc(S(=O)(=O)[O-])cc5)c5ccc2[nH]5)C=C4)C=C3)cc1
REMARK SMILES IDX 20 1 21 2 22 3 23 4 24 5 18 6 19 7 17 8 16 9 14 10 15 11
REMARK SMILES IDX 2 13 1 14 3 15 4 16 5 18 6 19 7 20 8 21 9 22 13 23 10 24
REMARK SMILES IDX 12 25 11 26 25 27 26 28 27 29 28 31 29 32 30 33 31 34 32 35
REMARK SMILES IDX 33 37 34 38 35 39 93 40 36 41 92 42 37 43 38 44 39 45 86 46
REMARK SMILES IDX 40 47 91 48 85 49 87 50 41 51 90 52 84 53 83 54 42 56 72 57
REMARK SMILES IDX 53 58 71 59 54 60 57 61 70 62 88 63 55 64 56 65 69 67 89 68
REMARK SMILES IDX 58 69 43 70 44 71 52 72 45 73 51 74 46 75 47 76 48 77 49 78
REMARK SMILES IDX 50 79 73 80 74 81 82 82 75 83 81 84 76 85 77 86 78 87 79 88
REMARK SMILES IDX 80 89 59 90 60 91 68 92 61 93 67 94 62 95 63 96 64 97 65 98
REMARK SMILES IDX 66 99
REMARK H PARENT 16 12 3 17 27 30 31 36 87 55 57 66
REMARK Flexibility Score: inf
ROOT
ATOM      1  N   UNL A   1      31.747  28.001  23.194  1.00  0.00    -0.329 N 
ATOM      2  C   UNL A   1      30.551  28.190  22.408  1.00  0.00     0.120 C 
ATOM      3  C   UNL A   1      30.094  29.588  22.769  1.00  0.00     0.024 C 
ATOM      4  C   UNL A   1      30.482  29.731  24.236  1.00  0.00     0.037 C 
ATOM      5  C   UNL A   1      31.671  28.768  24.447  1.00  0.00     0.174 C 
ENDROOT
BRANCH   1   6
ATOM      6  C   UNL A   1      32.678  27.011  22.970  1.00  0.00     0.242 C 
ATOM      7  O   UNL A   1      33.880  27.166  23.184  1.00  0.00    -0.273 OA
BRANCH   6   8
ATOM      8  C   UNL A   1      32.199  25.741  22.263  1.00  0.00     0.216 C 
BRANCH   8   9
ATOM      9  N   UNL A   1      31.480  24.832  23.134  1.00  0.00    -0.345 N 
ATOM     10  C   UNL A   1      31.947  23.858  23.965  1.00  0.00     0.242 C 
ATOM     11  O   UNL A   1      31.117  23.203  24.602  1.00  0.00    -0.273 OA
ATOM     12  H   UNL A   1      30.502  24.935  23.125  1.00  0.00     0.164 HD
BRANCH  10  13
ATOM     13  C   UNL A   1      33.463  23.644  24.177  1.00  0.00     0.171 C 
ATOM     14  C   UNL A   1      34.048  22.988  22.933  1.00  0.00     0.042 C 
BRANCH  13  15
ATOM     15  N   UNL A   1      33.665  22.963  25.454  1.00  0.00    -0.310 N 
ATOM     16  C   UNL A   1      33.703  21.647  25.778  1.00  0.00     0.408 C 
ATOM     17  H   UNL A   1      33.797  23.570  26.217  1.00  0.00     0.167 HD
ATOM     18  O   UNL A   1      33.732  21.309  26.956  1.00  0.00    -0.225 OA
BRANCH  16  19
ATOM     19  O   UNL A   1      33.656  20.819  24.715  1.00  0.00    -0.445 OA
BRANCH  19  20
ATOM     20  C   UNL A   1      32.525  19.935  24.672  1.00  0.00     0.270 C 
BRANCH  20  21
ATOM     21  C   UNL A   1      32.914  18.478  24.638  1.00  0.00    -0.011 A 
ATOM     22  C   UNL A   1      33.531  17.908  23.516  1.00  0.00     0.007 A 
ATOM     23  C   UNL A   1      32.617  17.659  25.736  1.00  0.00     0.007 A 
ATOM     24  C   UNL A   1      33.876  16.556  23.508  1.00  0.00     0.000 A 
ATOM     25  C   UNL A   1      32.957  16.307  25.725  1.00  0.00     0.000 A 
ATOM     26  C   UNL A   1      33.591  15.757  24.613  1.00  0.00     0.000 A 
ENDBRANCH  20  21
ENDBRANCH  19  20
ENDBRANCH  16  19
ENDBRANCH  13  15
ENDBRANCH  10  13
ENDBRANCH   8   9
ENDBRANCH   6   8
ENDBRANCH   1   6
BRANCH   5  27
ATOM     27  C   UNL A   1      31.420  27.895  25.694  1.00  0.00     0.242 C 
ATOM     28  O   UNL A   1      30.869  26.793  25.637  1.00  0.00    -0.273 OA
ATOM     29  N   UNL A   1      31.873  28.324  26.910  1.00  0.00    -0.354 N 
ATOM     30  H   UNL A   1      31.518  27.845  27.693  1.00  0.00     0.163 HD
BRANCH  29  31
ATOM     31  C   UNL A   1      32.812  29.397  27.196  1.00  0.00     0.117 C 
BRANCH  31  32
ATOM     32  C   UNL A   1      34.242  28.914  27.325  1.00  0.00     0.042 C 
BRANCH  32  33
ATOM     33  C   UNL A   1      35.243  30.038  27.543  1.00  0.00     0.118 C 
BRANCH  33  34
ATOM     34  N   UNL A   1      35.306  30.495  28.928  1.00  0.00    -0.352 N 
ATOM     35  C   UNL A   1      36.277  30.304  29.882  1.00  0.00     0.251 C 
ATOM     36  H   UNL A   1      34.530  31.023  29.226  1.00  0.00     0.163 HD
ATOM     37  O   UNL A   1      36.071  30.638  31.045  1.00  0.00    -0.269 OA
BRANCH  35  38
ATOM     38  C   UNL A   1      37.553  29.659  29.511  1.00  0.00     0.039 A 
ATOM     39  C   UNL A   1      38.026  29.791  28.203  1.00  0.00     0.014 A 
ATOM     40  C   UNL A   1      38.304  28.963  30.460  1.00  0.00     0.014 A 
ATOM     41  C   UNL A   1      39.299  29.320  27.880  1.00  0.00     0.010 A 
ATOM     42  C   UNL A   1      39.608  28.586  30.166  1.00  0.00     0.010 A 
ATOM     43  C   UNL A   1      40.125  28.771  28.876  1.00  0.00    -0.014 A 
BRANCH  43  44
ATOM     44  C   UNL A   1      41.543  28.426  28.603  1.00  0.00     0.031 A 
ATOM     45  C   UNL A   1      42.601  29.495  28.619  1.00  0.00     0.074 A 
ATOM     46  C   UNL A   1      41.862  27.163  28.256  1.00  0.00     0.049 A 
ATOM     47  N   UNL A   1      43.872  29.399  28.325  1.00  0.00    -0.248 NA
ATOM     48  C   UNL A   1      42.170  30.854  28.988  1.00  0.00     0.031 C 
ATOM     49  C   UNL A   1      40.918  26.044  28.163  1.00  0.00     0.029 A 
ATOM     50  N   UNL A   1      43.067  26.604  27.908  1.00  0.00    -0.354 N 
ATOM     51  C   UNL A   1      44.388  30.683  28.459  1.00  0.00     0.074 A 
ATOM     52  C   UNL A   1      43.284  31.549  28.808  1.00  0.00     0.031 C 
ATOM     53  C   UNL A   1      41.583  24.932  27.814  1.00  0.00     0.029 A 
ATOM     54  C   UNL A   1      42.988  25.264  27.603  1.00  0.00     0.049 A 
ATOM     55  H   UNL A   1      43.908  27.113  27.879  1.00  0.00     0.167 HD
ATOM     56  C   UNL A   1      45.670  31.098  28.323  1.00  0.00     0.031 A 
ATOM     57  C   UNL A   1      43.935  24.402  27.183  1.00  0.00     0.031 A 
ATOM     58  C   UNL A   1      46.764  30.229  27.977  1.00  0.00     0.049 A 
ATOM     59  C   UNL A   1      45.343  24.896  27.000  1.00  0.00     0.074 A 
ATOM     60  C   UNL A   1      48.108  30.542  27.871  1.00  0.00     0.029 A 
ATOM     61  N   UNL A   1      46.640  28.882  27.669  1.00  0.00    -0.354 N 
ATOM     62  N   UNL A   1      45.827  26.097  27.211  1.00  0.00    -0.248 NA
ATOM     63  C   UNL A   1      46.333  23.921  26.524  1.00  0.00     0.031 C 
ATOM     64  C   UNL A   1      48.786  29.401  27.432  1.00  0.00     0.029 A 
ATOM     65  C   UNL A   1      47.879  28.359  27.333  1.00  0.00     0.049 A 
ATOM     66  H   UNL A   1      45.798  28.373  27.688  1.00  0.00     0.167 HD
ATOM     67  C   UNL A   1      47.182  26.017  26.912  1.00  0.00     0.074 A 
ATOM     68  C   UNL A   1      47.444  24.644  26.528  1.00  0.00     0.031 C 
ATOM     69  C   UNL A   1      48.123  26.991  26.947  1.00  0.00     0.031 A 
BRANCH  56  70
ATOM     70  C   UNL A   1      45.959  32.561  28.540  1.00  0.00    -0.014 A 
ATOM     71  C   UNL A   1      46.332  33.049  29.805  1.00  0.00     0.010 A 
ATOM     72  C   UNL A   1      45.903  33.452  27.453  1.00  0.00     0.010 A 
ATOM     73  C   UNL A   1      46.607  34.407  29.988  1.00  0.00     0.020 A 
ATOM     74  C   UNL A   1      46.208  34.805  27.624  1.00  0.00     0.020 A 
ATOM     75  C   UNL A   1      46.542  35.278  28.895  1.00  0.00     0.054 A 
BRANCH  75  76
ATOM     76  S   UNL A   1      46.932  37.030  29.158  1.00  0.00     0.124 S 
ATOM     77  O   UNL A   1      47.654  37.363  27.933  1.00  0.00    -0.237 OA
ATOM     78  O   UNL A   1      45.609  37.634  29.291  1.00  0.00    -0.237 OA
ATOM     79  O   UNL A   1      47.739  37.028  30.375  1.00  0.00    -0.744 OA
ENDBRANCH  75  76
ENDBRANCH  56  70
BRANCH  57  80
ATOM     80  C   UNL A   1      43.577  22.983  26.902  1.00  0.00    -0.014 A 
ATOM     81  C   UNL A   1      42.823  22.239  27.826  1.00  0.00     0.010 A 
ATOM     82  C   UNL A   1      43.981  22.371  25.700  1.00  0.00     0.010 A 
ATOM     83  C   UNL A   1      42.493  20.906  27.562  1.00  0.00     0.020 A 
ATOM     84  C   UNL A   1      43.624  21.049  25.418  1.00  0.00     0.020 A 
ATOM     85  C   UNL A   1      42.891  20.321  26.356  1.00  0.00     0.054 A 
BRANCH  85  86
ATOM     86  S   UNL A   1      42.404  18.608  26.011  1.00  0.00     0.124 S 
ATOM     87  O   UNL A   1      40.984  18.751  25.706  1.00  0.00    -0.237 OA
ATOM     88  O   UNL A   1      43.263  18.260  24.881  1.00  0.00    -0.237 OA
ATOM     89  O   UNL A   1      42.712  17.908  27.256  1.00  0.00    -0.744 OA
ENDBRANCH  85  86
ENDBRANCH  57  80
BRANCH  69  90
ATOM     90  C   UNL A   1      49.533  26.613  26.576  1.00  0.00    -0.014 A 
ATOM     91  C   UNL A   1      50.390  26.005  27.510  1.00  0.00     0.010 A 
ATOM     92  C   UNL A   1      49.980  26.801  25.255  1.00  0.00     0.010 A 
ATOM     93  C   UNL A   1      51.675  25.607  27.134  1.00  0.00     0.020 A 
ATOM     94  C   UNL A   1      51.253  26.377  24.868  1.00  0.00     0.020 A 
ATOM     95  C   UNL A   1      52.096  25.790  25.812  1.00  0.00     0.054 A 
BRANCH  95  96
ATOM     96  S   UNL A   1      53.745  25.201  25.337  1.00  0.00     0.124 S 
ATOM     97  O   UNL A   1      54.594  25.823  26.351  1.00  0.00    -0.237 OA
ATOM     98  O   UNL A   1      53.606  23.751  25.437  1.00  0.00    -0.237 OA
ATOM     99  O   UNL A   1      53.919  25.713  23.981  1.00  0.00    -0.744 OA
ENDBRANCH  95  96
ENDBRANCH  69  90
ENDBRANCH  43  44
ENDBRANCH  35  38
ENDBRANCH  33  34
ENDBRANCH  32  33
ENDBRANCH  31  32
ENDBRANCH  29  31
ENDBRANCH   5  27
TORSDOF 21
ENDMDL
MODEL 3
REMARK VINA RESULT:     -10.2      1.590      8.410
REMARK SMILES C[C@H](NC(=O)OCc1ccccc1)C(=O)NCC(=O)N1CCC[C@H]1C(=O)NCCCNC(=O)c1ccc(-c2c3nc(c(-c4ccc(S(=O)(=O)[O-])cc4)c4ccc([nH]4)c(-c4ccc(S(=O)(=O)[O-])cc4)c4nc(c(-c5ccc(S(=O)(=O)[O-])cc5)c5ccc2[nH]5)C=C4)C=C3)cc1
REMARK SMILES IDX 20 1 21 2 22 3 23 4 24 5 18 6 19 7 17 8 16 9 14 10 15 11
REMARK SMILES IDX 2 13 1 14 3 15 4 16 5 18 6 19 7 20 8 21 9 22 13 23 10 24
REMARK SMILES IDX 12 25 11 26 25 27 26 28 27 29 28 31 29 32 30 33 31 34 32 35
REMARK SMILES IDX 33 37 34 38 35 39 93 40 36 41 92 42 37 43 38 44 39 45 86 46
REMARK SMILES IDX 40 47 91 48 85 49 87 50 41 51 90 52 84 53 83 54 42 56 72 57
REMARK SMILES IDX 53 58 71 59 54 60 57 61 70 62 88 63 55 64 56 65 69 67 89 68
REMARK SMILES IDX 58 69 43 70 44 71 52 72 45 73 51 74 46 75 47 76 48 77 49 78
REMARK SMILES IDX 50 79 73 80 74 81 82 82 75 83 81 84 76 85 77 86 78 87 79 88
REMARK SMILES IDX 80 89 59 90 60 91 68 92 61 93 67 94 62 95 63 96 64 97 65 98
REMARK SMILES IDX 66 99
REMARK H PARENT 16 12 3 17 27 30 31 36 87 55 57 66
REMARK Flexibility Score: inf
ROOT
ATOM      1  N   UNL A   1      32.147  24.091  24.953  1.00  0.00    -0.329 N 
ATOM      2  C   UNL A   1      31.499  23.024  24.228  1.00  0.00     0.120 C 
ATOM      3  C   UNL A   1      30.748  23.738  23.123  1.00  0.00     0.024 C 
ATOM      4  C   UNL A   1      30.318  25.052  23.765  1.00  0.00     0.037 C 
ATOM      5  C   UNL A   1      31.351  25.326  24.882  1.00  0.00     0.174 C 
ENDROOT
BRANCH   1   6
ATOM      6  C   UNL A   1      33.182  23.912  25.844  1.00  0.00     0.242 C 
ATOM      7  O   UNL A   1      33.085  23.199  26.842  1.00  0.00    -0.273 OA
BRANCH   6   8
ATOM      8  C   UNL A   1      34.429  24.782  25.661  1.00  0.00     0.216 C 
BRANCH   8   9
ATOM      9  N   UNL A   1      35.219  24.421  24.502  1.00  0.00    -0.345 N 
ATOM     10  C   UNL A   1      36.416  23.774  24.421  1.00  0.00     0.242 C 
ATOM     11  O   UNL A   1      36.894  23.594  23.298  1.00  0.00    -0.273 OA
ATOM     12  H   UNL A   1      34.830  24.681  23.636  1.00  0.00     0.164 HD
BRANCH  10  13
ATOM     13  C   UNL A   1      37.104  23.201  25.680  1.00  0.00     0.171 C 
ATOM     14  C   UNL A   1      38.192  24.168  26.132  1.00  0.00     0.042 C 
BRANCH  13  15
ATOM     15  N   UNL A   1      37.501  21.822  25.410  1.00  0.00    -0.310 N 
ATOM     16  C   UNL A   1      36.777  20.722  25.084  1.00  0.00     0.408 C 
ATOM     17  H   UNL A   1      38.470  21.662  25.476  1.00  0.00     0.167 HD
ATOM     18  O   UNL A   1      37.318  19.622  25.056  1.00  0.00    -0.225 OA
BRANCH  16  19
ATOM     19  O   UNL A   1      35.472  20.971  24.864  1.00  0.00    -0.445 OA
BRANCH  19  20
ATOM     20  C   UNL A   1      34.557  20.045  25.470  1.00  0.00     0.270 C 
BRANCH  20  21
ATOM     21  C   UNL A   1      33.874  19.147  24.469  1.00  0.00    -0.011 A 
ATOM     22  C   UNL A   1      34.336  17.849  24.212  1.00  0.00     0.007 A 
ATOM     23  C   UNL A   1      32.775  19.630  23.745  1.00  0.00     0.007 A 
ATOM     24  C   UNL A   1      33.689  17.040  23.277  1.00  0.00     0.000 A 
ATOM     25  C   UNL A   1      32.133  18.823  22.807  1.00  0.00     0.000 A 
ATOM     26  C   UNL A   1      32.587  17.526  22.577  1.00  0.00     0.000 A 
ENDBRANCH  20  21
ENDBRANCH  19  20
ENDBRANCH  16  19
ENDBRANCH  13  15
ENDBRANCH  10  13
ENDBRANCH   8   9
ENDBRANCH   6   8
ENDBRANCH   1   6
BRANCH   5  27
ATOM     27  C   UNL A   1      30.618  25.668  26.195  1.00  0.00     0.242 C 
ATOM     28  O   UNL A   1      29.688  24.990  26.637  1.00  0.00    -0.273 OA
ATOM     29  N   UNL A   1      31.046  26.733  26.939  1.00  0.00    -0.354 N 
ATOM     30  H   UNL A   1      30.434  27.034  27.649  1.00  0.00     0.163 HD
BRANCH  29  31
ATOM     31  C   UNL A   1      32.287  27.479  26.816  1.00  0.00     0.117 C 
BRANCH  31  32
ATOM     32  C   UNL A   1      32.101  28.973  26.991  1.00  0.00     0.042 C 
BRANCH  32  33
ATOM     33  C   UNL A   1      33.393  29.764  26.848  1.00  0.00     0.118 C 
BRANCH  33  34
ATOM     34  N   UNL A   1      33.262  31.161  27.250  1.00  0.00    -0.352 N 
ATOM     35  C   UNL A   1      34.092  31.946  28.015  1.00  0.00     0.251 C 
ATOM     36  H   UNL A   1      32.451  31.613  26.921  1.00  0.00     0.163 HD
ATOM     37  O   UNL A   1      33.725  33.061  28.374  1.00  0.00    -0.269 OA
BRANCH  35  38
ATOM     38  C   UNL A   1      35.408  31.426  28.438  1.00  0.00     0.039 A 
ATOM     39  C   UNL A   1      36.545  32.213  28.238  1.00  0.00     0.014 A 
ATOM     40  C   UNL A   1      35.516  30.186  29.070  1.00  0.00     0.014 A 
ATOM     41  C   UNL A   1      37.768  31.804  28.769  1.00  0.00     0.010 A 
ATOM     42  C   UNL A   1      36.709  29.829  29.686  1.00  0.00     0.010 A 
ATOM     43  C   UNL A   1      37.846  30.640  29.553  1.00  0.00    -0.014 A 
BRANCH  43  44
ATOM     44  C   UNL A   1      39.089  30.274  30.277  1.00  0.00     0.031 A 
ATOM     45  C   UNL A   1      39.943  29.136  29.791  1.00  0.00     0.074 A 
ATOM     46  C   UNL A   1      39.401  30.914  31.422  1.00  0.00     0.049 A 
ATOM     47  N   UNL A   1      41.015  28.620  30.336  1.00  0.00    -0.248 NA
ATOM     48  C   UNL A   1      39.526  28.474  28.543  1.00  0.00     0.031 C 
ATOM     49  C   UNL A   1      38.628  32.007  32.022  1.00  0.00     0.029 A 
ATOM     50  N   UNL A   1      40.445  30.734  32.296  1.00  0.00    -0.354 N 
ATOM     51  C   UNL A   1      41.390  27.568  29.509  1.00  0.00     0.074 A 
ATOM     52  C   UNL A   1      40.403  27.484  28.456  1.00  0.00     0.031 C 
ATOM     53  C   UNL A   1      39.240  32.418  33.143  1.00  0.00     0.029 A 
ATOM     54  C   UNL A   1      40.415  31.586  33.377  1.00  0.00     0.049 A 
ATOM     55  H   UNL A   1      41.148  30.059  32.162  1.00  0.00     0.167 HD
ATOM     56  C   UNL A   1      42.470  26.757  29.608  1.00  0.00     0.031 A 
ATOM     57  C   UNL A   1      41.231  31.676  34.446  1.00  0.00     0.031 A 
ATOM     58  C   UNL A   1      43.449  26.847  30.659  1.00  0.00     0.049 A 
ATOM     59  C   UNL A   1      42.401  30.737  34.554  1.00  0.00     0.074 A 
ATOM     60  C   UNL A   1      44.609  26.109  30.816  1.00  0.00     0.029 A 
ATOM     61  N   UNL A   1      43.378  27.717  31.737  1.00  0.00    -0.354 N 
ATOM     62  N   UNL A   1      42.784  29.802  33.718  1.00  0.00    -0.248 NA
ATOM     63  C   UNL A   1      43.248  30.866  35.747  1.00  0.00     0.031 C 
ATOM     64  C   UNL A   1      45.203  26.485  32.024  1.00  0.00     0.029 A 
ATOM     65  C   UNL A   1      44.453  27.506  32.585  1.00  0.00     0.049 A 
ATOM     66  H   UNL A   1      42.670  28.385  31.877  1.00  0.00     0.167 HD
ATOM     67  C   UNL A   1      43.929  29.243  34.275  1.00  0.00     0.074 A 
ATOM     68  C   UNL A   1      44.188  29.962  35.506  1.00  0.00     0.031 C 
ATOM     69  C   UNL A   1      44.694  28.226  33.811  1.00  0.00     0.031 A 
BRANCH  56  70
ATOM     70  C   UNL A   1      42.646  25.693  28.555  1.00  0.00    -0.014 A 
ATOM     71  C   UNL A   1      43.387  25.942  27.385  1.00  0.00     0.010 A 
ATOM     72  C   UNL A   1      42.103  24.411  28.760  1.00  0.00     0.010 A 
ATOM     73  C   UNL A   1      43.549  24.941  26.423  1.00  0.00     0.020 A 
ATOM     74  C   UNL A   1      42.290  23.398  27.815  1.00  0.00     0.020 A 
ATOM     75  C   UNL A   1      42.998  23.675  26.644  1.00  0.00     0.054 A 
BRANCH  75  76
ATOM     76  S   UNL A   1      43.250  22.389  25.390  1.00  0.00     0.124 S 
ATOM     77  O   UNL A   1      43.370  23.181  24.168  1.00  0.00    -0.237 OA
ATOM     78  O   UNL A   1      44.480  21.741  25.841  1.00  0.00    -0.237 OA
ATOM     79  O   UNL A   1      42.046  21.569  25.484  1.00  0.00    -0.744 OA
ENDBRANCH  75  76
ENDBRANCH  56  70
BRANCH  57  80
ATOM     80  C   UNL A   1      40.963  32.693  35.502  1.00  0.00    -0.014 A 
ATOM     81  C   UNL A   1      40.128  32.389  36.591  1.00  0.00     0.010 A 
ATOM     82  C   UNL A   1      41.553  33.969  35.429  1.00  0.00     0.010 A 
ATOM     83  C   UNL A   1      39.875  33.347  37.579  1.00  0.00     0.020 A 
ATOM     84  C   UNL A   1      41.329  34.917  36.432  1.00  0.00     0.020 A 
ATOM     85  C   UNL A   1      40.481  34.603  37.495  1.00  0.00     0.054 A 
BRANCH  85  86
ATOM     86  S   UNL A   1      40.182  35.810  38.816  1.00  0.00     0.124 S 
ATOM     87  O   UNL A   1      41.508  35.945  39.411  1.00  0.00    -0.237 OA
ATOM     88  O   UNL A   1      39.698  36.972  38.075  1.00  0.00    -0.237 OA
ATOM     89  O   UNL A   1      39.182  35.156  39.656  1.00  0.00    -0.744 OA
ENDBRANCH  85  86
ENDBRANCH  57  80
BRANCH  69  90
ATOM     90  C   UNL A   1      45.897  27.830  34.627  1.00  0.00    -0.014 A 
ATOM     91  C   UNL A   1      47.143  28.451  34.428  1.00  0.00     0.010 A 
ATOM     92  C   UNL A   1      45.760  26.879  35.654  1.00  0.00     0.010 A 
ATOM     93  C   UNL A   1      48.235  28.114  35.231  1.00  0.00     0.020 A 
ATOM     94  C   UNL A   1      46.842  26.563  36.479  1.00  0.00     0.020 A 
ATOM     95  C   UNL A   1      48.076  27.176  36.257  1.00  0.00     0.054 A 
BRANCH  95  96
ATOM     96  S   UNL A   1      49.494  26.811  37.327  1.00  0.00     0.124 S 
ATOM     97  O   UNL A   1      48.923  26.987  38.660  1.00  0.00    -0.237 OA
ATOM     98  O   UNL A   1      49.822  25.435  36.960  1.00  0.00    -0.237 OA
ATOM     99  O   UNL A   1      50.488  27.808  36.939  1.00  0.00    -0.744 OA
ENDBRANCH  95  96
ENDBRANCH  69  90
ENDBRANCH  43  44
ENDBRANCH  35  38
ENDBRANCH  33  34
ENDBRANCH  32  33
ENDBRANCH  31  32
ENDBRANCH  29  31
ENDBRANCH   5  27
TORSDOF 21
ENDMDL
