MODEL 1
REMARK VINA RESULT:     -12.7      0.000      0.000
REMARK SMILES O=C(NCCCNC(=O)c1cc(/C=C/c2cc(O)cc(O)c2)ccc1O)c1ccc(-c2c3nc(c(-c4ccc(S(=O)(=O)[O-])cc4)c4ccc([nH]4)c(-c4ccc(S(=O)(=O)[O-])cc4)c4nc(c(-c5ccc(S(=O)(=O)[O-])cc5)c5ccc2[nH]5)C=C4)C=C3)cc1
REMARK SMILES IDX 5 1 4 2 3 3 1 4 2 5 27 7 28 8 86 9 29 10 85 11 30 12 31 13
REMARK SMILES IDX 32 14 79 15 33 16 84 17 78 18 80 19 34 20 83 21 77 22 76 23
REMARK SMILES IDX 35 25 65 26 46 27 64 28 47 29 50 30 63 31 81 32 48 33 49 34
REMARK SMILES IDX 62 36 82 37 51 38 36 39 37 40 45 41 38 42 44 43 39 44 40 45
REMARK SMILES IDX 41 46 42 47 43 48 66 49 67 50 75 51 68 52 74 53 69 54 70 55
REMARK SMILES IDX 71 56 72 57 73 58 52 59 53 60 61 61 54 62 60 63 55 64 56 65
REMARK SMILES IDX 57 66 58 67 59 68 6 69 7 70 8 71 9 73 10 74 11 75 25 76
REMARK SMILES IDX 12 77 24 78 23 79 26 80 13 82 14 83 15 84 16 85 22 86 17 87
REMARK SMILES IDX 20 88 19 89 18 90 21 92
REMARK H PARENT 3 6 80 24 50 35 7 72 26 81 18 91 21 93
REMARK Flexibility Score: inf
ROOT
ATOM      1  C   UNL A   1      37.292  24.030  25.848  1.00  0.00     0.042 C 
ENDROOT
BRANCH   1   2
ATOM      2  C   UNL A   1      38.534  23.932  26.719  1.00  0.00     0.118 C 
BRANCH   2   3
ATOM      3  N   UNL A   1      39.755  24.281  26.002  1.00  0.00    -0.352 N 
ATOM      4  O   UNL A   1      41.482  25.551  25.320  1.00  0.00    -0.269 OA
ATOM      5  C   UNL A   1      40.612  25.342  26.164  1.00  0.00     0.251 C 
ATOM      6  H   UNL A   1      40.006  23.653  25.286  1.00  0.00     0.163 HD
BRANCH   5   7
ATOM      7  C   UNL A   1      40.480  26.245  27.329  1.00  0.00     0.039 A 
ATOM      8  C   UNL A   1      41.160  27.462  27.371  1.00  0.00     0.014 A 
ATOM      9  C   UNL A   1      39.639  25.882  28.386  1.00  0.00     0.014 A 
ATOM     10  C   UNL A   1      41.140  28.227  28.529  1.00  0.00     0.010 A 
ATOM     11  C   UNL A   1      39.531  26.711  29.508  1.00  0.00     0.010 A 
ATOM     12  C   UNL A   1      40.306  27.876  29.602  1.00  0.00    -0.014 A 
BRANCH  12  13
ATOM     13  C   UNL A   1      40.211  28.791  30.768  1.00  0.00     0.031 A 
ATOM     14  C   UNL A   1      41.142  28.665  31.943  1.00  0.00     0.074 A 
ATOM     15  C   UNL A   1      39.287  29.773  30.738  1.00  0.00     0.049 A 
ATOM     16  N   UNL A   1      41.209  29.408  33.019  1.00  0.00    -0.248 NA
ATOM     17  C   UNL A   1      42.119  27.565  31.914  1.00  0.00     0.031 C 
ATOM     18  C   UNL A   1      38.323  29.989  29.654  1.00  0.00     0.029 A 
ATOM     19  N   UNL A   1      39.022  30.787  31.622  1.00  0.00    -0.354 N 
ATOM     20  C   UNL A   1      42.215  28.856  33.804  1.00  0.00     0.074 A 
ATOM     21  C   UNL A   1      42.718  27.702  33.090  1.00  0.00     0.031 C 
ATOM     22  C   UNL A   1      37.616  31.099  29.907  1.00  0.00     0.029 A 
ATOM     23  C   UNL A   1      38.021  31.631  31.203  1.00  0.00     0.049 A 
ATOM     24  H   UNL A   1      39.501  30.900  32.474  1.00  0.00     0.167 HD
ATOM     25  C   UNL A   1      42.678  29.277  35.006  1.00  0.00     0.031 A 
ATOM     26  C   UNL A   1      37.473  32.707  31.797  1.00  0.00     0.031 A 
ATOM     27  C   UNL A   1      42.171  30.428  35.709  1.00  0.00     0.049 A 
ATOM     28  C   UNL A   1      37.987  33.134  33.139  1.00  0.00     0.074 A 
ATOM     29  C   UNL A   1      42.593  30.951  36.920  1.00  0.00     0.029 A 
ATOM     30  N   UNL A   1      41.130  31.234  35.270  1.00  0.00    -0.354 N 
ATOM     31  N   UNL A   1      38.958  32.613  33.851  1.00  0.00    -0.248 NA
ATOM     32  C   UNL A   1      37.330  34.291  33.760  1.00  0.00     0.031 C 
ATOM     33  C   UNL A   1      41.774  32.041  37.236  1.00  0.00     0.029 A 
ATOM     34  C   UNL A   1      40.879  32.232  36.197  1.00  0.00     0.049 A 
ATOM     35  H   UNL A   1      40.642  31.112  34.424  1.00  0.00     0.167 HD
ATOM     36  C   UNL A   1      39.039  33.388  35.000  1.00  0.00     0.074 A 
ATOM     37  C   UNL A   1      38.034  34.426  34.877  1.00  0.00     0.031 C 
ATOM     38  C   UNL A   1      39.868  33.251  36.063  1.00  0.00     0.031 A 
BRANCH  25  39
ATOM     39  C   UNL A   1      43.772  28.471  35.658  1.00  0.00    -0.014 A 
ATOM     40  C   UNL A   1      45.129  28.772  35.440  1.00  0.00     0.010 A 
ATOM     41  C   UNL A   1      43.437  27.430  36.543  1.00  0.00     0.010 A 
ATOM     42  C   UNL A   1      46.129  28.022  36.067  1.00  0.00     0.020 A 
ATOM     43  C   UNL A   1      44.434  26.694  37.190  1.00  0.00     0.020 A 
ATOM     44  C   UNL A   1      45.775  26.984  36.934  1.00  0.00     0.054 A 
BRANCH  44  45
ATOM     45  S   UNL A   1      47.094  26.039  37.747  1.00  0.00     0.124 S 
ATOM     46  O   UNL A   1      48.275  26.471  37.002  1.00  0.00    -0.237 OA
ATOM     47  O   UNL A   1      47.020  26.505  39.129  1.00  0.00    -0.237 OA
ATOM     48  O   UNL A   1      46.703  24.646  37.539  1.00  0.00    -0.744 OA
ENDBRANCH  44  45
ENDBRANCH  25  39
BRANCH  26  49
ATOM     49  C   UNL A   1      36.362  33.432  31.125  1.00  0.00    -0.014 A 
ATOM     50  C   UNL A   1      35.144  33.654  31.789  1.00  0.00     0.010 A 
ATOM     51  C   UNL A   1      36.535  33.938  29.822  1.00  0.00     0.010 A 
ATOM     52  C   UNL A   1      34.114  34.359  31.159  1.00  0.00     0.020 A 
ATOM     53  C   UNL A   1      35.520  34.670  29.202  1.00  0.00     0.020 A 
ATOM     54  C   UNL A   1      34.311  34.865  29.870  1.00  0.00     0.054 A 
BRANCH  54  55
ATOM     55  S   UNL A   1      32.984  35.829  29.094  1.00  0.00     0.124 S 
ATOM     56  O   UNL A   1      32.370  34.842  28.212  1.00  0.00    -0.237 OA
ATOM     57  O   UNL A   1      32.180  36.242  30.241  1.00  0.00    -0.237 OA
ATOM     58  O   UNL A   1      33.698  36.912  28.422  1.00  0.00    -0.744 OA
ENDBRANCH  54  55
ENDBRANCH  26  49
BRANCH  38  59
ATOM     59  C   UNL A   1      39.736  34.263  37.168  1.00  0.00    -0.014 A 
ATOM     60  C   UNL A   1      40.327  35.534  37.062  1.00  0.00     0.010 A 
ATOM     61  C   UNL A   1      38.981  33.948  38.312  1.00  0.00     0.010 A 
ATOM     62  C   UNL A   1      40.192  36.462  38.098  1.00  0.00     0.020 A 
ATOM     63  C   UNL A   1      38.822  34.883  39.338  1.00  0.00     0.020 A 
ATOM     64  C   UNL A   1      39.442  36.129  39.230  1.00  0.00     0.054 A 
BRANCH  64  65
ATOM     65  S   UNL A   1      39.251  37.363  40.545  1.00  0.00     0.124 S 
ATOM     66  O   UNL A   1      38.300  38.298  39.948  1.00  0.00    -0.237 OA
ATOM     67  O   UNL A   1      38.738  36.570  41.660  1.00  0.00    -0.237 OA
ATOM     68  O   UNL A   1      40.603  37.884  40.730  1.00  0.00    -0.744 OA
ENDBRANCH  64  65
ENDBRANCH  38  59
ENDBRANCH  12  13
ENDBRANCH   5   7
ENDBRANCH   2   3
ENDBRANCH   1   2
BRANCH   1  69
ATOM     69  C   UNL A   1      36.476  22.749  25.792  1.00  0.00     0.118 C 
BRANCH  69  70
ATOM     70  N   UNL A   1      35.543  22.636  26.903  1.00  0.00    -0.352 N 
ATOM     71  C   UNL A   1      34.172  22.591  26.879  1.00  0.00     0.255 C 
ATOM     72  H   UNL A   1      35.953  22.585  27.796  1.00  0.00     0.163 HD
ATOM     73  O   UNL A   1      33.537  22.592  27.932  1.00  0.00    -0.269 OA
BRANCH  71  74
ATOM     74  C   UNL A   1      33.448  22.623  25.595  1.00  0.00     0.082 A 
ATOM     75  C   UNL A   1      32.887  23.851  25.212  1.00  0.00     0.025 A 
ATOM     76  C   UNL A   1      33.290  21.495  24.785  1.00  0.00     0.128 A 
ATOM     77  C   UNL A   1      32.206  23.976  23.997  1.00  0.00    -0.025 A 
ATOM     78  C   UNL A   1      32.643  21.611  23.559  1.00  0.00     0.047 A 
ATOM     79  C   UNL A   1      32.114  22.845  23.167  1.00  0.00     0.012 A 
BRANCH  76  80
ATOM     80  O   UNL A   1      33.771  20.280  25.183  1.00  0.00    -0.507 OA
ATOM     81  H   UNL A   1      34.257  19.748  24.583  1.00  0.00     0.293 HD
ENDBRANCH  76  80
BRANCH  77  82
ATOM     82  C   UNL A   1      31.575  25.229  23.541  1.00  0.00     0.009 C 
ATOM     83  C   UNL A   1      30.469  25.790  24.058  1.00  0.00     0.009 C 
BRANCH  83  84
ATOM     84  C   UNL A   1      29.866  27.014  23.512  1.00  0.00    -0.018 A 
ATOM     85  C   UNL A   1      30.641  27.966  22.831  1.00  0.00     0.054 A 
ATOM     86  C   UNL A   1      28.482  27.200  23.613  1.00  0.00     0.054 A 
ATOM     87  C   UNL A   1      30.030  29.090  22.279  1.00  0.00     0.119 A 
ATOM     88  C   UNL A   1      27.893  28.334  23.055  1.00  0.00     0.119 A 
ATOM     89  C   UNL A   1      28.659  29.282  22.387  1.00  0.00     0.092 A 
BRANCH  87  90
ATOM     90  O   UNL A   1      30.757  30.031  21.608  1.00  0.00    -0.508 OA
ATOM     91  H   UNL A   1      31.684  30.080  21.729  1.00  0.00     0.293 HD
ENDBRANCH  87  90
BRANCH  88  92
ATOM     92  O   UNL A   1      26.548  28.549  23.139  1.00  0.00    -0.508 OA
ATOM     93  H   UNL A   1      26.130  28.580  23.977  1.00  0.00     0.293 HD
ENDBRANCH  88  92
ENDBRANCH  83  84
ENDBRANCH  77  82
ENDBRANCH  71  74
ENDBRANCH  69  70
ENDBRANCH   1  69
TORSDOF 18
ENDMDL
MODEL 2
REMARK VINA RESULT:     -12.4      1.630      2.333
REMARK SMILES O=C(NCCCNC(=O)c1cc(/C=C/c2cc(O)cc(O)c2)ccc1O)c1ccc(-c2c3nc(c(-c4ccc(S(=O)(=O)[O-])cc4)c4ccc([nH]4)c(-c4ccc(S(=O)(=O)[O-])cc4)c4nc(c(-c5ccc(S(=O)(=O)[O-])cc5)c5ccc2[nH]5)C=C4)C=C3)cc1
REMARK SMILES IDX 5 1 4 2 3 3 1 4 2 5 27 7 28 8 86 9 29 10 85 11 30 12 31 13
REMARK SMILES IDX 32 14 79 15 33 16 84 17 78 18 80 19 34 20 83 21 77 22 76 23
REMARK SMILES IDX 35 25 65 26 46 27 64 28 47 29 50 30 63 31 81 32 48 33 49 34
REMARK SMILES IDX 62 36 82 37 51 38 36 39 37 40 45 41 38 42 44 43 39 44 40 45
REMARK SMILES IDX 41 46 42 47 43 48 66 49 67 50 75 51 68 52 74 53 69 54 70 55
REMARK SMILES IDX 71 56 72 57 73 58 52 59 53 60 61 61 54 62 60 63 55 64 56 65
REMARK SMILES IDX 57 66 58 67 59 68 6 69 7 70 8 71 9 73 10 74 11 75 25 76
REMARK SMILES IDX 12 77 24 78 23 79 26 80 13 82 14 83 15 84 16 85 22 86 17 87
REMARK SMILES IDX 20 88 19 89 18 90 21 92
REMARK H PARENT 3 6 80 24 50 35 7 72 26 81 18 91 21 93
REMARK Flexibility Score: inf
ROOT
ATOM      1  C   UNL A   1      39.748  22.084  26.834  1.00  0.00     0.042 C 
ENDROOT
BRANCH   1   2
ATOM      2  C   UNL A   1      40.804  23.075  27.298  1.00  0.00     0.118 C 
BRANCH   2   3
ATOM      3  N   UNL A   1      41.353  23.869  26.205  1.00  0.00    -0.352 N 
ATOM      4  O   UNL A   1      41.821  25.704  24.992  1.00  0.00    -0.269 OA
ATOM      5  C   UNL A   1      41.514  25.227  26.083  1.00  0.00     0.251 C 
ATOM      6  H   UNL A   1      41.657  23.345  25.429  1.00  0.00     0.163 HD
BRANCH   5   7
ATOM      7  C   UNL A   1      41.299  26.118  27.245  1.00  0.00     0.039 A 
ATOM      8  C   UNL A   1      42.122  27.224  27.459  1.00  0.00     0.014 A 
ATOM      9  C   UNL A   1      40.239  25.860  28.121  1.00  0.00     0.014 A 
ATOM     10  C   UNL A   1      41.998  27.963  28.628  1.00  0.00     0.010 A 
ATOM     11  C   UNL A   1      40.045  26.675  29.241  1.00  0.00     0.010 A 
ATOM     12  C   UNL A   1      40.944  27.716  29.522  1.00  0.00    -0.014 A 
BRANCH  12  13
ATOM     13  C   UNL A   1      40.766  28.613  30.691  1.00  0.00     0.031 A 
ATOM     14  C   UNL A   1      41.666  28.522  31.894  1.00  0.00     0.074 A 
ATOM     15  C   UNL A   1      39.796  29.547  30.640  1.00  0.00     0.049 A 
ATOM     16  N   UNL A   1      41.661  29.257  32.977  1.00  0.00    -0.248 NA
ATOM     17  C   UNL A   1      42.697  27.473  31.887  1.00  0.00     0.031 C 
ATOM     18  C   UNL A   1      38.856  29.726  29.528  1.00  0.00     0.029 A 
ATOM     19  N   UNL A   1      39.452  30.538  31.523  1.00  0.00    -0.354 N 
ATOM     20  C   UNL A   1      42.669  28.749  33.789  1.00  0.00     0.074 A 
ATOM     21  C   UNL A   1      43.252  27.628  33.082  1.00  0.00     0.031 C 
ATOM     22  C   UNL A   1      38.086  30.796  29.768  1.00  0.00     0.029 A 
ATOM     23  C   UNL A   1      38.424  31.335  31.080  1.00  0.00     0.049 A 
ATOM     24  H   UNL A   1      39.899  30.666  32.391  1.00  0.00     0.167 HD
ATOM     25  C   UNL A   1      43.073  29.180  35.009  1.00  0.00     0.031 A 
ATOM     26  C   UNL A   1      37.804  32.376  31.665  1.00  0.00     0.031 A 
ATOM     27  C   UNL A   1      42.487  30.298  35.705  1.00  0.00     0.049 A 
ATOM     28  C   UNL A   1      38.253  32.815  33.027  1.00  0.00     0.074 A 
ATOM     29  C   UNL A   1      42.844  30.829  36.933  1.00  0.00     0.029 A 
ATOM     30  N   UNL A   1      41.420  31.054  35.240  1.00  0.00    -0.354 N 
ATOM     31  N   UNL A   1      39.227  32.337  33.764  1.00  0.00    -0.248 NA
ATOM     32  C   UNL A   1      37.520  33.932  33.636  1.00  0.00     0.031 C 
ATOM     33  C   UNL A   1      41.961  31.873  37.232  1.00  0.00     0.029 A 
ATOM     34  C   UNL A   1      41.091  32.030  36.166  1.00  0.00     0.049 A 
ATOM     35  H   UNL A   1      40.966  30.917  34.378  1.00  0.00     0.167 HD
ATOM     36  C   UNL A   1      39.233  33.104  34.922  1.00  0.00     0.074 A 
ATOM     37  C   UNL A   1      38.181  34.091  34.776  1.00  0.00     0.031 C 
ATOM     38  C   UNL A   1      40.034  32.998  36.009  1.00  0.00     0.031 A 
BRANCH  25  39
ATOM     39  C   UNL A   1      44.185  28.424  35.688  1.00  0.00    -0.014 A 
ATOM     40  C   UNL A   1      45.531  28.791  35.510  1.00  0.00     0.010 A 
ATOM     41  C   UNL A   1      43.876  27.363  36.559  1.00  0.00     0.010 A 
ATOM     42  C   UNL A   1      46.549  28.086  36.162  1.00  0.00     0.020 A 
ATOM     43  C   UNL A   1      44.888  26.671  37.231  1.00  0.00     0.020 A 
ATOM     44  C   UNL A   1      46.220  27.027  37.015  1.00  0.00     0.054 A 
BRANCH  44  45
ATOM     45  S   UNL A   1      47.560  26.141  37.861  1.00  0.00     0.124 S 
ATOM     46  O   UNL A   1      46.822  25.125  38.608  1.00  0.00    -0.237 OA
ATOM     47  O   UNL A   1      48.366  25.641  36.751  1.00  0.00    -0.237 OA
ATOM     48  O   UNL A   1      48.197  27.173  38.676  1.00  0.00    -0.744 OA
ENDBRANCH  44  45
ENDBRANCH  25  39
BRANCH  26  49
ATOM     49  C   UNL A   1      36.679  33.051  30.964  1.00  0.00    -0.014 A 
ATOM     50  C   UNL A   1      35.354  32.878  31.400  1.00  0.00     0.010 A 
ATOM     51  C   UNL A   1      36.937  33.904  29.874  1.00  0.00     0.010 A 
ATOM     52  C   UNL A   1      34.306  33.537  30.751  1.00  0.00     0.020 A 
ATOM     53  C   UNL A   1      35.895  34.588  29.243  1.00  0.00     0.020 A 
ATOM     54  C   UNL A   1      34.584  34.391  29.678  1.00  0.00     0.054 A 
BRANCH  54  55
ATOM     55  S   UNL A   1      33.216  35.282  28.889  1.00  0.00     0.124 S 
ATOM     56  O   UNL A   1      32.492  35.808  30.042  1.00  0.00    -0.237 OA
ATOM     57  O   UNL A   1      33.912  36.273  28.072  1.00  0.00    -0.237 OA
ATOM     58  O   UNL A   1      32.522  34.242  28.134  1.00  0.00    -0.744 OA
ENDBRANCH  54  55
ENDBRANCH  26  49
BRANCH  38  59
ATOM     59  C   UNL A   1      39.817  33.991  37.118  1.00  0.00    -0.014 A 
ATOM     60  C   UNL A   1      38.985  33.689  38.210  1.00  0.00     0.010 A 
ATOM     61  C   UNL A   1      40.484  35.228  37.082  1.00  0.00     0.010 A 
ATOM     62  C   UNL A   1      38.797  34.624  39.232  1.00  0.00     0.020 A 
ATOM     63  C   UNL A   1      40.319  36.154  38.115  1.00  0.00     0.020 A 
ATOM     64  C   UNL A   1      39.464  35.852  39.176  1.00  0.00     0.054 A 
BRANCH  64  65
ATOM     65  S   UNL A   1      39.234  37.033  40.532  1.00  0.00     0.124 S 
ATOM     66  O   UNL A   1      38.743  36.172  41.605  1.00  0.00    -0.237 OA
ATOM     67  O   UNL A   1      40.579  37.571  40.723  1.00  0.00    -0.237 OA
ATOM     68  O   UNL A   1      38.260  37.983  40.001  1.00  0.00    -0.744 OA
ENDBRANCH  64  65
ENDBRANCH  38  59
ENDBRANCH  12  13
ENDBRANCH   5   7
ENDBRANCH   2   3
ENDBRANCH   1   2
BRANCH   1  69
ATOM     69  C   UNL A   1      38.444  22.731  26.398  1.00  0.00     0.118 C 
BRANCH  69  70
ATOM     70  N   UNL A   1      38.151  22.499  24.992  1.00  0.00    -0.352 N 
ATOM     71  C   UNL A   1      36.952  22.594  24.332  1.00  0.00     0.255 C 
ATOM     72  H   UNL A   1      38.920  22.237  24.438  1.00  0.00     0.163 HD
ATOM     73  O   UNL A   1      36.871  22.263  23.151  1.00  0.00    -0.269 OA
BRANCH  71  74
ATOM     74  C   UNL A   1      35.736  23.015  25.053  1.00  0.00     0.082 A 
ATOM     75  C   UNL A   1      35.412  24.380  25.010  1.00  0.00     0.025 A 
ATOM     76  C   UNL A   1      34.935  22.125  25.774  1.00  0.00     0.128 A 
ATOM     77  C   UNL A   1      34.262  24.861  25.645  1.00  0.00    -0.025 A 
ATOM     78  C   UNL A   1      33.771  22.583  26.383  1.00  0.00     0.047 A 
ATOM     79  C   UNL A   1      33.436  23.939  26.310  1.00  0.00     0.012 A 
BRANCH  76  80
ATOM     80  O   UNL A   1      35.281  20.808  25.880  1.00  0.00    -0.507 OA
ATOM     81  H   UNL A   1      35.733  20.502  26.642  1.00  0.00     0.293 HD
ENDBRANCH  76  80
BRANCH  77  82
ATOM     82  C   UNL A   1      33.872  26.283  25.657  1.00  0.00     0.009 C 
ATOM     83  C   UNL A   1      32.968  26.847  26.475  1.00  0.00     0.009 C 
BRANCH  83  84
ATOM     84  C   UNL A   1      32.590  28.264  26.390  1.00  0.00    -0.018 A 
ATOM     85  C   UNL A   1      33.196  29.230  27.208  1.00  0.00     0.054 A 
ATOM     86  C   UNL A   1      31.657  28.668  25.426  1.00  0.00     0.054 A 
ATOM     87  C   UNL A   1      32.854  30.573  27.066  1.00  0.00     0.119 A 
ATOM     88  C   UNL A   1      31.328  30.017  25.303  1.00  0.00     0.119 A 
ATOM     89  C   UNL A   1      31.921  30.974  26.118  1.00  0.00     0.092 A 
BRANCH  87  90
ATOM     90  O   UNL A   1      33.429  31.535  27.845  1.00  0.00    -0.508 OA
ATOM     91  H   UNL A   1      32.983  31.850  28.606  1.00  0.00     0.293 HD
ENDBRANCH  87  90
BRANCH  88  92
ATOM     92  O   UNL A   1      30.421  30.445  24.378  1.00  0.00    -0.508 OA
ATOM     93  H   UNL A   1      30.424  30.078  23.515  1.00  0.00     0.293 HD
ENDBRANCH  88  92
ENDBRANCH  83  84
ENDBRANCH  77  82
ENDBRANCH  71  74
ENDBRANCH  69  70
ENDBRANCH   1  69
TORSDOF 18
ENDMDL
MODEL 3
REMARK VINA RESULT:     -12.4      5.623     11.960
REMARK SMILES O=C(NCCCNC(=O)c1cc(/C=C/c2cc(O)cc(O)c2)ccc1O)c1ccc(-c2c3nc(c(-c4ccc(S(=O)(=O)[O-])cc4)c4ccc([nH]4)c(-c4ccc(S(=O)(=O)[O-])cc4)c4nc(c(-c5ccc(S(=O)(=O)[O-])cc5)c5ccc2[nH]5)C=C4)C=C3)cc1
REMARK SMILES IDX 5 1 4 2 3 3 1 4 2 5 27 7 28 8 86 9 29 10 85 11 30 12 31 13
REMARK SMILES IDX 32 14 79 15 33 16 84 17 78 18 80 19 34 20 83 21 77 22 76 23
REMARK SMILES IDX 35 25 65 26 46 27 64 28 47 29 50 30 63 31 81 32 48 33 49 34
REMARK SMILES IDX 62 36 82 37 51 38 36 39 37 40 45 41 38 42 44 43 39 44 40 45
REMARK SMILES IDX 41 46 42 47 43 48 66 49 67 50 75 51 68 52 74 53 69 54 70 55
REMARK SMILES IDX 71 56 72 57 73 58 52 59 53 60 61 61 54 62 60 63 55 64 56 65
REMARK SMILES IDX 57 66 58 67 59 68 6 69 7 70 8 71 9 73 10 74 11 75 25 76
REMARK SMILES IDX 12 77 24 78 23 79 26 80 13 82 14 83 15 84 16 85 22 86 17 87
REMARK SMILES IDX 20 88 19 89 18 90 21 92
REMARK H PARENT 3 6 80 24 50 35 7 72 26 81 18 91 21 93
REMARK Flexibility Score: inf
ROOT
ATOM      1  C   UNL A   1      35.168  33.340  28.059  1.00  0.00     0.042 C 
ENDROOT
BRANCH   1   2
ATOM      2  C   UNL A   1      34.624  32.309  29.035  1.00  0.00     0.118 C 
BRANCH   2   3
ATOM      3  N   UNL A   1      34.052  31.146  28.368  1.00  0.00    -0.352 N 
ATOM      4  O   UNL A   1      34.008  29.238  27.177  1.00  0.00    -0.269 OA
ATOM      5  C   UNL A   1      34.654  30.011  27.882  1.00  0.00     0.251 C 
ATOM      6  H   UNL A   1      33.076  31.180  28.245  1.00  0.00     0.163 HD
BRANCH   5   7
ATOM      7  C   UNL A   1      36.075  29.727  28.180  1.00  0.00     0.039 A 
ATOM      8  C   UNL A   1      37.068  29.978  27.233  1.00  0.00     0.014 A 
ATOM      9  C   UNL A   1      36.426  29.228  29.439  1.00  0.00     0.014 A 
ATOM     10  C   UNL A   1      38.374  29.573  27.475  1.00  0.00     0.010 A 
ATOM     11  C   UNL A   1      37.762  28.925  29.722  1.00  0.00     0.010 A 
ATOM     12  C   UNL A   1      38.744  29.065  28.730  1.00  0.00    -0.014 A 
BRANCH  12  13
ATOM     13  C   UNL A   1      40.175  28.768  28.993  1.00  0.00     0.031 A 
ATOM     14  C   UNL A   1      40.789  27.452  28.601  1.00  0.00     0.074 A 
ATOM     15  C   UNL A   1      40.933  29.726  29.563  1.00  0.00     0.049 A 
ATOM     16  N   UNL A   1      42.030  27.055  28.731  1.00  0.00    -0.248 NA
ATOM     17  C   UNL A   1      39.901  26.448  27.993  1.00  0.00     0.031 C 
ATOM     18  C   UNL A   1      40.446  31.041  29.994  1.00  0.00     0.029 A 
ATOM     19  N   UNL A   1      42.273  29.760  29.855  1.00  0.00    -0.354 N 
ATOM     20  C   UNL A   1      42.070  25.754  28.243  1.00  0.00     0.074 A 
ATOM     21  C   UNL A   1      40.722  25.419  27.833  1.00  0.00     0.031 C 
ATOM     22  C   UNL A   1      41.479  31.771  30.437  1.00  0.00     0.029 A 
ATOM     23  C   UNL A   1      42.687  30.955  30.392  1.00  0.00     0.049 A 
ATOM     24  H   UNL A   1      42.879  29.001  29.695  1.00  0.00     0.167 HD
ATOM     25  C   UNL A   1      43.132  24.919  28.142  1.00  0.00     0.031 A 
ATOM     26  C   UNL A   1      43.898  31.353  30.821  1.00  0.00     0.031 A 
ATOM     27  C   UNL A   1      44.471  25.262  28.552  1.00  0.00     0.049 A 
ATOM     28  C   UNL A   1      45.051  30.399  30.723  1.00  0.00     0.074 A 
ATOM     29  C   UNL A   1      45.620  24.494  28.466  1.00  0.00     0.029 A 
ATOM     30  N   UNL A   1      44.841  26.469  29.129  1.00  0.00    -0.354 N 
ATOM     31  N   UNL A   1      45.071  29.183  30.232  1.00  0.00    -0.248 NA
ATOM     32  C   UNL A   1      46.343  30.870  31.237  1.00  0.00     0.031 C 
ATOM     33  C   UNL A   1      46.673  25.218  29.036  1.00  0.00     0.029 A 
ATOM     34  C   UNL A   1      46.193  26.457  29.426  1.00  0.00     0.049 A 
ATOM     35  H   UNL A   1      44.231  27.222  29.301  1.00  0.00     0.167 HD
ATOM     36  C   UNL A   1      46.382  28.745  30.366  1.00  0.00     0.074 A 
ATOM     37  C   UNL A   1      47.129  29.836  30.963  1.00  0.00     0.031 C 
ATOM     38  C   UNL A   1      46.919  27.547  30.030  1.00  0.00     0.031 A 
BRANCH  25  39
ATOM     39  C   UNL A   1      42.890  23.537  27.593  1.00  0.00    -0.014 A 
ATOM     40  C   UNL A   1      43.120  23.240  26.237  1.00  0.00     0.010 A 
ATOM     41  C   UNL A   1      42.475  22.507  28.457  1.00  0.00     0.010 A 
ATOM     42  C   UNL A   1      42.904  21.946  25.750  1.00  0.00     0.020 A 
ATOM     43  C   UNL A   1      42.280  21.208  27.979  1.00  0.00     0.020 A 
ATOM     44  C   UNL A   1      42.481  20.940  26.624  1.00  0.00     0.054 A 
BRANCH  44  45
ATOM     45  S   UNL A   1      42.225  19.267  25.967  1.00  0.00     0.124 S 
ATOM     46  O   UNL A   1      42.722  18.436  27.062  1.00  0.00    -0.237 OA
ATOM     47  O   UNL A   1      40.781  19.223  25.753  1.00  0.00    -0.237 OA
ATOM     48  O   UNL A   1      43.035  19.243  24.751  1.00  0.00    -0.744 OA
ENDBRANCH  44  45
ENDBRANCH  25  39
BRANCH  26  49
ATOM     49  C   UNL A   1      44.064  32.713  31.399  1.00  0.00    -0.014 A 
ATOM     50  C   UNL A   1      44.396  33.806  30.581  1.00  0.00     0.010 A 
ATOM     51  C   UNL A   1      43.850  32.926  32.775  1.00  0.00     0.010 A 
ATOM     52  C   UNL A   1      44.525  35.085  31.129  1.00  0.00     0.020 A 
ATOM     53  C   UNL A   1      43.947  34.208  33.320  1.00  0.00     0.020 A 
ATOM     54  C   UNL A   1      44.295  35.279  32.496  1.00  0.00     0.054 A 
BRANCH  54  55
ATOM     55  S   UNL A   1      44.407  36.956  33.176  1.00  0.00     0.124 S 
ATOM     56  O   UNL A   1      44.816  37.729  32.008  1.00  0.00    -0.237 OA
ATOM     57  O   UNL A   1      43.047  37.197  33.652  1.00  0.00    -0.237 OA
ATOM     58  O   UNL A   1      45.412  36.830  34.229  1.00  0.00    -0.744 OA
ENDBRANCH  54  55
ENDBRANCH  26  49
BRANCH  38  59
ATOM     59  C   UNL A   1      48.390  27.363  30.279  1.00  0.00    -0.014 A 
ATOM     60  C   UNL A   1      48.856  26.748  31.455  1.00  0.00     0.010 A 
ATOM     61  C   UNL A   1      49.317  27.779  29.307  1.00  0.00     0.010 A 
ATOM     62  C   UNL A   1      50.227  26.584  31.669  1.00  0.00     0.020 A 
ATOM     63  C   UNL A   1      50.687  27.591  29.506  1.00  0.00     0.020 A 
ATOM     64  C   UNL A   1      51.134  27.009  30.693  1.00  0.00     0.054 A 
BRANCH  64  65
ATOM     65  S   UNL A   1      52.906  26.751  30.976  1.00  0.00     0.124 S 
ATOM     66  O   UNL A   1      52.901  25.707  31.998  1.00  0.00    -0.237 OA
ATOM     67  O   UNL A   1      53.387  26.340  29.659  1.00  0.00    -0.237 OA
ATOM     68  O   UNL A   1      53.379  28.059  31.424  1.00  0.00    -0.744 OA
ENDBRANCH  64  65
ENDBRANCH  38  59
ENDBRANCH  12  13
ENDBRANCH   5   7
ENDBRANCH   2   3
ENDBRANCH   1   2
BRANCH   1  69
ATOM     69  C   UNL A   1      35.217  34.752  28.619  1.00  0.00     0.118 C 
BRANCH  69  70
ATOM     70  N   UNL A   1      33.919  35.408  28.588  1.00  0.00    -0.352 N 
ATOM     71  C   UNL A   1      33.184  35.920  29.627  1.00  0.00     0.255 C 
ATOM     72  H   UNL A   1      33.510  35.495  27.697  1.00  0.00     0.163 HD
ATOM     73  O   UNL A   1      32.052  36.355  29.426  1.00  0.00    -0.269 OA
BRANCH  71  74
ATOM     74  C   UNL A   1      33.712  35.880  31.004  1.00  0.00     0.082 A 
ATOM     75  C   UNL A   1      34.518  34.782  31.343  1.00  0.00     0.025 A 
ATOM     76  C   UNL A   1      33.424  36.861  31.956  1.00  0.00     0.128 A 
ATOM     77  C   UNL A   1      35.081  34.678  32.619  1.00  0.00    -0.025 A 
ATOM     78  C   UNL A   1      34.002  36.788  33.219  1.00  0.00     0.047 A 
ATOM     79  C   UNL A   1      34.830  35.708  33.542  1.00  0.00     0.012 A 
BRANCH  76  80
ATOM     80  O   UNL A   1      32.583  37.895  31.656  1.00  0.00    -0.507 OA
ATOM     81  H   UNL A   1      31.869  37.763  31.063  1.00  0.00     0.293 HD
ENDBRANCH  76  80
BRANCH  77  82
ATOM     82  C   UNL A   1      35.920  33.544  33.050  1.00  0.00     0.009 C 
ATOM     83  C   UNL A   1      37.002  33.074  32.409  1.00  0.00     0.009 C 
BRANCH  83  84
ATOM     84  C   UNL A   1      37.757  31.900  32.871  1.00  0.00    -0.018 A 
ATOM     85  C   UNL A   1      37.184  30.619  32.868  1.00  0.00     0.054 A 
ATOM     86  C   UNL A   1      39.095  32.054  33.256  1.00  0.00     0.054 A 
ATOM     87  C   UNL A   1      37.943  29.519  33.262  1.00  0.00     0.119 A 
ATOM     88  C   UNL A   1      39.834  30.939  33.649  1.00  0.00     0.119 A 
ATOM     89  C   UNL A   1      39.266  29.671  33.655  1.00  0.00     0.092 A 
BRANCH  87  90
ATOM     90  O   UNL A   1      37.414  28.261  33.266  1.00  0.00    -0.508 OA
ATOM     91  H   UNL A   1      36.485  28.143  33.286  1.00  0.00     0.293 HD
ENDBRANCH  87  90
BRANCH  88  92
ATOM     92  O   UNL A   1      41.138  31.053  34.034  1.00  0.00    -0.508 OA
ATOM     93  H   UNL A   1      41.672  31.740  33.685  1.00  0.00     0.293 HD
ENDBRANCH  88  92
ENDBRANCH  83  84
ENDBRANCH  77  82
ENDBRANCH  71  74
ENDBRANCH  69  70
ENDBRANCH   1  69
TORSDOF 18
ENDMDL
