MODEL 1
REMARK VINA RESULT:      -7.1      0.000      0.000
REMARK SMILES O=C(NCCCNC(=O)[C@H](CO)NC(=O)[C@H](CS)NC(=O)[C@H](Cc1ccccc1)NC(=O)c1ccc(F)cc1)c1ccc(-c2c3nc(c(-c4ccc(S(=O)(=O)[O-])cc4)c4ccc([nH]4)c(-c4ccc(S(=O)(=O)[O-])cc4)c4nc(c(-c5ccc(S(=O)(=O)[O-])cc5)c5ccc2[nH]5)C=C4)C=C3)cc1
REMARK SMILES IDX 7 1 8 2 9 3 6 5 5 6 4 7 3 8 1 9 2 10 40 12 41 13 99 14 42 15
REMARK SMILES IDX 98 16 43 17 44 18 45 19 92 20 46 21 97 22 91 23 93 24 47 25
REMARK SMILES IDX 96 26 90 27 89 28 48 30 78 31 59 32 77 33 60 34 63 35 76 36
REMARK SMILES IDX 94 37 61 38 62 39 75 41 95 42 64 43 49 44 50 45 58 46 51 47
REMARK SMILES IDX 57 48 52 49 53 50 54 51 55 52 56 53 79 54 80 55 88 56 81 57
REMARK SMILES IDX 87 58 82 59 83 60 84 61 85 62 86 63 65 64 66 65 74 66 67 67
REMARK SMILES IDX 73 68 68 69 69 70 70 71 71 72 72 73 10 74 13 75 14 76 15 78
REMARK SMILES IDX 16 79 19 80 20 81 21 83 22 84 30 85 31 86 32 88 33 89 34 90
REMARK SMILES IDX 39 91 35 92 38 93 36 94 37 95 23 96 24 97 25 98 29 99 26 100
REMARK SMILES IDX 28 101 27 102 17 103 18 104 11 106 12 107
REMARK H PARENT 7 4 3 11 93 29 63 40 13 77 19 82 30 87 18 105 12 108
REMARK Flexibility Score: inf
ROOT
ATOM      1  N   UNL A   1      46.560  24.633  26.896  1.00  0.00    -0.354 N 
ATOM      2  C   UNL A   1      46.145  25.075  25.678  1.00  0.00     0.244 C 
ATOM      3  O   UNL A   1      46.647  24.563  24.675  1.00  0.00    -0.273 OA
ATOM      4  H   UNL A   1      47.315  24.003  26.869  1.00  0.00     0.163 HD
ENDROOT
BRANCH   1   5
ATOM      5  C   UNL A   1      46.073  24.940  28.231  1.00  0.00     0.117 C 
BRANCH   5   6
ATOM      6  C   UNL A   1      45.039  23.931  28.700  1.00  0.00     0.042 C 
BRANCH   6   7
ATOM      7  C   UNL A   1      44.059  24.503  29.714  1.00  0.00     0.118 C 
BRANCH   7   8
ATOM      8  N   UNL A   1      44.327  24.038  31.070  1.00  0.00    -0.352 N 
ATOM      9  O   UNL A   1      45.090  24.148  33.185  1.00  0.00    -0.269 OA
ATOM     10  C   UNL A   1      44.683  24.745  32.192  1.00  0.00     0.251 C 
ATOM     11  H   UNL A   1      44.239  23.065  31.201  1.00  0.00     0.163 HD
BRANCH  10  12
ATOM     12  C   UNL A   1      44.593  26.219  32.189  1.00  0.00     0.039 A 
ATOM     13  C   UNL A   1      45.683  26.989  32.596  1.00  0.00     0.014 A 
ATOM     14  C   UNL A   1      43.410  26.841  31.781  1.00  0.00     0.014 A 
ATOM     15  C   UNL A   1      45.528  28.353  32.788  1.00  0.00     0.010 A 
ATOM     16  C   UNL A   1      43.298  28.232  31.861  1.00  0.00     0.010 A 
ATOM     17  C   UNL A   1      44.339  28.995  32.411  1.00  0.00    -0.014 A 
BRANCH  17  18
ATOM     18  C   UNL A   1      44.240  30.469  32.571  1.00  0.00     0.031 A 
ATOM     19  C   UNL A   1      43.324  31.081  33.596  1.00  0.00     0.074 A 
ATOM     20  C   UNL A   1      45.037  31.253  31.817  1.00  0.00     0.049 A 
ATOM     21  N   UNL A   1      43.164  32.344  33.903  1.00  0.00    -0.248 NA
ATOM     22  C   UNL A   1      42.470  30.167  34.371  1.00  0.00     0.031 C 
ATOM     23  C   UNL A   1      45.967  30.772  30.790  1.00  0.00     0.029 A 
ATOM     24  N   UNL A   1      45.224  32.611  31.820  1.00  0.00    -0.354 N 
ATOM     25  C   UNL A   1      42.171  32.380  34.875  1.00  0.00     0.074 A 
ATOM     26  C   UNL A   1      41.752  31.012  35.097  1.00  0.00     0.031 C 
ATOM     27  C   UNL A   1      46.679  31.806  30.320  1.00  0.00     0.029 A 
ATOM     28  C   UNL A   1      46.206  33.030  30.955  1.00  0.00     0.049 A 
ATOM     29  H   UNL A   1      44.706  33.226  32.388  1.00  0.00     0.167 HD
ATOM     30  C   UNL A   1      41.656  33.453  35.522  1.00  0.00     0.031 A 
ATOM     31  C   UNL A   1      46.676  34.263  30.692  1.00  0.00     0.031 A 
ATOM     32  C   UNL A   1      42.090  34.808  35.308  1.00  0.00     0.049 A 
ATOM     33  C   UNL A   1      46.088  35.434  31.423  1.00  0.00     0.074 A 
ATOM     34  C   UNL A   1      41.655  35.962  35.937  1.00  0.00     0.029 A 
ATOM     35  N   UNL A   1      43.061  35.195  34.395  1.00  0.00    -0.354 N 
ATOM     36  N   UNL A   1      45.162  35.442  32.351  1.00  0.00    -0.248 NA
ATOM     37  C   UNL A   1      46.611  36.760  31.074  1.00  0.00     0.031 C 
ATOM     38  C   UNL A   1      42.328  37.051  35.372  1.00  0.00     0.029 A 
ATOM     39  C   UNL A   1      43.224  36.570  34.431  1.00  0.00     0.049 A 
ATOM     40  H   UNL A   1      43.559  34.583  33.808  1.00  0.00     0.167 HD
ATOM     41  C   UNL A   1      45.005  36.773  32.713  1.00  0.00     0.074 A 
ATOM     42  C   UNL A   1      45.944  37.536  31.916  1.00  0.00     0.031 C 
ATOM     43  C   UNL A   1      44.161  37.314  33.627  1.00  0.00     0.031 A 
BRANCH  30  44
ATOM     44  C   UNL A   1      40.533  33.207  36.497  1.00  0.00    -0.014 A 
ATOM     45  C   UNL A   1      39.195  33.118  36.074  1.00  0.00     0.010 A 
ATOM     46  C   UNL A   1      40.829  33.031  37.862  1.00  0.00     0.010 A 
ATOM     47  C   UNL A   1      38.171  32.904  37.003  1.00  0.00     0.020 A 
ATOM     48  C   UNL A   1      39.812  32.792  38.789  1.00  0.00     0.020 A 
ATOM     49  C   UNL A   1      38.487  32.749  38.357  1.00  0.00     0.054 A 
BRANCH  49  50
ATOM     50  S   UNL A   1      37.141  32.469  39.541  1.00  0.00     0.124 S 
ATOM     51  O   UNL A   1      37.437  31.119  40.015  1.00  0.00    -0.237 OA
ATOM     52  O   UNL A   1      37.343  33.536  40.518  1.00  0.00    -0.237 OA
ATOM     53  O   UNL A   1      35.933  32.592  38.729  1.00  0.00    -0.744 OA
ENDBRANCH  49  50
ENDBRANCH  30  44
BRANCH  31  54
ATOM     54  C   UNL A   1      47.763  34.440  29.693  1.00  0.00    -0.014 A 
ATOM     55  C   UNL A   1      47.458  34.686  28.343  1.00  0.00     0.010 A 
ATOM     56  C   UNL A   1      49.110  34.401  30.095  1.00  0.00     0.010 A 
ATOM     57  C   UNL A   1      48.482  34.879  27.411  1.00  0.00     0.020 A 
ATOM     58  C   UNL A   1      50.135  34.623  29.173  1.00  0.00     0.020 A 
ATOM     59  C   UNL A   1      49.815  34.850  27.833  1.00  0.00     0.054 A 
BRANCH  59  60
ATOM     60  S   UNL A   1      51.126  35.164  26.621  1.00  0.00     0.124 S 
ATOM     61  O   UNL A   1      51.714  36.401  27.125  1.00  0.00    -0.237 OA
ATOM     62  O   UNL A   1      51.960  33.971  26.739  1.00  0.00    -0.237 OA
ATOM     63  O   UNL A   1      50.400  35.284  25.358  1.00  0.00    -0.744 OA
ENDBRANCH  59  60
ENDBRANCH  31  54
BRANCH  43  64
ATOM     64  C   UNL A   1      44.249  38.800  33.838  1.00  0.00    -0.014 A 
ATOM     65  C   UNL A   1      45.201  39.360  34.708  1.00  0.00     0.010 A 
ATOM     66  C   UNL A   1      43.378  39.650  33.132  1.00  0.00     0.010 A 
ATOM     67  C   UNL A   1      45.249  40.743  34.902  1.00  0.00     0.020 A 
ATOM     68  C   UNL A   1      43.442  41.034  33.302  1.00  0.00     0.020 A 
ATOM     69  C   UNL A   1      44.366  41.571  34.201  1.00  0.00     0.054 A 
BRANCH  69  70
ATOM     70  S   UNL A   1      44.462  43.365  34.450  1.00  0.00     0.124 S 
ATOM     71  O   UNL A   1      43.052  43.745  34.451  1.00  0.00    -0.237 OA
ATOM     72  O   UNL A   1      45.144  43.476  35.737  1.00  0.00    -0.237 OA
ATOM     73  O   UNL A   1      45.234  43.832  33.301  1.00  0.00    -0.744 OA
ENDBRANCH  69  70
ENDBRANCH  43  64
ENDBRANCH  17  18
ENDBRANCH  10  12
ENDBRANCH   7   8
ENDBRANCH   6   7
ENDBRANCH   5   6
ENDBRANCH   1   5
BRANCH   2  74
ATOM     74  C   UNL A   1      45.046  26.132  25.552  1.00  0.00     0.197 C 
BRANCH  74  75
ATOM     75  N   UNL A   1      45.502  27.156  24.617  1.00  0.00    -0.340 N 
ATOM     76  C   UNL A   1      46.457  28.117  24.741  1.00  0.00     0.244 C 
ATOM     77  H   UNL A   1      45.041  27.149  23.747  1.00  0.00     0.164 HD
ATOM     78  O   UNL A   1      46.857  28.594  23.673  1.00  0.00    -0.273 OA
BRANCH  76  79
ATOM     79  C   UNL A   1      46.828  28.777  26.098  1.00  0.00     0.181 C 
BRANCH  79  80
ATOM     80  N   UNL A   1      46.103  28.304  27.288  1.00  0.00    -0.342 N 
ATOM     81  C   UNL A   1      44.952  28.715  27.902  1.00  0.00     0.243 C 
ATOM     82  H   UNL A   1      46.532  27.539  27.732  1.00  0.00     0.164 HD
ATOM     83  O   UNL A   1      44.704  28.169  28.985  1.00  0.00    -0.273 OA
BRANCH  81  84
ATOM     84  C   UNL A   1      44.061  29.884  27.394  1.00  0.00     0.176 C 
BRANCH  84  85
ATOM     85  N   UNL A   1      43.327  29.574  26.167  1.00  0.00    -0.340 N 
ATOM     86  C   UNL A   1      42.198  28.830  25.940  1.00  0.00     0.251 C 
ATOM     87  H   UNL A   1      43.716  29.974  25.354  1.00  0.00     0.164 HD
ATOM     88  O   UNL A   1      41.895  28.572  24.777  1.00  0.00    -0.269 OA
BRANCH  86  89
ATOM     89  C   UNL A   1      41.320  28.334  27.039  1.00  0.00     0.040 A 
ATOM     90  C   UNL A   1      41.682  27.126  27.654  1.00  0.00     0.017 A 
ATOM     91  C   UNL A   1      40.117  28.947  27.417  1.00  0.00     0.017 A 
ATOM     92  C   UNL A   1      40.874  26.562  28.645  1.00  0.00     0.040 A 
ATOM     93  C   UNL A   1      39.312  28.387  28.412  1.00  0.00     0.040 A 
ATOM     94  C   UNL A   1      39.698  27.200  29.017  1.00  0.00     0.123 A 
ATOM     95  F   UNL A   1      38.919  26.660  29.963  1.00  0.00    -0.207 F 
ENDBRANCH  86  89
ENDBRANCH  84  85
BRANCH  84  96
ATOM     96  C   UNL A   1      43.079  30.294  28.530  1.00  0.00     0.070 C 
BRANCH  96  97
ATOM     97  C   UNL A   1      43.093  31.768  28.883  1.00  0.00    -0.045 A 
ATOM     98  C   UNL A   1      43.878  32.678  28.162  1.00  0.00     0.004 A 
ATOM     99  C   UNL A   1      42.273  32.252  29.913  1.00  0.00     0.004 A 
ATOM    100  C   UNL A   1      43.787  34.048  28.418  1.00  0.00     0.000 A 
ATOM    101  C   UNL A   1      42.195  33.620  30.178  1.00  0.00     0.000 A 
ATOM    102  C   UNL A   1      42.940  34.518  29.420  1.00  0.00     0.000 A 
ENDBRANCH  96  97
ENDBRANCH  84  96
ENDBRANCH  81  84
ENDBRANCH  79  80
BRANCH  79 103
ATOM    103  C   UNL A   1      48.348  28.651  26.357  1.00  0.00     0.101 C 
BRANCH 103 104
ATOM    104  S   UNL A   1      48.779  27.503  27.712  1.00  0.00    -0.177 SA
ATOM    105  H   UNL A   1      49.118  26.294  27.191  1.00  0.00     0.102 HD
ENDBRANCH 103 104
ENDBRANCH  79 103
ENDBRANCH  76  79
ENDBRANCH  74  75
BRANCH  74 106
ATOM    106  C   UNL A   1      43.672  25.537  25.222  1.00  0.00     0.191 C 
BRANCH 106 107
ATOM    107  O   UNL A   1      43.724  24.111  25.320  1.00  0.00    -0.394 OA
ATOM    108  H   UNL A   1      44.227  23.753  24.571  1.00  0.00     0.210 HD
ENDBRANCH 106 107
ENDBRANCH  74 106
ENDBRANCH   2  74
TORSDOF 25
ENDMDL
MODEL 2
REMARK VINA RESULT:      -6.5      4.992      9.256
REMARK SMILES O=C(NCCCNC(=O)[C@H](CO)NC(=O)[C@H](CS)NC(=O)[C@H](Cc1ccccc1)NC(=O)c1ccc(F)cc1)c1ccc(-c2c3nc(c(-c4ccc(S(=O)(=O)[O-])cc4)c4ccc([nH]4)c(-c4ccc(S(=O)(=O)[O-])cc4)c4nc(c(-c5ccc(S(=O)(=O)[O-])cc5)c5ccc2[nH]5)C=C4)C=C3)cc1
REMARK SMILES IDX 7 1 8 2 9 3 6 5 5 6 4 7 3 8 1 9 2 10 40 12 41 13 99 14 42 15
REMARK SMILES IDX 98 16 43 17 44 18 45 19 92 20 46 21 97 22 91 23 93 24 47 25
REMARK SMILES IDX 96 26 90 27 89 28 48 30 78 31 59 32 77 33 60 34 63 35 76 36
REMARK SMILES IDX 94 37 61 38 62 39 75 41 95 42 64 43 49 44 50 45 58 46 51 47
REMARK SMILES IDX 57 48 52 49 53 50 54 51 55 52 56 53 79 54 80 55 88 56 81 57
REMARK SMILES IDX 87 58 82 59 83 60 84 61 85 62 86 63 65 64 66 65 74 66 67 67
REMARK SMILES IDX 73 68 68 69 69 70 70 71 71 72 72 73 10 74 13 75 14 76 15 78
REMARK SMILES IDX 16 79 19 80 20 81 21 83 22 84 30 85 31 86 32 88 33 89 34 90
REMARK SMILES IDX 39 91 35 92 38 93 36 94 37 95 23 96 24 97 25 98 29 99 26 100
REMARK SMILES IDX 28 101 27 102 17 103 18 104 11 106 12 107
REMARK H PARENT 7 4 3 11 93 29 63 40 13 77 19 82 30 87 18 105 12 108
REMARK Flexibility Score: inf
ROOT
ATOM      1  N   UNL A   1      39.310  31.783  30.505  1.00  0.00    -0.354 N 
ATOM      2  C   UNL A   1      40.665  31.749  30.621  1.00  0.00     0.244 C 
ATOM      3  O   UNL A   1      41.209  32.618  31.308  1.00  0.00    -0.273 OA
ATOM      4  H   UNL A   1      38.883  32.575  30.903  1.00  0.00     0.163 HD
ENDROOT
BRANCH   1   5
ATOM      5  C   UNL A   1      38.390  30.842  29.889  1.00  0.00     0.117 C 
BRANCH   5   6
ATOM      6  C   UNL A   1      37.053  31.488  29.568  1.00  0.00     0.042 C 
BRANCH   6   7
ATOM      7  C   UNL A   1      36.888  32.866  30.191  1.00  0.00     0.118 C 
BRANCH   7   8
ATOM      8  N   UNL A   1      35.558  33.066  30.755  1.00  0.00    -0.352 N 
ATOM      9  O   UNL A   1      33.927  32.962  32.303  1.00  0.00    -0.269 OA
ATOM     10  C   UNL A   1      35.130  32.989  32.058  1.00  0.00     0.251 C 
ATOM     11  H   UNL A   1      34.858  33.291  30.099  1.00  0.00     0.163 HD
BRANCH  10  12
ATOM     12  C   UNL A   1      36.120  32.917  33.151  1.00  0.00     0.039 A 
ATOM     13  C   UNL A   1      36.716  31.699  33.479  1.00  0.00     0.014 A 
ATOM     14  C   UNL A   1      36.454  34.074  33.861  1.00  0.00     0.014 A 
ATOM     15  C   UNL A   1      37.482  31.596  34.630  1.00  0.00     0.010 A 
ATOM     16  C   UNL A   1      37.324  33.988  34.951  1.00  0.00     0.010 A 
ATOM     17  C   UNL A   1      37.808  32.740  35.374  1.00  0.00    -0.014 A 
BRANCH  17  18
ATOM     18  C   UNL A   1      38.687  32.594  36.562  1.00  0.00     0.031 A 
ATOM     19  C   UNL A   1      38.113  32.509  37.950  1.00  0.00     0.074 A 
ATOM     20  C   UNL A   1      40.016  32.478  36.369  1.00  0.00     0.049 A 
ATOM     21  N   UNL A   1      38.736  32.321  39.086  1.00  0.00    -0.248 NA
ATOM     22  C   UNL A   1      36.655  32.661  38.089  1.00  0.00     0.031 C 
ATOM     23  C   UNL A   1      40.689  32.545  35.067  1.00  0.00     0.029 A 
ATOM     24  N   UNL A   1      41.036  32.241  37.254  1.00  0.00    -0.354 N 
ATOM     25  C   UNL A   1      37.758  32.369  40.074  1.00  0.00     0.074 A 
ATOM     26  C   UNL A   1      36.500  32.620  39.405  1.00  0.00     0.031 C 
ATOM     27  C   UNL A   1      41.992  32.277  35.229  1.00  0.00     0.029 A 
ATOM     28  C   UNL A   1      42.262  32.093  36.650  1.00  0.00     0.049 A 
ATOM     29  H   UNL A   1      40.903  32.181  38.227  1.00  0.00     0.167 HD
ATOM     30  C   UNL A   1      37.898  32.219  41.413  1.00  0.00     0.031 A 
ATOM     31  C   UNL A   1      43.475  31.844  37.176  1.00  0.00     0.031 A 
ATOM     32  C   UNL A   1      39.151  31.953  42.068  1.00  0.00     0.049 A 
ATOM     33  C   UNL A   1      43.600  31.681  38.663  1.00  0.00     0.074 A 
ATOM     34  C   UNL A   1      39.393  31.752  43.417  1.00  0.00     0.029 A 
ATOM     35  N   UNL A   1      40.376  31.849  41.425  1.00  0.00    -0.354 N 
ATOM     36  N   UNL A   1      42.659  31.714  39.575  1.00  0.00    -0.248 NA
ATOM     37  C   UNL A   1      44.950  31.445  39.189  1.00  0.00     0.031 C 
ATOM     38  C   UNL A   1      40.769  31.572  43.594  1.00  0.00     0.029 A 
ATOM     39  C   UNL A   1      41.378  31.605  42.350  1.00  0.00     0.049 A 
ATOM     40  H   UNL A   1      40.513  31.936  40.455  1.00  0.00     0.167 HD
ATOM     41  C   UNL A   1      43.301  31.481  40.784  1.00  0.00     0.074 A 
ATOM     42  C   UNL A   1      44.705  31.294  40.483  1.00  0.00     0.031 C 
ATOM     43  C   UNL A   1      42.772  31.425  42.033  1.00  0.00     0.031 A 
BRANCH  30  44
ATOM     44  C   UNL A   1      36.665  32.380  42.265  1.00  0.00    -0.014 A 
ATOM     45  C   UNL A   1      35.892  31.274  42.661  1.00  0.00     0.010 A 
ATOM     46  C   UNL A   1      36.292  33.665  42.703  1.00  0.00     0.010 A 
ATOM     47  C   UNL A   1      34.745  31.455  43.441  1.00  0.00     0.020 A 
ATOM     48  C   UNL A   1      35.160  33.846  43.503  1.00  0.00     0.020 A 
ATOM     49  C   UNL A   1      34.382  32.742  43.850  1.00  0.00     0.054 A 
BRANCH  49  50
ATOM     50  S   UNL A   1      32.892  32.949  44.864  1.00  0.00     0.124 S 
ATOM     51  O   UNL A   1      32.708  31.604  45.404  1.00  0.00    -0.237 OA
ATOM     52  O   UNL A   1      33.298  33.965  45.832  1.00  0.00    -0.237 OA
ATOM     53  O   UNL A   1      31.877  33.378  43.904  1.00  0.00    -0.744 OA
ENDBRANCH  49  50
ENDBRANCH  30  44
BRANCH  31  54
ATOM     54  C   UNL A   1      44.657  31.731  36.282  1.00  0.00    -0.014 A 
ATOM     55  C   UNL A   1      45.017  30.490  35.729  1.00  0.00     0.010 A 
ATOM     56  C   UNL A   1      45.409  32.873  35.951  1.00  0.00     0.010 A 
ATOM     57  C   UNL A   1      46.113  30.392  34.867  1.00  0.00     0.020 A 
ATOM     58  C   UNL A   1      46.486  32.784  35.067  1.00  0.00     0.020 A 
ATOM     59  C   UNL A   1      46.839  31.541  34.539  1.00  0.00     0.054 A 
BRANCH  59  60
ATOM     60  S   UNL A   1      48.220  31.403  33.371  1.00  0.00     0.124 S 
ATOM     61  O   UNL A   1      48.356  29.956  33.233  1.00  0.00    -0.237 OA
ATOM     62  O   UNL A   1      47.713  32.107  32.196  1.00  0.00    -0.237 OA
ATOM     63  O   UNL A   1      49.319  32.074  34.062  1.00  0.00    -0.744 OA
ENDBRANCH  59  60
ENDBRANCH  31  54
BRANCH  43  64
ATOM     64  C   UNL A   1      43.718  31.107  43.158  1.00  0.00    -0.014 A 
ATOM     65  C   UNL A   1      44.387  32.124  43.861  1.00  0.00     0.010 A 
ATOM     66  C   UNL A   1      43.918  29.765  43.531  1.00  0.00     0.010 A 
ATOM     67  C   UNL A   1      45.275  31.801  44.890  1.00  0.00     0.020 A 
ATOM     68  C   UNL A   1      44.784  29.441  44.577  1.00  0.00     0.020 A 
ATOM     69  C   UNL A   1      45.472  30.461  45.238  1.00  0.00     0.054 A 
BRANCH  69  70
ATOM     70  S   UNL A   1      46.612  30.065  46.592  1.00  0.00     0.124 S 
ATOM     71  O   UNL A   1      46.842  28.637  46.386  1.00  0.00    -0.237 OA
ATOM     72  O   UNL A   1      47.755  30.932  46.314  1.00  0.00    -0.237 OA
ATOM     73  O   UNL A   1      45.855  30.410  47.793  1.00  0.00    -0.744 OA
ENDBRANCH  69  70
ENDBRANCH  43  64
ENDBRANCH  17  18
ENDBRANCH  10  12
ENDBRANCH   7   8
ENDBRANCH   6   7
ENDBRANCH   5   6
ENDBRANCH   1   5
BRANCH   2  74
ATOM     74  C   UNL A   1      41.488  30.635  29.972  1.00  0.00     0.197 C 
BRANCH  74  75
ATOM     75  N   UNL A   1      42.725  31.219  29.461  1.00  0.00    -0.340 N 
ATOM     76  C   UNL A   1      43.464  30.921  28.359  1.00  0.00     0.244 C 
ATOM     77  H   UNL A   1      43.085  31.954  30.008  1.00  0.00     0.164 HD
ATOM     78  O   UNL A   1      44.249  31.808  28.004  1.00  0.00    -0.273 OA
BRANCH  76  79
ATOM     79  C   UNL A   1      43.540  29.497  27.745  1.00  0.00     0.181 C 
BRANCH  79  80
ATOM     80  N   UNL A   1      43.020  29.333  26.377  1.00  0.00    -0.342 N 
ATOM     81  C   UNL A   1      42.629  28.241  25.653  1.00  0.00     0.243 C 
ATOM     82  H   UNL A   1      42.938  30.181  25.884  1.00  0.00     0.164 HD
ATOM     83  O   UNL A   1      42.373  28.458  24.462  1.00  0.00    -0.273 OA
BRANCH  81  84
ATOM     84  C   UNL A   1      42.632  26.785  26.200  1.00  0.00     0.176 C 
BRANCH  84  85
ATOM     85  N   UNL A   1      41.388  26.407  26.871  1.00  0.00    -0.340 N 
ATOM     86  C   UNL A   1      41.125  25.495  27.860  1.00  0.00     0.251 C 
ATOM     87  H   UNL A   1      40.595  26.899  26.556  1.00  0.00     0.164 HD
ATOM     88  O   UNL A   1      39.949  25.237  28.116  1.00  0.00    -0.269 OA
BRANCH  86  89
ATOM     89  C   UNL A   1      42.196  24.814  28.643  1.00  0.00     0.040 A 
ATOM     90  C   UNL A   1      42.191  23.410  28.651  1.00  0.00     0.017 A 
ATOM     91  C   UNL A   1      43.133  25.487  29.438  1.00  0.00     0.017 A 
ATOM     92  C   UNL A   1      43.121  22.700  29.415  1.00  0.00     0.040 A 
ATOM     93  C   UNL A   1      44.067  24.778  30.198  1.00  0.00     0.040 A 
ATOM     94  C   UNL A   1      44.054  23.391  30.178  1.00  0.00     0.123 A 
ATOM     95  F   UNL A   1      44.943  22.714  30.914  1.00  0.00    -0.207 F 
ENDBRANCH  86  89
ENDBRANCH  84  85
BRANCH  84  96
ATOM     96  C   UNL A   1      42.937  25.811  25.025  1.00  0.00     0.070 C 
BRANCH  96  97
ATOM     97  C   UNL A   1      43.649  24.534  25.425  1.00  0.00    -0.045 A 
ATOM     98  C   UNL A   1      43.141  23.278  25.066  1.00  0.00     0.004 A 
ATOM     99  C   UNL A   1      44.865  24.596  26.122  1.00  0.00     0.004 A 
ATOM    100  C   UNL A   1      43.870  22.118  25.333  1.00  0.00     0.000 A 
ATOM    101  C   UNL A   1      45.585  23.434  26.403  1.00  0.00     0.000 A 
ATOM    102  C   UNL A   1      45.094  22.197  25.995  1.00  0.00     0.000 A 
ENDBRANCH  96  97
ENDBRANCH  84  96
ENDBRANCH  81  84
ENDBRANCH  79  80
BRANCH  79 103
ATOM    103  C   UNL A   1      44.993  28.969  27.793  1.00  0.00     0.101 C 
BRANCH 103 104
ATOM    104  S   UNL A   1      45.640  28.723  29.483  1.00  0.00    -0.177 SA
ATOM    105  H   UNL A   1      46.948  29.092  29.526  1.00  0.00     0.102 HD
ENDBRANCH 103 104
ENDBRANCH  79 103
ENDBRANCH  76  79
ENDBRANCH  74  75
BRANCH  74 106
ATOM    106  C   UNL A   1      41.689  29.422  30.888  1.00  0.00     0.191 C 
BRANCH 106 107
ATOM    107  O   UNL A   1      41.021  29.638  32.134  1.00  0.00    -0.394 OA
ATOM    108  H   UNL A   1      40.183  30.101  31.976  1.00  0.00     0.210 HD
ENDBRANCH 106 107
ENDBRANCH  74 106
ENDBRANCH   2  74
TORSDOF 25
ENDMDL
MODEL 3
REMARK VINA RESULT:      -6.5      7.269     12.549
REMARK SMILES O=C(NCCCNC(=O)[C@H](CO)NC(=O)[C@H](CS)NC(=O)[C@H](Cc1ccccc1)NC(=O)c1ccc(F)cc1)c1ccc(-c2c3nc(c(-c4ccc(S(=O)(=O)[O-])cc4)c4ccc([nH]4)c(-c4ccc(S(=O)(=O)[O-])cc4)c4nc(c(-c5ccc(S(=O)(=O)[O-])cc5)c5ccc2[nH]5)C=C4)C=C3)cc1
REMARK SMILES IDX 7 1 8 2 9 3 6 5 5 6 4 7 3 8 1 9 2 10 40 12 41 13 99 14 42 15
REMARK SMILES IDX 98 16 43 17 44 18 45 19 92 20 46 21 97 22 91 23 93 24 47 25
REMARK SMILES IDX 96 26 90 27 89 28 48 30 78 31 59 32 77 33 60 34 63 35 76 36
REMARK SMILES IDX 94 37 61 38 62 39 75 41 95 42 64 43 49 44 50 45 58 46 51 47
REMARK SMILES IDX 57 48 52 49 53 50 54 51 55 52 56 53 79 54 80 55 88 56 81 57
REMARK SMILES IDX 87 58 82 59 83 60 84 61 85 62 86 63 65 64 66 65 74 66 67 67
REMARK SMILES IDX 73 68 68 69 69 70 70 71 71 72 72 73 10 74 13 75 14 76 15 78
REMARK SMILES IDX 16 79 19 80 20 81 21 83 22 84 30 85 31 86 32 88 33 89 34 90
REMARK SMILES IDX 39 91 35 92 38 93 36 94 37 95 23 96 24 97 25 98 29 99 26 100
REMARK SMILES IDX 28 101 27 102 17 103 18 104 11 106 12 107
REMARK H PARENT 7 4 3 11 93 29 63 40 13 77 19 82 30 87 18 105 12 108
REMARK Flexibility Score: inf
ROOT
ATOM      1  N   UNL A   1      36.033  30.695  29.684  1.00  0.00    -0.354 N 
ATOM      2  C   UNL A   1      34.968  31.432  29.269  1.00  0.00     0.244 C 
ATOM      3  O   UNL A   1      34.530  32.296  30.033  1.00  0.00    -0.273 OA
ATOM      4  H   UNL A   1      36.301  30.848  30.618  1.00  0.00     0.163 HD
ENDROOT
BRANCH   1   5
ATOM      5  C   UNL A   1      36.840  29.716  28.974  1.00  0.00     0.117 C 
BRANCH   5   6
ATOM      6  C   UNL A   1      37.769  28.963  29.912  1.00  0.00     0.042 C 
BRANCH   6   7
ATOM      7  C   UNL A   1      39.163  29.568  29.989  1.00  0.00     0.118 C 
BRANCH   7   8
ATOM      8  N   UNL A   1      39.140  31.026  29.932  1.00  0.00    -0.352 N 
ATOM      9  O   UNL A   1      39.164  33.130  30.729  1.00  0.00    -0.269 OA
ATOM     10  C   UNL A   1      39.470  31.952  30.890  1.00  0.00     0.251 C 
ATOM     11  H   UNL A   1      38.841  31.404  29.073  1.00  0.00     0.163 HD
BRANCH  10  12
ATOM     12  C   UNL A   1      40.172  31.521  32.116  1.00  0.00     0.039 A 
ATOM     13  C   UNL A   1      39.489  30.804  33.099  1.00  0.00     0.014 A 
ATOM     14  C   UNL A   1      41.522  31.838  32.291  1.00  0.00     0.014 A 
ATOM     15  C   UNL A   1      40.089  30.582  34.329  1.00  0.00     0.010 A 
ATOM     16  C   UNL A   1      42.160  31.505  33.489  1.00  0.00     0.010 A 
ATOM     17  C   UNL A   1      41.436  30.917  34.536  1.00  0.00    -0.014 A 
BRANCH  17  18
ATOM     18  C   UNL A   1      42.058  30.600  35.848  1.00  0.00     0.031 A 
ATOM     19  C   UNL A   1      42.920  29.380  36.027  1.00  0.00     0.074 A 
ATOM     20  C   UNL A   1      41.882  31.464  36.868  1.00  0.00     0.049 A 
ATOM     21  N   UNL A   1      43.583  28.993  37.088  1.00  0.00    -0.248 NA
ATOM     22  C   UNL A   1      43.053  28.472  34.877  1.00  0.00     0.031 C 
ATOM     23  C   UNL A   1      41.066  32.682  36.812  1.00  0.00     0.029 A 
ATOM     24  N   UNL A   1      42.406  31.477  38.135  1.00  0.00    -0.354 N 
ATOM     25  C   UNL A   1      44.179  27.783  36.748  1.00  0.00     0.074 A 
ATOM     26  C   UNL A   1      43.787  27.492  35.386  1.00  0.00     0.031 C 
ATOM     27  C   UNL A   1      41.207  33.360  37.960  1.00  0.00     0.029 A 
ATOM     28  C   UNL A   1      42.059  32.593  38.860  1.00  0.00     0.049 A 
ATOM     29  H   UNL A   1      42.976  30.758  38.490  1.00  0.00     0.167 HD
ATOM     30  C   UNL A   1      44.978  26.990  37.501  1.00  0.00     0.031 A 
ATOM     31  C   UNL A   1      42.383  32.960  40.112  1.00  0.00     0.031 A 
ATOM     32  C   UNL A   1      45.377  27.297  38.850  1.00  0.00     0.049 A 
ATOM     33  C   UNL A   1      43.271  32.064  40.924  1.00  0.00     0.074 A 
ATOM     34  C   UNL A   1      46.211  26.574  39.687  1.00  0.00     0.029 A 
ATOM     35  N   UNL A   1      44.974  28.417  39.561  1.00  0.00    -0.354 N 
ATOM     36  N   UNL A   1      43.836  30.933  40.576  1.00  0.00    -0.248 NA
ATOM     37  C   UNL A   1      43.565  32.494  42.296  1.00  0.00     0.031 C 
ATOM     38  C   UNL A   1      46.274  27.235  40.919  1.00  0.00     0.029 A 
ATOM     39  C   UNL A   1      45.525  28.397  40.831  1.00  0.00     0.049 A 
ATOM     40  H   UNL A   1      44.382  29.123  39.215  1.00  0.00     0.167 HD
ATOM     41  C   UNL A   1      44.573  30.526  41.680  1.00  0.00     0.074 A 
ATOM     42  C   UNL A   1      44.392  31.540  42.700  1.00  0.00     0.031 C 
ATOM     43  C   UNL A   1      45.332  29.413  41.835  1.00  0.00     0.031 A 
BRANCH  30  44
ATOM     44  C   UNL A   1      45.442  25.690  36.896  1.00  0.00    -0.014 A 
ATOM     45  C   UNL A   1      44.719  24.496  37.069  1.00  0.00     0.010 A 
ATOM     46  C   UNL A   1      46.610  25.672  36.111  1.00  0.00     0.010 A 
ATOM     47  C   UNL A   1      45.181  23.302  36.507  1.00  0.00     0.020 A 
ATOM     48  C   UNL A   1      47.061  24.485  35.527  1.00  0.00     0.020 A 
ATOM     49  C   UNL A   1      46.354  23.303  35.746  1.00  0.00     0.054 A 
BRANCH  49  50
ATOM     50  S   UNL A   1      46.930  21.740  35.025  1.00  0.00     0.124 S 
ATOM     51  O   UNL A   1      45.951  21.522  33.963  1.00  0.00    -0.237 OA
ATOM     52  O   UNL A   1      48.280  22.071  34.577  1.00  0.00    -0.237 OA
ATOM     53  O   UNL A   1      46.860  20.798  36.139  1.00  0.00    -0.744 OA
ENDBRANCH  49  50
ENDBRANCH  30  44
BRANCH  31  54
ATOM     54  C   UNL A   1      41.864  34.240  40.662  1.00  0.00    -0.014 A 
ATOM     55  C   UNL A   1      40.689  34.261  41.433  1.00  0.00     0.010 A 
ATOM     56  C   UNL A   1      42.564  35.441  40.448  1.00  0.00     0.010 A 
ATOM     57  C   UNL A   1      40.218  35.463  41.971  1.00  0.00     0.020 A 
ATOM     58  C   UNL A   1      42.113  36.638  41.009  1.00  0.00     0.020 A 
ATOM     59  C   UNL A   1      40.936  36.643  41.758  1.00  0.00     0.054 A 
BRANCH  59  60
ATOM     60  S   UNL A   1      40.343  38.180  42.517  1.00  0.00     0.124 S 
ATOM     61  O   UNL A   1      39.655  37.685  43.705  1.00  0.00    -0.237 OA
ATOM     62  O   UNL A   1      41.582  38.913  42.760  1.00  0.00    -0.237 OA
ATOM     63  O   UNL A   1      39.480  38.757  41.487  1.00  0.00    -0.744 OA
ENDBRANCH  59  60
ENDBRANCH  31  54
BRANCH  43  64
ATOM     64  C   UNL A   1      46.058  29.261  43.143  1.00  0.00    -0.014 A 
ATOM     65  C   UNL A   1      47.313  29.856  43.357  1.00  0.00     0.010 A 
ATOM     66  C   UNL A   1      45.456  28.529  44.184  1.00  0.00     0.010 A 
ATOM     67  C   UNL A   1      47.975  29.683  44.576  1.00  0.00     0.020 A 
ATOM     68  C   UNL A   1      46.103  28.378  45.412  1.00  0.00     0.020 A 
ATOM     69  C   UNL A   1      47.368  28.941  45.594  1.00  0.00     0.054 A 
BRANCH  69  70
ATOM     70  S   UNL A   1      48.234  28.749  47.175  1.00  0.00     0.124 S 
ATOM     71  O   UNL A   1      47.286  27.947  47.944  1.00  0.00    -0.237 OA
ATOM     72  O   UNL A   1      49.466  28.065  46.787  1.00  0.00    -0.237 OA
ATOM     73  O   UNL A   1      48.413  30.122  47.640  1.00  0.00    -0.744 OA
ENDBRANCH  69  70
ENDBRANCH  43  64
ENDBRANCH  17  18
ENDBRANCH  10  12
ENDBRANCH   7   8
ENDBRANCH   6   7
ENDBRANCH   5   6
ENDBRANCH   1   5
BRANCH   2  74
ATOM     74  C   UNL A   1      34.367  31.241  27.876  1.00  0.00     0.197 C 
BRANCH  74  75
ATOM     75  N   UNL A   1      34.026  29.831  27.715  1.00  0.00    -0.340 N 
ATOM     76  C   UNL A   1      33.655  29.122  26.615  1.00  0.00     0.244 C 
ATOM     77  H   UNL A   1      34.073  29.303  28.544  1.00  0.00     0.164 HD
ATOM     78  O   UNL A   1      33.777  27.896  26.721  1.00  0.00    -0.273 OA
BRANCH  76  79
ATOM     79  C   UNL A   1      32.880  29.746  25.422  1.00  0.00     0.181 C 
BRANCH  79  80
ATOM     80  N   UNL A   1      33.428  29.509  24.076  1.00  0.00    -0.342 N 
ATOM     81  C   UNL A   1      33.573  28.383  23.314  1.00  0.00     0.243 C 
ATOM     82  H   UNL A   1      33.757  30.325  23.637  1.00  0.00     0.164 HD
ATOM     83  O   UNL A   1      34.215  28.531  22.266  1.00  0.00    -0.273 OA
BRANCH  81  84
ATOM     84  C   UNL A   1      33.112  26.964  23.755  1.00  0.00     0.176 C 
BRANCH  84  85
ATOM     85  N   UNL A   1      31.668  26.758  23.654  1.00  0.00    -0.340 N 
ATOM     86  C   UNL A   1      30.863  25.722  24.053  1.00  0.00     0.251 C 
ATOM     87  H   UNL A   1      31.185  27.499  23.221  1.00  0.00     0.164 HD
ATOM     88  O   UNL A   1      29.692  25.716  23.675  1.00  0.00    -0.269 OA
BRANCH  86  89
ATOM     89  C   UNL A   1      31.340  24.615  24.931  1.00  0.00     0.040 A 
ATOM     90  C   UNL A   1      31.312  23.316  24.398  1.00  0.00     0.017 A 
ATOM     91  C   UNL A   1      31.716  24.784  26.270  1.00  0.00     0.017 A 
ATOM     92  C   UNL A   1      31.679  22.219  25.181  1.00  0.00     0.040 A 
ATOM     93  C   UNL A   1      32.089  23.688  27.052  1.00  0.00     0.040 A 
ATOM     94  C   UNL A   1      32.069  22.415  26.500  1.00  0.00     0.123 A 
ATOM     95  F   UNL A   1      32.417  21.365  27.253  1.00  0.00    -0.207 F 
ENDBRANCH  86  89
ENDBRANCH  84  85
BRANCH  84  96
ATOM     96  C   UNL A   1      33.878  25.905  22.910  1.00  0.00     0.070 C 
BRANCH  96  97
ATOM     97  C   UNL A   1      34.467  24.759  23.707  1.00  0.00    -0.045 A 
ATOM     98  C   UNL A   1      34.598  23.480  23.151  1.00  0.00     0.004 A 
ATOM     99  C   UNL A   1      34.942  24.980  25.009  1.00  0.00     0.004 A 
ATOM    100  C   UNL A   1      35.255  22.467  23.851  1.00  0.00     0.000 A 
ATOM    101  C   UNL A   1      35.584  23.962  25.715  1.00  0.00     0.000 A 
ATOM    102  C   UNL A   1      35.754  22.711  25.129  1.00  0.00     0.000 A 
ENDBRANCH  96  97
ENDBRANCH  84  96
ENDBRANCH  81  84
ENDBRANCH  79  80
BRANCH  79 103
ATOM    103  C   UNL A   1      31.402  29.292  25.445  1.00  0.00     0.101 C 
BRANCH 103 104
ATOM    104  S   UNL A   1      30.377  30.028  24.124  1.00  0.00    -0.177 SA
ATOM    105  H   UNL A   1      29.309  30.662  24.678  1.00  0.00     0.102 HD
ENDBRANCH 103 104
ENDBRANCH  79 103
ENDBRANCH  76  79
ENDBRANCH  74  75
BRANCH  74 106
ATOM    106  C   UNL A   1      33.218  32.211  27.577  1.00  0.00     0.191 C 
BRANCH 106 107
ATOM    107  O   UNL A   1      33.671  33.560  27.719  1.00  0.00    -0.394 OA
ATOM    108  H   UNL A   1      33.719  33.787  28.661  1.00  0.00     0.210 HD
ENDBRANCH 106 107
ENDBRANCH  74 106
ENDBRANCH   2  74
TORSDOF 25
ENDMDL
