MODEL 1
REMARK VINA RESULT:     -10.5      0.000      0.000
REMARK SMILES CN(CC(C)(C)O)C(=O)N[C@H]1CC[C@H](C(=O)NCCCNC(=O)c2ccc(-c3c4nc(c(-c5ccc(S(=O)(=O)[O-])cc5)c5ccc([nH]5)c(-c5ccc(S(=O)(=O)[O-])cc5)c5nc(c(-c6ccc(S(=O)(=O)[O-])cc6)c6ccc3[nH]6)C=C5)C=C4)cc2)C1
REMARK SMILES IDX 18 1 17 2 15 3 16 4 14 6 11 7 12 8 84 9 13 10 10 11 8 12
REMARK SMILES IDX 9 13 2 15 1 16 3 17 4 18 5 19 6 20 7 21 19 23 20 24 21 25
REMARK SMILES IDX 22 26 23 28 24 29 25 30 83 31 26 32 82 33 27 34 28 35 29 36
REMARK SMILES IDX 76 37 30 38 81 39 75 40 77 41 31 42 80 43 74 44 73 45 32 47
REMARK SMILES IDX 62 48 43 49 61 50 44 51 47 52 60 53 78 54 45 55 46 56 59 58
REMARK SMILES IDX 79 59 48 60 33 61 34 62 42 63 35 64 41 65 36 66 37 67 38 68
REMARK SMILES IDX 39 69 40 70 63 71 64 72 72 73 65 74 71 75 66 76 67 77 68 78
REMARK SMILES IDX 69 79 70 80 49 81 50 82 58 83 51 84 57 85 52 86 53 87 54 88
REMARK SMILES IDX 55 89 56 90
REMARK H PARENT 17 5 10 14 7 22 21 27 77 46 47 57
REMARK Flexibility Score: inf
ROOT
ATOM      1  C   UNL A   1      31.981  27.628  25.031  1.00  0.00     0.117 C 
ENDROOT
BRANCH   1   2
ATOM      2  N   UNL A   1      31.024  28.090  24.035  1.00  0.00    -0.356 N 
ATOM      3  C   UNL A   1      30.846  27.770  22.725  1.00  0.00     0.223 C 
ATOM      4  O   UNL A   1      29.996  28.403  22.095  1.00  0.00    -0.275 OA
ATOM      5  H   UNL A   1      30.387  28.759  24.374  1.00  0.00     0.163 HD
BRANCH   3   6
ATOM      6  C   UNL A   1      31.567  26.598  22.080  1.00  0.00     0.080 C 
ATOM      7  C   UNL A   1      32.487  24.536  23.057  1.00  0.00     0.084 C 
ATOM      8  C   UNL A   1      33.648  25.366  22.499  1.00  0.00     0.026 C 
ATOM      9  C   UNL A   1      31.217  25.339  22.841  1.00  0.00     0.038 C 
ATOM     10  C   UNL A   1      33.081  26.691  22.001  1.00  0.00     0.015 C 
BRANCH   7  11
ATOM     11  N   UNL A   1      32.416  23.215  22.469  1.00  0.00    -0.335 N 
ATOM     12  C   UNL A   1      32.177  21.987  22.971  1.00  0.00     0.317 C 
ATOM     13  O   UNL A   1      31.926  21.116  22.133  1.00  0.00    -0.249 OA
ATOM     14  H   UNL A   1      32.577  23.212  21.497  1.00  0.00     0.165 HD
BRANCH  12  15
ATOM     15  N   UNL A   1      32.128  21.729  24.315  1.00  0.00    -0.325 N 
ATOM     16  C   UNL A   1      33.113  20.761  24.780  1.00  0.00     0.148 C 
BRANCH  15  17
ATOM     17  C   UNL A   1      31.214  22.241  25.350  1.00  0.00     0.155 C 
BRANCH  17  18
ATOM     18  C   UNL A   1      31.703  23.225  26.450  1.00  0.00     0.077 C 
ATOM     19  C   UNL A   1      33.118  23.792  26.333  1.00  0.00     0.043 C 
ATOM     20  C   UNL A   1      30.696  24.396  26.481  1.00  0.00     0.043 C 
BRANCH  18  21
ATOM     21  O   UNL A   1      31.606  22.547  27.713  1.00  0.00    -0.389 OA
ATOM     22  H   UNL A   1      30.935  22.980  28.263  1.00  0.00     0.211 HD
ENDBRANCH  18  21
ENDBRANCH  17  18
ENDBRANCH  15  17
ENDBRANCH  12  15
ENDBRANCH   7  11
ENDBRANCH   3   6
ENDBRANCH   1   2
BRANCH   1  23
ATOM     23  C   UNL A   1      33.203  28.527  25.084  1.00  0.00     0.042 C 
BRANCH  23  24
ATOM     24  C   UNL A   1      33.797  28.644  26.478  1.00  0.00     0.118 C 
BRANCH  24  25
ATOM     25  N   UNL A   1      33.672  29.985  27.034  1.00  0.00    -0.352 N 
ATOM     26  C   UNL A   1      34.536  30.663  27.864  1.00  0.00     0.251 C 
ATOM     27  H   UNL A   1      32.856  30.474  26.781  1.00  0.00     0.163 HD
ATOM     28  O   UNL A   1      34.189  31.716  28.377  1.00  0.00    -0.269 OA
BRANCH  26  29
ATOM     29  C   UNL A   1      35.868  30.085  28.152  1.00  0.00     0.039 A 
ATOM     30  C   UNL A   1      36.863  30.153  27.175  1.00  0.00     0.014 A 
ATOM     31  C   UNL A   1      36.143  29.515  29.397  1.00  0.00     0.014 A 
ATOM     32  C   UNL A   1      38.156  29.719  27.479  1.00  0.00     0.010 A 
ATOM     33  C   UNL A   1      37.449  29.185  29.732  1.00  0.00     0.010 A 
ATOM     34  C   UNL A   1      38.471  29.274  28.774  1.00  0.00    -0.014 A 
BRANCH  34  35
ATOM     35  C   UNL A   1      39.853  28.884  29.152  1.00  0.00     0.031 A 
ATOM     36  C   UNL A   1      40.752  29.882  29.832  1.00  0.00     0.074 A 
ATOM     37  C   UNL A   1      40.323  27.666  28.819  1.00  0.00     0.049 A 
ATOM     38  N   UNL A   1      42.013  29.765  30.162  1.00  0.00    -0.248 NA
ATOM     39  C   UNL A   1      40.168  31.195  30.158  1.00  0.00     0.031 C 
ATOM     40  C   UNL A   1      39.564  26.623  28.123  1.00  0.00     0.029 A 
ATOM     41  N   UNL A   1      41.558  27.099  29.013  1.00  0.00    -0.354 N 
ATOM     42  C   UNL A   1      42.375  30.989  30.710  1.00  0.00     0.074 A 
ATOM     43  C   UNL A   1      41.220  31.854  30.618  1.00  0.00     0.031 C 
ATOM     44  C   UNL A   1      40.339  25.537  27.976  1.00  0.00     0.029 A 
ATOM     45  C   UNL A   1      41.663  25.819  28.520  1.00  0.00     0.049 A 
ATOM     46  H   UNL A   1      42.299  27.565  29.463  1.00  0.00     0.167 HD
ATOM     47  C   UNL A   1      43.555  31.357  31.263  1.00  0.00     0.031 A 
ATOM     48  C   UNL A   1      42.711  24.972  28.496  1.00  0.00     0.031 A 
ATOM     49  C   UNL A   1      44.698  30.489  31.366  1.00  0.00     0.049 A 
ATOM     50  C   UNL A   1      44.018  25.408  29.100  1.00  0.00     0.074 A 
ATOM     51  C   UNL A   1      45.922  30.747  31.958  1.00  0.00     0.029 A 
ATOM     52  N   UNL A   1      44.760  29.198  30.863  1.00  0.00    -0.354 N 
ATOM     53  N   UNL A   1      44.322  26.550  29.672  1.00  0.00    -0.248 NA
ATOM     54  C   UNL A   1      45.122  24.438  29.066  1.00  0.00     0.031 C 
ATOM     55  C   UNL A   1      46.744  29.634  31.759  1.00  0.00     0.029 A 
ATOM     56  C   UNL A   1      46.010  28.657  31.107  1.00  0.00     0.049 A 
ATOM     57  H   UNL A   1      44.024  28.737  30.400  1.00  0.00     0.167 HD
ATOM     58  C   UNL A   1      45.640  26.423  30.094  1.00  0.00     0.074 A 
ATOM     59  C   UNL A   1      46.070  25.090  29.725  1.00  0.00     0.031 C 
ATOM     60  C   UNL A   1      46.423  27.326  30.734  1.00  0.00     0.031 A 
BRANCH  47  61
ATOM     61  C   UNL A   1      43.670  32.762  31.796  1.00  0.00    -0.014 A 
ATOM     62  C   UNL A   1      43.495  33.041  33.164  1.00  0.00     0.010 A 
ATOM     63  C   UNL A   1      43.994  33.815  30.920  1.00  0.00     0.010 A 
ATOM     64  C   UNL A   1      43.600  34.351  33.639  1.00  0.00     0.020 A 
ATOM     65  C   UNL A   1      44.133  35.122  31.398  1.00  0.00     0.020 A 
ATOM     66  C   UNL A   1      43.918  35.383  32.752  1.00  0.00     0.054 A 
BRANCH  66  67
ATOM     67  S   UNL A   1      44.072  37.069  33.403  1.00  0.00     0.124 S 
ATOM     68  O   UNL A   1      44.416  37.825  32.202  1.00  0.00    -0.237 OA
ATOM     69  O   UNL A   1      42.740  37.324  33.946  1.00  0.00    -0.237 OA
ATOM     70  O   UNL A   1      45.137  36.961  34.398  1.00  0.00    -0.744 OA
ENDBRANCH  66  67
ENDBRANCH  47  61
BRANCH  48  71
ATOM     71  C   UNL A   1      42.563  23.620  27.887  1.00  0.00    -0.014 A 
ATOM     72  C   UNL A   1      42.218  22.512  28.681  1.00  0.00     0.010 A 
ATOM     73  C   UNL A   1      42.758  23.435  26.506  1.00  0.00     0.010 A 
ATOM     74  C   UNL A   1      42.088  21.242  28.109  1.00  0.00     0.020 A 
ATOM     75  C   UNL A   1      42.599  22.175  25.924  1.00  0.00     0.020 A 
ATOM     76  C   UNL A   1      42.276  21.083  26.733  1.00  0.00     0.054 A 
BRANCH  76  77
ATOM     77  S   UNL A   1      42.052  19.436  26.005  1.00  0.00     0.124 S 
ATOM     78  O   UNL A   1      40.610  19.397  25.781  1.00  0.00    -0.237 OA
ATOM     79  O   UNL A   1      42.879  19.508  24.803  1.00  0.00    -0.237 OA
ATOM     80  O   UNL A   1      42.551  18.534  27.041  1.00  0.00    -0.744 OA
ENDBRANCH  76  77
ENDBRANCH  48  71
BRANCH  60  81
ATOM     81  C   UNL A   1      47.814  26.895  31.118  1.00  0.00    -0.014 A 
ATOM     82  C   UNL A   1      48.078  26.284  32.357  1.00  0.00     0.010 A 
ATOM     83  C   UNL A   1      48.864  27.051  30.194  1.00  0.00     0.010 A 
ATOM     84  C   UNL A   1      49.372  25.867  32.677  1.00  0.00     0.020 A 
ATOM     85  C   UNL A   1      50.153  26.606  30.498  1.00  0.00     0.020 A 
ATOM     86  C   UNL A   1      50.401  26.028  31.743  1.00  0.00     0.054 A 
BRANCH  86  87
ATOM     87  S   UNL A   1      52.062  25.434  32.164  1.00  0.00     0.124 S 
ATOM     88  O   UNL A   1      52.344  26.170  33.394  1.00  0.00    -0.237 OA
ATOM     89  O   UNL A   1      51.857  23.997  32.325  1.00  0.00    -0.237 OA
ATOM     90  O   UNL A   1      52.871  25.819  31.010  1.00  0.00    -0.744 OA
ENDBRANCH  86  87
ENDBRANCH  60  81
ENDBRANCH  34  35
ENDBRANCH  26  29
ENDBRANCH  24  25
ENDBRANCH  23  24
ENDBRANCH   1  23
TORSDOF 18
ENDMDL
MODEL 2
REMARK VINA RESULT:     -10.5      1.191      2.137
REMARK SMILES CN(CC(C)(C)O)C(=O)N[C@H]1CC[C@H](C(=O)NCCCNC(=O)c2ccc(-c3c4nc(c(-c5ccc(S(=O)(=O)[O-])cc5)c5ccc([nH]5)c(-c5ccc(S(=O)(=O)[O-])cc5)c5nc(c(-c6ccc(S(=O)(=O)[O-])cc6)c6ccc3[nH]6)C=C5)C=C4)cc2)C1
REMARK SMILES IDX 18 1 17 2 15 3 16 4 14 6 11 7 12 8 84 9 13 10 10 11 8 12
REMARK SMILES IDX 9 13 2 15 1 16 3 17 4 18 5 19 6 20 7 21 19 23 20 24 21 25
REMARK SMILES IDX 22 26 23 28 24 29 25 30 83 31 26 32 82 33 27 34 28 35 29 36
REMARK SMILES IDX 76 37 30 38 81 39 75 40 77 41 31 42 80 43 74 44 73 45 32 47
REMARK SMILES IDX 62 48 43 49 61 50 44 51 47 52 60 53 78 54 45 55 46 56 59 58
REMARK SMILES IDX 79 59 48 60 33 61 34 62 42 63 35 64 41 65 36 66 37 67 38 68
REMARK SMILES IDX 39 69 40 70 63 71 64 72 72 73 65 74 71 75 66 76 67 77 68 78
REMARK SMILES IDX 69 79 70 80 49 81 50 82 58 83 51 84 57 85 52 86 53 87 54 88
REMARK SMILES IDX 55 89 56 90
REMARK H PARENT 17 5 10 14 7 22 21 27 77 46 47 57
REMARK Flexibility Score: inf
ROOT
ATOM      1  C   UNL A   1      32.749  28.925  24.628  1.00  0.00     0.117 C 
ENDROOT
BRANCH   1   2
ATOM      2  N   UNL A   1      32.705  28.179  23.379  1.00  0.00    -0.356 N 
ATOM      3  C   UNL A   1      32.358  26.894  23.095  1.00  0.00     0.223 C 
ATOM      4  O   UNL A   1      32.510  26.506  21.935  1.00  0.00    -0.275 OA
ATOM      5  H   UNL A   1      32.977  28.703  22.591  1.00  0.00     0.163 HD
BRANCH   3   6
ATOM      6  C   UNL A   1      31.690  25.998  24.125  1.00  0.00     0.080 C 
ATOM      7  C   UNL A   1      32.250  23.728  24.892  1.00  0.00     0.084 C 
ATOM      8  C   UNL A   1      30.892  23.678  24.183  1.00  0.00     0.026 C 
ATOM      9  C   UNL A   1      32.754  25.157  24.794  1.00  0.00     0.038 C 
ATOM     10  C   UNL A   1      30.609  25.063  23.612  1.00  0.00     0.015 C 
BRANCH   7  11
ATOM     11  N   UNL A   1      32.182  23.255  26.258  1.00  0.00    -0.335 N 
ATOM     12  C   UNL A   1      32.912  22.377  26.973  1.00  0.00     0.317 C 
ATOM     13  O   UNL A   1      32.735  22.417  28.195  1.00  0.00    -0.249 OA
ATOM     14  H   UNL A   1      31.447  23.659  26.774  1.00  0.00     0.165 HD
BRANCH  12  15
ATOM     15  N   UNL A   1      33.848  21.552  26.409  1.00  0.00    -0.325 N 
ATOM     16  C   UNL A   1      33.305  20.333  25.823  1.00  0.00     0.148 C 
BRANCH  15  17
ATOM     17  C   UNL A   1      35.313  21.683  26.337  1.00  0.00     0.155 C 
BRANCH  17  18
ATOM     18  C   UNL A   1      36.016  22.273  25.081  1.00  0.00     0.077 C 
ATOM     19  C   UNL A   1      36.597  23.684  25.177  1.00  0.00     0.043 C 
ATOM     20  C   UNL A   1      37.146  21.293  24.699  1.00  0.00     0.043 C 
BRANCH  18  21
ATOM     21  O   UNL A   1      35.063  22.265  24.006  1.00  0.00    -0.389 OA
ATOM     22  H   UNL A   1      35.351  21.641  23.323  1.00  0.00     0.211 HD
ENDBRANCH  18  21
ENDBRANCH  17  18
ENDBRANCH  15  17
ENDBRANCH  12  15
ENDBRANCH   7  11
ENDBRANCH   3   6
ENDBRANCH   1   2
BRANCH   1  23
ATOM     23  C   UNL A   1      33.962  28.544  25.458  1.00  0.00     0.042 C 
BRANCH  23  24
ATOM     24  C   UNL A   1      33.701  28.600  26.954  1.00  0.00     0.118 C 
BRANCH  24  25
ATOM     25  N   UNL A   1      33.619  29.962  27.462  1.00  0.00    -0.352 N 
ATOM     26  C   UNL A   1      34.544  30.672  28.194  1.00  0.00     0.251 C 
ATOM     27  H   UNL A   1      32.785  30.443  27.254  1.00  0.00     0.163 HD
ATOM     28  O   UNL A   1      34.238  31.746  28.689  1.00  0.00    -0.269 OA
BRANCH  26  29
ATOM     29  C   UNL A   1      35.895  30.104  28.401  1.00  0.00     0.039 A 
ATOM     30  C   UNL A   1      36.840  30.209  27.379  1.00  0.00     0.014 A 
ATOM     31  C   UNL A   1      36.237  29.504  29.615  1.00  0.00     0.014 A 
ATOM     32  C   UNL A   1      38.151  29.784  27.607  1.00  0.00     0.010 A 
ATOM     33  C   UNL A   1      37.562  29.181  29.876  1.00  0.00     0.010 A 
ATOM     34  C   UNL A   1      38.534  29.308  28.872  1.00  0.00    -0.014 A 
BRANCH  34  35
ATOM     35  C   UNL A   1      39.938  28.925  29.171  1.00  0.00     0.031 A 
ATOM     36  C   UNL A   1      40.873  29.933  29.785  1.00  0.00     0.074 A 
ATOM     37  C   UNL A   1      40.390  27.704  28.825  1.00  0.00     0.049 A 
ATOM     38  N   UNL A   1      42.152  29.822  30.040  1.00  0.00    -0.248 NA
ATOM     39  C   UNL A   1      40.307  31.249  30.129  1.00  0.00     0.031 C 
ATOM     40  C   UNL A   1      39.593  26.651  28.189  1.00  0.00     0.029 A 
ATOM     41  N   UNL A   1      41.636  27.141  28.952  1.00  0.00    -0.354 N 
ATOM     42  C   UNL A   1      42.543  31.054  30.551  1.00  0.00     0.074 A 
ATOM     43  C   UNL A   1      41.382  31.916  30.517  1.00  0.00     0.031 C 
ATOM     44  C   UNL A   1      40.361  25.565  28.009  1.00  0.00     0.029 A 
ATOM     45  C   UNL A   1      41.714  25.856  28.469  1.00  0.00     0.049 A 
ATOM     46  H   UNL A   1      42.401  27.615  29.352  1.00  0.00     0.167 HD
ATOM     47  C   UNL A   1      43.754  31.430  31.028  1.00  0.00     0.031 A 
ATOM     48  C   UNL A   1      42.761  25.011  28.393  1.00  0.00     0.031 A 
ATOM     49  C   UNL A   1      44.902  30.566  31.072  1.00  0.00     0.049 A 
ATOM     50  C   UNL A   1      44.101  25.457  28.912  1.00  0.00     0.074 A 
ATOM     51  C   UNL A   1      46.159  30.833  31.586  1.00  0.00     0.029 A 
ATOM     52  N   UNL A   1      44.937  29.269  30.581  1.00  0.00    -0.354 N 
ATOM     53  N   UNL A   1      44.435  26.605  29.451  1.00  0.00    -0.248 NA
ATOM     54  C   UNL A   1      45.203  24.488  28.824  1.00  0.00     0.031 C 
ATOM     55  C   UNL A   1      46.970  29.719  31.352  1.00  0.00     0.029 A 
ATOM     56  C   UNL A   1      46.201  28.733  30.757  1.00  0.00     0.049 A 
ATOM     57  H   UNL A   1      44.176  28.801  30.170  1.00  0.00     0.167 HD
ATOM     58  C   UNL A   1      45.777  26.486  29.795  1.00  0.00     0.074 A 
ATOM     59  C   UNL A   1      46.188  25.150  29.417  1.00  0.00     0.031 C 
ATOM     60  C   UNL A   1      46.595  27.399  30.376  1.00  0.00     0.031 A 
BRANCH  47  61
ATOM     61  C   UNL A   1      43.896  32.843  31.535  1.00  0.00    -0.014 A 
ATOM     62  C   UNL A   1      44.245  33.896  30.671  1.00  0.00     0.010 A 
ATOM     63  C   UNL A   1      43.639  33.126  32.889  1.00  0.00     0.010 A 
ATOM     64  C   UNL A   1      44.377  35.199  31.160  1.00  0.00     0.020 A 
ATOM     65  C   UNL A   1      43.737  34.433  33.375  1.00  0.00     0.020 A 
ATOM     66  C   UNL A   1      44.123  35.459  32.509  1.00  0.00     0.054 A 
BRANCH  66  67
ATOM     67  S   UNL A   1      44.278  37.164  33.108  1.00  0.00     0.124 S 
ATOM     68  O   UNL A   1      42.951  37.407  33.668  1.00  0.00    -0.237 OA
ATOM     69  O   UNL A   1      45.361  37.062  34.081  1.00  0.00    -0.237 OA
ATOM     70  O   UNL A   1      44.595  37.928  31.903  1.00  0.00    -0.744 OA
ENDBRANCH  66  67
ENDBRANCH  47  61
BRANCH  48  71
ATOM     71  C   UNL A   1      42.581  23.651  27.810  1.00  0.00    -0.014 A 
ATOM     72  C   UNL A   1      42.847  23.414  26.451  1.00  0.00     0.010 A 
ATOM     73  C   UNL A   1      42.150  22.582  28.618  1.00  0.00     0.010 A 
ATOM     74  C   UNL A   1      42.667  22.139  25.904  1.00  0.00     0.020 A 
ATOM     75  C   UNL A   1      41.999  21.299  28.084  1.00  0.00     0.020 A 
ATOM     76  C   UNL A   1      42.248  21.089  26.726  1.00  0.00     0.054 A 
BRANCH  76  77
ATOM     77  S   UNL A   1      42.072  19.433  26.006  1.00  0.00     0.124 S 
ATOM     78  O   UNL A   1      40.638  19.366  25.745  1.00  0.00    -0.237 OA
ATOM     79  O   UNL A   1      42.929  19.511  24.825  1.00  0.00    -0.237 OA
ATOM     80  O   UNL A   1      42.560  18.548  27.062  1.00  0.00    -0.744 OA
ENDBRANCH  76  77
ENDBRANCH  48  71
BRANCH  60  81
ATOM     81  C   UNL A   1      48.007  26.975  30.681  1.00  0.00    -0.014 A 
ATOM     82  C   UNL A   1      49.058  27.220  29.779  1.00  0.00     0.010 A 
ATOM     83  C   UNL A   1      48.294  26.374  31.920  1.00  0.00     0.010 A 
ATOM     84  C   UNL A   1      50.365  26.843  30.100  1.00  0.00     0.020 A 
ATOM     85  C   UNL A   1      49.604  26.025  32.257  1.00  0.00     0.020 A 
ATOM     86  C   UNL A   1      50.630  26.250  31.338  1.00  0.00     0.054 A 
BRANCH  86  87
ATOM     87  S   UNL A   1      52.341  25.813  31.748  1.00  0.00     0.124 S 
ATOM     88  O   UNL A   1      52.207  24.420  32.168  1.00  0.00    -0.237 OA
ATOM     89  O   UNL A   1      53.037  26.023  30.481  1.00  0.00    -0.237 OA
ATOM     90  O   UNL A   1      52.694  26.752  32.810  1.00  0.00    -0.744 OA
ENDBRANCH  86  87
ENDBRANCH  60  81
ENDBRANCH  34  35
ENDBRANCH  26  29
ENDBRANCH  24  25
ENDBRANCH  23  24
ENDBRANCH   1  23
TORSDOF 18
ENDMDL
MODEL 3
REMARK VINA RESULT:     -10.4      3.632      8.209
REMARK SMILES CN(CC(C)(C)O)C(=O)N[C@H]1CC[C@H](C(=O)NCCCNC(=O)c2ccc(-c3c4nc(c(-c5ccc(S(=O)(=O)[O-])cc5)c5ccc([nH]5)c(-c5ccc(S(=O)(=O)[O-])cc5)c5nc(c(-c6ccc(S(=O)(=O)[O-])cc6)c6ccc3[nH]6)C=C5)C=C4)cc2)C1
REMARK SMILES IDX 18 1 17 2 15 3 16 4 14 6 11 7 12 8 84 9 13 10 10 11 8 12
REMARK SMILES IDX 9 13 2 15 1 16 3 17 4 18 5 19 6 20 7 21 19 23 20 24 21 25
REMARK SMILES IDX 22 26 23 28 24 29 25 30 83 31 26 32 82 33 27 34 28 35 29 36
REMARK SMILES IDX 76 37 30 38 81 39 75 40 77 41 31 42 80 43 74 44 73 45 32 47
REMARK SMILES IDX 62 48 43 49 61 50 44 51 47 52 60 53 78 54 45 55 46 56 59 58
REMARK SMILES IDX 79 59 48 60 33 61 34 62 42 63 35 64 41 65 36 66 37 67 38 68
REMARK SMILES IDX 39 69 40 70 63 71 64 72 72 73 65 74 71 75 66 76 67 77 68 78
REMARK SMILES IDX 69 79 70 80 49 81 50 82 58 83 51 84 57 85 52 86 53 87 54 88
REMARK SMILES IDX 55 89 56 90
REMARK H PARENT 17 5 10 14 7 22 21 27 77 46 47 57
REMARK Flexibility Score: inf
ROOT
ATOM      1  C   UNL A   1      37.151  22.124  25.212  1.00  0.00     0.117 C 
ENDROOT
BRANCH   1   2
ATOM      2  N   UNL A   1      35.959  21.808  25.984  1.00  0.00    -0.356 N 
ATOM      3  C   UNL A   1      34.638  21.788  25.656  1.00  0.00     0.223 C 
ATOM      4  O   UNL A   1      33.830  21.568  26.560  1.00  0.00    -0.275 OA
ATOM      5  H   UNL A   1      36.141  21.563  26.920  1.00  0.00     0.163 HD
BRANCH   3   6
ATOM      6  C   UNL A   1      34.167  21.904  24.215  1.00  0.00     0.080 C 
ATOM      7  C   UNL A   1      32.550  23.432  23.166  1.00  0.00     0.084 C 
ATOM      8  C   UNL A   1      31.996  22.007  23.077  1.00  0.00     0.026 C 
ATOM      9  C   UNL A   1      33.864  23.357  23.924  1.00  0.00     0.038 C 
ATOM     10  C   UNL A   1      32.948  21.085  23.831  1.00  0.00     0.015 C 
BRANCH   7  11
ATOM     11  N   UNL A   1      32.693  24.055  21.867  1.00  0.00    -0.335 N 
ATOM     12  C   UNL A   1      32.669  25.334  21.443  1.00  0.00     0.317 C 
ATOM     13  O   UNL A   1      33.095  25.517  20.298  1.00  0.00    -0.249 OA
ATOM     14  H   UNL A   1      32.837  23.408  21.139  1.00  0.00     0.165 HD
BRANCH  12  15
ATOM     15  N   UNL A   1      32.284  26.377  22.243  1.00  0.00    -0.325 N 
ATOM     16  C   UNL A   1      33.383  27.062  22.913  1.00  0.00     0.148 C 
BRANCH  15  17
ATOM     17  C   UNL A   1      30.940  26.885  22.564  1.00  0.00     0.155 C 
BRANCH  17  18
ATOM     18  C   UNL A   1      30.096  26.278  23.720  1.00  0.00     0.077 C 
ATOM     19  C   UNL A   1      30.677  26.316  25.134  1.00  0.00     0.043 C 
ATOM     20  C   UNL A   1      28.739  27.016  23.718  1.00  0.00     0.043 C 
BRANCH  18  21
ATOM     21  O   UNL A   1      29.834  24.904  23.392  1.00  0.00    -0.389 OA
ATOM     22  H   UNL A   1      29.973  24.352  24.176  1.00  0.00     0.211 HD
ENDBRANCH  18  21
ENDBRANCH  17  18
ENDBRANCH  15  17
ENDBRANCH  12  15
ENDBRANCH   7  11
ENDBRANCH   3   6
ENDBRANCH   1   2
BRANCH   1  23
ATOM     23  C   UNL A   1      38.094  20.935  25.138  1.00  0.00     0.042 C 
BRANCH  23  24
ATOM     24  C   UNL A   1      39.285  21.061  26.073  1.00  0.00     0.118 C 
BRANCH  24  25
ATOM     25  N   UNL A   1      40.153  19.892  26.041  1.00  0.00    -0.352 N 
ATOM     26  C   UNL A   1      41.528  19.831  26.087  1.00  0.00     0.251 C 
ATOM     27  H   UNL A   1      39.693  19.024  25.977  1.00  0.00     0.163 HD
ATOM     28  O   UNL A   1      42.100  18.773  25.871  1.00  0.00    -0.269 OA
BRANCH  26  29
ATOM     29  C   UNL A   1      42.299  21.063  26.366  1.00  0.00     0.039 A 
ATOM     30  C   UNL A   1      42.684  21.879  25.300  1.00  0.00     0.014 A 
ATOM     31  C   UNL A   1      42.604  21.431  27.678  1.00  0.00     0.014 A 
ATOM     32  C   UNL A   1      43.306  23.102  25.560  1.00  0.00     0.010 A 
ATOM     33  C   UNL A   1      43.124  22.692  27.939  1.00  0.00     0.010 A 
ATOM     34  C   UNL A   1      43.490  23.540  26.882  1.00  0.00    -0.014 A 
BRANCH  34  35
ATOM     35  C   UNL A   1      44.073  24.870  27.191  1.00  0.00     0.031 A 
ATOM     36  C   UNL A   1      43.180  25.987  27.664  1.00  0.00     0.074 A 
ATOM     37  C   UNL A   1      45.385  25.096  26.977  1.00  0.00     0.049 A 
ATOM     38  N   UNL A   1      43.480  27.238  27.901  1.00  0.00    -0.248 NA
ATOM     39  C   UNL A   1      41.757  25.663  27.868  1.00  0.00     0.031 C 
ATOM     40  C   UNL A   1      46.348  24.109  26.484  1.00  0.00     0.029 A 
ATOM     41  N   UNL A   1      46.135  26.234  27.139  1.00  0.00    -0.354 N 
ATOM     42  C   UNL A   1      42.285  27.851  28.259  1.00  0.00     0.074 A 
ATOM     43  C   UNL A   1      41.246  26.851  28.153  1.00  0.00     0.031 C 
ATOM     44  C   UNL A   1      47.563  24.675  26.412  1.00  0.00     0.029 A 
ATOM     45  C   UNL A   1      47.460  26.076  26.805  1.00  0.00     0.049 A 
ATOM     46  H   UNL A   1      45.759  27.084  27.465  1.00  0.00     0.167 HD
ATOM     47  C   UNL A   1      42.072  29.126  28.662  1.00  0.00     0.031 A 
ATOM     48  C   UNL A   1      48.475  26.963  26.802  1.00  0.00     0.031 A 
ATOM     49  C   UNL A   1      43.111  30.115  28.779  1.00  0.00     0.049 A 
ATOM     50  C   UNL A   1      48.211  28.379  27.237  1.00  0.00     0.074 A 
ATOM     51  C   UNL A   1      43.008  31.418  29.231  1.00  0.00     0.029 A 
ATOM     52  N   UNL A   1      44.440  29.911  28.439  1.00  0.00    -0.354 N 
ATOM     53  N   UNL A   1      47.085  28.923  27.633  1.00  0.00    -0.248 NA
ATOM     54  C   UNL A   1      49.358  29.298  27.235  1.00  0.00     0.031 C 
ATOM     55  C   UNL A   1      44.264  32.021  29.107  1.00  0.00     0.029 A 
ATOM     56  C   UNL A   1      45.163  31.073  28.646  1.00  0.00     0.049 A 
ATOM     57  H   UNL A   1      44.813  29.066  28.101  1.00  0.00     0.167 HD
ATOM     58  C   UNL A   1      47.395  30.239  27.958  1.00  0.00     0.074 A 
ATOM     59  C   UNL A   1      48.815  30.403  27.725  1.00  0.00     0.031 C 
ATOM     60  C   UNL A   1      46.578  31.221  28.412  1.00  0.00     0.031 A 
BRANCH  47  61
ATOM     61  C   UNL A   1      40.659  29.525  29.001  1.00  0.00    -0.014 A 
ATOM     62  C   UNL A   1      39.653  29.553  28.018  1.00  0.00     0.010 A 
ATOM     63  C   UNL A   1      40.323  29.839  30.331  1.00  0.00     0.010 A 
ATOM     64  C   UNL A   1      38.348  29.929  28.350  1.00  0.00     0.020 A 
ATOM     65  C   UNL A   1      39.012  30.183  30.673  1.00  0.00     0.020 A 
ATOM     66  C   UNL A   1      38.037  30.242  29.675  1.00  0.00     0.054 A 
BRANCH  66  67
ATOM     67  S   UNL A   1      36.329  30.702  30.079  1.00  0.00     0.124 S 
ATOM     68  O   UNL A   1      36.471  32.114  30.422  1.00  0.00    -0.237 OA
ATOM     69  O   UNL A   1      35.622  30.427  28.831  1.00  0.00    -0.237 OA
ATOM     70  O   UNL A   1      35.986  29.822  31.194  1.00  0.00    -0.744 OA
ENDBRANCH  66  67
ENDBRANCH  47  61
BRANCH  48  71
ATOM     71  C   UNL A   1      49.839  26.532  26.383  1.00  0.00    -0.014 A 
ATOM     72  C   UNL A   1      50.290  26.760  25.071  1.00  0.00     0.010 A 
ATOM     73  C   UNL A   1      50.699  25.899  27.300  1.00  0.00     0.010 A 
ATOM     74  C   UNL A   1      51.567  26.346  24.678  1.00  0.00     0.020 A 
ATOM     75  C   UNL A   1      51.987  25.513  26.920  1.00  0.00     0.020 A 
ATOM     76  C   UNL A   1      52.409  25.729  25.607  1.00  0.00     0.054 A 
BRANCH  76  77
ATOM     77  S   UNL A   1      54.079  25.248  25.088  1.00  0.00     0.124 S 
ATOM     78  O   UNL A   1      54.256  26.032  23.869  1.00  0.00    -0.237 OA
ATOM     79  O   UNL A   1      54.894  25.658  26.230  1.00  0.00    -0.237 OA
ATOM     80  O   UNL A   1      53.975  23.803  24.895  1.00  0.00    -0.744 OA
ENDBRANCH  76  77
ENDBRANCH  48  71
BRANCH  60  81
ATOM     81  C   UNL A   1      47.202  32.554  28.731  1.00  0.00    -0.014 A 
ATOM     82  C   UNL A   1      47.270  33.582  27.773  1.00  0.00     0.010 A 
ATOM     83  C   UNL A   1      47.674  32.800  30.033  1.00  0.00     0.010 A 
ATOM     84  C   UNL A   1      47.827  34.819  28.104  1.00  0.00     0.020 A 
ATOM     85  C   UNL A   1      48.203  34.046  30.377  1.00  0.00     0.020 A 
ATOM     86  C   UNL A   1      48.288  35.045  29.406  1.00  0.00     0.054 A 
BRANCH  86  87
ATOM     87  S   UNL A   1      48.964  36.675  29.822  1.00  0.00     0.124 S 
ATOM     88  O   UNL A   1      49.629  37.054  28.578  1.00  0.00    -0.237 OA
ATOM     89  O   UNL A   1      47.766  37.443  30.153  1.00  0.00    -0.237 OA
ATOM     90  O   UNL A   1      49.855  36.404  30.947  1.00  0.00    -0.744 OA
ENDBRANCH  86  87
ENDBRANCH  60  81
ENDBRANCH  34  35
ENDBRANCH  26  29
ENDBRANCH  24  25
ENDBRANCH  23  24
ENDBRANCH   1  23
TORSDOF 18
ENDMDL
