MODEL 1
REMARK VINA RESULT:     -10.2      0.000      0.000
REMARK SMILES CC(=O)c1cccc(-c2ccc(C(=O)NCCCNC(=O)c3ccc(-c4c5nc(c(-c6ccc(S(=O)(=O)[O-])cc6)c6ccc([nH]6)c(-c6ccc(S(=O)(=O)[O-])cc6)c6nc(c(-c7ccc(S(=O)(=O)[O-])cc7)c7ccc4[nH]7)C=C6)C=C5)cc3)cc2F)c1
REMARK SMILES IDX 17 1 16 2 15 3 13 4 14 5 12 7 9 8 10 9 83 10 11 11 82 12
REMARK SMILES IDX 84 13 8 14 4 15 5 16 85 17 6 18 7 19 2 20 1 21 3 22 18 23
REMARK SMILES IDX 19 24 20 25 21 27 22 28 23 29 81 30 24 31 80 32 25 33 26 34
REMARK SMILES IDX 27 35 74 36 28 37 79 38 73 39 75 40 29 41 78 42 72 43 71 44
REMARK SMILES IDX 30 46 60 47 41 48 59 49 42 50 45 51 58 52 76 53 43 54 44 55
REMARK SMILES IDX 57 57 77 58 46 59 31 60 32 61 40 62 33 63 39 64 34 65 35 66
REMARK SMILES IDX 36 67 37 68 38 69 61 70 62 71 70 72 63 73 69 74 64 75 65 76
REMARK SMILES IDX 66 77 67 78 68 79 47 80 48 81 56 82 49 83 55 84 50 85 51 86
REMARK SMILES IDX 52 87 53 88 54 89
REMARK H PARENT 15 6 19 26 75 45 45 56
REMARK Flexibility Score: inf
ROOT
ATOM      1  C   UNL A   1      33.291  33.876  28.223  1.00  0.00     0.042 C 
ENDROOT
BRANCH   1   2
ATOM      2  C   UNL A   1      33.777  35.045  29.077  1.00  0.00     0.118 C 
BRANCH   2   3
ATOM      3  N   UNL A   1      33.048  35.111  30.334  1.00  0.00    -0.352 N 
ATOM      4  C   UNL A   1      33.364  34.712  31.607  1.00  0.00     0.251 C 
ATOM      5  O   UNL A   1      32.557  34.959  32.503  1.00  0.00    -0.269 OA
ATOM      6  H   UNL A   1      32.157  35.522  30.255  1.00  0.00     0.163 HD
BRANCH   4   7
ATOM      7  C   UNL A   1      34.653  34.058  31.961  1.00  0.00     0.042 A 
ATOM      8  C   UNL A   1      36.997  32.649  32.690  1.00  0.00     0.018 A 
ATOM      9  C   UNL A   1      35.887  31.961  32.186  1.00  0.00     0.012 A 
ATOM     10  C   UNL A   1      36.922  34.045  32.769  1.00  0.00     0.131 A 
ATOM     11  C   UNL A   1      34.725  32.661  31.833  1.00  0.00     0.014 A 
ATOM     12  C   UNL A   1      35.787  34.747  32.379  1.00  0.00     0.053 A 
ATOM     13  F   UNL A   1      37.966  34.748  33.233  1.00  0.00    -0.206 F 
BRANCH   8  14
ATOM     14  C   UNL A   1      38.223  31.960  33.103  1.00  0.00    -0.015 A 
ATOM     15  C   UNL A   1      39.474  29.889  33.402  1.00  0.00     0.018 A 
ATOM     16  C   UNL A   1      40.426  30.581  34.160  1.00  0.00     0.012 A 
ATOM     17  C   UNL A   1      38.378  30.581  32.874  1.00  0.00     0.020 A 
ATOM     18  C   UNL A   1      40.303  31.954  34.359  1.00  0.00     0.001 A 
ATOM     19  C   UNL A   1      39.210  32.641  33.830  1.00  0.00     0.009 A 
BRANCH  15  20
ATOM     20  C   UNL A   1      39.647  28.423  33.215  1.00  0.00     0.159 C 
ATOM     21  C   UNL A   1      38.652  27.679  32.364  1.00  0.00     0.093 C 
ATOM     22  O   UNL A   1      40.621  27.854  33.704  1.00  0.00    -0.295 OA
ENDBRANCH  15  20
ENDBRANCH   8  14
ENDBRANCH   4   7
ENDBRANCH   2   3
ENDBRANCH   1   2
BRANCH   1  23
ATOM     23  C   UNL A   1      34.328  32.766  28.090  1.00  0.00     0.118 C 
BRANCH  23  24
ATOM     24  N   UNL A   1      33.717  31.496  27.716  1.00  0.00    -0.352 N 
ATOM     25  C   UNL A   1      34.300  30.269  27.517  1.00  0.00     0.251 C 
ATOM     26  H   UNL A   1      32.742  31.522  27.586  1.00  0.00     0.163 HD
ATOM     27  O   UNL A   1      33.664  29.376  26.969  1.00  0.00    -0.269 OA
BRANCH  25  28
ATOM     28  C   UNL A   1      35.691  30.035  27.956  1.00  0.00     0.039 A 
ATOM     29  C   UNL A   1      35.939  29.708  29.292  1.00  0.00     0.014 A 
ATOM     30  C   UNL A   1      36.751  30.155  27.053  1.00  0.00     0.014 A 
ATOM     31  C   UNL A   1      37.245  29.438  29.707  1.00  0.00     0.010 A 
ATOM     32  C   UNL A   1      38.039  29.812  27.449  1.00  0.00     0.010 A 
ATOM     33  C   UNL A   1      38.300  29.453  28.779  1.00  0.00    -0.014 A 
BRANCH  33  34
ATOM     34  C   UNL A   1      39.686  29.089  29.167  1.00  0.00     0.031 A 
ATOM     35  C   UNL A   1      40.583  30.119  29.798  1.00  0.00     0.074 A 
ATOM     36  C   UNL A   1      40.163  27.864  28.866  1.00  0.00     0.049 A 
ATOM     37  N   UNL A   1      41.854  30.035  30.092  1.00  0.00    -0.248 NA
ATOM     38  C   UNL A   1      39.977  31.424  30.113  1.00  0.00     0.031 C 
ATOM     39  C   UNL A   1      39.397  26.790  28.230  1.00  0.00     0.029 A 
ATOM     40  N   UNL A   1      41.411  27.323  29.040  1.00  0.00    -0.354 N 
ATOM     41  C   UNL A   1      42.205  31.279  30.605  1.00  0.00     0.074 A 
ATOM     42  C   UNL A   1      41.026  32.113  30.539  1.00  0.00     0.031 C 
ATOM     43  C   UNL A   1      40.187  25.714  28.083  1.00  0.00     0.029 A 
ATOM     44  C   UNL A   1      41.527  26.038  28.563  1.00  0.00     0.049 A 
ATOM     45  H   UNL A   1      42.155  27.808  29.466  1.00  0.00     0.167 HD
ATOM     46  C   UNL A   1      43.400  31.684  31.100  1.00  0.00     0.031 A 
ATOM     47  C   UNL A   1      42.594  25.218  28.500  1.00  0.00     0.031 A 
ATOM     48  C   UNL A   1      44.566  30.844  31.166  1.00  0.00     0.049 A 
ATOM     49  C   UNL A   1      43.918  25.700  29.027  1.00  0.00     0.074 A 
ATOM     50  C   UNL A   1      45.809  31.142  31.696  1.00  0.00     0.029 A 
ATOM     51  N   UNL A   1      44.636  29.545  30.683  1.00  0.00    -0.354 N 
ATOM     52  N   UNL A   1      44.217  26.859  29.564  1.00  0.00    -0.248 NA
ATOM     53  C   UNL A   1      45.047  24.762  28.950  1.00  0.00     0.031 C 
ATOM     54  C   UNL A   1      46.649  30.046  31.478  1.00  0.00     0.029 A 
ATOM     55  C   UNL A   1      45.909  29.039  30.879  1.00  0.00     0.049 A 
ATOM     56  H   UNL A   1      43.891  29.057  30.264  1.00  0.00     0.167 HD
ATOM     57  C   UNL A   1      45.558  26.777  29.919  1.00  0.00     0.074 A 
ATOM     58  C   UNL A   1      46.011  25.454  29.544  1.00  0.00     0.031 C 
ATOM     59  C   UNL A   1      46.342  27.713  30.510  1.00  0.00     0.031 A 
BRANCH  46  60
ATOM     60  C   UNL A   1      43.508  33.103  31.595  1.00  0.00    -0.014 A 
ATOM     61  C   UNL A   1      43.289  33.422  32.948  1.00  0.00     0.010 A 
ATOM     62  C   UNL A   1      43.878  34.127  30.704  1.00  0.00     0.010 A 
ATOM     63  C   UNL A   1      43.395  34.743  33.391  1.00  0.00     0.020 A 
ATOM     64  C   UNL A   1      44.017  35.445  31.150  1.00  0.00     0.020 A 
ATOM     65  C   UNL A   1      43.757  35.747  32.487  1.00  0.00     0.054 A 
BRANCH  65  66
ATOM     66  S   UNL A   1      43.908  37.448  33.097  1.00  0.00     0.124 S 
ATOM     67  O   UNL A   1      43.812  38.220  31.861  1.00  0.00    -0.237 OA
ATOM     68  O   UNL A   1      42.768  37.565  34.001  1.00  0.00    -0.237 OA
ATOM     69  O   UNL A   1      45.218  37.470  33.744  1.00  0.00    -0.744 OA
ENDBRANCH  65  66
ENDBRANCH  46  60
BRANCH  47  70
ATOM     70  C   UNL A   1      42.451  23.855  27.916  1.00  0.00    -0.014 A 
ATOM     71  C   UNL A   1      42.473  23.670  26.523  1.00  0.00     0.010 A 
ATOM     72  C   UNL A   1      42.311  22.731  28.751  1.00  0.00     0.010 A 
ATOM     73  C   UNL A   1      42.339  22.391  25.976  1.00  0.00     0.020 A 
ATOM     74  C   UNL A   1      42.208  21.447  28.210  1.00  0.00     0.020 A 
ATOM     75  C   UNL A   1      42.211  21.286  26.823  1.00  0.00     0.054 A 
BRANCH  75  76
ATOM     76  S   UNL A   1      42.088  19.632  26.089  1.00  0.00     0.124 S 
ATOM     77  O   UNL A   1      40.687  19.583  25.682  1.00  0.00    -0.237 OA
ATOM     78  O   UNL A   1      43.061  19.697  25.003  1.00  0.00    -0.237 OA
ATOM     79  O   UNL A   1      42.451  18.742  27.190  1.00  0.00    -0.744 OA
ENDBRANCH  75  76
ENDBRANCH  47  70
BRANCH  59  80
ATOM     80  C   UNL A   1      47.761  27.334  30.838  1.00  0.00    -0.014 A 
ATOM     81  C   UNL A   1      48.095  26.734  32.065  1.00  0.00     0.010 A 
ATOM     82  C   UNL A   1      48.759  27.497  29.859  1.00  0.00     0.010 A 
ATOM     83  C   UNL A   1      49.406  26.316  32.310  1.00  0.00     0.020 A 
ATOM     84  C   UNL A   1      50.063  27.053  30.089  1.00  0.00     0.020 A 
ATOM     85  C   UNL A   1      50.380  26.470  31.318  1.00  0.00     0.054 A 
BRANCH  85  86
ATOM     86  S   UNL A   1      52.053  25.845  31.634  1.00  0.00     0.124 S 
ATOM     87  O   UNL A   1      52.700  26.038  30.339  1.00  0.00    -0.237 OA
ATOM     88  O   UNL A   1      52.521  26.716  32.708  1.00  0.00    -0.237 OA
ATOM     89  O   UNL A   1      51.836  24.452  32.019  1.00  0.00    -0.744 OA
ENDBRANCH  85  86
ENDBRANCH  59  80
ENDBRANCH  33  34
ENDBRANCH  25  28
ENDBRANCH  23  24
ENDBRANCH   1  23
TORSDOF 15
ENDMDL
MODEL 2
REMARK VINA RESULT:      -9.9      4.095      6.790
REMARK SMILES CC(=O)c1cccc(-c2ccc(C(=O)NCCCNC(=O)c3ccc(-c4c5nc(c(-c6ccc(S(=O)(=O)[O-])cc6)c6ccc([nH]6)c(-c6ccc(S(=O)(=O)[O-])cc6)c6nc(c(-c7ccc(S(=O)(=O)[O-])cc7)c7ccc4[nH]7)C=C6)C=C5)cc3)cc2F)c1
REMARK SMILES IDX 17 1 16 2 15 3 13 4 14 5 12 7 9 8 10 9 83 10 11 11 82 12
REMARK SMILES IDX 84 13 8 14 4 15 5 16 85 17 6 18 7 19 2 20 1 21 3 22 18 23
REMARK SMILES IDX 19 24 20 25 21 27 22 28 23 29 81 30 24 31 80 32 25 33 26 34
REMARK SMILES IDX 27 35 74 36 28 37 79 38 73 39 75 40 29 41 78 42 72 43 71 44
REMARK SMILES IDX 30 46 60 47 41 48 59 49 42 50 45 51 58 52 76 53 43 54 44 55
REMARK SMILES IDX 57 57 77 58 46 59 31 60 32 61 40 62 33 63 39 64 34 65 35 66
REMARK SMILES IDX 36 67 37 68 38 69 61 70 62 71 70 72 63 73 69 74 64 75 65 76
REMARK SMILES IDX 66 77 67 78 68 79 47 80 48 81 56 82 49 83 55 84 50 85 51 86
REMARK SMILES IDX 52 87 53 88 54 89
REMARK H PARENT 15 6 19 26 75 45 45 56
REMARK Flexibility Score: inf
ROOT
ATOM      1  C   UNL A   1      32.295  27.968  26.728  1.00  0.00     0.042 C 
ENDROOT
BRANCH   1   2
ATOM      2  C   UNL A   1      32.089  28.083  25.219  1.00  0.00     0.118 C 
BRANCH   2   3
ATOM      3  N   UNL A   1      30.780  27.582  24.831  1.00  0.00    -0.352 N 
ATOM      4  C   UNL A   1      30.318  26.322  24.552  1.00  0.00     0.251 C 
ATOM      5  O   UNL A   1      29.119  26.191  24.307  1.00  0.00    -0.269 OA
ATOM      6  H   UNL A   1      30.094  28.283  24.754  1.00  0.00     0.163 HD
BRANCH   4   7
ATOM      7  C   UNL A   1      31.180  25.109  24.594  1.00  0.00     0.042 A 
ATOM      8  C   UNL A   1      32.742  22.750  24.492  1.00  0.00     0.018 A 
ATOM      9  C   UNL A   1      32.410  23.430  23.314  1.00  0.00     0.012 A 
ATOM     10  C   UNL A   1      32.320  23.303  25.708  1.00  0.00     0.131 A 
ATOM     11  C   UNL A   1      31.631  24.594  23.368  1.00  0.00     0.014 A 
ATOM     12  C   UNL A   1      31.583  24.480  25.768  1.00  0.00     0.053 A 
ATOM     13  F   UNL A   1      32.625  22.694  26.863  1.00  0.00    -0.206 F 
BRANCH   8  14
ATOM     14  C   UNL A   1      33.527  21.513  24.487  1.00  0.00    -0.015 A 
ATOM     15  C   UNL A   1      33.615  19.077  24.492  1.00  0.00     0.018 A 
ATOM     16  C   UNL A   1      34.983  19.133  24.781  1.00  0.00     0.012 A 
ATOM     17  C   UNL A   1      32.892  20.266  24.343  1.00  0.00     0.020 A 
ATOM     18  C   UNL A   1      35.629  20.362  24.886  1.00  0.00     0.001 A 
ATOM     19  C   UNL A   1      34.906  21.546  24.735  1.00  0.00     0.009 A 
BRANCH  15  20
ATOM     20  C   UNL A   1      32.967  17.740  24.389  1.00  0.00     0.159 C 
ATOM     21  C   UNL A   1      33.670  16.651  23.624  1.00  0.00     0.093 C 
ATOM     22  O   UNL A   1      31.906  17.529  24.974  1.00  0.00    -0.295 OA
ENDBRANCH  15  20
ENDBRANCH   8  14
ENDBRANCH   4   7
ENDBRANCH   2   3
ENDBRANCH   1   2
BRANCH   1  23
ATOM     23  C   UNL A   1      33.649  28.500  27.185  1.00  0.00     0.118 C 
BRANCH  23  24
ATOM     24  N   UNL A   1      33.586  29.914  27.532  1.00  0.00    -0.352 N 
ATOM     25  C   UNL A   1      34.493  30.691  28.209  1.00  0.00     0.251 C 
ATOM     26  H   UNL A   1      32.771  30.382  27.238  1.00  0.00     0.163 HD
ATOM     27  O   UNL A   1      34.160  31.797  28.619  1.00  0.00    -0.269 OA
BRANCH  25  28
ATOM     28  C   UNL A   1      35.862  30.187  28.446  1.00  0.00     0.039 A 
ATOM     29  C   UNL A   1      36.791  30.219  27.402  1.00  0.00     0.014 A 
ATOM     30  C   UNL A   1      36.222  29.668  29.692  1.00  0.00     0.014 A 
ATOM     31  C   UNL A   1      38.101  29.790  27.628  1.00  0.00     0.010 A 
ATOM     32  C   UNL A   1      37.544  29.313  29.937  1.00  0.00     0.010 A 
ATOM     33  C   UNL A   1      38.496  29.368  28.908  1.00  0.00    -0.014 A 
BRANCH  33  34
ATOM     34  C   UNL A   1      39.898  28.986  29.206  1.00  0.00     0.031 A 
ATOM     35  C   UNL A   1      40.851  30.005  29.769  1.00  0.00     0.074 A 
ATOM     36  C   UNL A   1      40.336  27.752  28.882  1.00  0.00     0.049 A 
ATOM     37  N   UNL A   1      42.137  29.904  29.978  1.00  0.00    -0.248 NA
ATOM     38  C   UNL A   1      40.287  31.321  30.115  1.00  0.00     0.031 C 
ATOM     39  C   UNL A   1      39.514  26.686  28.305  1.00  0.00     0.029 A 
ATOM     40  N   UNL A   1      41.585  27.192  28.976  1.00  0.00    -0.354 N 
ATOM     41  C   UNL A   1      42.541  31.144  30.458  1.00  0.00     0.074 A 
ATOM     42  C   UNL A   1      41.373  31.996  30.466  1.00  0.00     0.031 C 
ATOM     43  C   UNL A   1      40.276  25.598  28.113  1.00  0.00     0.029 A 
ATOM     44  C   UNL A   1      41.649  25.903  28.502  1.00  0.00     0.049 A 
ATOM     45  H   UNL A   1      42.362  27.668  29.349  1.00  0.00     0.167 HD
ATOM     46  C   UNL A   1      43.772  31.534  30.870  1.00  0.00     0.031 A 
ATOM     47  C   UNL A   1      42.697  25.066  28.373  1.00  0.00     0.031 A 
ATOM     48  C   UNL A   1      44.927  30.677  30.864  1.00  0.00     0.049 A 
ATOM     49  C   UNL A   1      44.060  25.531  28.808  1.00  0.00     0.074 A 
ATOM     50  C   UNL A   1      46.207  30.958  31.309  1.00  0.00     0.029 A 
ATOM     51  N   UNL A   1      44.945  29.374  30.387  1.00  0.00    -0.354 N 
ATOM     52  N   UNL A   1      44.412  26.688  29.316  1.00  0.00    -0.248 NA
ATOM     53  C   UNL A   1      45.168  24.575  28.663  1.00  0.00     0.031 C 
ATOM     54  C   UNL A   1      47.014  29.848  31.043  1.00  0.00     0.029 A 
ATOM     55  C   UNL A   1      46.220  28.849  30.501  1.00  0.00     0.049 A 
ATOM     56  H   UNL A   1      44.167  28.895  30.022  1.00  0.00     0.167 HD
ATOM     57  C   UNL A   1      45.772  26.588  29.583  1.00  0.00     0.074 A 
ATOM     58  C   UNL A   1      46.179  25.255  29.187  1.00  0.00     0.031 C 
ATOM     59  C   UNL A   1      46.608  27.514  30.113  1.00  0.00     0.031 A 
BRANCH  46  60
ATOM     60  C   UNL A   1      43.934  32.953  31.348  1.00  0.00    -0.014 A 
ATOM     61  C   UNL A   1      43.760  33.292  32.702  1.00  0.00     0.010 A 
ATOM     62  C   UNL A   1      44.310  33.958  30.437  1.00  0.00     0.010 A 
ATOM     63  C   UNL A   1      43.916  34.613  33.129  1.00  0.00     0.020 A 
ATOM     64  C   UNL A   1      44.498  35.275  30.865  1.00  0.00     0.020 A 
ATOM     65  C   UNL A   1      44.283  35.597  32.205  1.00  0.00     0.054 A 
BRANCH  65  66
ATOM     66  S   UNL A   1      44.499  37.300  32.793  1.00  0.00     0.124 S 
ATOM     67  O   UNL A   1      43.660  37.315  33.988  1.00  0.00    -0.237 OA
ATOM     68  O   UNL A   1      45.937  37.374  33.034  1.00  0.00    -0.237 OA
ATOM     69  O   UNL A   1      44.014  38.114  31.682  1.00  0.00    -0.744 OA
ENDBRANCH  65  66
ENDBRANCH  46  60
BRANCH  47  70
ATOM     70  C   UNL A   1      42.496  23.702  27.809  1.00  0.00    -0.014 A 
ATOM     71  C   UNL A   1      42.698  23.459  26.440  1.00  0.00     0.010 A 
ATOM     72  C   UNL A   1      42.118  22.633  28.643  1.00  0.00     0.010 A 
ATOM     73  C   UNL A   1      42.508  22.180  25.911  1.00  0.00     0.020 A 
ATOM     74  C   UNL A   1      41.958  21.345  28.125  1.00  0.00     0.020 A 
ATOM     75  C   UNL A   1      42.143  21.129  26.758  1.00  0.00     0.054 A 
BRANCH  75  76
ATOM     76  S   UNL A   1      41.950  19.467  26.056  1.00  0.00     0.124 S 
ATOM     77  O   UNL A   1      42.431  18.620  27.143  1.00  0.00    -0.237 OA
ATOM     78  O   UNL A   1      40.516  19.404  25.789  1.00  0.00    -0.237 OA
ATOM     79  O   UNL A   1      42.798  19.500  24.866  1.00  0.00    -0.744 OA
ENDBRANCH  75  76
ENDBRANCH  47  70
BRANCH  59  80
ATOM     80  C   UNL A   1      48.040  27.115  30.350  1.00  0.00    -0.014 A 
ATOM     81  C   UNL A   1      49.048  27.414  29.416  1.00  0.00     0.010 A 
ATOM     82  C   UNL A   1      48.392  26.515  31.573  1.00  0.00     0.010 A 
ATOM     83  C   UNL A   1      50.382  27.106  29.700  1.00  0.00     0.020 A 
ATOM     84  C   UNL A   1      49.727  26.234  31.871  1.00  0.00     0.020 A 
ATOM     85  C   UNL A   1      50.714  26.526  30.928  1.00  0.00     0.054 A 
BRANCH  85  86
ATOM     86  S   UNL A   1      52.461  26.213  31.301  1.00  0.00     0.124 S 
ATOM     87  O   UNL A   1      52.793  27.336  32.173  1.00  0.00    -0.237 OA
ATOM     88  O   UNL A   1      52.420  24.904  31.947  1.00  0.00    -0.237 OA
ATOM     89  O   UNL A   1      53.105  26.233  29.989  1.00  0.00    -0.744 OA
ENDBRANCH  85  86
ENDBRANCH  59  80
ENDBRANCH  33  34
ENDBRANCH  25  28
ENDBRANCH  23  24
ENDBRANCH   1  23
TORSDOF 15
ENDMDL
MODEL 3
REMARK VINA RESULT:      -9.9      3.281     11.104
REMARK SMILES CC(=O)c1cccc(-c2ccc(C(=O)NCCCNC(=O)c3ccc(-c4c5nc(c(-c6ccc(S(=O)(=O)[O-])cc6)c6ccc([nH]6)c(-c6ccc(S(=O)(=O)[O-])cc6)c6nc(c(-c7ccc(S(=O)(=O)[O-])cc7)c7ccc4[nH]7)C=C6)C=C5)cc3)cc2F)c1
REMARK SMILES IDX 17 1 16 2 15 3 13 4 14 5 12 7 9 8 10 9 83 10 11 11 82 12
REMARK SMILES IDX 84 13 8 14 4 15 5 16 85 17 6 18 7 19 2 20 1 21 3 22 18 23
REMARK SMILES IDX 19 24 20 25 21 27 22 28 23 29 81 30 24 31 80 32 25 33 26 34
REMARK SMILES IDX 27 35 74 36 28 37 79 38 73 39 75 40 29 41 78 42 72 43 71 44
REMARK SMILES IDX 30 46 60 47 41 48 59 49 42 50 45 51 58 52 76 53 43 54 44 55
REMARK SMILES IDX 57 57 77 58 46 59 31 60 32 61 40 62 33 63 39 64 34 65 35 66
REMARK SMILES IDX 36 67 37 68 38 69 61 70 62 71 70 72 63 73 69 74 64 75 65 76
REMARK SMILES IDX 66 77 67 78 68 79 47 80 48 81 56 82 49 83 55 84 50 85 51 86
REMARK SMILES IDX 52 87 53 88 54 89
REMARK H PARENT 15 6 19 26 75 45 45 56
REMARK Flexibility Score: inf
ROOT
ATOM      1  C   UNL A   1      40.862  20.105  26.251  1.00  0.00     0.042 C 
ENDROOT
BRANCH   1   2
ATOM      2  C   UNL A   1      42.321  19.862  26.634  1.00  0.00     0.118 C 
BRANCH   2   3
ATOM      3  N   UNL A   1      43.145  19.665  25.452  1.00  0.00    -0.352 N 
ATOM      4  C   UNL A   1      43.998  20.495  24.771  1.00  0.00     0.251 C 
ATOM      5  O   UNL A   1      44.620  20.023  23.820  1.00  0.00    -0.269 OA
ATOM      6  H   UNL A   1      43.077  18.762  25.067  1.00  0.00     0.163 HD
BRANCH   4   7
ATOM      7  C   UNL A   1      44.249  21.908  25.166  1.00  0.00     0.042 A 
ATOM      8  C   UNL A   1      44.789  24.526  26.098  1.00  0.00     0.018 A 
ATOM      9  C   UNL A   1      45.557  23.444  26.543  1.00  0.00     0.012 A 
ATOM     10  C   UNL A   1      43.792  24.272  25.147  1.00  0.00     0.131 A 
ATOM     11  C   UNL A   1      45.283  22.148  26.086  1.00  0.00     0.014 A 
ATOM     12  C   UNL A   1      43.544  22.995  24.658  1.00  0.00     0.053 A 
ATOM     13  F   UNL A   1      43.039  25.280  24.681  1.00  0.00    -0.206 F 
BRANCH   8  14
ATOM     14  C   UNL A   1      45.015  25.894  26.570  1.00  0.00    -0.015 A 
ATOM     15  C   UNL A   1      44.267  28.206  26.758  1.00  0.00     0.018 A 
ATOM     16  C   UNL A   1      45.544  28.579  27.189  1.00  0.00     0.012 A 
ATOM     17  C   UNL A   1      44.005  26.865  26.452  1.00  0.00     0.020 A 
ATOM     18  C   UNL A   1      46.541  27.618  27.348  1.00  0.00     0.001 A 
ATOM     19  C   UNL A   1      46.276  26.282  27.045  1.00  0.00     0.009 A 
BRANCH  15  20
ATOM     20  C   UNL A   1      43.234  29.267  26.603  1.00  0.00     0.159 C 
ATOM     21  C   UNL A   1      42.026  28.983  25.749  1.00  0.00     0.093 C 
ATOM     22  O   UNL A   1      43.350  30.328  27.214  1.00  0.00    -0.295 OA
ENDBRANCH  15  20
ENDBRANCH   8  14
ENDBRANCH   4   7
ENDBRANCH   2   3
ENDBRANCH   1   2
BRANCH   1  23
ATOM     23  C   UNL A   1      40.319  21.426  26.786  1.00  0.00     0.118 C 
BRANCH  23  24
ATOM     24  N   UNL A   1      39.198  21.911  25.991  1.00  0.00    -0.352 N 
ATOM     25  C   UNL A   1      38.547  23.119  26.041  1.00  0.00     0.251 C 
ATOM     26  H   UNL A   1      38.856  21.279  25.318  1.00  0.00     0.163 HD
ATOM     27  O   UNL A   1      37.474  23.256  25.465  1.00  0.00    -0.269 OA
BRANCH  25  28
ATOM     28  C   UNL A   1      39.139  24.243  26.795  1.00  0.00     0.039 A 
ATOM     29  C   UNL A   1      40.032  25.103  26.149  1.00  0.00     0.014 A 
ATOM     30  C   UNL A   1      38.826  24.438  28.143  1.00  0.00     0.014 A 
ATOM     31  C   UNL A   1      40.561  26.197  26.839  1.00  0.00     0.010 A 
ATOM     32  C   UNL A   1      39.292  25.568  28.804  1.00  0.00     0.010 A 
ATOM     33  C   UNL A   1      40.165  26.458  28.161  1.00  0.00    -0.014 A 
BRANCH  33  34
ATOM     34  C   UNL A   1      40.641  27.656  28.895  1.00  0.00     0.031 A 
ATOM     35  C   UNL A   1      41.975  27.630  29.591  1.00  0.00     0.074 A 
ATOM     36  C   UNL A   1      39.834  28.730  29.014  1.00  0.00     0.049 A 
ATOM     37  N   UNL A   1      42.510  28.522  30.382  1.00  0.00    -0.248 NA
ATOM     38  C   UNL A   1      42.803  26.428  29.392  1.00  0.00     0.031 C 
ATOM     39  C   UNL A   1      38.507  28.863  28.407  1.00  0.00     0.029 A 
ATOM     40  N   UNL A   1      40.004  29.907  29.699  1.00  0.00    -0.354 N 
ATOM     41  C   UNL A   1      43.723  27.984  30.794  1.00  0.00     0.074 A 
ATOM     42  C   UNL A   1      43.826  26.669  30.202  1.00  0.00     0.031 C 
ATOM     43  C   UNL A   1      37.992  30.059  28.734  1.00  0.00     0.029 A 
ATOM     44  C   UNL A   1      38.926  30.756  29.614  1.00  0.00     0.049 A 
ATOM     45  H   UNL A   1      40.821  30.123  30.204  1.00  0.00     0.167 HD
ATOM     46  C   UNL A   1      44.674  28.542  31.582  1.00  0.00     0.031 A 
ATOM     47  C   UNL A   1      38.701  31.951  30.194  1.00  0.00     0.031 A 
ATOM     48  C   UNL A   1      44.566  29.854  32.162  1.00  0.00     0.049 A 
ATOM     49  C   UNL A   1      39.758  32.537  31.090  1.00  0.00     0.074 A 
ATOM     50  C   UNL A   1      45.494  30.532  32.931  1.00  0.00     0.029 A 
ATOM     51  N   UNL A   1      43.462  30.685  32.040  1.00  0.00    -0.354 N 
ATOM     52  N   UNL A   1      40.927  32.039  31.419  1.00  0.00    -0.248 NA
ATOM     53  C   UNL A   1      39.473  33.850  31.686  1.00  0.00     0.031 C 
ATOM     54  C   UNL A   1      44.927  31.747  33.328  1.00  0.00     0.029 A 
ATOM     55  C   UNL A   1      43.675  31.858  32.744  1.00  0.00     0.049 A 
ATOM     56  H   UNL A   1      42.647  30.473  31.529  1.00  0.00     0.167 HD
ATOM     57  C   UNL A   1      41.529  32.993  32.232  1.00  0.00     0.074 A 
ATOM     58  C   UNL A   1      40.601  34.099  32.339  1.00  0.00     0.031 C 
ATOM     59  C   UNL A   1      42.745  32.957  32.831  1.00  0.00     0.031 A 
BRANCH  46  60
ATOM     60  C   UNL A   1      45.908  27.728  31.874  1.00  0.00    -0.014 A 
ATOM     61  C   UNL A   1      46.008  26.947  33.040  1.00  0.00     0.010 A 
ATOM     62  C   UNL A   1      46.968  27.710  30.948  1.00  0.00     0.010 A 
ATOM     63  C   UNL A   1      47.159  26.197  33.294  1.00  0.00     0.020 A 
ATOM     64  C   UNL A   1      48.108  26.937  31.183  1.00  0.00     0.020 A 
ATOM     65  C   UNL A   1      48.203  26.198  32.364  1.00  0.00     0.054 A 
BRANCH  65  66
ATOM     66  S   UNL A   1      49.676  25.198  32.712  1.00  0.00     0.124 S 
ATOM     67  O   UNL A   1      50.123  24.842  31.368  1.00  0.00    -0.237 OA
ATOM     68  O   UNL A   1      50.534  26.135  33.432  1.00  0.00    -0.237 OA
ATOM     69  O   UNL A   1      49.161  24.089  33.511  1.00  0.00    -0.744 OA
ENDBRANCH  65  66
ENDBRANCH  46  60
BRANCH  47  70
ATOM     70  C   UNL A   1      37.423  32.672  29.942  1.00  0.00    -0.014 A 
ATOM     71  C   UNL A   1      37.296  33.538  28.842  1.00  0.00     0.010 A 
ATOM     72  C   UNL A   1      36.317  32.482  30.792  1.00  0.00     0.010 A 
ATOM     73  C   UNL A   1      36.096  34.214  28.607  1.00  0.00     0.020 A 
ATOM     74  C   UNL A   1      35.105  33.133  30.543  1.00  0.00     0.020 A 
ATOM     75  C   UNL A   1      35.007  34.005  29.457  1.00  0.00     0.054 A 
BRANCH  75  76
ATOM     76  S   UNL A   1      33.445  34.858  29.102  1.00  0.00     0.124 S 
ATOM     77  O   UNL A   1      32.833  34.934  30.425  1.00  0.00    -0.237 OA
ATOM     78  O   UNL A   1      33.901  36.126  28.541  1.00  0.00    -0.237 OA
ATOM     79  O   UNL A   1      32.778  33.968  28.154  1.00  0.00    -0.744 OA
ENDBRANCH  75  76
ENDBRANCH  47  70
BRANCH  59  80
ATOM     80  C   UNL A   1      43.176  34.165  33.618  1.00  0.00    -0.014 A 
ATOM     81  C   UNL A   1      42.908  34.278  34.993  1.00  0.00     0.010 A 
ATOM     82  C   UNL A   1      43.946  35.158  32.984  1.00  0.00     0.010 A 
ATOM     83  C   UNL A   1      43.393  35.372  35.717  1.00  0.00     0.020 A 
ATOM     84  C   UNL A   1      44.457  36.236  33.710  1.00  0.00     0.020 A 
ATOM     85  C   UNL A   1      44.171  36.339  35.073  1.00  0.00     0.054 A 
BRANCH  85  86
ATOM     86  S   UNL A   1      44.855  37.703  36.054  1.00  0.00     0.124 S 
ATOM     87  O   UNL A   1      44.712  37.200  37.417  1.00  0.00    -0.237 OA
ATOM     88  O   UNL A   1      46.225  37.798  35.557  1.00  0.00    -0.237 OA
ATOM     89  O   UNL A   1      43.996  38.837  35.716  1.00  0.00    -0.744 OA
ENDBRANCH  85  86
ENDBRANCH  59  80
ENDBRANCH  33  34
ENDBRANCH  25  28
ENDBRANCH  23  24
ENDBRANCH   1  23
TORSDOF 15
ENDMDL
