MODEL 1
REMARK VINA RESULT:     -10.7      0.000      0.000
REMARK SMILES CCCCCCNC(=O)Oc1cccc(-c2ccc([C@@H](C)C(=O)NCCCNC(=O)c3ccc(-c4c5nc(c(-c6ccc(S(=O)(=O)[O-])cc6)c6ccc([nH]6)c(-c6ccc(S(=O)(=O)[O-])cc6)c6nc(c(-c7ccc(S(=O)(=O)[O-])cc7)c7ccc4[nH]7)C=C6)C=C5)cc3)cc2[N+](=O)[O-])c1
REMARK SMILES IDX 20 1 21 2 19 3 16 4 17 5 92 6 18 7 91 8 15 9 11 10 12 11
REMARK SMILES IDX 96 12 13 13 14 14 10 15 8 16 7 17 9 19 6 20 5 21 4 22 3 23
REMARK SMILES IDX 2 24 1 25 93 26 94 27 95 28 22 29 23 30 24 31 25 33 26 34
REMARK SMILES IDX 27 35 28 36 29 37 30 39 31 40 32 41 90 42 33 43 89 44 34 45
REMARK SMILES IDX 35 46 36 47 83 48 37 49 88 50 82 51 84 52 38 53 87 54 81 55
REMARK SMILES IDX 80 56 39 58 69 59 50 60 68 61 51 62 54 63 67 64 85 65 52 66
REMARK SMILES IDX 53 67 66 69 86 70 55 71 40 72 41 73 49 74 42 75 48 76 43 77
REMARK SMILES IDX 44 78 45 79 46 80 47 81 70 82 71 83 79 84 72 85 78 86 73 87
REMARK SMILES IDX 74 88 75 89 76 90 77 91 56 92 57 93 65 94 58 95 64 96 59 97
REMARK SMILES IDX 60 98 61 99 62 100 63 101
REMARK H PARENT 7 18 24 32 28 38 84 57 54 68
REMARK Flexibility Score: inf
ROOT
ATOM      1  C   UNL A   1      41.477  21.920  27.118  1.00  0.00     0.105 C 
ATOM      2  C   UNL A   1      41.543  20.454  27.541  1.00  0.00     0.023 C 
ENDROOT
BRANCH   1   3
ATOM      3  C   UNL A   1      40.095  22.420  26.721  1.00  0.00    -0.029 A 
ATOM      4  C   UNL A   1      37.387  23.205  26.160  1.00  0.00     0.060 A 
ATOM      5  C   UNL A   1      38.267  24.017  26.898  1.00  0.00     0.016 A 
ATOM      6  C   UNL A   1      37.941  22.027  25.622  1.00  0.00     0.277 A 
ATOM      7  C   UNL A   1      39.600  23.659  27.126  1.00  0.00     0.005 A 
ATOM      8  C   UNL A   1      39.257  21.617  25.933  1.00  0.00     0.090 A 
BRANCH   4   9
ATOM      9  C   UNL A   1      35.969  23.621  26.063  1.00  0.00    -0.008 A 
ATOM     10  C   UNL A   1      33.624  23.346  26.642  1.00  0.00     0.133 A 
ATOM     11  C   UNL A   1      33.283  24.506  25.955  1.00  0.00     0.047 A 
ATOM     12  C   UNL A   1      34.948  22.903  26.709  1.00  0.00     0.056 A 
ATOM     13  C   UNL A   1      34.281  25.240  25.326  1.00  0.00     0.004 A 
ATOM     14  C   UNL A   1      35.606  24.794  25.370  1.00  0.00     0.009 A 
BRANCH  10  15
ATOM     15  O   UNL A   1      32.562  22.572  27.137  1.00  0.00    -0.410 OA
BRANCH  15  16
ATOM     16  C   UNL A   1      31.396  22.458  26.396  1.00  0.00     0.412 C 
ATOM     17  N   UNL A   1      31.443  21.433  25.491  1.00  0.00    -0.321 N 
ATOM     18  H   UNL A   1      30.666  21.334  24.894  1.00  0.00     0.167 HD
ATOM     19  O   UNL A   1      30.402  23.166  26.503  1.00  0.00    -0.224 OA
BRANCH  17  20
ATOM     20  C   UNL A   1      32.520  20.477  25.324  1.00  0.00     0.119 C 
BRANCH  20  21
ATOM     21  C   UNL A   1      32.637  20.004  23.875  1.00  0.00     0.021 C 
BRANCH  21  22
ATOM     22  C   UNL A   1      32.322  18.519  23.656  1.00  0.00     0.002 C 
BRANCH  22  23
ATOM     23  C   UNL A   1      32.978  17.555  24.651  1.00  0.00    -0.000 C 
BRANCH  23  24
ATOM     24  C   UNL A   1      34.048  16.632  24.061  1.00  0.00    -0.003 C 
ATOM     25  C   UNL A   1      34.997  16.067  25.106  1.00  0.00     0.004 C 
ENDBRANCH  23  24
ENDBRANCH  22  23
ENDBRANCH  21  22
ENDBRANCH  20  21
ENDBRANCH  17  20
ENDBRANCH  15  16
ENDBRANCH  10  15
ENDBRANCH   4   9
BRANCH   6  26
ATOM     26  N   UNL A   1      37.212  21.212  24.648  1.00  0.00     0.063 N 
ATOM     27  O   UNL A   1      36.929  20.051  24.978  1.00  0.00    -0.258 OA
ATOM     28  O   UNL A   1      36.992  21.699  23.531  1.00  0.00    -0.258 OA
ENDBRANCH   6  26
ENDBRANCH   1   3
BRANCH   1  29
ATOM     29  C   UNL A   1      42.598  22.362  26.162  1.00  0.00     0.227 C 
ATOM     30  O   UNL A   1      42.691  21.835  25.046  1.00  0.00    -0.274 OA
ATOM     31  N   UNL A   1      43.517  23.323  26.447  1.00  0.00    -0.356 N 
ATOM     32  H   UNL A   1      44.126  23.525  25.700  1.00  0.00     0.163 HD
BRANCH  31  33
ATOM     33  C   UNL A   1      43.772  24.106  27.641  1.00  0.00     0.117 C 
BRANCH  33  34
ATOM     34  C   UNL A   1      43.315  25.555  27.488  1.00  0.00     0.042 C 
BRANCH  34  35
ATOM     35  C   UNL A   1      44.292  26.436  26.725  1.00  0.00     0.118 C 
BRANCH  35  36
ATOM     36  N   UNL A   1      43.623  27.240  25.713  1.00  0.00    -0.352 N 
ATOM     37  C   UNL A   1      42.664  28.215  25.837  1.00  0.00     0.251 C 
ATOM     38  H   UNL A   1      43.903  27.055  24.788  1.00  0.00     0.163 HD
ATOM     39  O   UNL A   1      42.078  28.595  24.825  1.00  0.00    -0.269 OA
BRANCH  37  40
ATOM     40  C   UNL A   1      42.326  28.807  27.154  1.00  0.00     0.039 A 
ATOM     41  C   UNL A   1      43.058  29.913  27.601  1.00  0.00     0.014 A 
ATOM     42  C   UNL A   1      41.354  28.245  27.984  1.00  0.00     0.014 A 
ATOM     43  C   UNL A   1      42.795  30.465  28.857  1.00  0.00     0.010 A 
ATOM     44  C   UNL A   1      41.028  28.853  29.194  1.00  0.00     0.010 A 
ATOM     45  C   UNL A   1      41.766  29.950  29.660  1.00  0.00    -0.014 A 
BRANCH  45  46
ATOM     46  C   UNL A   1      41.488  30.498  31.013  1.00  0.00     0.031 A 
ATOM     47  C   UNL A   1      42.443  30.216  32.145  1.00  0.00     0.074 A 
ATOM     48  C   UNL A   1      40.363  31.205  31.237  1.00  0.00     0.049 A 
ATOM     49  N   UNL A   1      42.350  30.549  33.408  1.00  0.00    -0.248 NA
ATOM     50  C   UNL A   1      43.649  29.434  31.822  1.00  0.00     0.031 C 
ATOM     51  C   UNL A   1      39.343  31.517  30.234  1.00  0.00     0.029 A 
ATOM     52  N   UNL A   1      39.887  31.787  32.384  1.00  0.00    -0.354 N 
ATOM     53  C   UNL A   1      43.466  29.997  34.028  1.00  0.00     0.074 A 
ATOM     54  C   UNL A   1      44.194  29.265  33.017  1.00  0.00     0.031 C 
ATOM     55  C   UNL A   1      38.376  32.255  30.803  1.00  0.00     0.029 A 
ATOM     56  C   UNL A   1      38.686  32.436  32.218  1.00  0.00     0.049 A 
ATOM     57  H   UNL A   1      40.360  31.744  33.246  1.00  0.00     0.167 HD
ATOM     58  C   UNL A   1      43.864  30.107  35.317  1.00  0.00     0.031 A 
ATOM     59  C   UNL A   1      37.918  33.097  33.105  1.00  0.00     0.031 A 
ATOM     60  C   UNL A   1      43.149  30.856  36.316  1.00  0.00     0.049 A 
ATOM     61  C   UNL A   1      38.381  33.211  34.533  1.00  0.00     0.074 A 
ATOM     62  C   UNL A   1      43.493  31.075  37.638  1.00  0.00     0.029 A 
ATOM     63  N   UNL A   1      41.947  31.514  36.101  1.00  0.00    -0.354 N 
ATOM     64  N   UNL A   1      39.468  32.727  35.087  1.00  0.00    -0.248 NA
ATOM     65  C   UNL A   1      37.524  33.972  35.451  1.00  0.00     0.031 C 
ATOM     66  C   UNL A   1      42.476  31.828  38.234  1.00  0.00     0.029 A 
ATOM     67  C   UNL A   1      41.529  32.127  37.268  1.00  0.00     0.049 A 
ATOM     68  H   UNL A   1      41.465  31.541  35.243  1.00  0.00     0.167 HD
ATOM     69  C   UNL A   1      39.439  33.153  36.411  1.00  0.00     0.074 A 
ATOM     70  C   UNL A   1      38.236  33.945  36.568  1.00  0.00     0.031 C 
ATOM     71  C   UNL A   1      40.331  32.916  37.405  1.00  0.00     0.031 A 
BRANCH  58  72
ATOM     72  C   UNL A   1      45.133  29.399  35.720  1.00  0.00    -0.014 A 
ATOM     73  C   UNL A   1      45.103  28.083  36.217  1.00  0.00     0.010 A 
ATOM     74  C   UNL A   1      46.374  30.044  35.569  1.00  0.00     0.010 A 
ATOM     75  C   UNL A   1      46.286  27.443  36.597  1.00  0.00     0.020 A 
ATOM     76  C   UNL A   1      47.562  29.396  35.920  1.00  0.00     0.020 A 
ATOM     77  C   UNL A   1      47.508  28.105  36.449  1.00  0.00     0.054 A 
BRANCH  77  78
ATOM     78  S   UNL A   1      49.028  27.241  36.933  1.00  0.00     0.124 S 
ATOM     79  O   UNL A   1      49.836  28.330  37.473  1.00  0.00    -0.237 OA
ATOM     80  O   UNL A   1      48.547  26.270  37.913  1.00  0.00    -0.237 OA
ATOM     81  O   UNL A   1      49.514  26.667  35.680  1.00  0.00    -0.744 OA
ENDBRANCH  77  78
ENDBRANCH  58  72
BRANCH  59  82
ATOM     82  C   UNL A   1      36.641  33.724  32.665  1.00  0.00    -0.014 A 
ATOM     83  C   UNL A   1      35.642  32.951  32.048  1.00  0.00     0.010 A 
ATOM     84  C   UNL A   1      36.412  35.097  32.869  1.00  0.00     0.010 A 
ATOM     85  C   UNL A   1      34.448  33.541  31.624  1.00  0.00     0.020 A 
ATOM     86  C   UNL A   1      35.208  35.686  32.473  1.00  0.00     0.020 A 
ATOM     87  C   UNL A   1      34.239  34.906  31.840  1.00  0.00     0.054 A 
BRANCH  87  88
ATOM     88  S   UNL A   1      32.663  35.643  31.323  1.00  0.00     0.124 S 
ATOM     89  O   UNL A   1      31.757  35.194  32.375  1.00  0.00    -0.237 OA
ATOM     90  O   UNL A   1      32.969  37.072  31.317  1.00  0.00    -0.237 OA
ATOM     91  O   UNL A   1      32.430  35.060  30.004  1.00  0.00    -0.744 OA
ENDBRANCH  87  88
ENDBRANCH  59  82
BRANCH  71  92
ATOM     92  C   UNL A   1      40.067  33.556  38.741  1.00  0.00    -0.014 A 
ATOM     93  C   UNL A   1      40.515  34.857  39.032  1.00  0.00     0.010 A 
ATOM     94  C   UNL A   1      39.307  32.861  39.700  1.00  0.00     0.010 A 
ATOM     95  C   UNL A   1      40.236  35.438  40.272  1.00  0.00     0.020 A 
ATOM     96  C   UNL A   1      39.002  33.450  40.929  1.00  0.00     0.020 A 
ATOM     97  C   UNL A   1      39.481  34.729  41.213  1.00  0.00     0.054 A 
BRANCH  97  98
ATOM     98  S   UNL A   1      39.097  35.521  42.798  1.00  0.00     0.124 S 
ATOM     99  O   UNL A   1      39.905  34.741  43.732  1.00  0.00    -0.237 OA
ATOM    100  O   UNL A   1      39.538  36.898  42.585  1.00  0.00    -0.237 OA
ATOM    101  O   UNL A   1      37.652  35.350  42.930  1.00  0.00    -0.744 OA
ENDBRANCH  97  98
ENDBRANCH  71  92
ENDBRANCH  45  46
ENDBRANCH  37  40
ENDBRANCH  35  36
ENDBRANCH  34  35
ENDBRANCH  33  34
ENDBRANCH  31  33
ENDBRANCH   1  29
TORSDOF 23
ENDMDL
MODEL 2
REMARK VINA RESULT:     -10.6      2.286      3.634
REMARK SMILES CCCCCCNC(=O)Oc1cccc(-c2ccc([C@@H](C)C(=O)NCCCNC(=O)c3ccc(-c4c5nc(c(-c6ccc(S(=O)(=O)[O-])cc6)c6ccc([nH]6)c(-c6ccc(S(=O)(=O)[O-])cc6)c6nc(c(-c7ccc(S(=O)(=O)[O-])cc7)c7ccc4[nH]7)C=C6)C=C5)cc3)cc2[N+](=O)[O-])c1
REMARK SMILES IDX 20 1 21 2 19 3 16 4 17 5 92 6 18 7 91 8 15 9 11 10 12 11
REMARK SMILES IDX 96 12 13 13 14 14 10 15 8 16 7 17 9 19 6 20 5 21 4 22 3 23
REMARK SMILES IDX 2 24 1 25 93 26 94 27 95 28 22 29 23 30 24 31 25 33 26 34
REMARK SMILES IDX 27 35 28 36 29 37 30 39 31 40 32 41 90 42 33 43 89 44 34 45
REMARK SMILES IDX 35 46 36 47 83 48 37 49 88 50 82 51 84 52 38 53 87 54 81 55
REMARK SMILES IDX 80 56 39 58 69 59 50 60 68 61 51 62 54 63 67 64 85 65 52 66
REMARK SMILES IDX 53 67 66 69 86 70 55 71 40 72 41 73 49 74 42 75 48 76 43 77
REMARK SMILES IDX 44 78 45 79 46 80 47 81 70 82 71 83 79 84 72 85 78 86 73 87
REMARK SMILES IDX 74 88 75 89 76 90 77 91 56 92 57 93 65 94 58 95 64 96 59 97
REMARK SMILES IDX 60 98 61 99 62 100 63 101
REMARK H PARENT 7 18 24 32 28 38 84 57 54 68
REMARK Flexibility Score: inf
ROOT
ATOM      1  C   UNL A   1      41.462  21.308  27.256  1.00  0.00     0.105 C 
ATOM      2  C   UNL A   1      41.418  19.830  27.638  1.00  0.00     0.023 C 
ENDROOT
BRANCH   1   3
ATOM      3  C   UNL A   1      40.171  21.869  26.676  1.00  0.00    -0.029 A 
ATOM      4  C   UNL A   1      37.611  22.845  25.804  1.00  0.00     0.060 A 
ATOM      5  C   UNL A   1      38.605  23.697  26.319  1.00  0.00     0.016 A 
ATOM      6  C   UNL A   1      37.980  21.495  25.645  1.00  0.00     0.277 A 
ATOM      7  C   UNL A   1      39.869  23.230  26.694  1.00  0.00     0.005 A 
ATOM      8  C   UNL A   1      39.220  21.004  26.114  1.00  0.00     0.090 A 
BRANCH   4   9
ATOM      9  C   UNL A   1      36.272  23.416  25.535  1.00  0.00    -0.008 A 
ATOM     10  C   UNL A   1      34.643  24.411  24.031  1.00  0.00     0.133 A 
ATOM     11  C   UNL A   1      33.666  24.393  25.020  1.00  0.00     0.047 A 
ATOM     12  C   UNL A   1      35.930  23.924  24.271  1.00  0.00     0.056 A 
ATOM     13  C   UNL A   1      33.979  23.877  26.272  1.00  0.00     0.004 A 
ATOM     14  C   UNL A   1      35.270  23.406  26.528  1.00  0.00     0.009 A 
BRANCH  10  15
ATOM     15  O   UNL A   1      34.315  25.070  22.835  1.00  0.00    -0.410 OA
BRANCH  15  16
ATOM     16  C   UNL A   1      33.297  24.572  22.037  1.00  0.00     0.412 C 
ATOM     17  N   UNL A   1      32.251  25.445  21.909  1.00  0.00    -0.321 N 
ATOM     18  H   UNL A   1      31.469  25.128  21.401  1.00  0.00     0.167 HD
ATOM     19  O   UNL A   1      33.286  23.482  21.478  1.00  0.00    -0.224 OA
BRANCH  17  20
ATOM     20  C   UNL A   1      32.177  26.789  22.447  1.00  0.00     0.119 C 
BRANCH  20  21
ATOM     21  C   UNL A   1      30.736  27.299  22.501  1.00  0.00     0.021 C 
BRANCH  21  22
ATOM     22  C   UNL A   1      30.569  28.688  23.128  1.00  0.00     0.002 C 
BRANCH  22  23
ATOM     23  C   UNL A   1      29.160  29.286  23.035  1.00  0.00    -0.000 C 
BRANCH  23  24
ATOM     24  C   UNL A   1      29.024  30.724  23.541  1.00  0.00    -0.003 C 
ATOM     25  C   UNL A   1      27.583  31.208  23.599  1.00  0.00     0.004 C 
ENDBRANCH  23  24
ENDBRANCH  22  23
ENDBRANCH  21  22
ENDBRANCH  20  21
ENDBRANCH  17  20
ENDBRANCH  15  16
ENDBRANCH  10  15
ENDBRANCH   4   9
BRANCH   6  26
ATOM     26  N   UNL A   1      37.135  20.550  24.912  1.00  0.00     0.063 N 
ATOM     27  O   UNL A   1      37.617  20.026  23.897  1.00  0.00    -0.258 OA
ATOM     28  O   UNL A   1      35.969  20.391  25.298  1.00  0.00    -0.258 OA
ENDBRANCH   6  26
ENDBRANCH   1   3
BRANCH   1  29
ATOM     29  C   UNL A   1      42.725  21.734  26.490  1.00  0.00     0.227 C 
ATOM     30  O   UNL A   1      42.959  21.243  25.378  1.00  0.00    -0.274 OA
ATOM     31  N   UNL A   1      43.630  22.644  26.943  1.00  0.00    -0.356 N 
ATOM     32  H   UNL A   1      44.347  22.846  26.300  1.00  0.00     0.163 HD
BRANCH  31  33
ATOM     33  C   UNL A   1      43.738  23.372  28.192  1.00  0.00     0.117 C 
BRANCH  33  34
ATOM     34  C   UNL A   1      43.877  24.877  27.972  1.00  0.00     0.042 C 
BRANCH  34  35
ATOM     35  C   UNL A   1      44.373  25.258  26.586  1.00  0.00     0.118 C 
BRANCH  35  36
ATOM     36  N   UNL A   1      43.278  25.417  25.641  1.00  0.00    -0.352 N 
ATOM     37  C   UNL A   1      42.050  26.013  25.789  1.00  0.00     0.251 C 
ATOM     38  H   UNL A   1      43.444  25.034  24.749  1.00  0.00     0.163 HD
ATOM     39  O   UNL A   1      41.196  25.823  24.925  1.00  0.00    -0.269 OA
BRANCH  37  40
ATOM     40  C   UNL A   1      41.739  26.868  26.960  1.00  0.00     0.039 A 
ATOM     41  C   UNL A   1      42.355  28.121  27.058  1.00  0.00     0.014 A 
ATOM     42  C   UNL A   1      40.913  26.425  27.994  1.00  0.00     0.014 A 
ATOM     43  C   UNL A   1      42.120  28.931  28.172  1.00  0.00     0.010 A 
ATOM     44  C   UNL A   1      40.604  27.271  29.057  1.00  0.00     0.010 A 
ATOM     45  C   UNL A   1      41.229  28.520  29.175  1.00  0.00    -0.014 A 
BRANCH  45  46
ATOM     46  C   UNL A   1      40.986  29.348  30.385  1.00  0.00     0.031 A 
ATOM     47  C   UNL A   1      41.849  29.158  31.607  1.00  0.00     0.074 A 
ATOM     48  C   UNL A   1      39.971  30.233  30.405  1.00  0.00     0.049 A 
ATOM     49  N   UNL A   1      41.760  29.734  32.780  1.00  0.00    -0.248 NA
ATOM     50  C   UNL A   1      42.938  28.170  31.509  1.00  0.00     0.031 C 
ATOM     51  C   UNL A   1      39.044  30.486  29.300  1.00  0.00     0.029 A 
ATOM     52  N   UNL A   1      39.545  31.082  31.395  1.00  0.00    -0.354 N 
ATOM     53  C   UNL A   1      42.760  29.161  33.559  1.00  0.00     0.074 A 
ATOM     54  C   UNL A   1      43.408  28.157  32.746  1.00  0.00     0.031 C 
ATOM     55  C   UNL A   1      38.177  31.445  29.664  1.00  0.00     0.029 A 
ATOM     56  C   UNL A   1      38.459  31.847  31.038  1.00  0.00     0.049 A 
ATOM     57  H   UNL A   1      39.975  31.140  32.278  1.00  0.00     0.167 HD
ATOM     58  C   UNL A   1      43.124  29.459  34.829  1.00  0.00     0.031 A 
ATOM     59  C   UNL A   1      37.766  32.764  31.740  1.00  0.00     0.031 A 
ATOM     60  C   UNL A   1      42.492  30.475  35.627  1.00  0.00     0.049 A 
ATOM     61  C   UNL A   1      38.189  33.082  33.148  1.00  0.00     0.074 A 
ATOM     62  C   UNL A   1      42.817  30.891  36.906  1.00  0.00     0.029 A 
ATOM     63  N   UNL A   1      41.409  31.239  35.220  1.00  0.00    -0.354 N 
ATOM     64  N   UNL A   1      39.172  32.567  33.849  1.00  0.00    -0.248 NA
ATOM     65  C   UNL A   1      37.421  34.115  33.856  1.00  0.00     0.031 C 
ATOM     66  C   UNL A   1      41.901  31.876  37.289  1.00  0.00     0.029 A 
ATOM     67  C   UNL A   1      41.043  32.114  36.227  1.00  0.00     0.049 A 
ATOM     68  H   UNL A   1      40.966  31.169  34.344  1.00  0.00     0.167 HD
ATOM     69  C   UNL A   1      39.159  33.237  35.068  1.00  0.00     0.074 A 
ATOM     70  C   UNL A   1      38.080  34.202  35.002  1.00  0.00     0.031 C 
ATOM     71  C   UNL A   1      39.970  33.073  36.142  1.00  0.00     0.031 A 
BRANCH  58  72
ATOM     72  C   UNL A   1      44.260  28.672  35.433  1.00  0.00    -0.014 A 
ATOM     73  C   UNL A   1      44.019  27.491  36.158  1.00  0.00     0.010 A 
ATOM     74  C   UNL A   1      45.587  29.100  35.245  1.00  0.00     0.010 A 
ATOM     75  C   UNL A   1      45.081  26.778  36.723  1.00  0.00     0.020 A 
ATOM     76  C   UNL A   1      46.653  28.373  35.782  1.00  0.00     0.020 A 
ATOM     77  C   UNL A   1      46.391  27.226  36.534  1.00  0.00     0.054 A 
BRANCH  77  78
ATOM     78  S   UNL A   1      47.749  26.268  37.262  1.00  0.00     0.124 S 
ATOM     79  O   UNL A   1      47.030  25.321  38.109  1.00  0.00    -0.237 OA
ATOM     80  O   UNL A   1      48.399  25.691  36.088  1.00  0.00    -0.237 OA
ATOM     81  O   UNL A   1      48.536  27.270  37.976  1.00  0.00    -0.744 OA
ENDBRANCH  77  78
ENDBRANCH  58  72
BRANCH  59  82
ATOM     82  C   UNL A   1      36.611  33.466  31.113  1.00  0.00    -0.014 A 
ATOM     83  C   UNL A   1      35.596  34.023  31.910  1.00  0.00     0.010 A 
ATOM     84  C   UNL A   1      36.526  33.591  29.714  1.00  0.00     0.010 A 
ATOM     85  C   UNL A   1      34.506  34.671  31.321  1.00  0.00     0.020 A 
ATOM     86  C   UNL A   1      35.453  34.263  29.121  1.00  0.00     0.020 A 
ATOM     87  C   UNL A   1      34.443  34.788  29.930  1.00  0.00     0.054 A 
BRANCH  87  88
ATOM     88  S   UNL A   1      33.043  35.673  29.188  1.00  0.00     0.124 S 
ATOM     89  O   UNL A   1      32.517  34.683  28.255  1.00  0.00    -0.237 OA
ATOM     90  O   UNL A   1      32.202  35.962  30.348  1.00  0.00    -0.237 OA
ATOM     91  O   UNL A   1      33.665  36.845  28.576  1.00  0.00    -0.744 OA
ENDBRANCH  87  88
ENDBRANCH  59  82
BRANCH  71  92
ATOM     92  C   UNL A   1      39.756  33.985  37.320  1.00  0.00    -0.014 A 
ATOM     93  C   UNL A   1      40.226  35.310  37.315  1.00  0.00     0.010 A 
ATOM     94  C   UNL A   1      39.020  33.521  38.426  1.00  0.00     0.010 A 
ATOM     95  C   UNL A   1      39.993  36.145  38.412  1.00  0.00     0.020 A 
ATOM     96  C   UNL A   1      38.760  34.362  39.511  1.00  0.00     0.020 A 
ATOM     97  C   UNL A   1      39.262  35.664  39.503  1.00  0.00     0.054 A 
BRANCH  97  98
ATOM     98  S   UNL A   1      38.937  36.780  40.895  1.00  0.00     0.124 S 
ATOM     99  O   UNL A   1      40.280  37.012  41.419  1.00  0.00    -0.237 OA
ATOM    100  O   UNL A   1      38.308  37.928  40.247  1.00  0.00    -0.237 OA
ATOM    101  O   UNL A   1      38.056  36.003  41.763  1.00  0.00    -0.744 OA
ENDBRANCH  97  98
ENDBRANCH  71  92
ENDBRANCH  45  46
ENDBRANCH  37  40
ENDBRANCH  35  36
ENDBRANCH  34  35
ENDBRANCH  33  34
ENDBRANCH  31  33
ENDBRANCH   1  29
TORSDOF 23
ENDMDL
MODEL 3
REMARK VINA RESULT:      -9.7      6.208      9.474
REMARK SMILES CCCCCCNC(=O)Oc1cccc(-c2ccc([C@@H](C)C(=O)NCCCNC(=O)c3ccc(-c4c5nc(c(-c6ccc(S(=O)(=O)[O-])cc6)c6ccc([nH]6)c(-c6ccc(S(=O)(=O)[O-])cc6)c6nc(c(-c7ccc(S(=O)(=O)[O-])cc7)c7ccc4[nH]7)C=C6)C=C5)cc3)cc2[N+](=O)[O-])c1
REMARK SMILES IDX 20 1 21 2 19 3 16 4 17 5 92 6 18 7 91 8 15 9 11 10 12 11
REMARK SMILES IDX 96 12 13 13 14 14 10 15 8 16 7 17 9 19 6 20 5 21 4 22 3 23
REMARK SMILES IDX 2 24 1 25 93 26 94 27 95 28 22 29 23 30 24 31 25 33 26 34
REMARK SMILES IDX 27 35 28 36 29 37 30 39 31 40 32 41 90 42 33 43 89 44 34 45
REMARK SMILES IDX 35 46 36 47 83 48 37 49 88 50 82 51 84 52 38 53 87 54 81 55
REMARK SMILES IDX 80 56 39 58 69 59 50 60 68 61 51 62 54 63 67 64 85 65 52 66
REMARK SMILES IDX 53 67 66 69 86 70 55 71 40 72 41 73 49 74 42 75 48 76 43 77
REMARK SMILES IDX 44 78 45 79 46 80 47 81 70 82 71 83 79 84 72 85 78 86 73 87
REMARK SMILES IDX 74 88 75 89 76 90 77 91 56 92 57 93 65 94 58 95 64 96 59 97
REMARK SMILES IDX 60 98 61 99 62 100 63 101
REMARK H PARENT 7 18 24 32 28 38 84 57 54 68
REMARK Flexibility Score: inf
ROOT
ATOM      1  C   UNL A   1      41.258  23.252  27.953  1.00  0.00     0.105 C 
ATOM      2  C   UNL A   1      42.137  22.003  27.909  1.00  0.00     0.023 C 
ENDROOT
BRANCH   1   3
ATOM      3  C   UNL A   1      40.002  23.194  27.096  1.00  0.00    -0.029 A 
ATOM      4  C   UNL A   1      37.506  22.973  25.686  1.00  0.00     0.060 A 
ATOM      5  C   UNL A   1      37.955  24.188  26.233  1.00  0.00     0.016 A 
ATOM      6  C   UNL A   1      38.400  21.888  25.779  1.00  0.00     0.277 A 
ATOM      7  C   UNL A   1      39.193  24.307  26.873  1.00  0.00     0.005 A 
ATOM      8  C   UNL A   1      39.606  21.982  26.510  1.00  0.00     0.090 A 
BRANCH   4   9
ATOM      9  C   UNL A   1      36.137  22.923  25.123  1.00  0.00    -0.008 A 
ATOM     10  C   UNL A   1      33.739  22.625  25.376  1.00  0.00     0.133 A 
ATOM     11  C   UNL A   1      33.522  22.950  24.041  1.00  0.00     0.047 A 
ATOM     12  C   UNL A   1      35.024  22.616  25.923  1.00  0.00     0.056 A 
ATOM     13  C   UNL A   1      34.608  23.275  23.238  1.00  0.00     0.004 A 
ATOM     14  C   UNL A   1      35.901  23.249  23.771  1.00  0.00     0.009 A 
BRANCH  10  15
ATOM     15  O   UNL A   1      32.626  22.170  26.101  1.00  0.00    -0.410 OA
BRANCH  15  16
ATOM     16  C   UNL A   1      32.333  22.737  27.332  1.00  0.00     0.412 C 
ATOM     17  N   UNL A   1      31.309  23.641  27.267  1.00  0.00    -0.321 N 
ATOM     18  H   UNL A   1      31.089  24.122  28.098  1.00  0.00     0.167 HD
ATOM     19  O   UNL A   1      32.893  22.487  28.392  1.00  0.00    -0.224 OA
BRANCH  17  20
ATOM     20  C   UNL A   1      30.513  23.962  26.098  1.00  0.00     0.119 C 
BRANCH  20  21
ATOM     21  C   UNL A   1      30.821  25.365  25.572  1.00  0.00     0.021 C 
BRANCH  21  22
ATOM     22  C   UNL A   1      30.442  25.599  24.105  1.00  0.00     0.002 C 
BRANCH  22  23
ATOM     23  C   UNL A   1      31.254  26.679  23.380  1.00  0.00    -0.000 C 
BRANCH  23  24
ATOM     24  C   UNL A   1      32.768  26.620  23.604  1.00  0.00    -0.003 C 
ATOM     25  C   UNL A   1      33.570  26.727  22.317  1.00  0.00     0.004 C 
ENDBRANCH  23  24
ENDBRANCH  22  23
ENDBRANCH  21  22
ENDBRANCH  20  21
ENDBRANCH  17  20
ENDBRANCH  15  16
ENDBRANCH  10  15
ENDBRANCH   4   9
BRANCH   6  26
ATOM     26  N   UNL A   1      38.167  20.637  25.056  1.00  0.00     0.063 N 
ATOM     27  O   UNL A   1      37.348  20.663  24.125  1.00  0.00    -0.258 OA
ATOM     28  O   UNL A   1      38.735  19.615  25.463  1.00  0.00    -0.258 OA
ENDBRANCH   6  26
ENDBRANCH   1   3
BRANCH   1  29
ATOM     29  C   UNL A   1      42.027  24.580  27.842  1.00  0.00     0.227 C 
ATOM     30  O   UNL A   1      41.922  25.422  28.742  1.00  0.00    -0.274 OA
ATOM     31  N   UNL A   1      42.847  24.909  26.808  1.00  0.00    -0.356 N 
ATOM     32  H   UNL A   1      43.309  25.771  26.926  1.00  0.00     0.163 HD
BRANCH  31  33
ATOM     33  C   UNL A   1      43.172  24.235  25.567  1.00  0.00     0.117 C 
BRANCH  33  34
ATOM     34  C   UNL A   1      44.525  23.530  25.630  1.00  0.00     0.042 C 
BRANCH  34  35
ATOM     35  C   UNL A   1      45.509  24.163  26.602  1.00  0.00     0.118 C 
BRANCH  35  36
ATOM     36  N   UNL A   1      46.856  24.217  26.054  1.00  0.00    -0.352 N 
ATOM     37  C   UNL A   1      47.665  25.290  25.775  1.00  0.00     0.251 C 
ATOM     38  H   UNL A   1      47.253  23.339  25.850  1.00  0.00     0.163 HD
ATOM     39  O   UNL A   1      48.676  25.106  25.100  1.00  0.00    -0.269 OA
BRANCH  37  40
ATOM     40  C   UNL A   1      47.342  26.652  26.266  1.00  0.00     0.039 A 
ATOM     41  C   UNL A   1      47.733  27.008  27.562  1.00  0.00     0.014 A 
ATOM     42  C   UNL A   1      46.599  27.552  25.500  1.00  0.00     0.014 A 
ATOM     43  C   UNL A   1      47.403  28.268  28.071  1.00  0.00     0.010 A 
ATOM     44  C   UNL A   1      46.353  28.839  25.972  1.00  0.00     0.010 A 
ATOM     45  C   UNL A   1      46.723  29.201  27.274  1.00  0.00    -0.014 A 
BRANCH  45  46
ATOM     46  C   UNL A   1      46.332  30.534  27.802  1.00  0.00     0.031 A 
ATOM     47  C   UNL A   1      45.020  30.697  28.526  1.00  0.00     0.074 A 
ATOM     48  C   UNL A   1      47.127  31.602  27.595  1.00  0.00     0.049 A 
ATOM     49  N   UNL A   1      44.469  31.783  29.006  1.00  0.00    -0.248 NA
ATOM     50  C   UNL A   1      44.205  29.483  28.712  1.00  0.00     0.031 C 
ATOM     51  C   UNL A   1      48.405  31.583  26.880  1.00  0.00     0.029 A 
ATOM     52  N   UNL A   1      46.974  32.915  27.963  1.00  0.00    -0.354 N 
ATOM     53  C   UNL A   1      43.240  31.387  29.524  1.00  0.00     0.074 A 
ATOM     54  C   UNL A   1      43.101  29.974  29.254  1.00  0.00     0.031 C 
ATOM     55  C   UNL A   1      48.931  32.819  26.885  1.00  0.00     0.029 A 
ATOM     56  C   UNL A   1      48.013  33.725  27.568  1.00  0.00     0.049 A 
ATOM     57  H   UNL A   1      46.194  33.247  28.464  1.00  0.00     0.167 HD
ATOM     58  C   UNL A   1      42.318  32.126  30.186  1.00  0.00     0.031 A 
ATOM     59  C   UNL A   1      48.202  35.048  27.732  1.00  0.00     0.031 A 
ATOM     60  C   UNL A   1      42.469  33.527  30.473  1.00  0.00     0.049 A 
ATOM     61  C   UNL A   1      47.166  35.850  28.473  1.00  0.00     0.074 A 
ATOM     62  C   UNL A   1      41.619  34.357  31.183  1.00  0.00     0.029 A 
ATOM     63  N   UNL A   1      43.546  34.304  30.072  1.00  0.00    -0.354 N 
ATOM     64  N   UNL A   1      46.035  35.446  29.002  1.00  0.00    -0.248 NA
ATOM     65  C   UNL A   1      47.439  37.282  28.654  1.00  0.00     0.031 C 
ATOM     66  C   UNL A   1      42.160  35.647  31.171  1.00  0.00     0.029 A 
ATOM     67  C   UNL A   1      43.375  35.607  30.505  1.00  0.00     0.049 A 
ATOM     68  H   UNL A   1      44.317  33.977  29.555  1.00  0.00     0.167 HD
ATOM     69  C   UNL A   1      45.478  36.568  29.606  1.00  0.00     0.074 A 
ATOM     70  C   UNL A   1      46.403  37.662  29.388  1.00  0.00     0.031 C 
ATOM     71  C   UNL A   1      44.309  36.682  30.284  1.00  0.00     0.031 A 
BRANCH  58  72
ATOM     72  C   UNL A   1      41.062  31.429  30.643  1.00  0.00    -0.014 A 
ATOM     73  C   UNL A   1      41.010  30.766  31.884  1.00  0.00     0.010 A 
ATOM     74  C   UNL A   1      39.908  31.464  29.840  1.00  0.00     0.010 A 
ATOM     75  C   UNL A   1      39.843  30.114  32.290  1.00  0.00     0.020 A 
ATOM     76  C   UNL A   1      38.729  30.839  30.257  1.00  0.00     0.020 A 
ATOM     77  C   UNL A   1      38.710  30.152  31.472  1.00  0.00     0.054 A 
BRANCH  77  78
ATOM     78  S   UNL A   1      37.204  29.314  32.036  1.00  0.00     0.124 S 
ATOM     79  O   UNL A   1      36.550  28.986  30.773  1.00  0.00    -0.237 OA
ATOM     80  O   UNL A   1      37.731  28.175  32.784  1.00  0.00    -0.237 OA
ATOM     81  O   UNL A   1      36.526  30.325  32.845  1.00  0.00    -0.744 OA
ENDBRANCH  77  78
ENDBRANCH  58  72
BRANCH  59  82
ATOM     82  C   UNL A   1      49.434  35.696  27.202  1.00  0.00    -0.014 A 
ATOM     83  C   UNL A   1      49.442  36.275  25.920  1.00  0.00     0.010 A 
ATOM     84  C   UNL A   1      50.604  35.748  27.981  1.00  0.00     0.010 A 
ATOM     85  C   UNL A   1      50.602  36.872  25.419  1.00  0.00     0.020 A 
ATOM     86  C   UNL A   1      51.758  36.371  27.495  1.00  0.00     0.020 A 
ATOM     87  C   UNL A   1      51.752  36.917  26.211  1.00  0.00     0.054 A 
BRANCH  87  88
ATOM     88  S   UNL A   1      53.233  37.739  25.558  1.00  0.00     0.124 S 
ATOM     89  O   UNL A   1      53.091  37.525  24.122  1.00  0.00    -0.237 OA
ATOM     90  O   UNL A   1      53.058  39.116  26.015  1.00  0.00    -0.237 OA
ATOM     91  O   UNL A   1      54.333  37.017  26.194  1.00  0.00    -0.744 OA
ENDBRANCH  87  88
ENDBRANCH  59  82
BRANCH  71  92
ATOM     92  C   UNL A   1      43.982  38.024  30.882  1.00  0.00    -0.014 A 
ATOM     93  C   UNL A   1      43.432  39.058  30.104  1.00  0.00     0.010 A 
ATOM     94  C   UNL A   1      44.178  38.231  32.260  1.00  0.00     0.010 A 
ATOM     95  C   UNL A   1      43.115  40.287  30.688  1.00  0.00     0.020 A 
ATOM     96  C   UNL A   1      43.835  39.448  32.852  1.00  0.00     0.020 A 
ATOM     97  C   UNL A   1      43.319  40.474  32.059  1.00  0.00     0.054 A 
BRANCH  97  98
ATOM     98  S   UNL A   1      42.860  42.064  32.801  1.00  0.00     0.124 S 
ATOM     99  O   UNL A   1      42.310  42.786  31.657  1.00  0.00    -0.237 OA
ATOM    100  O   UNL A   1      41.891  41.674  33.823  1.00  0.00    -0.237 OA
ATOM    101  O   UNL A   1      44.124  42.583  33.317  1.00  0.00    -0.744 OA
ENDBRANCH  97  98
ENDBRANCH  71  92
ENDBRANCH  45  46
ENDBRANCH  37  40
ENDBRANCH  35  36
ENDBRANCH  34  35
ENDBRANCH  33  34
ENDBRANCH  31  33
ENDBRANCH   1  29
TORSDOF 23
ENDMDL
