MODEL 1
REMARK VINA RESULT:     -10.5      0.000      0.000
REMARK SMILES CCN1C(=O)N(CC)[C@H]2NC(=O)N(CCCC(=O)NCCCNC(=O)c3ccc(-c4c5nc(c(-c6ccc(S(=O)(=O)[O-])cc6)c6ccc([nH]6)c(-c6ccc(S(=O)(=O)[O-])cc6)c6nc(c(-c7ccc(S(=O)(=O)[O-])cc7)c7ccc4[nH]7)C=C6)C=C5)cc3)[C@@H]21
REMARK SMILES IDX 20 1 19 2 17 3 18 4 16 6 15 7 14 8 13 9 3 10 4 11 86 12 5 13
REMARK SMILES IDX 6 14 9 15 10 16 11 17 12 19 2 20 1 21 7 22 8 23 21 24 22 25
REMARK SMILES IDX 23 26 24 27 25 29 26 30 27 31 85 32 28 33 84 34 29 35 30 36
REMARK SMILES IDX 31 37 78 38 32 39 83 40 77 41 79 42 33 43 82 44 76 45 75 46
REMARK SMILES IDX 34 48 64 49 45 50 63 51 46 52 49 53 62 54 80 55 47 56 48 57
REMARK SMILES IDX 61 59 81 60 50 61 35 62 36 63 44 64 37 65 43 66 38 67 39 68
REMARK SMILES IDX 40 69 41 70 42 71 65 72 66 73 74 74 67 75 73 76 68 77 69 78
REMARK SMILES IDX 70 79 71 80 72 81 51 82 52 83 60 84 53 85 59 86 54 87 55 88
REMARK SMILES IDX 56 89 57 90 58 91
REMARK H PARENT 19 5 10 18 23 28 79 47 49 58
REMARK Flexibility Score: inf
ROOT
ATOM      1  C   UNL A   1      31.800  29.120  25.345  1.00  0.00     0.117 C 
ENDROOT
BRANCH   1   2
ATOM      2  N   UNL A   1      31.465  29.016  23.940  1.00  0.00    -0.356 N 
ATOM      3  C   UNL A   1      30.501  28.313  23.288  1.00  0.00     0.220 C 
ATOM      4  O   UNL A   1      30.294  28.637  22.113  1.00  0.00    -0.275 OA
ATOM      5  H   UNL A   1      32.041  29.552  23.349  1.00  0.00     0.163 HD
BRANCH   3   6
ATOM      6  C   UNL A   1      29.639  27.224  23.924  1.00  0.00     0.102 C 
BRANCH   6   7
ATOM      7  C   UNL A   1      30.078  25.784  23.806  1.00  0.00     0.031 C 
BRANCH   7   8
ATOM      8  C   UNL A   1      30.419  25.024  25.073  1.00  0.00     0.124 C 
BRANCH   8   9
ATOM      9  N   UNL A   1      31.722  24.392  25.312  1.00  0.00    -0.300 N 
ATOM     10  N   UNL A   1      33.520  23.897  23.275  1.00  0.00    -0.300 N 
ATOM     11  C   UNL A   1      34.852  23.382  23.539  1.00  0.00     0.323 C 
ATOM     12  C   UNL A   1      33.007  24.324  24.591  1.00  0.00     0.231 C 
ATOM     13  O   UNL A   1      35.774  23.324  22.740  1.00  0.00    -0.248 OA
ATOM     14  N   UNL A   1      34.912  23.042  24.892  1.00  0.00    -0.300 N 
ATOM     15  C   UNL A   1      33.596  23.127  25.374  1.00  0.00     0.228 C 
ATOM     16  N   UNL A   1      33.228  23.349  26.703  1.00  0.00    -0.314 N 
ATOM     17  C   UNL A   1      31.956  23.906  26.641  1.00  0.00     0.320 C 
ATOM     18  H   UNL A   1      33.755  23.152  27.510  1.00  0.00     0.167 HD
ATOM     19  O   UNL A   1      31.182  23.917  27.587  1.00  0.00    -0.249 OA
BRANCH  10  20
ATOM     20  C   UNL A   1      33.365  24.524  21.970  1.00  0.00     0.120 C 
ATOM     21  C   UNL A   1      33.306  26.050  22.031  1.00  0.00     0.027 C 
ENDBRANCH  10  20
BRANCH  14  22
ATOM     22  C   UNL A   1      36.079  22.676  25.657  1.00  0.00     0.120 C 
ATOM     23  C   UNL A   1      37.116  23.781  25.752  1.00  0.00     0.027 C 
ENDBRANCH  14  22
ENDBRANCH   8   9
ENDBRANCH   7   8
ENDBRANCH   6   7
ENDBRANCH   3   6
ENDBRANCH   1   2
BRANCH   1  24
ATOM     24  C   UNL A   1      32.902  28.180  25.793  1.00  0.00     0.042 C 
BRANCH  24  25
ATOM     25  C   UNL A   1      33.349  28.469  27.205  1.00  0.00     0.118 C 
BRANCH  25  26
ATOM     26  N   UNL A   1      33.318  29.892  27.533  1.00  0.00    -0.352 N 
ATOM     27  C   UNL A   1      34.330  30.660  28.068  1.00  0.00     0.251 C 
ATOM     28  H   UNL A   1      32.470  30.359  27.351  1.00  0.00     0.163 HD
ATOM     29  O   UNL A   1      34.118  31.818  28.412  1.00  0.00    -0.269 OA
BRANCH  27  30
ATOM     30  C   UNL A   1      35.658  30.040  28.264  1.00  0.00     0.039 A 
ATOM     31  C   UNL A   1      36.604  30.098  27.239  1.00  0.00     0.014 A 
ATOM     32  C   UNL A   1      35.996  29.505  29.508  1.00  0.00     0.014 A 
ATOM     33  C   UNL A   1      37.916  29.694  27.498  1.00  0.00     0.010 A 
ATOM     34  C   UNL A   1      37.325  29.248  29.802  1.00  0.00     0.010 A 
ATOM     35  C   UNL A   1      38.298  29.314  28.795  1.00  0.00    -0.014 A 
BRANCH  35  36
ATOM     36  C   UNL A   1      39.694  28.934  29.125  1.00  0.00     0.031 A 
ATOM     37  C   UNL A   1      40.597  29.942  29.789  1.00  0.00     0.074 A 
ATOM     38  C   UNL A   1      40.170  27.725  28.767  1.00  0.00     0.049 A 
ATOM     39  N   UNL A   1      41.867  29.842  30.088  1.00  0.00    -0.248 NA
ATOM     40  C   UNL A   1      40.008  31.252  30.119  1.00  0.00     0.031 C 
ATOM     41  C   UNL A   1      39.413  26.686  28.064  1.00  0.00     0.029 A 
ATOM     42  N   UNL A   1      41.411  27.166  28.942  1.00  0.00    -0.354 N 
ATOM     43  C   UNL A   1      42.225  31.077  30.617  1.00  0.00     0.074 A 
ATOM     44  C   UNL A   1      41.068  31.935  30.518  1.00  0.00     0.031 C 
ATOM     45  C   UNL A   1      40.192  25.603  27.906  1.00  0.00     0.029 A 
ATOM     46  C   UNL A   1      41.516  25.886  28.452  1.00  0.00     0.049 A 
ATOM     47  H   UNL A   1      42.157  27.638  29.379  1.00  0.00     0.167 HD
ATOM     48  C   UNL A   1      43.400  31.456  31.171  1.00  0.00     0.031 A 
ATOM     49  C   UNL A   1      42.562  25.036  28.440  1.00  0.00     0.031 A 
ATOM     50  C   UNL A   1      44.540  30.591  31.285  1.00  0.00     0.049 A 
ATOM     51  C   UNL A   1      43.859  25.473  29.064  1.00  0.00     0.074 A 
ATOM     52  C   UNL A   1      45.763  30.851  31.876  1.00  0.00     0.029 A 
ATOM     53  N   UNL A   1      44.597  29.293  30.798  1.00  0.00    -0.354 N 
ATOM     54  N   UNL A   1      44.159  26.623  29.621  1.00  0.00    -0.248 NA
ATOM     55  C   UNL A   1      44.953  24.493  29.074  1.00  0.00     0.031 C 
ATOM     56  C   UNL A   1      46.578  29.729  31.696  1.00  0.00     0.029 A 
ATOM     57  C   UNL A   1      45.840  28.746  31.057  1.00  0.00     0.049 A 
ATOM     58  H   UNL A   1      43.861  28.830  30.337  1.00  0.00     0.167 HD
ATOM     59  C   UNL A   1      45.468  26.495  30.074  1.00  0.00     0.074 A 
ATOM     60  C   UNL A   1      45.895  25.151  29.739  1.00  0.00     0.031 C 
ATOM     61  C   UNL A   1      46.245  27.405  30.713  1.00  0.00     0.031 A 
BRANCH  48  62
ATOM     62  C   UNL A   1      43.495  32.867  31.693  1.00  0.00    -0.014 A 
ATOM     63  C   UNL A   1      44.005  33.907  30.891  1.00  0.00     0.010 A 
ATOM     64  C   UNL A   1      43.068  33.162  33.000  1.00  0.00     0.010 A 
ATOM     65  C   UNL A   1      44.139  35.199  31.405  1.00  0.00     0.020 A 
ATOM     66  C   UNL A   1      43.166  34.462  33.506  1.00  0.00     0.020 A 
ATOM     67  C   UNL A   1      43.723  35.467  32.712  1.00  0.00     0.054 A 
BRANCH  67  68
ATOM     68  S   UNL A   1      43.901  37.155  33.349  1.00  0.00     0.124 S 
ATOM     69  O   UNL A   1      42.752  37.260  34.245  1.00  0.00    -0.237 OA
ATOM     70  O   UNL A   1      45.206  37.113  34.005  1.00  0.00    -0.237 OA
ATOM     71  O   UNL A   1      43.835  37.988  32.151  1.00  0.00    -0.744 OA
ENDBRANCH  67  68
ENDBRANCH  48  62
BRANCH  49  72
ATOM     72  C   UNL A   1      42.409  23.680  27.839  1.00  0.00    -0.014 A 
ATOM     73  C   UNL A   1      42.767  23.445  26.499  1.00  0.00     0.010 A 
ATOM     74  C   UNL A   1      41.935  22.608  28.616  1.00  0.00     0.010 A 
ATOM     75  C   UNL A   1      42.642  22.167  25.946  1.00  0.00     0.020 A 
ATOM     76  C   UNL A   1      41.837  21.323  28.075  1.00  0.00     0.020 A 
ATOM     77  C   UNL A   1      42.183  21.112  26.739  1.00  0.00     0.054 A 
BRANCH  77  78
ATOM     78  S   UNL A   1      42.092  19.450  26.016  1.00  0.00     0.124 S 
ATOM     79  O   UNL A   1      42.609  18.618  27.098  1.00  0.00    -0.237 OA
ATOM     80  O   UNL A   1      40.666  19.309  25.734  1.00  0.00    -0.237 OA
ATOM     81  O   UNL A   1      42.947  19.543  24.835  1.00  0.00    -0.744 OA
ENDBRANCH  77  78
ENDBRANCH  49  72
BRANCH  61  82
ATOM     82  C   UNL A   1      47.625  26.969  31.128  1.00  0.00    -0.014 A 
ATOM     83  C   UNL A   1      48.732  27.123  30.275  1.00  0.00     0.010 A 
ATOM     84  C   UNL A   1      47.823  26.457  32.425  1.00  0.00     0.010 A 
ATOM     85  C   UNL A   1      50.007  26.740  30.700  1.00  0.00     0.020 A 
ATOM     86  C   UNL A   1      49.100  26.104  32.863  1.00  0.00     0.020 A 
ATOM     87  C   UNL A   1      50.183  26.235  31.991  1.00  0.00     0.054 A 
BRANCH  87  88
ATOM     88  S   UNL A   1      51.855  25.789  32.532  1.00  0.00     0.124 S 
ATOM     89  O   UNL A   1      52.654  26.879  31.980  1.00  0.00    -0.237 OA
ATOM     90  O   UNL A   1      51.728  25.777  33.987  1.00  0.00    -0.237 OA
ATOM     91  O   UNL A   1      52.081  24.480  31.921  1.00  0.00    -0.744 OA
ENDBRANCH  87  88
ENDBRANCH  61  82
ENDBRANCH  35  36
ENDBRANCH  27  30
ENDBRANCH  25  26
ENDBRANCH  24  25
ENDBRANCH   1  24
TORSDOF 18
ENDMDL
MODEL 2
REMARK VINA RESULT:     -10.1      2.287      2.890
REMARK SMILES CCN1C(=O)N(CC)[C@H]2NC(=O)N(CCCC(=O)NCCCNC(=O)c3ccc(-c4c5nc(c(-c6ccc(S(=O)(=O)[O-])cc6)c6ccc([nH]6)c(-c6ccc(S(=O)(=O)[O-])cc6)c6nc(c(-c7ccc(S(=O)(=O)[O-])cc7)c7ccc4[nH]7)C=C6)C=C5)cc3)[C@@H]21
REMARK SMILES IDX 20 1 19 2 17 3 18 4 16 6 15 7 14 8 13 9 3 10 4 11 86 12 5 13
REMARK SMILES IDX 6 14 9 15 10 16 11 17 12 19 2 20 1 21 7 22 8 23 21 24 22 25
REMARK SMILES IDX 23 26 24 27 25 29 26 30 27 31 85 32 28 33 84 34 29 35 30 36
REMARK SMILES IDX 31 37 78 38 32 39 83 40 77 41 79 42 33 43 82 44 76 45 75 46
REMARK SMILES IDX 34 48 64 49 45 50 63 51 46 52 49 53 62 54 80 55 47 56 48 57
REMARK SMILES IDX 61 59 81 60 50 61 35 62 36 63 44 64 37 65 43 66 38 67 39 68
REMARK SMILES IDX 40 69 41 70 42 71 65 72 66 73 74 74 67 75 73 76 68 77 69 78
REMARK SMILES IDX 70 79 71 80 72 81 51 82 52 83 60 84 53 85 59 86 54 87 55 88
REMARK SMILES IDX 56 89 57 90 58 91
REMARK H PARENT 19 5 10 18 23 28 79 47 49 58
REMARK Flexibility Score: inf
ROOT
ATOM      1  C   UNL A   1      31.908  29.081  24.824  1.00  0.00     0.117 C 
ENDROOT
BRANCH   1   2
ATOM      2  N   UNL A   1      31.418  29.067  23.462  1.00  0.00    -0.356 N 
ATOM      3  C   UNL A   1      30.247  28.637  22.924  1.00  0.00     0.220 C 
ATOM      4  O   UNL A   1      30.012  29.003  21.767  1.00  0.00    -0.275 OA
ATOM      5  H   UNL A   1      32.051  29.438  22.804  1.00  0.00     0.163 HD
BRANCH   3   6
ATOM      6  C   UNL A   1      29.202  27.805  23.668  1.00  0.00     0.102 C 
BRANCH   6   7
ATOM      7  C   UNL A   1      29.466  26.336  23.895  1.00  0.00     0.031 C 
BRANCH   7   8
ATOM      8  C   UNL A   1      30.200  25.918  25.154  1.00  0.00     0.124 C 
BRANCH   8   9
ATOM      9  N   UNL A   1      31.174  24.820  25.196  1.00  0.00    -0.300 N 
ATOM     10  N   UNL A   1      33.072  24.450  23.224  1.00  0.00    -0.300 N 
ATOM     11  C   UNL A   1      34.104  23.434  23.337  1.00  0.00     0.323 C 
ATOM     12  C   UNL A   1      32.483  24.549  24.574  1.00  0.00     0.231 C 
ATOM     13  O   UNL A   1      35.092  23.330  22.628  1.00  0.00    -0.248 OA
ATOM     14  N   UNL A   1      33.803  22.649  24.452  1.00  0.00    -0.300 N 
ATOM     15  C   UNL A   1      32.514  23.029  24.859  1.00  0.00     0.228 C 
ATOM     16  N   UNL A   1      31.994  22.893  26.149  1.00  0.00    -0.314 N 
ATOM     17  C   UNL A   1      30.994  23.854  26.241  1.00  0.00     0.320 C 
ATOM     18  H   UNL A   1      32.274  22.253  26.842  1.00  0.00     0.167 HD
ATOM     19  O   UNL A   1      30.101  23.814  27.075  1.00  0.00    -0.249 OA
BRANCH  10  20
ATOM     20  C   UNL A   1      33.365  25.501  22.260  1.00  0.00     0.120 C 
ATOM     21  C   UNL A   1      32.157  25.908  21.416  1.00  0.00     0.027 C 
ENDBRANCH  10  20
BRANCH  14  22
ATOM     22  C   UNL A   1      34.635  21.649  25.075  1.00  0.00     0.120 C 
ATOM     23  C   UNL A   1      35.804  22.226  25.851  1.00  0.00     0.027 C 
ENDBRANCH  14  22
ENDBRANCH   8   9
ENDBRANCH   7   8
ENDBRANCH   6   7
ENDBRANCH   3   6
ENDBRANCH   1   2
BRANCH   1  24
ATOM     24  C   UNL A   1      33.142  28.231  25.051  1.00  0.00     0.042 C 
BRANCH  24  25
ATOM     25  C   UNL A   1      33.867  28.616  26.317  1.00  0.00     0.118 C 
BRANCH  25  26
ATOM     26  N   UNL A   1      33.745  30.037  26.634  1.00  0.00    -0.352 N 
ATOM     27  C   UNL A   1      34.567  30.799  27.437  1.00  0.00     0.251 C 
ATOM     28  H   UNL A   1      32.982  30.507  26.226  1.00  0.00     0.163 HD
ATOM     29  O   UNL A   1      34.267  31.954  27.718  1.00  0.00    -0.269 OA
BRANCH  27  30
ATOM     30  C   UNL A   1      35.788  30.175  27.992  1.00  0.00     0.039 A 
ATOM     31  C   UNL A   1      36.983  30.242  27.274  1.00  0.00     0.014 A 
ATOM     32  C   UNL A   1      35.764  29.625  29.275  1.00  0.00     0.014 A 
ATOM     33  C   UNL A   1      38.170  29.833  27.887  1.00  0.00     0.010 A 
ATOM     34  C   UNL A   1      36.956  29.364  29.927  1.00  0.00     0.010 A 
ATOM     35  C   UNL A   1      38.173  29.438  29.235  1.00  0.00    -0.014 A 
BRANCH  35  36
ATOM     36  C   UNL A   1      39.421  29.053  29.939  1.00  0.00     0.031 A 
ATOM     37  C   UNL A   1      39.839  29.813  31.172  1.00  0.00     0.074 A 
ATOM     38  C   UNL A   1      40.209  28.081  29.438  1.00  0.00     0.049 A 
ATOM     39  N   UNL A   1      40.927  29.692  31.887  1.00  0.00    -0.248 NA
ATOM     40  C   UNL A   1      38.937  30.882  31.637  1.00  0.00     0.031 C 
ATOM     41  C   UNL A   1      39.945  27.316  28.217  1.00  0.00     0.029 A 
ATOM     42  N   UNL A   1      41.401  27.575  29.893  1.00  0.00    -0.354 N 
ATOM     43  C   UNL A   1      40.846  30.678  32.864  1.00  0.00     0.074 A 
ATOM     44  C   UNL A   1      39.649  31.442  32.599  1.00  0.00     0.031 C 
ATOM     45  C   UNL A   1      40.922  26.409  28.045  1.00  0.00     0.029 A 
ATOM     46  C   UNL A   1      41.905  26.561  29.113  1.00  0.00     0.049 A 
ATOM     47  H   UNL A   1      41.852  27.906  30.704  1.00  0.00     0.167 HD
ATOM     48  C   UNL A   1      41.670  30.906  33.912  1.00  0.00     0.031 A 
ATOM     49  C   UNL A   1      43.034  25.837  29.242  1.00  0.00     0.031 A 
ATOM     50  C   UNL A   1      42.847  30.129  34.182  1.00  0.00     0.049 A 
ATOM     51  C   UNL A   1      43.937  26.102  30.416  1.00  0.00     0.074 A 
ATOM     52  C   UNL A   1      43.726  30.238  35.244  1.00  0.00     0.029 A 
ATOM     53  N   UNL A   1      43.309  29.095  33.380  1.00  0.00    -0.354 N 
ATOM     54  N   UNL A   1      43.808  26.995  31.368  1.00  0.00    -0.248 NA
ATOM     55  C   UNL A   1      45.129  25.252  30.542  1.00  0.00     0.031 C 
ATOM     56  C   UNL A   1      44.751  29.305  35.055  1.00  0.00     0.029 A 
ATOM     57  C   UNL A   1      44.473  28.569  33.913  1.00  0.00     0.049 A 
ATOM     58  H   UNL A   1      42.874  28.782  32.555  1.00  0.00     0.167 HD
ATOM     59  C   UNL A   1      44.887  26.796  32.224  1.00  0.00     0.074 A 
ATOM     60  C   UNL A   1      45.648  25.688  31.682  1.00  0.00     0.031 C 
ATOM     61  C   UNL A   1      45.216  27.465  33.356  1.00  0.00     0.031 A 
BRANCH  48  62
ATOM     62  C   UNL A   1      41.315  32.043  34.837  1.00  0.00    -0.014 A 
ATOM     63  C   UNL A   1      40.538  31.827  35.991  1.00  0.00     0.010 A 
ATOM     64  C   UNL A   1      41.765  33.345  34.553  1.00  0.00     0.010 A 
ATOM     65  C   UNL A   1      40.170  32.897  36.810  1.00  0.00     0.020 A 
ATOM     66  C   UNL A   1      41.430  34.413  35.391  1.00  0.00     0.020 A 
ATOM     67  C   UNL A   1      40.615  34.185  36.501  1.00  0.00     0.054 A 
BRANCH  67  68
ATOM     68  S   UNL A   1      40.128  35.553  37.587  1.00  0.00     0.124 S 
ATOM     69  O   UNL A   1      39.930  36.639  36.629  1.00  0.00    -0.237 OA
ATOM     70  O   UNL A   1      38.914  35.043  38.219  1.00  0.00    -0.237 OA
ATOM     71  O   UNL A   1      41.273  35.713  38.480  1.00  0.00    -0.744 OA
ENDBRANCH  67  68
ENDBRANCH  48  62
BRANCH  49  72
ATOM     72  C   UNL A   1      43.353  24.776  28.244  1.00  0.00    -0.014 A 
ATOM     73  C   UNL A   1      42.814  23.484  28.374  1.00  0.00     0.010 A 
ATOM     74  C   UNL A   1      44.173  25.065  27.138  1.00  0.00     0.010 A 
ATOM     75  C   UNL A   1      43.099  22.498  27.423  1.00  0.00     0.020 A 
ATOM     76  C   UNL A   1      44.435  24.091  26.170  1.00  0.00     0.020 A 
ATOM     77  C   UNL A   1      43.904  22.809  26.323  1.00  0.00     0.054 A 
BRANCH  77  78
ATOM     78  S   UNL A   1      44.205  21.532  25.071  1.00  0.00     0.124 S 
ATOM     79  O   UNL A   1      45.564  21.105  25.393  1.00  0.00    -0.237 OA
ATOM     80  O   UNL A   1      43.152  20.561  25.353  1.00  0.00    -0.237 OA
ATOM     81  O   UNL A   1      44.059  22.250  23.807  1.00  0.00    -0.744 OA
ENDBRANCH  77  78
ENDBRANCH  49  72
BRANCH  61  82
ATOM     82  C   UNL A   1      46.431  26.996  34.112  1.00  0.00    -0.014 A 
ATOM     83  C   UNL A   1      46.343  25.991  35.091  1.00  0.00     0.010 A 
ATOM     84  C   UNL A   1      47.692  27.529  33.785  1.00  0.00     0.010 A 
ATOM     85  C   UNL A   1      47.492  25.551  35.753  1.00  0.00     0.020 A 
ATOM     86  C   UNL A   1      48.846  27.069  34.422  1.00  0.00     0.020 A 
ATOM     87  C   UNL A   1      48.736  26.092  35.413  1.00  0.00     0.054 A 
BRANCH  87  88
ATOM     88  S   UNL A   1      50.216  25.471  36.256  1.00  0.00     0.124 S 
ATOM     89  O   UNL A   1      50.864  26.708  36.683  1.00  0.00    -0.237 OA
ATOM     90  O   UNL A   1      49.655  24.654  37.329  1.00  0.00    -0.237 OA
ATOM     91  O   UNL A   1      50.922  24.725  35.216  1.00  0.00    -0.744 OA
ENDBRANCH  87  88
ENDBRANCH  61  82
ENDBRANCH  35  36
ENDBRANCH  27  30
ENDBRANCH  25  26
ENDBRANCH  24  25
ENDBRANCH   1  24
TORSDOF 18
ENDMDL
MODEL 3
REMARK VINA RESULT:     -10.0      4.239     10.306
REMARK SMILES CCN1C(=O)N(CC)[C@H]2NC(=O)N(CCCC(=O)NCCCNC(=O)c3ccc(-c4c5nc(c(-c6ccc(S(=O)(=O)[O-])cc6)c6ccc([nH]6)c(-c6ccc(S(=O)(=O)[O-])cc6)c6nc(c(-c7ccc(S(=O)(=O)[O-])cc7)c7ccc4[nH]7)C=C6)C=C5)cc3)[C@@H]21
REMARK SMILES IDX 20 1 19 2 17 3 18 4 16 6 15 7 14 8 13 9 3 10 4 11 86 12 5 13
REMARK SMILES IDX 6 14 9 15 10 16 11 17 12 19 2 20 1 21 7 22 8 23 21 24 22 25
REMARK SMILES IDX 23 26 24 27 25 29 26 30 27 31 85 32 28 33 84 34 29 35 30 36
REMARK SMILES IDX 31 37 78 38 32 39 83 40 77 41 79 42 33 43 82 44 76 45 75 46
REMARK SMILES IDX 34 48 64 49 45 50 63 51 46 52 49 53 62 54 80 55 47 56 48 57
REMARK SMILES IDX 61 59 81 60 50 61 35 62 36 63 44 64 37 65 43 66 38 67 39 68
REMARK SMILES IDX 40 69 41 70 42 71 65 72 66 73 74 74 67 75 73 76 68 77 69 78
REMARK SMILES IDX 70 79 71 80 72 81 51 82 52 83 60 84 53 85 59 86 54 87 55 88
REMARK SMILES IDX 56 89 57 90 58 91
REMARK H PARENT 19 5 10 18 23 28 79 47 49 58
REMARK Flexibility Score: inf
ROOT
ATOM      1  C   UNL A   1      39.243  21.548  26.109  1.00  0.00     0.117 C 
ENDROOT
BRANCH   1   2
ATOM      2  N   UNL A   1      38.260  22.577  26.373  1.00  0.00    -0.356 N 
ATOM      3  C   UNL A   1      37.096  22.900  25.750  1.00  0.00     0.220 C 
ATOM      4  O   UNL A   1      36.339  23.656  26.369  1.00  0.00    -0.275 OA
ATOM      5  H   UNL A   1      38.474  23.148  27.146  1.00  0.00     0.163 HD
BRANCH   3   6
ATOM      6  C   UNL A   1      36.651  22.345  24.397  1.00  0.00     0.102 C 
BRANCH   6   7
ATOM      7  C   UNL A   1      35.890  23.246  23.454  1.00  0.00     0.031 C 
BRANCH   7   8
ATOM      8  C   UNL A   1      34.480  22.853  23.058  1.00  0.00     0.124 C 
BRANCH   8   9
ATOM      9  N   UNL A   1      33.341  23.779  23.096  1.00  0.00    -0.300 N 
ATOM     10  N   UNL A   1      31.973  24.346  25.428  1.00  0.00    -0.300 N 
ATOM     11  C   UNL A   1      30.928  25.352  25.476  1.00  0.00     0.323 C 
ATOM     12  C   UNL A   1      32.659  24.567  24.140  1.00  0.00     0.231 C 
ATOM     13  O   UNL A   1      30.415  25.810  26.485  1.00  0.00    -0.248 OA
ATOM     14  N   UNL A   1      30.674  25.759  24.165  1.00  0.00    -0.300 N 
ATOM     15  C   UNL A   1      31.371  24.865  23.337  1.00  0.00     0.228 C 
ATOM     16  N   UNL A   1      31.810  25.131  22.037  1.00  0.00    -0.314 N 
ATOM     17  C   UNL A   1      32.877  24.265  21.829  1.00  0.00     0.320 C 
ATOM     18  H   UNL A   1      31.441  25.788  21.405  1.00  0.00     0.167 HD
ATOM     19  O   UNL A   1      33.290  23.965  20.718  1.00  0.00    -0.249 OA
BRANCH  10  20
ATOM     20  C   UNL A   1      32.529  23.992  26.727  1.00  0.00     0.120 C 
ATOM     21  C   UNL A   1      33.148  22.595  26.765  1.00  0.00     0.027 C 
ENDBRANCH  10  20
BRANCH  14  22
ATOM     22  C   UNL A   1      29.864  26.871  23.729  1.00  0.00     0.120 C 
ATOM     23  C   UNL A   1      28.372  26.618  23.840  1.00  0.00     0.027 C 
ENDBRANCH  14  22
ENDBRANCH   8   9
ENDBRANCH   7   8
ENDBRANCH   6   7
ENDBRANCH   3   6
ENDBRANCH   1   2
BRANCH   1  24
ATOM     24  C   UNL A   1      40.505  21.665  26.940  1.00  0.00     0.042 C 
BRANCH  24  25
ATOM     25  C   UNL A   1      40.821  23.099  27.287  1.00  0.00     0.118 C 
BRANCH  25  26
ATOM     26  N   UNL A   1      41.153  23.908  26.117  1.00  0.00    -0.352 N 
ATOM     27  C   UNL A   1      41.350  25.272  26.059  1.00  0.00     0.251 C 
ATOM     28  H   UNL A   1      41.247  23.421  25.266  1.00  0.00     0.163 HD
ATOM     29  O   UNL A   1      41.496  25.834  24.979  1.00  0.00    -0.269 OA
BRANCH  27  30
ATOM     30  C   UNL A   1      41.327  26.042  27.321  1.00  0.00     0.039 A 
ATOM     31  C   UNL A   1      42.354  26.947  27.594  1.00  0.00     0.014 A 
ATOM     32  C   UNL A   1      40.226  25.945  28.173  1.00  0.00     0.014 A 
ATOM     33  C   UNL A   1      42.226  27.815  28.681  1.00  0.00     0.010 A 
ATOM     34  C   UNL A   1      40.035  26.902  29.154  1.00  0.00     0.010 A 
ATOM     35  C   UNL A   1      41.043  27.834  29.439  1.00  0.00    -0.014 A 
BRANCH  35  36
ATOM     36  C   UNL A   1      40.845  28.780  30.565  1.00  0.00     0.031 A 
ATOM     37  C   UNL A   1      41.700  28.651  31.799  1.00  0.00     0.074 A 
ATOM     38  C   UNL A   1      39.859  29.698  30.511  1.00  0.00     0.049 A 
ATOM     39  N   UNL A   1      41.637  29.321  32.921  1.00  0.00    -0.248 NA
ATOM     40  C   UNL A   1      42.734  27.601  31.789  1.00  0.00     0.031 C 
ATOM     41  C   UNL A   1      38.925  29.881  29.398  1.00  0.00     0.029 A 
ATOM     42  N   UNL A   1      39.476  30.650  31.423  1.00  0.00    -0.354 N 
ATOM     43  C   UNL A   1      42.602  28.757  33.748  1.00  0.00     0.074 A 
ATOM     44  C   UNL A   1      43.176  27.641  33.035  1.00  0.00     0.031 C 
ATOM     45  C   UNL A   1      38.105  30.909  29.674  1.00  0.00     0.029 A 
ATOM     46  C   UNL A   1      38.423  31.428  31.001  1.00  0.00     0.049 A 
ATOM     47  H   UNL A   1      39.915  30.767  32.297  1.00  0.00     0.167 HD
ATOM     48  C   UNL A   1      43.005  29.155  34.977  1.00  0.00     0.031 A 
ATOM     49  C   UNL A   1      37.783  32.442  31.615  1.00  0.00     0.031 A 
ATOM     50  C   UNL A   1      42.444  30.280  35.673  1.00  0.00     0.049 A 
ATOM     51  C   UNL A   1      38.247  32.873  32.980  1.00  0.00     0.074 A 
ATOM     52  C   UNL A   1      42.811  30.805  36.898  1.00  0.00     0.029 A 
ATOM     53  N   UNL A   1      41.395  31.055  35.199  1.00  0.00    -0.354 N 
ATOM     54  N   UNL A   1      39.208  32.371  33.719  1.00  0.00    -0.248 NA
ATOM     55  C   UNL A   1      37.553  34.016  33.586  1.00  0.00     0.031 C 
ATOM     56  C   UNL A   1      41.947  31.865  37.191  1.00  0.00     0.029 A 
ATOM     57  C   UNL A   1      41.088  32.043  36.118  1.00  0.00     0.049 A 
ATOM     58  H   UNL A   1      40.938  30.923  34.338  1.00  0.00     0.167 HD
ATOM     59  C   UNL A   1      39.253  33.156  34.867  1.00  0.00     0.074 A 
ATOM     60  C   UNL A   1      38.233  34.174  34.714  1.00  0.00     0.031 C 
ATOM     61  C   UNL A   1      40.067  33.047  35.946  1.00  0.00     0.031 A 
BRANCH  48  62
ATOM     62  C   UNL A   1      44.105  28.361  35.635  1.00  0.00    -0.014 A 
ATOM     63  C   UNL A   1      45.460  28.695  35.440  1.00  0.00     0.010 A 
ATOM     64  C   UNL A   1      43.784  27.270  36.462  1.00  0.00     0.010 A 
ATOM     65  C   UNL A   1      46.471  27.918  36.010  1.00  0.00     0.020 A 
ATOM     66  C   UNL A   1      44.793  26.513  37.065  1.00  0.00     0.020 A 
ATOM     67  C   UNL A   1      46.130  26.829  36.816  1.00  0.00     0.054 A 
BRANCH  67  68
ATOM     68  S   UNL A   1      47.464  25.844  37.551  1.00  0.00     0.124 S 
ATOM     69  O   UNL A   1      47.170  24.509  37.034  1.00  0.00    -0.237 OA
ATOM     70  O   UNL A   1      48.664  26.476  37.008  1.00  0.00    -0.237 OA
ATOM     71  O   UNL A   1      47.269  26.012  38.988  1.00  0.00    -0.744 OA
ENDBRANCH  67  68
ENDBRANCH  48  62
BRANCH  49  72
ATOM     72  C   UNL A   1      36.654  33.132  30.928  1.00  0.00    -0.014 A 
ATOM     73  C   UNL A   1      35.366  33.136  31.492  1.00  0.00     0.010 A 
ATOM     74  C   UNL A   1      36.871  33.818  29.718  1.00  0.00     0.010 A 
ATOM     75  C   UNL A   1      34.315  33.802  30.853  1.00  0.00     0.020 A 
ATOM     76  C   UNL A   1      35.830  34.510  29.094  1.00  0.00     0.020 A 
ATOM     77  C   UNL A   1      34.554  34.490  29.661  1.00  0.00     0.054 A 
BRANCH  77  78
ATOM     78  S   UNL A   1      33.189  35.401  28.887  1.00  0.00     0.124 S 
ATOM     79  O   UNL A   1      33.894  36.468  28.184  1.00  0.00    -0.237 OA
ATOM     80  O   UNL A   1      32.574  34.383  28.039  1.00  0.00    -0.237 OA
ATOM     81  O   UNL A   1      32.376  35.829  30.022  1.00  0.00    -0.744 OA
ENDBRANCH  77  78
ENDBRANCH  49  72
BRANCH  61  82
ATOM     82  C   UNL A   1      39.918  34.077  37.034  1.00  0.00    -0.014 A 
ATOM     83  C   UNL A   1      40.532  35.338  36.941  1.00  0.00     0.010 A 
ATOM     84  C   UNL A   1      39.090  33.796  38.138  1.00  0.00     0.010 A 
ATOM     85  C   UNL A   1      40.350  36.287  37.951  1.00  0.00     0.020 A 
ATOM     86  C   UNL A   1      38.880  34.754  39.132  1.00  0.00     0.020 A 
ATOM     87  C   UNL A   1      39.523  35.989  39.038  1.00  0.00     0.054 A 
BRANCH  87  88
ATOM     88  S   UNL A   1      39.267  37.255  40.311  1.00  0.00     0.124 S 
ATOM     89  O   UNL A   1      38.486  38.257  39.590  1.00  0.00    -0.237 OA
ATOM     90  O   UNL A   1      38.546  36.524  41.349  1.00  0.00    -0.237 OA
ATOM     91  O   UNL A   1      40.623  37.665  40.672  1.00  0.00    -0.744 OA
ENDBRANCH  87  88
ENDBRANCH  61  82
ENDBRANCH  35  36
ENDBRANCH  27  30
ENDBRANCH  25  26
ENDBRANCH  24  25
ENDBRANCH   1  24
TORSDOF 18
ENDMDL
