MODEL 1
REMARK VINA RESULT:      -9.9      0.000      0.000
REMARK SMILES [NH3+][C@H](CC(F)(F)C(F)(F)C(F)(F)C(F)(F)Cl)C(=O)NCCCNC(=O)c1ccc(-c2c3nc(c(-c4ccc(S(=O)(=O)[O-])cc4)c4ccc([nH]4)c(-c4ccc(S(=O)(=O)[O-])cc4)c4nc(c(-c5ccc(S(=O)(=O)[O-])cc5)c5ccc2[nH]5)C=C4)C=C3)cc1
REMARK SMILES IDX 20 1 19 2 17 3 18 4 2 6 1 7 3 11 4 12 5 13 6 14 7 15 8 16
REMARK SMILES IDX 9 17 10 18 11 19 12 20 13 21 14 22 15 23 16 24 21 25 22 26
REMARK SMILES IDX 23 27 24 28 25 30 26 31 27 32 85 33 28 34 84 35 29 36 30 37
REMARK SMILES IDX 31 38 78 39 32 40 83 41 77 42 79 43 33 44 82 45 76 46 75 47
REMARK SMILES IDX 34 49 64 50 45 51 63 52 46 53 49 54 62 55 80 56 47 57 48 58
REMARK SMILES IDX 61 60 81 61 50 62 35 63 36 64 44 65 37 66 43 67 38 68 39 69
REMARK SMILES IDX 40 70 41 71 42 72 65 73 66 74 74 75 67 76 73 77 68 78 69 79
REMARK SMILES IDX 70 80 71 81 72 82 51 83 52 84 60 85 53 86 59 87 54 88 55 89
REMARK SMILES IDX 56 90 57 91 58 92
REMARK H PARENT 19 5 1 8 1 9 1 10 23 29 79 48 49 59
REMARK Flexibility Score: inf
ROOT
ATOM      1  C   UNL A   1      32.986  34.315  29.023  1.00  0.00     0.118 C 
ENDROOT
BRANCH   1   2
ATOM      2  N   UNL A   1      32.851  35.666  29.551  1.00  0.00    -0.351 N 
ATOM      3  C   UNL A   1      32.908  36.221  30.788  1.00  0.00     0.278 C 
ATOM      4  O   UNL A   1      33.007  37.455  30.802  1.00  0.00    -0.268 OA
ATOM      5  H   UNL A   1      32.677  36.332  28.846  1.00  0.00     0.163 HD
BRANCH   3   6
ATOM      6  C   UNL A   1      32.788  35.459  32.133  1.00  0.00     0.277 C 
BRANCH   6   7
ATOM      7  N   UNL A   1      31.561  35.839  32.867  1.00  0.00    -0.347 N 
ATOM      8  H   UNL A   1      31.496  35.294  33.726  1.00  0.00     0.345 HD
ATOM      9  H   UNL A   1      30.744  35.656  32.285  1.00  0.00     0.345 HD
ATOM     10  H   UNL A   1      31.597  36.833  33.098  1.00  0.00     0.345 HD
ENDBRANCH   6   7
BRANCH   6  11
ATOM     11  C   UNL A   1      34.029  35.274  33.039  1.00  0.00     0.159 C 
BRANCH  11  12
ATOM     12  C   UNL A   1      34.469  33.863  33.402  1.00  0.00     0.323 C 
ATOM     13  F   UNL A   1      35.047  33.947  34.621  1.00  0.00    -0.199 F 
ATOM     14  F   UNL A   1      33.335  33.126  33.621  1.00  0.00    -0.199 F 
BRANCH  12  15
ATOM     15  C   UNL A   1      35.336  33.112  32.385  1.00  0.00     0.379 C 
ATOM     16  F   UNL A   1      35.930  32.046  32.993  1.00  0.00    -0.192 F 
ATOM     17  F   UNL A   1      34.558  32.562  31.421  1.00  0.00    -0.192 F 
BRANCH  15  18
ATOM     18  C   UNL A   1      36.364  34.038  31.772  1.00  0.00     0.392 C 
ATOM     19  F   UNL A   1      35.782  34.768  30.775  1.00  0.00    -0.191 F 
ATOM     20  F   UNL A   1      36.791  34.949  32.689  1.00  0.00    -0.191 F 
BRANCH  18  21
ATOM     21  C   UNL A   1      37.530  33.264  31.184  1.00  0.00     0.390 C 
ATOM     22  F   UNL A   1      38.418  32.902  32.141  1.00  0.00    -0.181 F 
ATOM     23  F   UNL A   1      37.103  32.115  30.598  1.00  0.00    -0.181 F 
ATOM     24  Cl  UNL A   1      38.381  34.226  29.941  1.00  0.00    -0.041 Cl
ENDBRANCH  18  21
ENDBRANCH  15  18
ENDBRANCH  12  15
ENDBRANCH  11  12
ENDBRANCH   6  11
ENDBRANCH   3   6
ENDBRANCH   1   2
BRANCH   1  25
ATOM     25  C   UNL A   1      34.110  34.102  28.001  1.00  0.00     0.042 C 
BRANCH  25  26
ATOM     26  C   UNL A   1      34.927  32.818  28.109  1.00  0.00     0.118 C 
BRANCH  26  27
ATOM     27  N   UNL A   1      34.159  31.618  27.855  1.00  0.00    -0.352 N 
ATOM     28  C   UNL A   1      34.566  30.303  27.853  1.00  0.00     0.251 C 
ATOM     29  H   UNL A   1      33.206  31.764  27.656  1.00  0.00     0.163 HD
ATOM     30  O   UNL A   1      33.766  29.435  27.522  1.00  0.00    -0.269 OA
BRANCH  28  31
ATOM     31  C   UNL A   1      35.961  29.923  28.202  1.00  0.00     0.039 A 
ATOM     32  C   UNL A   1      36.947  30.099  27.227  1.00  0.00     0.014 A 
ATOM     33  C   UNL A   1      36.310  29.360  29.435  1.00  0.00     0.014 A 
ATOM     34  C   UNL A   1      38.274  29.745  27.494  1.00  0.00     0.010 A 
ATOM     35  C   UNL A   1      37.650  29.070  29.725  1.00  0.00     0.010 A 
ATOM     36  C   UNL A   1      38.647  29.244  28.753  1.00  0.00    -0.014 A 
BRANCH  36  37
ATOM     37  C   UNL A   1      40.074  28.894  29.016  1.00  0.00     0.031 A 
ATOM     38  C   UNL A   1      40.990  29.855  29.729  1.00  0.00     0.074 A 
ATOM     39  C   UNL A   1      40.546  27.686  28.644  1.00  0.00     0.049 A 
ATOM     40  N   UNL A   1      42.215  29.663  30.158  1.00  0.00    -0.248 NA
ATOM     41  C   UNL A   1      40.477  31.210  29.983  1.00  0.00     0.031 C 
ATOM     42  C   UNL A   1      39.787  26.674  27.903  1.00  0.00     0.029 A 
ATOM     43  N   UNL A   1      41.767  27.092  28.854  1.00  0.00    -0.354 N 
ATOM     44  C   UNL A   1      42.613  30.865  30.733  1.00  0.00     0.074 A 
ATOM     45  C   UNL A   1      41.524  31.799  30.546  1.00  0.00     0.031 C 
ATOM     46  C   UNL A   1      40.541  25.572  27.766  1.00  0.00     0.029 A 
ATOM     47  C   UNL A   1      41.845  25.802  28.383  1.00  0.00     0.049 A 
ATOM     48  H   UNL A   1      42.517  27.548  29.301  1.00  0.00     0.167 HD
ATOM     49  C   UNL A   1      43.767  31.162  31.379  1.00  0.00     0.031 A 
ATOM     50  C   UNL A   1      42.842  24.896  28.451  1.00  0.00     0.031 A 
ATOM     51  C   UNL A   1      44.856  30.238  31.565  1.00  0.00     0.049 A 
ATOM     52  C   UNL A   1      44.114  25.248  29.173  1.00  0.00     0.074 A 
ATOM     53  C   UNL A   1      46.042  30.433  32.254  1.00  0.00     0.029 A 
ATOM     54  N   UNL A   1      44.898  28.949  31.058  1.00  0.00    -0.354 N 
ATOM     55  N   UNL A   1      44.433  26.361  29.788  1.00  0.00    -0.248 NA
ATOM     56  C   UNL A   1      45.156  24.211  29.225  1.00  0.00     0.031 C 
ATOM     57  C   UNL A   1      46.824  29.282  32.113  1.00  0.00     0.029 A 
ATOM     58  C   UNL A   1      46.100  28.347  31.393  1.00  0.00     0.049 A 
ATOM     59  H   UNL A   1      44.179  28.523  30.536  1.00  0.00     0.167 HD
ATOM     60  C   UNL A   1      45.699  26.150  30.322  1.00  0.00     0.074 A 
ATOM     61  C   UNL A   1      46.080  24.796  29.975  1.00  0.00     0.031 C 
ATOM     62  C   UNL A   1      46.477  27.001  31.038  1.00  0.00     0.031 A 
BRANCH  49  63
ATOM     63  C   UNL A   1      43.916  32.556  31.935  1.00  0.00    -0.014 A 
ATOM     64  C   UNL A   1      43.526  32.858  33.253  1.00  0.00     0.010 A 
ATOM     65  C   UNL A   1      44.499  33.568  31.149  1.00  0.00     0.010 A 
ATOM     66  C   UNL A   1      43.674  34.152  33.759  1.00  0.00     0.020 A 
ATOM     67  C   UNL A   1      44.677  34.857  31.662  1.00  0.00     0.020 A 
ATOM     68  C   UNL A   1      44.246  35.145  32.959  1.00  0.00     0.054 A 
BRANCH  68  69
ATOM     69  S   UNL A   1      44.447  36.810  33.650  1.00  0.00     0.124 S 
ATOM     70  O   UNL A   1      45.793  36.740  34.216  1.00  0.00    -0.237 OA
ATOM     71  O   UNL A   1      44.306  37.665  32.475  1.00  0.00    -0.237 OA
ATOM     72  O   UNL A   1      43.366  36.914  34.627  1.00  0.00    -0.744 OA
ENDBRANCH  68  69
ENDBRANCH  49  63
BRANCH  50  73
ATOM     73  C   UNL A   1      42.663  23.548  27.839  1.00  0.00    -0.014 A 
ATOM     74  C   UNL A   1      43.202  23.254  26.574  1.00  0.00     0.010 A 
ATOM     75  C   UNL A   1      41.953  22.547  28.528  1.00  0.00     0.010 A 
ATOM     76  C   UNL A   1      43.018  21.992  26.000  1.00  0.00     0.020 A 
ATOM     77  C   UNL A   1      41.793  21.275  27.971  1.00  0.00     0.020 A 
ATOM     78  C   UNL A   1      42.316  21.009  26.704  1.00  0.00     0.054 A 
BRANCH  78  79
ATOM     79  S   UNL A   1      42.136  19.362  25.965  1.00  0.00     0.124 S 
ATOM     80  O   UNL A   1      40.695  19.281  25.750  1.00  0.00    -0.237 OA
ATOM     81  O   UNL A   1      42.953  19.465  24.758  1.00  0.00    -0.237 OA
ATOM     82  O   UNL A   1      42.668  18.467  26.992  1.00  0.00    -0.744 OA
ENDBRANCH  78  79
ENDBRANCH  50  73
BRANCH  62  83
ATOM     83  C   UNL A   1      47.809  26.487  31.520  1.00  0.00    -0.014 A 
ATOM     84  C   UNL A   1      48.975  26.641  30.750  1.00  0.00     0.010 A 
ATOM     85  C   UNL A   1      47.901  25.875  32.785  1.00  0.00     0.010 A 
ATOM     86  C   UNL A   1      50.201  26.156  31.216  1.00  0.00     0.020 A 
ATOM     87  C   UNL A   1      49.128  25.415  33.267  1.00  0.00     0.020 A 
ATOM     88  C   UNL A   1      50.268  25.543  32.471  1.00  0.00     0.054 A 
BRANCH  88  89
ATOM     89  S   UNL A   1      51.875  24.945  33.066  1.00  0.00     0.124 S 
ATOM     90  O   UNL A   1      51.929  23.601  32.496  1.00  0.00    -0.237 OA
ATOM     91  O   UNL A   1      52.810  25.909  32.491  1.00  0.00    -0.237 OA
ATOM     92  O   UNL A   1      51.749  25.000  34.521  1.00  0.00    -0.744 OA
ENDBRANCH  88  89
ENDBRANCH  62  83
ENDBRANCH  36  37
ENDBRANCH  28  31
ENDBRANCH  26  27
ENDBRANCH  25  26
ENDBRANCH   1  25
TORSDOF 19
ENDMDL
MODEL 2
REMARK VINA RESULT:      -9.5      5.200     12.177
REMARK SMILES [NH3+][C@H](CC(F)(F)C(F)(F)C(F)(F)C(F)(F)Cl)C(=O)NCCCNC(=O)c1ccc(-c2c3nc(c(-c4ccc(S(=O)(=O)[O-])cc4)c4ccc([nH]4)c(-c4ccc(S(=O)(=O)[O-])cc4)c4nc(c(-c5ccc(S(=O)(=O)[O-])cc5)c5ccc2[nH]5)C=C4)C=C3)cc1
REMARK SMILES IDX 20 1 19 2 17 3 18 4 2 6 1 7 3 11 4 12 5 13 6 14 7 15 8 16
REMARK SMILES IDX 9 17 10 18 11 19 12 20 13 21 14 22 15 23 16 24 21 25 22 26
REMARK SMILES IDX 23 27 24 28 25 30 26 31 27 32 85 33 28 34 84 35 29 36 30 37
REMARK SMILES IDX 31 38 78 39 32 40 83 41 77 42 79 43 33 44 82 45 76 46 75 47
REMARK SMILES IDX 34 49 64 50 45 51 63 52 46 53 49 54 62 55 80 56 47 57 48 58
REMARK SMILES IDX 61 60 81 61 50 62 35 63 36 64 44 65 37 66 43 67 38 68 39 69
REMARK SMILES IDX 40 70 41 71 42 72 65 73 66 74 74 75 67 76 73 77 68 78 69 79
REMARK SMILES IDX 70 80 71 81 72 82 51 83 52 84 60 85 53 86 59 87 54 88 55 89
REMARK SMILES IDX 56 90 57 91 58 92
REMARK H PARENT 19 5 1 8 1 9 1 10 23 29 79 48 49 59
REMARK Flexibility Score: inf
ROOT
ATOM      1  C   UNL A   1      42.030  19.459  27.105  1.00  0.00     0.118 C 
ENDROOT
BRANCH   1   2
ATOM      2  N   UNL A   1      42.962  18.778  26.216  1.00  0.00    -0.351 N 
ATOM      3  C   UNL A   1      43.952  19.177  25.379  1.00  0.00     0.278 C 
ATOM      4  O   UNL A   1      44.703  18.273  24.990  1.00  0.00    -0.268 OA
ATOM      5  H   UNL A   1      42.846  17.800  26.225  1.00  0.00     0.163 HD
BRANCH   3   6
ATOM      6  C   UNL A   1      44.160  20.615  24.836  1.00  0.00     0.277 C 
BRANCH   6   7
ATOM      7  N   UNL A   1      44.935  20.615  23.576  1.00  0.00    -0.347 N 
ATOM      8  H   UNL A   1      44.298  20.688  22.784  1.00  0.00     0.345 HD
ATOM      9  H   UNL A   1      45.470  19.749  23.505  1.00  0.00     0.345 HD
ATOM     10  H   UNL A   1      45.575  21.410  23.571  1.00  0.00     0.345 HD
ENDBRANCH   6   7
BRANCH   6  11
ATOM     11  C   UNL A   1      44.529  21.769  25.800  1.00  0.00     0.159 C 
BRANCH  11  12
ATOM     12  C   UNL A   1      43.784  23.090  25.683  1.00  0.00     0.323 C 
ATOM     13  F   UNL A   1      42.954  22.965  24.623  1.00  0.00    -0.199 F 
ATOM     14  F   UNL A   1      42.940  23.178  26.759  1.00  0.00    -0.199 F 
BRANCH  12  15
ATOM     15  C   UNL A   1      44.624  24.370  25.630  1.00  0.00     0.379 C 
ATOM     16  F   UNL A   1      43.971  25.313  24.892  1.00  0.00    -0.192 F 
ATOM     17  F   UNL A   1      44.723  24.918  26.867  1.00  0.00    -0.192 F 
BRANCH  15  18
ATOM     18  C   UNL A   1      45.998  24.085  25.066  1.00  0.00     0.392 C 
ATOM     19  F   UNL A   1      46.621  23.146  25.837  1.00  0.00    -0.191 F 
ATOM     20  F   UNL A   1      45.899  23.532  23.826  1.00  0.00    -0.191 F 
BRANCH  18  21
ATOM     21  C   UNL A   1      46.860  25.334  25.041  1.00  0.00     0.390 C 
ATOM     22  F   UNL A   1      47.846  25.239  24.116  1.00  0.00    -0.181 F 
ATOM     23  F   UNL A   1      46.123  26.426  24.708  1.00  0.00    -0.181 F 
ATOM     24  Cl  UNL A   1      47.596  25.642  26.641  1.00  0.00    -0.041 Cl
ENDBRANCH  18  21
ENDBRANCH  15  18
ENDBRANCH  12  15
ENDBRANCH  11  12
ENDBRANCH   6  11
ENDBRANCH   3   6
ENDBRANCH   1   2
BRANCH   1  25
ATOM     25  C   UNL A   1      40.720  19.937  26.467  1.00  0.00     0.042 C 
BRANCH  25  26
ATOM     26  C   UNL A   1      40.457  21.440  26.436  1.00  0.00     0.118 C 
BRANCH  26  27
ATOM     27  N   UNL A   1      39.222  21.799  25.773  1.00  0.00    -0.352 N 
ATOM     28  C   UNL A   1      38.538  22.994  25.787  1.00  0.00     0.251 C 
ATOM     29  H   UNL A   1      38.812  21.087  25.233  1.00  0.00     0.163 HD
ATOM     30  O   UNL A   1      37.452  23.062  25.223  1.00  0.00    -0.269 OA
BRANCH  28  31
ATOM     31  C   UNL A   1      39.070  24.183  26.506  1.00  0.00     0.039 A 
ATOM     32  C   UNL A   1      38.611  24.419  27.805  1.00  0.00     0.014 A 
ATOM     33  C   UNL A   1      39.962  25.089  25.920  1.00  0.00     0.014 A 
ATOM     34  C   UNL A   1      39.065  25.529  28.523  1.00  0.00     0.010 A 
ATOM     35  C   UNL A   1      40.468  26.163  26.665  1.00  0.00     0.010 A 
ATOM     36  C   UNL A   1      40.014  26.406  27.971  1.00  0.00    -0.014 A 
BRANCH  36  37
ATOM     37  C   UNL A   1      40.496  27.572  28.768  1.00  0.00     0.031 A 
ATOM     38  C   UNL A   1      41.897  27.608  29.323  1.00  0.00     0.074 A 
ATOM     39  C   UNL A   1      39.680  28.629  28.968  1.00  0.00     0.049 A 
ATOM     40  N   UNL A   1      42.522  28.594  29.920  1.00  0.00    -0.248 NA
ATOM     41  C   UNL A   1      42.697  26.379  29.208  1.00  0.00     0.031 C 
ATOM     42  C   UNL A   1      38.284  28.712  28.532  1.00  0.00     0.029 A 
ATOM     43  N   UNL A   1      39.910  29.843  29.569  1.00  0.00    -0.354 N 
ATOM     44  C   UNL A   1      43.784  28.107  30.245  1.00  0.00     0.074 A 
ATOM     45  C   UNL A   1      43.815  26.720  29.834  1.00  0.00     0.031 C 
ATOM     46  C   UNL A   1      37.800  29.927  28.835  1.00  0.00     0.029 A 
ATOM     47  C   UNL A   1      38.837  30.703  29.509  1.00  0.00     0.049 A 
ATOM     48  H   UNL A   1      40.763  30.076  30.002  1.00  0.00     0.167 HD
ATOM     49  C   UNL A   1      44.831  28.756  30.812  1.00  0.00     0.031 A 
ATOM     50  C   UNL A   1      38.703  31.977  29.931  1.00  0.00     0.031 A 
ATOM     51  C   UNL A   1      44.804  30.134  31.227  1.00  0.00     0.049 A 
ATOM     52  C   UNL A   1      39.878  32.677  30.558  1.00  0.00     0.074 A 
ATOM     53  C   UNL A   1      45.833  30.892  31.761  1.00  0.00     0.029 A 
ATOM     54  N   UNL A   1      43.694  30.961  31.162  1.00  0.00    -0.354 N 
ATOM     55  N   UNL A   1      41.090  32.224  30.773  1.00  0.00    -0.248 NA
ATOM     56  C   UNL A   1      39.672  34.070  30.982  1.00  0.00     0.031 C 
ATOM     57  C   UNL A   1      45.328  32.159  32.072  1.00  0.00     0.029 A 
ATOM     58  C   UNL A   1      44.004  32.212  31.672  1.00  0.00     0.049 A 
ATOM     59  H   UNL A   1      42.813  30.699  30.806  1.00  0.00     0.167 HD
ATOM     60  C   UNL A   1      41.796  33.283  31.333  1.00  0.00     0.074 A 
ATOM     61  C   UNL A   1      40.883  34.404  31.405  1.00  0.00     0.031 C 
ATOM     62  C   UNL A   1      43.087  33.323  31.749  1.00  0.00     0.031 A 
BRANCH  49  63
ATOM     63  C   UNL A   1      46.104  27.975  31.022  1.00  0.00    -0.014 A 
ATOM     64  C   UNL A   1      46.316  27.233  32.198  1.00  0.00     0.010 A 
ATOM     65  C   UNL A   1      47.081  27.940  30.009  1.00  0.00     0.010 A 
ATOM     66  C   UNL A   1      47.497  26.509  32.378  1.00  0.00     0.020 A 
ATOM     67  C   UNL A   1      48.252  27.192  30.172  1.00  0.00     0.020 A 
ATOM     68  C   UNL A   1      48.460  26.495  31.364  1.00  0.00     0.054 A 
BRANCH  68  69
ATOM     69  S   UNL A   1      49.974  25.528  31.616  1.00  0.00     0.124 S 
ATOM     70  O   UNL A   1      50.173  24.933  30.295  1.00  0.00    -0.237 OA
ATOM     71  O   UNL A   1      50.947  26.547  31.997  1.00  0.00    -0.237 OA
ATOM     72  O   UNL A   1      49.614  24.587  32.674  1.00  0.00    -0.744 OA
ENDBRANCH  68  69
ENDBRANCH  49  63
BRANCH  50  73
ATOM     73  C   UNL A   1      37.405  32.687  29.746  1.00  0.00    -0.014 A 
ATOM     74  C   UNL A   1      37.134  33.394  28.562  1.00  0.00     0.010 A 
ATOM     75  C   UNL A   1      36.429  32.654  30.760  1.00  0.00     0.010 A 
ATOM     76  C   UNL A   1      35.921  34.070  28.401  1.00  0.00     0.020 A 
ATOM     77  C   UNL A   1      35.204  33.303  30.590  1.00  0.00     0.020 A 
ATOM     78  C   UNL A   1      34.961  34.018  29.416  1.00  0.00     0.054 A 
BRANCH  78  79
ATOM     79  S   UNL A   1      33.371  34.857  29.165  1.00  0.00     0.124 S 
ATOM     80  O   UNL A   1      33.786  36.123  28.571  1.00  0.00    -0.237 OA
ATOM     81  O   UNL A   1      32.667  33.938  28.274  1.00  0.00    -0.237 OA
ATOM     82  O   UNL A   1      32.818  34.949  30.514  1.00  0.00    -0.744 OA
ENDBRANCH  78  79
ENDBRANCH  50  73
BRANCH  62  83
ATOM     83  C   UNL A   1      43.602  34.629  32.295  1.00  0.00    -0.014 A 
ATOM     84  C   UNL A   1      43.539  34.924  33.668  1.00  0.00     0.010 A 
ATOM     85  C   UNL A   1      44.195  35.562  31.423  1.00  0.00     0.010 A 
ATOM     86  C   UNL A   1      44.022  36.143  34.154  1.00  0.00     0.020 A 
ATOM     87  C   UNL A   1      44.705  36.769  31.908  1.00  0.00     0.020 A 
ATOM     88  C   UNL A   1      44.599  37.059  33.269  1.00  0.00     0.054 A 
BRANCH  88  89
ATOM     89  S   UNL A   1      45.242  38.623  33.927  1.00  0.00     0.124 S 
ATOM     90  O   UNL A   1      46.090  38.165  35.025  1.00  0.00    -0.237 OA
ATOM     91  O   UNL A   1      45.949  39.188  32.781  1.00  0.00    -0.237 OA
ATOM     92  O   UNL A   1      44.041  39.350  34.330  1.00  0.00    -0.744 OA
ENDBRANCH  88  89
ENDBRANCH  62  83
ENDBRANCH  36  37
ENDBRANCH  28  31
ENDBRANCH  26  27
ENDBRANCH  25  26
ENDBRANCH   1  25
TORSDOF 19
ENDMDL
MODEL 3
REMARK VINA RESULT:      -9.4      4.250     10.457
REMARK SMILES [NH3+][C@H](CC(F)(F)C(F)(F)C(F)(F)C(F)(F)Cl)C(=O)NCCCNC(=O)c1ccc(-c2c3nc(c(-c4ccc(S(=O)(=O)[O-])cc4)c4ccc([nH]4)c(-c4ccc(S(=O)(=O)[O-])cc4)c4nc(c(-c5ccc(S(=O)(=O)[O-])cc5)c5ccc2[nH]5)C=C4)C=C3)cc1
REMARK SMILES IDX 20 1 19 2 17 3 18 4 2 6 1 7 3 11 4 12 5 13 6 14 7 15 8 16
REMARK SMILES IDX 9 17 10 18 11 19 12 20 13 21 14 22 15 23 16 24 21 25 22 26
REMARK SMILES IDX 23 27 24 28 25 30 26 31 27 32 85 33 28 34 84 35 29 36 30 37
REMARK SMILES IDX 31 38 78 39 32 40 83 41 77 42 79 43 33 44 82 45 76 46 75 47
REMARK SMILES IDX 34 49 64 50 45 51 63 52 46 53 49 54 62 55 80 56 47 57 48 58
REMARK SMILES IDX 61 60 81 61 50 62 35 63 36 64 44 65 37 66 43 67 38 68 39 69
REMARK SMILES IDX 40 70 41 71 42 72 65 73 66 74 74 75 67 76 73 77 68 78 69 79
REMARK SMILES IDX 70 80 71 81 72 82 51 83 52 84 60 85 53 86 59 87 54 88 55 89
REMARK SMILES IDX 56 90 57 91 58 92
REMARK H PARENT 19 5 1 8 1 9 1 10 23 29 79 48 49 59
REMARK Flexibility Score: inf
ROOT
ATOM      1  C   UNL A   1      34.625  23.006  24.240  1.00  0.00     0.118 C 
ENDROOT
BRANCH   1   2
ATOM      2  N   UNL A   1      34.126  23.272  22.897  1.00  0.00    -0.351 N 
ATOM      3  C   UNL A   1      33.166  24.073  22.374  1.00  0.00     0.278 C 
ATOM      4  O   UNL A   1      33.220  24.219  21.146  1.00  0.00    -0.268 OA
ATOM      5  H   UNL A   1      34.596  22.746  22.210  1.00  0.00     0.163 HD
BRANCH   3   6
ATOM      6  C   UNL A   1      32.005  24.736  23.161  1.00  0.00     0.277 C 
BRANCH   6   7
ATOM      7  N   UNL A   1      30.696  24.153  22.794  1.00  0.00    -0.347 N 
ATOM      8  H   UNL A   1      30.027  24.318  23.546  1.00  0.00     0.345 HD
ATOM      9  H   UNL A   1      30.798  23.149  22.645  1.00  0.00     0.345 HD
ATOM     10  H   UNL A   1      30.357  24.590  21.936  1.00  0.00     0.345 HD
ENDBRANCH   6   7
BRANCH   6  11
ATOM     11  C   UNL A   1      31.974  26.270  23.363  1.00  0.00     0.159 C 
BRANCH  11  12
ATOM     12  C   UNL A   1      32.790  26.878  24.494  1.00  0.00     0.323 C 
ATOM     13  F   UNL A   1      32.787  25.970  25.495  1.00  0.00    -0.199 F 
ATOM     14  F   UNL A   1      34.096  26.914  24.081  1.00  0.00    -0.199 F 
BRANCH  12  15
ATOM     15  C   UNL A   1      32.401  28.283  24.968  1.00  0.00     0.379 C 
ATOM     16  F   UNL A   1      32.423  29.142  23.910  1.00  0.00    -0.192 F 
ATOM     17  F   UNL A   1      31.112  28.296  25.388  1.00  0.00    -0.192 F 
BRANCH  15  18
ATOM     18  C   UNL A   1      33.323  28.747  26.073  1.00  0.00     0.392 C 
ATOM     19  F   UNL A   1      33.531  27.724  26.954  1.00  0.00    -0.191 F 
ATOM     20  F   UNL A   1      34.552  29.053  25.573  1.00  0.00    -0.191 F 
BRANCH  18  21
ATOM     21  C   UNL A   1      32.733  29.922  26.833  1.00  0.00     0.390 C 
ATOM     22  F   UNL A   1      32.142  30.808  25.995  1.00  0.00    -0.181 F 
ATOM     23  F   UNL A   1      31.772  29.508  27.698  1.00  0.00    -0.181 F 
ATOM     24  Cl  UNL A   1      33.988  30.773  27.780  1.00  0.00    -0.041 Cl
ENDBRANCH  18  21
ENDBRANCH  15  18
ENDBRANCH  12  15
ENDBRANCH  11  12
ENDBRANCH   6  11
ENDBRANCH   3   6
ENDBRANCH   1   2
BRANCH   1  25
ATOM     25  C   UNL A   1      35.618  24.030  24.804  1.00  0.00     0.042 C 
BRANCH  25  26
ATOM     26  C   UNL A   1      36.325  23.681  26.111  1.00  0.00     0.118 C 
BRANCH  26  27
ATOM     27  N   UNL A   1      37.441  22.776  25.943  1.00  0.00    -0.352 N 
ATOM     28  C   UNL A   1      38.772  22.966  26.238  1.00  0.00     0.251 C 
ATOM     29  H   UNL A   1      37.216  21.896  25.565  1.00  0.00     0.163 HD
ATOM     30  O   UNL A   1      39.577  22.093  25.932  1.00  0.00    -0.269 OA
BRANCH  28  31
ATOM     31  C   UNL A   1      39.254  24.220  26.876  1.00  0.00     0.039 A 
ATOM     32  C   UNL A   1      38.922  24.438  28.216  1.00  0.00     0.014 A 
ATOM     33  C   UNL A   1      39.975  25.198  26.181  1.00  0.00     0.014 A 
ATOM     34  C   UNL A   1      39.336  25.607  28.864  1.00  0.00     0.010 A 
ATOM     35  C   UNL A   1      40.447  26.336  26.850  1.00  0.00     0.010 A 
ATOM     36  C   UNL A   1      40.120  26.563  28.195  1.00  0.00    -0.014 A 
BRANCH  36  37
ATOM     37  C   UNL A   1      40.564  27.791  28.918  1.00  0.00     0.031 A 
ATOM     38  C   UNL A   1      41.968  27.911  29.455  1.00  0.00     0.074 A 
ATOM     39  C   UNL A   1      39.711  28.826  29.065  1.00  0.00     0.049 A 
ATOM     40  N   UNL A   1      42.560  28.953  29.987  1.00  0.00    -0.248 NA
ATOM     41  C   UNL A   1      42.812  26.708  29.404  1.00  0.00     0.031 C 
ATOM     42  C   UNL A   1      38.309  28.832  28.639  1.00  0.00     0.029 A 
ATOM     43  N   UNL A   1      39.900  30.082  29.591  1.00  0.00    -0.354 N 
ATOM     44  C   UNL A   1      43.842  28.533  30.327  1.00  0.00     0.074 A 
ATOM     45  C   UNL A   1      43.922  27.127  29.998  1.00  0.00     0.031 C 
ATOM     46  C   UNL A   1      37.782  30.044  28.875  1.00  0.00     0.029 A 
ATOM     47  C   UNL A   1      38.795  30.896  29.491  1.00  0.00     0.049 A 
ATOM     48  H   UNL A   1      40.747  30.371  30.001  1.00  0.00     0.167 HD
ATOM     49  C   UNL A   1      44.868  29.253  30.844  1.00  0.00     0.031 A 
ATOM     50  C   UNL A   1      38.616  32.187  29.840  1.00  0.00     0.031 A 
ATOM     51  C   UNL A   1      44.793  30.651  31.178  1.00  0.00     0.049 A 
ATOM     52  C   UNL A   1      39.770  32.966  30.412  1.00  0.00     0.074 A 
ATOM     53  C   UNL A   1      45.797  31.477  31.655  1.00  0.00     0.029 A 
ATOM     54  N   UNL A   1      43.652  31.431  31.076  1.00  0.00    -0.354 N 
ATOM     55  N   UNL A   1      40.999  32.571  30.641  1.00  0.00    -0.248 NA
ATOM     56  C   UNL A   1      39.514  34.372  30.756  1.00  0.00     0.031 C 
ATOM     57  C   UNL A   1      45.248  32.740  31.897  1.00  0.00     0.029 A 
ATOM     58  C   UNL A   1      43.919  32.721  31.509  1.00  0.00     0.049 A 
ATOM     59  H   UNL A   1      42.779  31.116  30.746  1.00  0.00     0.167 HD
ATOM     60  C   UNL A   1      41.670  33.687  31.130  1.00  0.00     0.074 A 
ATOM     61  C   UNL A   1      40.715  34.776  31.146  1.00  0.00     0.031 C 
ATOM     62  C   UNL A   1      42.962  33.799  31.530  1.00  0.00     0.031 A 
BRANCH  49  63
ATOM     63  C   UNL A   1      46.172  28.533  31.086  1.00  0.00    -0.014 A 
ATOM     64  C   UNL A   1      46.414  27.855  32.294  1.00  0.00     0.010 A 
ATOM     65  C   UNL A   1      47.149  28.491  30.074  1.00  0.00     0.010 A 
ATOM     66  C   UNL A   1      47.623  27.187  32.504  1.00  0.00     0.020 A 
ATOM     67  C   UNL A   1      48.349  27.799  30.267  1.00  0.00     0.020 A 
ATOM     68  C   UNL A   1      48.585  27.165  31.489  1.00  0.00     0.054 A 
BRANCH  68  69
ATOM     69  S   UNL A   1      50.136  26.271  31.781  1.00  0.00     0.124 S 
ATOM     70  O   UNL A   1      50.491  25.837  30.431  1.00  0.00    -0.237 OA
ATOM     71  O   UNL A   1      50.998  27.301  32.355  1.00  0.00    -0.237 OA
ATOM     72  O   UNL A   1      49.753  25.201  32.698  1.00  0.00    -0.744 OA
ENDBRANCH  68  69
ENDBRANCH  49  63
BRANCH  50  73
ATOM     73  C   UNL A   1      37.291  32.837  29.627  1.00  0.00    -0.014 A 
ATOM     74  C   UNL A   1      36.926  33.328  28.362  1.00  0.00     0.010 A 
ATOM     75  C   UNL A   1      36.385  32.961  30.696  1.00  0.00     0.010 A 
ATOM     76  C   UNL A   1      35.687  33.949  28.172  1.00  0.00     0.020 A 
ATOM     77  C   UNL A   1      35.134  33.554  30.504  1.00  0.00     0.020 A 
ATOM     78  C   UNL A   1      34.797  34.056  29.245  1.00  0.00     0.054 A 
BRANCH  78  79
ATOM     79  S   UNL A   1      33.174  34.817  28.966  1.00  0.00     0.124 S 
ATOM     80  O   UNL A   1      32.594  33.934  27.959  1.00  0.00    -0.237 OA
ATOM     81  O   UNL A   1      32.563  34.755  30.291  1.00  0.00    -0.237 OA
ATOM     82  O   UNL A   1      33.503  36.164  28.504  1.00  0.00    -0.744 OA
ENDBRANCH  78  79
ENDBRANCH  50  73
BRANCH  62  83
ATOM     83  C   UNL A   1      43.432  35.154  31.993  1.00  0.00    -0.014 A 
ATOM     84  C   UNL A   1      43.977  36.087  31.094  1.00  0.00     0.010 A 
ATOM     85  C   UNL A   1      43.288  35.514  33.346  1.00  0.00     0.010 A 
ATOM     86  C   UNL A   1      44.408  37.338  31.545  1.00  0.00     0.020 A 
ATOM     87  C   UNL A   1      43.690  36.774  33.797  1.00  0.00     0.020 A 
ATOM     88  C   UNL A   1      44.264  37.671  32.896  1.00  0.00     0.054 A 
BRANCH  88  89
ATOM     89  S   UNL A   1      44.806  39.311  33.453  1.00  0.00     0.124 S 
ATOM     90  O   UNL A   1      44.628  40.116  32.247  1.00  0.00    -0.237 OA
ATOM     91  O   UNL A   1      43.881  39.603  34.544  1.00  0.00    -0.237 OA
ATOM     92  O   UNL A   1      46.193  39.099  33.860  1.00  0.00    -0.744 OA
ENDBRANCH  88  89
ENDBRANCH  62  83
ENDBRANCH  36  37
ENDBRANCH  28  31
ENDBRANCH  26  27
ENDBRANCH  25  26
ENDBRANCH   1  25
TORSDOF 19
ENDMDL
