MODEL 1
REMARK VINA RESULT:     -12.2      0.000      0.000
REMARK SMILES O=C(C[C@H]1CN(S(=O)(=O)c2cc(F)cc(F)c2)CCO1)NCCCNC(=O)c1ccc(-c2c3nc(c(-c4ccc(S(=O)(=O)[O-])cc4)c4ccc([nH]4)c(-c4ccc(S(=O)(=O)[O-])cc4)c4nc(c(-c5ccc(S(=O)(=O)[O-])cc5)c5ccc2[nH]5)C=C4)C=C3)cc1
REMARK SMILES IDX 23 1 22 2 21 3 1 4 2 5 3 7 4 8 5 9 20 10 6 11 19 12 18 13
REMARK SMILES IDX 7 14 8 15 9 16 10 17 11 18 17 19 12 20 15 21 13 22 14 23
REMARK SMILES IDX 16 24 24 25 25 26 26 27 27 29 28 30 29 31 87 32 30 33 86 34
REMARK SMILES IDX 31 35 32 36 33 37 80 38 34 39 85 40 79 41 81 42 35 43 84 44
REMARK SMILES IDX 78 45 77 46 36 48 66 49 47 50 65 51 48 52 51 53 64 54 82 55
REMARK SMILES IDX 49 56 50 57 63 59 83 60 52 61 37 62 38 63 46 64 39 65 45 66
REMARK SMILES IDX 40 67 41 68 42 69 43 70 44 71 67 72 68 73 76 74 69 75 75 76
REMARK SMILES IDX 70 77 71 78 72 79 73 80 74 81 53 82 54 83 62 84 55 85 61 86
REMARK SMILES IDX 56 87 57 88 58 89 59 90 60 91
REMARK H PARENT 21 6 25 28 81 47 51 58
REMARK Flexibility Score: inf
ROOT
ATOM      1  C   UNL A   1      39.673  22.580  26.429  1.00  0.00     0.042 C 
ENDROOT
BRANCH   1   2
ATOM      2  C   UNL A   1      38.459  23.554  26.323  1.00  0.00     0.117 C 
BRANCH   2   3
ATOM      3  N   UNL A   1      37.602  23.269  25.179  1.00  0.00    -0.356 N 
ATOM      4  O   UNL A   1      36.925  21.100  25.479  1.00  0.00    -0.275 OA
ATOM      5  C   UNL A   1      36.805  22.172  24.899  1.00  0.00     0.222 C 
ATOM      6  H   UNL A   1      37.587  23.974  24.492  1.00  0.00     0.163 HD
BRANCH   5   7
ATOM      7  C   UNL A   1      35.767  22.370  23.750  1.00  0.00     0.133 C 
BRANCH   7   8
ATOM      8  C   UNL A   1      35.040  23.725  23.775  1.00  0.00     0.142 C 
ATOM      9  C   UNL A   1      33.697  23.668  23.109  1.00  0.00     0.135 C 
ATOM     10  O   UNL A   1      34.924  24.353  25.067  1.00  0.00    -0.375 OA
ATOM     11  N   UNL A   1      32.624  22.949  23.981  1.00  0.00    -0.193 NA
ATOM     12  C   UNL A   1      33.614  24.522  25.678  1.00  0.00     0.177 C 
ATOM     13  C   UNL A   1      32.322  24.122  24.908  1.00  0.00     0.131 C 
BRANCH  11  14
ATOM     14  S   UNL A   1      32.647  21.495  25.089  1.00  0.00     0.243 S 
ATOM     15  O   UNL A   1      33.666  21.693  26.097  1.00  0.00    -0.207 OA
ATOM     16  O   UNL A   1      31.264  21.375  25.498  1.00  0.00    -0.207 OA
BRANCH  14  17
ATOM     17  C   UNL A   1      33.006  19.883  24.332  1.00  0.00     0.088 A 
ATOM     18  C   UNL A   1      32.339  19.429  23.181  1.00  0.00     0.061 A 
ATOM     19  C   UNL A   1      34.112  19.137  24.770  1.00  0.00     0.061 A 
ATOM     20  C   UNL A   1      32.591  18.147  22.675  1.00  0.00     0.127 A 
ATOM     21  C   UNL A   1      34.374  17.872  24.216  1.00  0.00     0.127 A 
ATOM     22  F   UNL A   1      31.840  17.672  21.672  1.00  0.00    -0.207 F 
ATOM     23  C   UNL A   1      33.586  17.344  23.206  1.00  0.00     0.078 A 
ATOM     24  F   UNL A   1      35.374  17.133  24.710  1.00  0.00    -0.207 F 
ENDBRANCH  14  17
ENDBRANCH  11  14
ENDBRANCH   7   8
ENDBRANCH   5   7
ENDBRANCH   2   3
ENDBRANCH   1   2
BRANCH   1  25
ATOM     25  C   UNL A   1      41.053  23.066  26.931  1.00  0.00     0.118 C 
BRANCH  25  26
ATOM     26  N   UNL A   1      41.641  24.045  26.043  1.00  0.00    -0.352 N 
ATOM     27  C   UNL A   1      41.614  25.416  26.018  1.00  0.00     0.251 C 
ATOM     28  H   UNL A   1      42.163  23.646  25.309  1.00  0.00     0.163 HD
ATOM     29  O   UNL A   1      42.008  25.950  24.979  1.00  0.00    -0.269 OA
BRANCH  27  30
ATOM     30  C   UNL A   1      41.159  26.299  27.137  1.00  0.00     0.039 A 
ATOM     31  C   UNL A   1      41.926  27.451  27.375  1.00  0.00     0.014 A 
ATOM     32  C   UNL A   1      40.166  25.967  28.064  1.00  0.00     0.014 A 
ATOM     33  C   UNL A   1      41.721  28.243  28.515  1.00  0.00     0.010 A 
ATOM     34  C   UNL A   1      39.937  26.789  29.196  1.00  0.00     0.010 A 
ATOM     35  C   UNL A   1      40.720  27.930  29.448  1.00  0.00    -0.014 A 
BRANCH  35  36
ATOM     36  C   UNL A   1      40.528  28.813  30.650  1.00  0.00     0.031 A 
ATOM     37  C   UNL A   1      41.403  28.693  31.881  1.00  0.00     0.074 A 
ATOM     38  C   UNL A   1      39.578  29.774  30.631  1.00  0.00     0.049 A 
ATOM     39  N   UNL A   1      41.416  29.436  32.964  1.00  0.00    -0.248 NA
ATOM     40  C   UNL A   1      42.379  27.596  31.904  1.00  0.00     0.031 C 
ATOM     41  C   UNL A   1      38.641  30.008  29.531  1.00  0.00     0.029 A 
ATOM     42  N   UNL A   1      39.251  30.745  31.552  1.00  0.00    -0.354 N 
ATOM     43  C   UNL A   1      42.390  28.893  33.799  1.00  0.00     0.074 A 
ATOM     44  C   UNL A   1      42.917  27.733  33.109  1.00  0.00     0.031 C 
ATOM     45  C   UNL A   1      37.873  31.070  29.821  1.00  0.00     0.029 A 
ATOM     46  C   UNL A   1      38.234  31.579  31.143  1.00  0.00     0.049 A 
ATOM     47  H   UNL A   1      39.702  30.835  32.422  1.00  0.00     0.167 HD
ATOM     48  C   UNL A   1      42.819  29.319  35.016  1.00  0.00     0.031 A 
ATOM     49  C   UNL A   1      37.652  32.636  31.746  1.00  0.00     0.031 A 
ATOM     50  C   UNL A   1      42.304  30.474  35.711  1.00  0.00     0.049 A 
ATOM     51  C   UNL A   1      38.142  33.090  33.095  1.00  0.00     0.074 A 
ATOM     52  C   UNL A   1      42.714  31.003  36.926  1.00  0.00     0.029 A 
ATOM     53  N   UNL A   1      41.266  31.277  35.264  1.00  0.00    -0.354 N 
ATOM     54  N   UNL A   1      39.105  32.592  33.833  1.00  0.00    -0.248 NA
ATOM     55  C   UNL A   1      37.477  34.261  33.685  1.00  0.00     0.031 C 
ATOM     56  C   UNL A   1      41.889  32.090  37.238  1.00  0.00     0.029 A 
ATOM     57  C   UNL A   1      41.008  32.281  36.187  1.00  0.00     0.049 A 
ATOM     58  H   UNL A   1      40.783  31.154  34.415  1.00  0.00     0.167 HD
ATOM     59  C   UNL A   1      39.179  33.406  34.960  1.00  0.00     0.074 A 
ATOM     60  C   UNL A   1      38.178  34.439  34.796  1.00  0.00     0.031 C 
ATOM     61  C   UNL A   1      40.004  33.303  36.031  1.00  0.00     0.031 A 
BRANCH  48  62
ATOM     62  C   UNL A   1      43.910  28.521  35.695  1.00  0.00    -0.014 A 
ATOM     63  C   UNL A   1      45.270  28.816  35.485  1.00  0.00     0.010 A 
ATOM     64  C   UNL A   1      43.571  27.499  36.603  1.00  0.00     0.010 A 
ATOM     65  C   UNL A   1      46.267  28.074  36.127  1.00  0.00     0.020 A 
ATOM     66  C   UNL A   1      44.564  26.774  37.271  1.00  0.00     0.020 A 
ATOM     67  C   UNL A   1      45.907  27.053  37.012  1.00  0.00     0.054 A 
BRANCH  67  68
ATOM     68  S   UNL A   1      47.222  26.111  37.835  1.00  0.00     0.124 S 
ATOM     69  O   UNL A   1      46.632  24.777  37.913  1.00  0.00    -0.237 OA
ATOM     70  O   UNL A   1      48.343  26.248  36.908  1.00  0.00    -0.237 OA
ATOM     71  O   UNL A   1      47.390  26.792  39.116  1.00  0.00    -0.744 OA
ENDBRANCH  67  68
ENDBRANCH  48  62
BRANCH  49  72
ATOM     72  C   UNL A   1      36.540  33.361  31.065  1.00  0.00    -0.014 A 
ATOM     73  C   UNL A   1      36.735  33.964  29.810  1.00  0.00     0.010 A 
ATOM     74  C   UNL A   1      35.273  33.446  31.672  1.00  0.00     0.010 A 
ATOM     75  C   UNL A   1      35.690  34.650  29.182  1.00  0.00     0.020 A 
ATOM     76  C   UNL A   1      34.218  34.105  31.034  1.00  0.00     0.020 A 
ATOM     77  C   UNL A   1      34.437  34.713  29.797  1.00  0.00     0.054 A 
BRANCH  77  78
ATOM     78  S   UNL A   1      33.080  35.557  28.937  1.00  0.00     0.124 S 
ATOM     79  O   UNL A   1      33.794  36.552  28.143  1.00  0.00    -0.237 OA
ATOM     80  O   UNL A   1      32.460  34.471  28.183  1.00  0.00    -0.237 OA
ATOM     81  O   UNL A   1      32.266  36.092  30.026  1.00  0.00    -0.744 OA
ENDBRANCH  77  78
ENDBRANCH  49  72
BRANCH  61  82
ATOM     82  C   UNL A   1      39.884  34.361  37.102  1.00  0.00    -0.014 A 
ATOM     83  C   UNL A   1      39.079  34.167  38.239  1.00  0.00     0.010 A 
ATOM     84  C   UNL A   1      40.603  35.565  36.973  1.00  0.00     0.010 A 
ATOM     85  C   UNL A   1      38.954  35.177  39.199  1.00  0.00     0.020 A 
ATOM     86  C   UNL A   1      40.504  36.563  37.946  1.00  0.00     0.020 A 
ATOM     87  C   UNL A   1      39.663  36.371  39.043  1.00  0.00     0.054 A 
BRANCH  87  88
ATOM     88  S   UNL A   1      39.490  37.664  40.305  1.00  0.00     0.124 S 
ATOM     89  O   UNL A   1      40.861  38.149  40.435  1.00  0.00    -0.237 OA
ATOM     90  O   UNL A   1      38.549  38.594  39.686  1.00  0.00    -0.237 OA
ATOM     91  O   UNL A   1      38.971  36.945  41.468  1.00  0.00    -0.744 OA
ENDBRANCH  87  88
ENDBRANCH  61  82
ENDBRANCH  35  36
ENDBRANCH  27  30
ENDBRANCH  25  26
ENDBRANCH   1  25
TORSDOF 16
ENDMDL
MODEL 2
REMARK VINA RESULT:     -12.2      4.756      9.626
REMARK SMILES O=C(C[C@H]1CN(S(=O)(=O)c2cc(F)cc(F)c2)CCO1)NCCCNC(=O)c1ccc(-c2c3nc(c(-c4ccc(S(=O)(=O)[O-])cc4)c4ccc([nH]4)c(-c4ccc(S(=O)(=O)[O-])cc4)c4nc(c(-c5ccc(S(=O)(=O)[O-])cc5)c5ccc2[nH]5)C=C4)C=C3)cc1
REMARK SMILES IDX 23 1 22 2 21 3 1 4 2 5 3 7 4 8 5 9 20 10 6 11 19 12 18 13
REMARK SMILES IDX 7 14 8 15 9 16 10 17 11 18 17 19 12 20 15 21 13 22 14 23
REMARK SMILES IDX 16 24 24 25 25 26 26 27 27 29 28 30 29 31 87 32 30 33 86 34
REMARK SMILES IDX 31 35 32 36 33 37 80 38 34 39 85 40 79 41 81 42 35 43 84 44
REMARK SMILES IDX 78 45 77 46 36 48 66 49 47 50 65 51 48 52 51 53 64 54 82 55
REMARK SMILES IDX 49 56 50 57 63 59 83 60 52 61 37 62 38 63 46 64 39 65 45 66
REMARK SMILES IDX 40 67 41 68 42 69 43 70 44 71 67 72 68 73 76 74 69 75 75 76
REMARK SMILES IDX 70 77 71 78 72 79 73 80 74 81 53 82 54 83 62 84 55 85 61 86
REMARK SMILES IDX 56 87 57 88 58 89 59 90 60 91
REMARK H PARENT 21 6 25 28 81 47 51 58
REMARK Flexibility Score: inf
ROOT
ATOM      1  C   UNL A   1      34.097  27.828  26.068  1.00  0.00     0.042 C 
ENDROOT
BRANCH   1   2
ATOM      2  C   UNL A   1      33.575  27.708  24.603  1.00  0.00     0.117 C 
BRANCH   2   3
ATOM      3  N   UNL A   1      33.296  26.332  24.211  1.00  0.00    -0.356 N 
ATOM      4  O   UNL A   1      33.947  26.203  22.017  1.00  0.00    -0.275 OA
ATOM      5  C   UNL A   1      33.608  25.642  23.051  1.00  0.00     0.222 C 
ATOM      6  H   UNL A   1      32.804  25.806  24.882  1.00  0.00     0.163 HD
BRANCH   5   7
ATOM      7  C   UNL A   1      33.452  24.091  23.128  1.00  0.00     0.133 C 
BRANCH   7   8
ATOM      8  C   UNL A   1      32.010  23.607  23.356  1.00  0.00     0.142 C 
ATOM      9  C   UNL A   1      31.950  22.181  23.821  1.00  0.00     0.135 C 
ATOM     10  O   UNL A   1      31.193  24.438  24.204  1.00  0.00    -0.375 OA
ATOM     11  N   UNL A   1      32.360  22.021  25.316  1.00  0.00    -0.193 NA
ATOM     12  C   UNL A   1      30.735  23.935  25.491  1.00  0.00     0.177 C 
ATOM     13  C   UNL A   1      31.034  22.470  25.921  1.00  0.00     0.131 C 
BRANCH  11  14
ATOM     14  S   UNL A   1      33.626  22.797  26.382  1.00  0.00     0.243 S 
ATOM     15  O   UNL A   1      33.452  24.233  26.341  1.00  0.00    -0.207 OA
ATOM     16  O   UNL A   1      33.463  22.102  27.640  1.00  0.00    -0.207 OA
BRANCH  14  17
ATOM     17  C   UNL A   1      35.366  22.496  25.953  1.00  0.00     0.088 A 
ATOM     18  C   UNL A   1      35.801  21.285  25.389  1.00  0.00     0.061 A 
ATOM     19  C   UNL A   1      36.288  23.555  25.993  1.00  0.00     0.061 A 
ATOM     20  C   UNL A   1      37.164  21.066  25.145  1.00  0.00     0.127 A 
ATOM     21  C   UNL A   1      37.642  23.322  25.701  1.00  0.00     0.127 A 
ATOM     22  F   UNL A   1      37.578  19.854  24.750  1.00  0.00    -0.207 F 
ATOM     23  C   UNL A   1      38.100  22.068  25.329  1.00  0.00     0.078 A 
ATOM     24  F   UNL A   1      38.524  24.319  25.836  1.00  0.00    -0.207 F 
ENDBRANCH  14  17
ENDBRANCH  11  14
ENDBRANCH   7   8
ENDBRANCH   5   7
ENDBRANCH   2   3
ENDBRANCH   1   2
BRANCH   1  25
ATOM     25  C   UNL A   1      33.175  28.309  27.213  1.00  0.00     0.118 C 
BRANCH  25  26
ATOM     26  N   UNL A   1      33.358  29.713  27.505  1.00  0.00    -0.352 N 
ATOM     27  C   UNL A   1      34.412  30.430  28.014  1.00  0.00     0.251 C 
ATOM     28  H   UNL A   1      32.569  30.265  27.297  1.00  0.00     0.163 HD
ATOM     29  O   UNL A   1      34.162  31.580  28.379  1.00  0.00    -0.269 OA
BRANCH  27  30
ATOM     30  C   UNL A   1      35.817  29.935  28.151  1.00  0.00     0.039 A 
ATOM     31  C   UNL A   1      36.197  29.478  29.422  1.00  0.00     0.014 A 
ATOM     32  C   UNL A   1      36.812  30.076  27.177  1.00  0.00     0.014 A 
ATOM     33  C   UNL A   1      37.536  29.182  29.723  1.00  0.00     0.010 A 
ATOM     34  C   UNL A   1      38.158  29.742  27.474  1.00  0.00     0.010 A 
ATOM     35  C   UNL A   1      38.543  29.306  28.754  1.00  0.00    -0.014 A 
BRANCH  35  36
ATOM     36  C   UNL A   1      39.963  28.969  29.117  1.00  0.00     0.031 A 
ATOM     37  C   UNL A   1      40.587  27.636  28.759  1.00  0.00     0.074 A 
ATOM     38  C   UNL A   1      40.732  29.887  29.743  1.00  0.00     0.049 A 
ATOM     39  N   UNL A   1      41.823  27.227  28.928  1.00  0.00    -0.248 NA
ATOM     40  C   UNL A   1      39.711  26.630  28.143  1.00  0.00     0.031 C 
ATOM     41  C   UNL A   1      40.277  31.211  30.173  1.00  0.00     0.029 A 
ATOM     42  N   UNL A   1      42.058  29.861  30.112  1.00  0.00    -0.354 N 
ATOM     43  C   UNL A   1      41.872  25.919  28.450  1.00  0.00     0.074 A 
ATOM     44  C   UNL A   1      40.528  25.592  28.021  1.00  0.00     0.031 C 
ATOM     45  C   UNL A   1      41.309  31.880  30.712  1.00  0.00     0.029 A 
ATOM     46  C   UNL A   1      42.495  31.027  30.700  1.00  0.00     0.049 A 
ATOM     47  H   UNL A   1      42.641  29.080  29.969  1.00  0.00     0.167 HD
ATOM     48  C   UNL A   1      42.931  25.072  28.361  1.00  0.00     0.031 A 
ATOM     49  C   UNL A   1      43.706  31.387  31.174  1.00  0.00     0.031 A 
ATOM     50  C   UNL A   1      44.275  25.387  28.783  1.00  0.00     0.049 A 
ATOM     51  C   UNL A   1      44.864  30.430  31.068  1.00  0.00     0.074 A 
ATOM     52  C   UNL A   1      45.415  24.603  28.686  1.00  0.00     0.029 A 
ATOM     53  N   UNL A   1      44.664  26.574  29.385  1.00  0.00    -0.354 N 
ATOM     54  N   UNL A   1      44.892  29.223  30.557  1.00  0.00    -0.248 NA
ATOM     55  C   UNL A   1      46.160  30.895  31.587  1.00  0.00     0.031 C 
ATOM     56  C   UNL A   1      46.479  25.294  29.277  1.00  0.00     0.029 A 
ATOM     57  C   UNL A   1      46.019  26.535  29.684  1.00  0.00     0.049 A 
ATOM     58  H   UNL A   1      44.067  27.334  29.572  1.00  0.00     0.167 HD
ATOM     59  C   UNL A   1      46.213  28.795  30.669  1.00  0.00     0.074 A 
ATOM     60  C   UNL A   1      46.954  29.881  31.275  1.00  0.00     0.031 C 
ATOM     61  C   UNL A   1      46.757  27.610  30.299  1.00  0.00     0.031 A 
BRANCH  48  62
ATOM     62  C   UNL A   1      42.682  23.694  27.788  1.00  0.00    -0.014 A 
ATOM     63  C   UNL A   1      42.803  23.445  26.408  1.00  0.00     0.010 A 
ATOM     64  C   UNL A   1      42.380  22.620  28.647  1.00  0.00     0.010 A 
ATOM     65  C   UNL A   1      42.577  22.163  25.894  1.00  0.00     0.020 A 
ATOM     66  C   UNL A   1      42.183  21.330  28.140  1.00  0.00     0.020 A 
ATOM     67  C   UNL A   1      42.263  21.115  26.763  1.00  0.00     0.054 A 
BRANCH  67  68
ATOM     68  S   UNL A   1      41.980  19.462  26.068  1.00  0.00     0.124 S 
ATOM     69  O   UNL A   1      42.441  18.598  27.152  1.00  0.00    -0.237 OA
ATOM     70  O   UNL A   1      40.539  19.456  25.831  1.00  0.00    -0.237 OA
ATOM     71  O   UNL A   1      42.808  19.445  24.864  1.00  0.00    -0.744 OA
ENDBRANCH  67  68
ENDBRANCH  48  62
BRANCH  49  72
ATOM     72  C   UNL A   1      43.895  32.735  31.785  1.00  0.00    -0.014 A 
ATOM     73  C   UNL A   1      43.675  32.940  33.159  1.00  0.00     0.010 A 
ATOM     74  C   UNL A   1      44.301  33.822  30.990  1.00  0.00     0.010 A 
ATOM     75  C   UNL A   1      43.845  34.209  33.723  1.00  0.00     0.020 A 
ATOM     76  C   UNL A   1      44.502  35.085  31.556  1.00  0.00     0.020 A 
ATOM     77  C   UNL A   1      44.261  35.273  32.918  1.00  0.00     0.054 A 
BRANCH  77  78
ATOM     78  S   UNL A   1      44.533  36.896  33.682  1.00  0.00     0.124 S 
ATOM     79  O   UNL A   1      44.445  36.582  35.104  1.00  0.00    -0.237 OA
ATOM     80  O   UNL A   1      45.861  37.257  33.193  1.00  0.00    -0.237 OA
ATOM     81  O   UNL A   1      43.441  37.710  33.152  1.00  0.00    -0.744 OA
ENDBRANCH  77  78
ENDBRANCH  49  72
BRANCH  61  82
ATOM     82  C   UNL A   1      48.241  27.433  30.509  1.00  0.00    -0.014 A 
ATOM     83  C   UNL A   1      48.754  26.873  31.692  1.00  0.00     0.010 A 
ATOM     84  C   UNL A   1      49.137  27.823  29.495  1.00  0.00     0.010 A 
ATOM     85  C   UNL A   1      50.136  26.754  31.880  1.00  0.00     0.020 A 
ATOM     86  C   UNL A   1      50.517  27.677  29.666  1.00  0.00     0.020 A 
ATOM     87  C   UNL A   1      51.009  27.163  30.867  1.00  0.00     0.054 A 
BRANCH  87  88
ATOM     88  S   UNL A   1      52.796  26.993  31.130  1.00  0.00     0.124 S 
ATOM     89  O   UNL A   1      53.161  28.320  31.615  1.00  0.00    -0.237 OA
ATOM     90  O   UNL A   1      52.875  25.919  32.116  1.00  0.00    -0.237 OA
ATOM     91  O   UNL A   1      53.310  26.651  29.804  1.00  0.00    -0.744 OA
ENDBRANCH  87  88
ENDBRANCH  61  82
ENDBRANCH  35  36
ENDBRANCH  27  30
ENDBRANCH  25  26
ENDBRANCH   1  25
TORSDOF 16
ENDMDL
MODEL 3
REMARK VINA RESULT:     -12.1      4.603     10.171
REMARK SMILES O=C(C[C@H]1CN(S(=O)(=O)c2cc(F)cc(F)c2)CCO1)NCCCNC(=O)c1ccc(-c2c3nc(c(-c4ccc(S(=O)(=O)[O-])cc4)c4ccc([nH]4)c(-c4ccc(S(=O)(=O)[O-])cc4)c4nc(c(-c5ccc(S(=O)(=O)[O-])cc5)c5ccc2[nH]5)C=C4)C=C3)cc1
REMARK SMILES IDX 23 1 22 2 21 3 1 4 2 5 3 7 4 8 5 9 20 10 6 11 19 12 18 13
REMARK SMILES IDX 7 14 8 15 9 16 10 17 11 18 17 19 12 20 15 21 13 22 14 23
REMARK SMILES IDX 16 24 24 25 25 26 26 27 27 29 28 30 29 31 87 32 30 33 86 34
REMARK SMILES IDX 31 35 32 36 33 37 80 38 34 39 85 40 79 41 81 42 35 43 84 44
REMARK SMILES IDX 78 45 77 46 36 48 66 49 47 50 65 51 48 52 51 53 64 54 82 55
REMARK SMILES IDX 49 56 50 57 63 59 83 60 52 61 37 62 38 63 46 64 39 65 45 66
REMARK SMILES IDX 40 67 41 68 42 69 43 70 44 71 67 72 68 73 76 74 69 75 75 76
REMARK SMILES IDX 70 77 71 78 72 79 73 80 74 81 53 82 54 83 62 84 55 85 61 86
REMARK SMILES IDX 56 87 57 88 58 89 59 90 60 91
REMARK H PARENT 21 6 25 28 81 47 51 58
REMARK Flexibility Score: inf
ROOT
ATOM      1  C   UNL A   1      32.934  28.626  25.520  1.00  0.00     0.042 C 
ENDROOT
BRANCH   1   2
ATOM      2  C   UNL A   1      33.923  27.925  24.539  1.00  0.00     0.117 C 
BRANCH   2   3
ATOM      3  N   UNL A   1      33.523  26.563  24.205  1.00  0.00    -0.356 N 
ATOM      4  O   UNL A   1      33.880  26.384  21.949  1.00  0.00    -0.275 OA
ATOM      5  C   UNL A   1      33.647  25.850  23.025  1.00  0.00     0.222 C 
ATOM      6  H   UNL A   1      33.094  26.070  24.941  1.00  0.00     0.163 HD
BRANCH   5   7
ATOM      7  C   UNL A   1      33.419  24.310  23.143  1.00  0.00     0.133 C 
BRANCH   7   8
ATOM      8  C   UNL A   1      31.957  23.899  23.383  1.00  0.00     0.142 C 
ATOM      9  C   UNL A   1      31.830  22.481  23.859  1.00  0.00     0.135 C 
ATOM     10  O   UNL A   1      31.188  24.775  24.230  1.00  0.00    -0.375 OA
ATOM     11  N   UNL A   1      32.242  22.311  25.353  1.00  0.00    -0.193 NA
ATOM     12  C   UNL A   1      30.714  24.305  25.524  1.00  0.00     0.177 C 
ATOM     13  C   UNL A   1      30.944  22.829  25.963  1.00  0.00     0.131 C 
BRANCH  11  14
ATOM     14  S   UNL A   1      33.551  23.031  26.405  1.00  0.00     0.243 S 
ATOM     15  O   UNL A   1      33.465  24.474  26.335  1.00  0.00    -0.207 OA
ATOM     16  O   UNL A   1      33.346  22.373  27.677  1.00  0.00    -0.207 OA
BRANCH  14  17
ATOM     17  C   UNL A   1      35.270  22.618  25.986  1.00  0.00     0.088 A 
ATOM     18  C   UNL A   1      35.635  21.365  25.462  1.00  0.00     0.061 A 
ATOM     19  C   UNL A   1      36.251  23.623  25.989  1.00  0.00     0.061 A 
ATOM     20  C   UNL A   1      36.982  21.060  25.226  1.00  0.00     0.127 A 
ATOM     21  C   UNL A   1      37.589  23.303  25.705  1.00  0.00     0.127 A 
ATOM     22  F   UNL A   1      37.325  19.814  24.872  1.00  0.00    -0.207 F 
ATOM     23  C   UNL A   1      37.974  22.013  25.376  1.00  0.00     0.078 A 
ATOM     24  F   UNL A   1      38.527  24.252  25.805  1.00  0.00    -0.207 F 
ENDBRANCH  14  17
ENDBRANCH  11  14
ENDBRANCH   7   8
ENDBRANCH   5   7
ENDBRANCH   2   3
ENDBRANCH   1   2
BRANCH   1  25
ATOM     25  C   UNL A   1      33.174  28.619  27.048  1.00  0.00     0.118 C 
BRANCH  25  26
ATOM     26  N   UNL A   1      33.371  29.951  27.573  1.00  0.00    -0.352 N 
ATOM     27  C   UNL A   1      34.427  30.559  28.204  1.00  0.00     0.251 C 
ATOM     28  H   UNL A   1      32.590  30.540  27.455  1.00  0.00     0.163 HD
ATOM     29  O   UNL A   1      34.187  31.634  28.756  1.00  0.00    -0.269 OA
BRANCH  27  30
ATOM     30  C   UNL A   1      35.825  30.030  28.266  1.00  0.00     0.039 A 
ATOM     31  C   UNL A   1      36.288  29.637  29.532  1.00  0.00     0.014 A 
ATOM     32  C   UNL A   1      36.747  30.082  27.216  1.00  0.00     0.014 A 
ATOM     33  C   UNL A   1      37.638  29.319  29.751  1.00  0.00     0.010 A 
ATOM     34  C   UNL A   1      38.103  29.726  27.431  1.00  0.00     0.010 A 
ATOM     35  C   UNL A   1      38.572  29.354  28.705  1.00  0.00    -0.014 A 
BRANCH  35  36
ATOM     36  C   UNL A   1      40.006  28.996  28.981  1.00  0.00     0.031 A 
ATOM     37  C   UNL A   1      40.952  29.952  29.677  1.00  0.00     0.074 A 
ATOM     38  C   UNL A   1      40.469  27.772  28.643  1.00  0.00     0.049 A 
ATOM     39  N   UNL A   1      42.193  29.759  30.061  1.00  0.00    -0.248 NA
ATOM     40  C   UNL A   1      40.445  31.300  29.970  1.00  0.00     0.031 C 
ATOM     41  C   UNL A   1      39.691  26.742  27.950  1.00  0.00     0.029 A 
ATOM     42  N   UNL A   1      41.693  27.176  28.847  1.00  0.00    -0.354 N 
ATOM     43  C   UNL A   1      42.618  30.957  30.630  1.00  0.00     0.074 A 
ATOM     44  C   UNL A   1      41.511  31.884  30.503  1.00  0.00     0.031 C 
ATOM     45  C   UNL A   1      40.440  25.635  27.820  1.00  0.00     0.029 A 
ATOM     46  C   UNL A   1      41.765  25.880  28.387  1.00  0.00     0.049 A 
ATOM     47  H   UNL A   1      42.448  27.634  29.282  1.00  0.00     0.167 HD
ATOM     48  C   UNL A   1      43.806  31.261  31.215  1.00  0.00     0.031 A 
ATOM     49  C   UNL A   1      42.768  24.979  28.415  1.00  0.00     0.031 A 
ATOM     50  C   UNL A   1      44.915  30.347  31.349  1.00  0.00     0.049 A 
ATOM     51  C   UNL A   1      44.077  25.338  29.066  1.00  0.00     0.074 A 
ATOM     52  C   UNL A   1      46.137  30.559  31.969  1.00  0.00     0.029 A 
ATOM     53  N   UNL A   1      44.945  29.052  30.856  1.00  0.00    -0.354 N 
ATOM     54  N   UNL A   1      44.428  26.459  29.648  1.00  0.00    -0.248 NA
ATOM     55  C   UNL A   1      45.121  24.301  29.079  1.00  0.00     0.031 C 
ATOM     56  C   UNL A   1      46.924  29.414  31.802  1.00  0.00     0.029 A 
ATOM     57  C   UNL A   1      46.169  28.462  31.136  1.00  0.00     0.049 A 
ATOM     58  H   UNL A   1      44.204  28.613  30.376  1.00  0.00     0.167 HD
ATOM     59  C   UNL A   1      45.722  26.252  30.120  1.00  0.00     0.074 A 
ATOM     60  C   UNL A   1      46.081  24.893  29.774  1.00  0.00     0.031 C 
ATOM     61  C   UNL A   1      46.534  27.113  30.782  1.00  0.00     0.031 A 
BRANCH  48  62
ATOM     62  C   UNL A   1      43.985  32.663  31.757  1.00  0.00    -0.014 A 
ATOM     63  C   UNL A   1      43.613  32.988  33.074  1.00  0.00     0.010 A 
ATOM     64  C   UNL A   1      44.586  33.654  30.957  1.00  0.00     0.010 A 
ATOM     65  C   UNL A   1      43.791  34.288  33.563  1.00  0.00     0.020 A 
ATOM     66  C   UNL A   1      44.795  34.946  31.453  1.00  0.00     0.020 A 
ATOM     67  C   UNL A   1      44.376  35.259  32.747  1.00  0.00     0.054 A 
BRANCH  67  68
ATOM     68  S   UNL A   1      44.600  36.934  33.410  1.00  0.00     0.124 S 
ATOM     69  O   UNL A   1      46.000  36.906  33.829  1.00  0.00    -0.237 OA
ATOM     70  O   UNL A   1      44.308  37.778  32.255  1.00  0.00    -0.237 OA
ATOM     71  O   UNL A   1      43.627  37.011  34.497  1.00  0.00    -0.744 OA
ENDBRANCH  67  68
ENDBRANCH  48  62
BRANCH  49  72
ATOM     72  C   UNL A   1      42.570  23.626  27.818  1.00  0.00    -0.014 A 
ATOM     73  C   UNL A   1      42.911  23.374  26.477  1.00  0.00     0.010 A 
ATOM     74  C   UNL A   1      42.039  22.579  28.594  1.00  0.00     0.010 A 
ATOM     75  C   UNL A   1      42.713  22.105  25.921  1.00  0.00     0.020 A 
ATOM     76  C   UNL A   1      41.868  21.303  28.051  1.00  0.00     0.020 A 
ATOM     77  C   UNL A   1      42.196  21.076  26.713  1.00  0.00     0.054 A 
BRANCH  77  78
ATOM     78  S   UNL A   1      42.004  19.425  25.988  1.00  0.00     0.124 S 
ATOM     79  O   UNL A   1      42.832  19.519  24.790  1.00  0.00    -0.237 OA
ATOM     80  O   UNL A   1      42.514  18.554  27.044  1.00  0.00    -0.237 OA
ATOM     81  O   UNL A   1      40.566  19.322  25.748  1.00  0.00    -0.744 OA
ENDBRANCH  77  78
ENDBRANCH  49  72
BRANCH  61  82
ATOM     82  C   UNL A   1      47.887  26.600  31.209  1.00  0.00    -0.014 A 
ATOM     83  C   UNL A   1      48.076  25.969  32.452  1.00  0.00     0.010 A 
ATOM     84  C   UNL A   1      48.988  26.738  30.341  1.00  0.00     0.010 A 
ATOM     85  C   UNL A   1      49.347  25.535  32.842  1.00  0.00     0.020 A 
ATOM     86  C   UNL A   1      50.254  26.278  30.715  1.00  0.00     0.020 A 
ATOM     87  C   UNL A   1      50.430  25.698  31.972  1.00  0.00     0.054 A 
BRANCH  87  88
ATOM     88  S   UNL A   1      52.068  25.121  32.496  1.00  0.00     0.124 S 
ATOM     89  O   UNL A   1      52.223  25.777  33.791  1.00  0.00    -0.237 OA
ATOM     90  O   UNL A   1      51.899  23.671  32.543  1.00  0.00    -0.237 OA
ATOM     91  O   UNL A   1      52.960  25.604  31.443  1.00  0.00    -0.744 OA
ENDBRANCH  87  88
ENDBRANCH  61  82
ENDBRANCH  35  36
ENDBRANCH  27  30
ENDBRANCH  25  26
ENDBRANCH   1  25
TORSDOF 16
ENDMDL
