MODEL 1
REMARK VINA RESULT:     -12.0      0.000      0.000
REMARK SMILES O=C(CNC(=O)[C@@H](CC1=c2ccccc2=NC1)N1C(=O)N=C2C=CC=C[C@@H]2C1=O)NCCCNC(=O)c1ccc(-c2c3nc(c(-c4ccc(S(=O)(=O)[O-])cc4)c4ccc([nH]4)c(-c4ccc(S(=O)(=O)[O-])cc4)c4nc(c(-c5ccc(S(=O)(=O)[O-])cc5)c5ccc2[nH]5)C=C4)C=C3)cc1
REMARK SMILES IDX 31 1 30 2 1 3 2 4 3 6 4 7 5 8 6 10 7 11 8 12 9 13 10 14
REMARK SMILES IDX 17 15 11 16 15 17 16 18 12 19 14 20 13 21 18 22 19 23 28 24
REMARK SMILES IDX 21 25 20 26 27 27 29 28 22 29 26 30 23 31 25 32 24 33 32 34
REMARK SMILES IDX 33 35 34 36 35 37 36 39 37 40 38 41 96 42 39 43 95 44 40 45
REMARK SMILES IDX 41 46 42 47 89 48 43 49 94 50 88 51 90 52 44 53 93 54 87 55
REMARK SMILES IDX 86 56 45 58 75 59 56 60 74 61 57 62 60 63 73 64 91 65 58 66
REMARK SMILES IDX 59 67 72 69 92 70 61 71 46 72 47 73 55 74 48 75 54 76 49 77
REMARK SMILES IDX 50 78 51 79 52 80 53 81 76 82 77 83 85 84 78 85 84 86 79 87
REMARK SMILES IDX 80 88 81 89 82 90 83 91 62 92 63 93 71 94 64 95 70 96 65 97
REMARK SMILES IDX 66 98 67 99 68 100 69 101
REMARK H PARENT 30 5 4 9 34 38 90 57 60 68
REMARK Flexibility Score: inf
ROOT
ATOM      1  C   UNL A   1      32.831  28.528  24.761  1.00  0.00     0.117 C 
ENDROOT
BRANCH   1   2
ATOM      2  N   UNL A   1      31.843  27.465  24.781  1.00  0.00    -0.355 N 
ATOM      3  O   UNL A   1      30.275  28.575  23.522  1.00  0.00    -0.273 OA
ATOM      4  C   UNL A   1      30.614  27.588  24.170  1.00  0.00     0.239 C 
ATOM      5  H   UNL A   1      32.058  26.626  25.249  1.00  0.00     0.163 HD
BRANCH   4   6
ATOM      6  C   UNL A   1      29.637  26.425  24.406  1.00  0.00     0.216 C 
BRANCH   6   7
ATOM      7  N   UNL A   1      29.821  25.234  23.574  1.00  0.00    -0.345 N 
ATOM      8  C   UNL A   1      30.575  24.109  23.732  1.00  0.00     0.244 C 
ATOM      9  H   UNL A   1      29.300  25.249  22.739  1.00  0.00     0.164 HD
ATOM     10  O   UNL A   1      30.558  23.327  22.771  1.00  0.00    -0.273 OA
BRANCH   8  11
ATOM     11  C   UNL A   1      31.564  23.838  24.911  1.00  0.00     0.188 C 
BRANCH  11  12
ATOM     12  C   UNL A   1      31.150  22.482  25.592  1.00  0.00     0.069 C 
BRANCH  12  13
ATOM     13  C   UNL A   1      32.141  21.363  25.453  1.00  0.00    -0.037 C 
ATOM     14  C   UNL A   1      32.380  20.565  24.415  1.00  0.00     0.001 A 
ATOM     15  C   UNL A   1      33.073  21.009  26.565  1.00  0.00     0.174 C 
ATOM     16  C   UNL A   1      31.980  20.511  23.049  1.00  0.00     0.010 A 
ATOM     17  C   UNL A   1      33.162  19.478  25.031  1.00  0.00     0.065 A 
ATOM     18  N   UNL A   1      33.565  19.653  26.253  1.00  0.00    -0.280 NA
ATOM     19  C   UNL A   1      32.243  19.400  22.342  1.00  0.00     0.001 A 
ATOM     20  C   UNL A   1      33.319  18.247  24.225  1.00  0.00     0.028 A 
ATOM     21  C   UNL A   1      32.857  18.239  22.963  1.00  0.00     0.002 A 
ENDBRANCH  12  13
ENDBRANCH  11  12
BRANCH  11  22
ATOM     22  N   UNL A   1      32.987  23.962  24.563  1.00  0.00    -0.249 N 
ATOM     23  C   UNL A   1      33.316  24.491  23.336  1.00  0.00     0.351 C 
ATOM     24  C   UNL A   1      33.927  24.293  25.519  1.00  0.00     0.244 C 
ATOM     25  N   UNL A   1      34.432  23.908  22.785  1.00  0.00    -0.197 NA
ATOM     26  O   UNL A   1      32.633  25.318  22.747  1.00  0.00    -0.246 OA
ATOM     27  C   UNL A   1      35.367  24.342  24.994  1.00  0.00     0.151 C 
ATOM     28  O   UNL A   1      33.646  24.669  26.658  1.00  0.00    -0.273 OA
ATOM     29  C   UNL A   1      35.399  23.689  23.619  1.00  0.00     0.062 C 
ATOM     30  C   UNL A   1      36.387  23.772  25.934  1.00  0.00    -0.007 C 
ATOM     31  C   UNL A   1      36.494  22.764  23.252  1.00  0.00     0.025 C 
ATOM     32  C   UNL A   1      37.302  22.868  25.554  1.00  0.00    -0.003 C 
ATOM     33  C   UNL A   1      37.352  22.373  24.201  1.00  0.00     0.002 C 
ENDBRANCH  11  22
ENDBRANCH   8  11
ENDBRANCH   6   7
ENDBRANCH   4   6
ENDBRANCH   1   2
BRANCH   1  34
ATOM     34  C   UNL A   1      33.976  28.297  25.744  1.00  0.00     0.042 C 
BRANCH  34  35
ATOM     35  C   UNL A   1      33.610  28.472  27.216  1.00  0.00     0.118 C 
BRANCH  35  36
ATOM     36  N   UNL A   1      33.591  29.858  27.658  1.00  0.00    -0.352 N 
ATOM     37  C   UNL A   1      34.582  30.628  28.219  1.00  0.00     0.251 C 
ATOM     38  H   UNL A   1      32.729  30.319  27.536  1.00  0.00     0.163 HD
ATOM     39  O   UNL A   1      34.318  31.776  28.570  1.00  0.00    -0.269 OA
BRANCH  37  40
ATOM     40  C   UNL A   1      35.941  30.083  28.449  1.00  0.00     0.039 A 
ATOM     41  C   UNL A   1      36.317  29.510  29.667  1.00  0.00     0.014 A 
ATOM     42  C   UNL A   1      36.861  30.140  27.398  1.00  0.00     0.014 A 
ATOM     43  C   UNL A   1      37.647  29.141  29.880  1.00  0.00     0.010 A 
ATOM     44  C   UNL A   1      38.176  29.709  27.592  1.00  0.00     0.010 A 
ATOM     45  C   UNL A   1      38.597  29.253  28.850  1.00  0.00    -0.014 A 
BRANCH  45  46
ATOM     46  C   UNL A   1      40.025  28.924  29.101  1.00  0.00     0.031 A 
ATOM     47  C   UNL A   1      40.575  27.572  28.719  1.00  0.00     0.074 A 
ATOM     48  C   UNL A   1      40.845  29.844  29.646  1.00  0.00     0.049 A 
ATOM     49  N   UNL A   1      41.790  27.108  28.863  1.00  0.00    -0.248 NA
ATOM     50  C   UNL A   1      39.641  26.618  28.097  1.00  0.00     0.031 C 
ATOM     51  C   UNL A   1      40.446  31.196  30.042  1.00  0.00     0.029 A 
ATOM     52  N   UNL A   1      42.184  29.791  29.946  1.00  0.00    -0.354 N 
ATOM     53  C   UNL A   1      41.766  25.812  28.361  1.00  0.00     0.074 A 
ATOM     54  C   UNL A   1      40.407  25.547  27.942  1.00  0.00     0.031 C 
ATOM     55  C   UNL A   1      41.523  31.857  30.492  1.00  0.00     0.029 A 
ATOM     56  C   UNL A   1      42.680  30.962  30.470  1.00  0.00     0.049 A 
ATOM     57  H   UNL A   1      42.737  28.990  29.800  1.00  0.00     0.167 HD
ATOM     58  C   UNL A   1      42.786  24.928  28.241  1.00  0.00     0.031 A 
ATOM     59  C   UNL A   1      43.919  31.288  30.893  1.00  0.00     0.031 A 
ATOM     60  C   UNL A   1      44.141  25.196  28.647  1.00  0.00     0.049 A 
ATOM     61  C   UNL A   1      45.023  30.274  30.801  1.00  0.00     0.074 A 
ATOM     62  C   UNL A   1      45.243  24.364  28.543  1.00  0.00     0.029 A 
ATOM     63  N   UNL A   1      44.585  26.376  29.222  1.00  0.00    -0.354 N 
ATOM     64  N   UNL A   1      44.981  29.056  30.314  1.00  0.00    -0.248 NA
ATOM     65  C   UNL A   1      46.343  30.672  31.310  1.00  0.00     0.031 C 
ATOM     66  C   UNL A   1      46.339  25.016  29.111  1.00  0.00     0.029 A 
ATOM     67  C   UNL A   1      45.938  26.283  29.504  1.00  0.00     0.049 A 
ATOM     68  H   UNL A   1      44.022  27.163  29.405  1.00  0.00     0.167 HD
ATOM     69  C   UNL A   1      46.269  28.549  30.445  1.00  0.00     0.074 A 
ATOM     70  C   UNL A   1      47.073  29.596  31.041  1.00  0.00     0.031 C 
ATOM     71  C   UNL A   1      46.736  27.325  30.099  1.00  0.00     0.031 A 
BRANCH  58  72
ATOM     72  C   UNL A   1      42.495  23.578  27.639  1.00  0.00    -0.014 A 
ATOM     73  C   UNL A   1      42.045  22.527  28.461  1.00  0.00     0.010 A 
ATOM     74  C   UNL A   1      42.784  23.313  26.288  1.00  0.00     0.010 A 
ATOM     75  C   UNL A   1      41.919  21.232  27.952  1.00  0.00     0.020 A 
ATOM     76  C   UNL A   1      42.633  22.024  25.770  1.00  0.00     0.020 A 
ATOM     77  C   UNL A   1      42.225  20.986  26.611  1.00  0.00     0.054 A 
BRANCH  77  78
ATOM     78  S   UNL A   1      42.079  19.295  25.972  1.00  0.00     0.124 S 
ATOM     79  O   UNL A   1      40.643  19.178  25.733  1.00  0.00    -0.237 OA
ATOM     80  O   UNL A   1      42.917  19.329  24.776  1.00  0.00    -0.237 OA
ATOM     81  O   UNL A   1      42.600  18.472  27.063  1.00  0.00    -0.744 OA
ENDBRANCH  77  78
ENDBRANCH  58  72
BRANCH  59  82
ATOM     82  C   UNL A   1      44.165  32.660  31.414  1.00  0.00    -0.014 A 
ATOM     83  C   UNL A   1      43.897  32.971  32.761  1.00  0.00     0.010 A 
ATOM     84  C   UNL A   1      44.580  33.684  30.546  1.00  0.00     0.010 A 
ATOM     85  C   UNL A   1      43.977  34.290  33.214  1.00  0.00     0.020 A 
ATOM     86  C   UNL A   1      44.689  35.002  31.004  1.00  0.00     0.020 A 
ATOM     87  C   UNL A   1      44.355  35.300  32.326  1.00  0.00     0.054 A 
BRANCH  87  88
ATOM     88  S   UNL A   1      44.385  37.015  32.917  1.00  0.00     0.124 S 
ATOM     89  O   UNL A   1      43.910  37.743  31.742  1.00  0.00    -0.237 OA
ATOM     90  O   UNL A   1      43.464  36.980  34.050  1.00  0.00    -0.237 OA
ATOM     91  O   UNL A   1      45.787  37.232  33.264  1.00  0.00    -0.744 OA
ENDBRANCH  87  88
ENDBRANCH  59  82
BRANCH  71  92
ATOM     92  C   UNL A   1      48.191  27.017  30.346  1.00  0.00    -0.014 A 
ATOM     93  C   UNL A   1      48.591  26.498  31.593  1.00  0.00     0.010 A 
ATOM     94  C   UNL A   1      49.173  27.374  29.406  1.00  0.00     0.010 A 
ATOM     95  C   UNL A   1      49.947  26.379  31.910  1.00  0.00     0.020 A 
ATOM     96  C   UNL A   1      50.530  27.231  29.711  1.00  0.00     0.020 A 
ATOM     97  C   UNL A   1      50.908  26.760  30.972  1.00  0.00     0.054 A 
BRANCH  97  98
ATOM     98  S   UNL A   1      52.663  26.640  31.418  1.00  0.00     0.124 S 
ATOM     99  O   UNL A   1      53.319  26.777  30.121  1.00  0.00    -0.237 OA
ATOM    100  O   UNL A   1      52.840  27.763  32.336  1.00  0.00    -0.237 OA
ATOM    101  O   UNL A   1      52.769  25.319  32.035  1.00  0.00    -0.744 OA
ENDBRANCH  97  98
ENDBRANCH  71  92
ENDBRANCH  45  46
ENDBRANCH  37  40
ENDBRANCH  35  36
ENDBRANCH  34  35
ENDBRANCH   1  34
TORSDOF 18
ENDMDL
MODEL 2
REMARK VINA RESULT:     -11.8      4.446      9.847
REMARK SMILES O=C(CNC(=O)[C@@H](CC1=c2ccccc2=NC1)N1C(=O)N=C2C=CC=C[C@@H]2C1=O)NCCCNC(=O)c1ccc(-c2c3nc(c(-c4ccc(S(=O)(=O)[O-])cc4)c4ccc([nH]4)c(-c4ccc(S(=O)(=O)[O-])cc4)c4nc(c(-c5ccc(S(=O)(=O)[O-])cc5)c5ccc2[nH]5)C=C4)C=C3)cc1
REMARK SMILES IDX 31 1 30 2 1 3 2 4 3 6 4 7 5 8 6 10 7 11 8 12 9 13 10 14
REMARK SMILES IDX 17 15 11 16 15 17 16 18 12 19 14 20 13 21 18 22 19 23 28 24
REMARK SMILES IDX 21 25 20 26 27 27 29 28 22 29 26 30 23 31 25 32 24 33 32 34
REMARK SMILES IDX 33 35 34 36 35 37 36 39 37 40 38 41 96 42 39 43 95 44 40 45
REMARK SMILES IDX 41 46 42 47 89 48 43 49 94 50 88 51 90 52 44 53 93 54 87 55
REMARK SMILES IDX 86 56 45 58 75 59 56 60 74 61 57 62 60 63 73 64 91 65 58 66
REMARK SMILES IDX 59 67 72 69 92 70 61 71 46 72 47 73 55 74 48 75 54 76 49 77
REMARK SMILES IDX 50 78 51 79 52 80 53 81 76 82 77 83 85 84 78 85 84 86 79 87
REMARK SMILES IDX 80 88 81 89 82 90 83 91 62 92 63 93 71 94 64 95 70 96 65 97
REMARK SMILES IDX 66 98 67 99 68 100 69 101
REMARK H PARENT 30 5 4 9 34 38 90 57 60 68
REMARK Flexibility Score: inf
ROOT
ATOM      1  C   UNL A   1      41.161  20.931  26.269  1.00  0.00     0.117 C 
ENDROOT
BRANCH   1   2
ATOM      2  N   UNL A   1      39.956  21.728  26.137  1.00  0.00    -0.355 N 
ATOM      3  O   UNL A   1      38.598  19.998  25.472  1.00  0.00    -0.273 OA
ATOM      4  C   UNL A   1      38.758  21.192  25.717  1.00  0.00     0.239 C 
ATOM      5  H   UNL A   1      39.995  22.688  26.353  1.00  0.00     0.163 HD
BRANCH   4   6
ATOM      6  C   UNL A   1      37.618  22.201  25.500  1.00  0.00     0.216 C 
BRANCH   6   7
ATOM      7  N   UNL A   1      37.311  22.554  24.113  1.00  0.00    -0.345 N 
ATOM      8  C   UNL A   1      36.171  22.998  23.507  1.00  0.00     0.244 C 
ATOM      9  H   UNL A   1      38.072  22.452  23.498  1.00  0.00     0.164 HD
ATOM     10  O   UNL A   1      36.245  23.118  22.276  1.00  0.00    -0.273 OA
BRANCH   8  11
ATOM     11  C   UNL A   1      34.785  23.177  24.204  1.00  0.00     0.188 C 
BRANCH  11  12
ATOM     12  C   UNL A   1      34.030  24.358  23.490  1.00  0.00     0.069 C 
BRANCH  12  13
ATOM     13  C   UNL A   1      33.438  25.390  24.405  1.00  0.00    -0.037 C 
ATOM     14  C   UNL A   1      32.372  26.167  24.229  1.00  0.00     0.001 A 
ATOM     15  C   UNL A   1      34.024  25.663  25.750  1.00  0.00     0.174 C 
ATOM     16  C   UNL A   1      31.313  26.258  23.281  1.00  0.00     0.010 A 
ATOM     17  C   UNL A   1      32.550  27.184  25.281  1.00  0.00     0.065 A 
ATOM     18  N   UNL A   1      33.482  26.973  26.160  1.00  0.00    -0.280 NA
ATOM     19  C   UNL A   1      30.524  27.343  23.295  1.00  0.00     0.001 A 
ATOM     20  C   UNL A   1      31.713  28.398  25.166  1.00  0.00     0.028 A 
ATOM     21  C   UNL A   1      30.776  28.448  24.204  1.00  0.00     0.002 A 
ENDBRANCH  12  13
ENDBRANCH  11  12
BRANCH  11  22
ATOM     22  N   UNL A   1      34.011  21.938  24.365  1.00  0.00    -0.249 N 
ATOM     23  C   UNL A   1      33.635  21.563  25.635  1.00  0.00     0.351 C 
ATOM     24  C   UNL A   1      33.064  21.563  23.432  1.00  0.00     0.244 C 
ATOM     25  N   UNL A   1      33.648  20.200  25.815  1.00  0.00    -0.197 NA
ATOM     26  O   UNL A   1      33.413  22.356  26.540  1.00  0.00    -0.246 OA
ATOM     27  C   UNL A   1      32.377  20.226  23.734  1.00  0.00     0.151 C 
ATOM     28  O   UNL A   1      32.678  22.290  22.516  1.00  0.00    -0.273 OA
ATOM     29  C   UNL A   1      33.169  19.516  24.825  1.00  0.00     0.062 C 
ATOM     30  C   UNL A   1      32.143  19.364  22.529  1.00  0.00    -0.007 C 
ATOM     31  C   UNL A   1      33.443  18.065  24.731  1.00  0.00     0.025 C 
ATOM     32  C   UNL A   1      32.495  18.072  22.480  1.00  0.00    -0.003 C 
ATOM     33  C   UNL A   1      33.141  17.425  23.595  1.00  0.00     0.002 C 
ENDBRANCH  11  22
ENDBRANCH   8  11
ENDBRANCH   6   7
ENDBRANCH   4   6
ENDBRANCH   1   2
BRANCH   1  34
ATOM     34  C   UNL A   1      42.432  21.776  26.323  1.00  0.00     0.042 C 
BRANCH  34  35
ATOM     35  C   UNL A   1      42.236  23.210  26.810  1.00  0.00     0.118 C 
BRANCH  35  36
ATOM     36  N   UNL A   1      42.251  24.201  25.745  1.00  0.00    -0.352 N 
ATOM     37  C   UNL A   1      42.097  25.566  25.797  1.00  0.00     0.251 C 
ATOM     38  H   UNL A   1      42.395  23.836  24.842  1.00  0.00     0.163 HD
ATOM     39  O   UNL A   1      42.091  26.205  24.747  1.00  0.00    -0.269 OA
BRANCH  37  40
ATOM     40  C   UNL A   1      41.891  26.267  27.086  1.00  0.00     0.039 A 
ATOM     41  C   UNL A   1      40.962  25.828  28.033  1.00  0.00     0.014 A 
ATOM     42  C   UNL A   1      42.669  27.399  27.353  1.00  0.00     0.014 A 
ATOM     43  C   UNL A   1      40.706  26.603  29.166  1.00  0.00     0.010 A 
ATOM     44  C   UNL A   1      42.457  28.138  28.520  1.00  0.00     0.010 A 
ATOM     45  C   UNL A   1      41.437  27.777  29.414  1.00  0.00    -0.014 A 
BRANCH  45  46
ATOM     46  C   UNL A   1      41.115  28.635  30.585  1.00  0.00     0.031 A 
ATOM     47  C   UNL A   1      41.968  28.582  31.828  1.00  0.00     0.074 A 
ATOM     48  C   UNL A   1      40.072  29.487  30.531  1.00  0.00     0.049 A 
ATOM     49  N   UNL A   1      41.839  29.253  32.944  1.00  0.00    -0.248 NA
ATOM     50  C   UNL A   1      43.113  27.656  31.818  1.00  0.00     0.031 C 
ATOM     51  C   UNL A   1      39.180  29.652  29.382  1.00  0.00     0.029 A 
ATOM     52  N   UNL A   1      39.597  30.386  31.454  1.00  0.00    -0.354 N 
ATOM     53  C   UNL A   1      42.874  28.827  33.768  1.00  0.00     0.074 A 
ATOM     54  C   UNL A   1      43.602  27.812  33.040  1.00  0.00     0.031 C 
ATOM     55  C   UNL A   1      38.294  30.623  29.652  1.00  0.00     0.029 A 
ATOM     56  C   UNL A   1      38.516  31.113  31.012  1.00  0.00     0.049 A 
ATOM     57  H   UNL A   1      39.992  30.500  32.349  1.00  0.00     0.167 HD
ATOM     58  C   UNL A   1      43.200  29.256  35.011  1.00  0.00     0.031 A 
ATOM     59  C   UNL A   1      37.777  32.062  31.623  1.00  0.00     0.031 A 
ATOM     60  C   UNL A   1      42.483  30.275  35.732  1.00  0.00     0.049 A 
ATOM     61  C   UNL A   1      38.125  32.484  33.023  1.00  0.00     0.074 A 
ATOM     62  C   UNL A   1      42.757  30.785  36.989  1.00  0.00     0.029 A 
ATOM     63  N   UNL A   1      41.362  30.944  35.265  1.00  0.00    -0.354 N 
ATOM     64  N   UNL A   1      39.114  32.074  33.781  1.00  0.00    -0.248 NA
ATOM     65  C   UNL A   1      37.263  33.495  33.652  1.00  0.00     0.031 C 
ATOM     66  C   UNL A   1      41.769  31.718  37.309  1.00  0.00     0.029 A 
ATOM     67  C   UNL A   1      40.918  31.843  36.222  1.00  0.00     0.049 A 
ATOM     68  H   UNL A   1      40.943  30.802  34.386  1.00  0.00     0.167 HD
ATOM     69  C   UNL A   1      39.002  32.788  34.970  1.00  0.00     0.074 A 
ATOM     70  C   UNL A   1      37.860  33.667  34.825  1.00  0.00     0.031 C 
ATOM     71  C   UNL A   1      39.780  32.716  36.077  1.00  0.00     0.031 A 
BRANCH  58  72
ATOM     72  C   UNL A   1      44.395  28.637  35.690  1.00  0.00    -0.014 A 
ATOM     73  C   UNL A   1      45.689  29.096  35.384  1.00  0.00     0.010 A 
ATOM     74  C   UNL A   1      44.247  27.522  36.535  1.00  0.00     0.010 A 
ATOM     75  C   UNL A   1      46.815  28.434  35.883  1.00  0.00     0.020 A 
ATOM     76  C   UNL A   1      45.369  26.874  37.058  1.00  0.00     0.020 A 
ATOM     77  C   UNL A   1      46.647  27.319  36.709  1.00  0.00     0.054 A 
BRANCH  77  78
ATOM     78  S   UNL A   1      48.117  26.457  37.330  1.00  0.00     0.124 S 
ATOM     79  O   UNL A   1      49.185  27.399  37.009  1.00  0.00    -0.237 OA
ATOM     80  O   UNL A   1      47.821  26.299  38.752  1.00  0.00    -0.237 OA
ATOM     81  O   UNL A   1      48.130  25.211  36.565  1.00  0.00    -0.744 OA
ENDBRANCH  77  78
ENDBRANCH  58  72
BRANCH  59  82
ATOM     82  C   UNL A   1      36.651  32.690  30.879  1.00  0.00    -0.014 A 
ATOM     83  C   UNL A   1      36.904  33.567  29.808  1.00  0.00     0.010 A 
ATOM     84  C   UNL A   1      35.325  32.486  31.298  1.00  0.00     0.010 A 
ATOM     85  C   UNL A   1      35.860  34.278  29.212  1.00  0.00     0.020 A 
ATOM     86  C   UNL A   1      34.274  33.174  30.683  1.00  0.00     0.020 A 
ATOM     87  C   UNL A   1      34.553  34.090  29.666  1.00  0.00     0.054 A 
BRANCH  87  88
ATOM     88  S   UNL A   1      33.221  35.074  28.925  1.00  0.00     0.124 S 
ATOM     89  O   UNL A   1      33.963  36.194  28.350  1.00  0.00    -0.237 OA
ATOM     90  O   UNL A   1      32.635  34.146  27.961  1.00  0.00    -0.237 OA
ATOM     91  O   UNL A   1      32.368  35.405  30.063  1.00  0.00    -0.744 OA
ENDBRANCH  87  88
ENDBRANCH  59  82
BRANCH  71  92
ATOM     92  C   UNL A   1      39.447  33.606  37.246  1.00  0.00    -0.014 A 
ATOM     93  C   UNL A   1      40.063  34.868  37.358  1.00  0.00     0.010 A 
ATOM     94  C   UNL A   1      38.643  33.141  38.302  1.00  0.00     0.010 A 
ATOM     95  C   UNL A   1      39.914  35.630  38.520  1.00  0.00     0.020 A 
ATOM     96  C   UNL A   1      38.471  33.914  39.454  1.00  0.00     0.020 A 
ATOM     97  C   UNL A   1      39.130  35.141  39.567  1.00  0.00     0.054 A 
BRANCH  97  98
ATOM     98  S   UNL A   1      38.984  36.124  41.084  1.00  0.00     0.124 S 
ATOM     99  O   UNL A   1      40.247  35.838  41.759  1.00  0.00    -0.237 OA
ATOM    100  O   UNL A   1      38.837  37.486  40.574  1.00  0.00    -0.237 OA
ATOM    101  O   UNL A   1      37.792  35.579  41.732  1.00  0.00    -0.744 OA
ENDBRANCH  97  98
ENDBRANCH  71  92
ENDBRANCH  45  46
ENDBRANCH  37  40
ENDBRANCH  35  36
ENDBRANCH  34  35
ENDBRANCH   1  34
TORSDOF 18
ENDMDL
MODEL 3
REMARK VINA RESULT:     -11.0      2.366      7.790
REMARK SMILES O=C(CNC(=O)[C@@H](CC1=c2ccccc2=NC1)N1C(=O)N=C2C=CC=C[C@@H]2C1=O)NCCCNC(=O)c1ccc(-c2c3nc(c(-c4ccc(S(=O)(=O)[O-])cc4)c4ccc([nH]4)c(-c4ccc(S(=O)(=O)[O-])cc4)c4nc(c(-c5ccc(S(=O)(=O)[O-])cc5)c5ccc2[nH]5)C=C4)C=C3)cc1
REMARK SMILES IDX 31 1 30 2 1 3 2 4 3 6 4 7 5 8 6 10 7 11 8 12 9 13 10 14
REMARK SMILES IDX 17 15 11 16 15 17 16 18 12 19 14 20 13 21 18 22 19 23 28 24
REMARK SMILES IDX 21 25 20 26 27 27 29 28 22 29 26 30 23 31 25 32 24 33 32 34
REMARK SMILES IDX 33 35 34 36 35 37 36 39 37 40 38 41 96 42 39 43 95 44 40 45
REMARK SMILES IDX 41 46 42 47 89 48 43 49 94 50 88 51 90 52 44 53 93 54 87 55
REMARK SMILES IDX 86 56 45 58 75 59 56 60 74 61 57 62 60 63 73 64 91 65 58 66
REMARK SMILES IDX 59 67 72 69 92 70 61 71 46 72 47 73 55 74 48 75 54 76 49 77
REMARK SMILES IDX 50 78 51 79 52 80 53 81 76 82 77 83 85 84 78 85 84 86 79 87
REMARK SMILES IDX 80 88 81 89 82 90 83 91 62 92 63 93 71 94 64 95 70 96 65 97
REMARK SMILES IDX 66 98 67 99 68 100 69 101
REMARK H PARENT 30 5 4 9 34 38 90 57 60 68
REMARK Flexibility Score: inf
ROOT
ATOM      1  C   UNL A   1      33.575  28.199  24.685  1.00  0.00     0.117 C 
ENDROOT
BRANCH   1   2
ATOM      2  N   UNL A   1      32.498  27.240  24.845  1.00  0.00    -0.355 N 
ATOM      3  O   UNL A   1      30.799  28.704  24.350  1.00  0.00    -0.273 OA
ATOM      4  C   UNL A   1      31.173  27.583  24.686  1.00  0.00     0.239 C 
ATOM      5  H   UNL A   1      32.722  26.309  25.077  1.00  0.00     0.163 HD
BRANCH   4   6
ATOM      6  C   UNL A   1      30.156  26.482  25.028  1.00  0.00     0.216 C 
BRANCH   6   7
ATOM      7  N   UNL A   1      29.983  25.418  24.037  1.00  0.00    -0.345 N 
ATOM      8  C   UNL A   1      30.495  24.157  23.941  1.00  0.00     0.244 C 
ATOM      9  H   UNL A   1      29.382  25.659  23.297  1.00  0.00     0.164 HD
ATOM     10  O   UNL A   1      30.198  23.548  22.904  1.00  0.00    -0.273 OA
BRANCH   8  11
ATOM     11  C   UNL A   1      31.538  23.526  24.918  1.00  0.00     0.188 C 
BRANCH  11  12
ATOM     12  C   UNL A   1      31.122  22.031  25.175  1.00  0.00     0.069 C 
BRANCH  12  13
ATOM     13  C   UNL A   1      32.235  21.028  25.086  1.00  0.00    -0.037 C 
ATOM     14  C   UNL A   1      32.505  20.143  24.130  1.00  0.00     0.001 A 
ATOM     15  C   UNL A   1      33.273  20.924  26.154  1.00  0.00     0.174 C 
ATOM     16  C   UNL A   1      32.027  19.874  22.815  1.00  0.00     0.010 A 
ATOM     17  C   UNL A   1      33.455  19.238  24.801  1.00  0.00     0.065 A 
ATOM     18  N   UNL A   1      33.912  19.608  25.959  1.00  0.00    -0.280 NA
ATOM     19  C   UNL A   1      32.382  18.725  22.220  1.00  0.00     0.001 A 
ATOM     20  C   UNL A   1      33.715  17.945  24.130  1.00  0.00     0.028 A 
ATOM     21  C   UNL A   1      33.176  17.728  22.918  1.00  0.00     0.002 A 
ENDBRANCH  12  13
ENDBRANCH  11  12
BRANCH  11  22
ATOM     22  N   UNL A   1      32.943  23.734  24.539  1.00  0.00    -0.249 N 
ATOM     23  C   UNL A   1      33.219  24.161  23.260  1.00  0.00     0.351 C 
ATOM     24  C   UNL A   1      33.857  24.238  25.443  1.00  0.00     0.244 C 
ATOM     25  N   UNL A   1      34.377  23.622  22.755  1.00  0.00    -0.197 NA
ATOM     26  O   UNL A   1      32.464  24.864  22.601  1.00  0.00    -0.246 OA
ATOM     27  C   UNL A   1      35.285  24.354  24.895  1.00  0.00     0.151 C 
ATOM     28  O   UNL A   1      33.551  24.702  26.542  1.00  0.00    -0.273 OA
ATOM     29  C   UNL A   1      35.364  23.571  23.592  1.00  0.00     0.062 C 
ATOM     30  C   UNL A   1      36.356  23.971  25.873  1.00  0.00    -0.007 C 
ATOM     31  C   UNL A   1      36.532  22.709  23.304  1.00  0.00     0.025 C 
ATOM     32  C   UNL A   1      37.342  23.113  25.572  1.00  0.00    -0.003 C 
ATOM     33  C   UNL A   1      37.426  22.490  24.275  1.00  0.00     0.002 C 
ENDBRANCH  11  22
ENDBRANCH   8  11
ENDBRANCH   6   7
ENDBRANCH   4   6
ENDBRANCH   1   2
BRANCH   1  34
ATOM     34  C   UNL A   1      34.266  28.546  26.001  1.00  0.00     0.042 C 
BRANCH  34  35
ATOM     35  C   UNL A   1      33.329  28.959  27.134  1.00  0.00     0.118 C 
BRANCH  35  36
ATOM     36  N   UNL A   1      33.329  30.388  27.408  1.00  0.00    -0.352 N 
ATOM     37  C   UNL A   1      34.281  31.180  28.005  1.00  0.00     0.251 C 
ATOM     38  H   UNL A   1      32.517  30.864  27.121  1.00  0.00     0.163 HD
ATOM     39  O   UNL A   1      34.038  32.372  28.185  1.00  0.00    -0.269 OA
BRANCH  37  40
ATOM     40  C   UNL A   1      35.567  30.614  28.476  1.00  0.00     0.039 A 
ATOM     41  C   UNL A   1      35.628  29.600  29.435  1.00  0.00     0.014 A 
ATOM     42  C   UNL A   1      36.750  31.115  27.922  1.00  0.00     0.014 A 
ATOM     43  C   UNL A   1      36.864  29.201  29.947  1.00  0.00     0.010 A 
ATOM     44  C   UNL A   1      37.989  30.667  28.389  1.00  0.00     0.010 A 
ATOM     45  C   UNL A   1      38.059  29.743  29.443  1.00  0.00    -0.014 A 
BRANCH  45  46
ATOM     46  C   UNL A   1      39.370  29.366  30.037  1.00  0.00     0.031 A 
ATOM     47  C   UNL A   1      39.870  30.058  31.281  1.00  0.00     0.074 A 
ATOM     48  C   UNL A   1      40.106  28.384  29.481  1.00  0.00     0.049 A 
ATOM     49  N   UNL A   1      40.986  29.865  31.936  1.00  0.00    -0.248 NA
ATOM     50  C   UNL A   1      39.009  31.102  31.862  1.00  0.00     0.031 C 
ATOM     51  C   UNL A   1      39.728  27.622  28.290  1.00  0.00     0.029 A 
ATOM     52  N   UNL A   1      41.314  27.846  29.852  1.00  0.00    -0.354 N 
ATOM     53  C   UNL A   1      40.966  30.763  32.997  1.00  0.00     0.074 A 
ATOM     54  C   UNL A   1      39.745  31.529  32.879  1.00  0.00     0.031 C 
ATOM     55  C   UNL A   1      40.662  26.688  28.053  1.00  0.00     0.029 A 
ATOM     56  C   UNL A   1      41.733  26.819  29.040  1.00  0.00     0.049 A 
ATOM     57  H   UNL A   1      41.832  28.167  30.625  1.00  0.00     0.167 HD
ATOM     58  C   UNL A   1      41.872  30.923  33.991  1.00  0.00     0.031 A 
ATOM     59  C   UNL A   1      42.853  26.065  29.072  1.00  0.00     0.031 A 
ATOM     60  C   UNL A   1      43.082  30.153  34.117  1.00  0.00     0.049 A 
ATOM     61  C   UNL A   1      43.870  26.297  30.153  1.00  0.00     0.074 A 
ATOM     62  C   UNL A   1      44.048  30.235  35.106  1.00  0.00     0.029 A 
ATOM     63  N   UNL A   1      43.491  29.160  33.241  1.00  0.00    -0.354 N 
ATOM     64  N   UNL A   1      43.827  27.145  31.152  1.00  0.00    -0.248 NA
ATOM     65  C   UNL A   1      45.086  25.471  30.117  1.00  0.00     0.031 C 
ATOM     66  C   UNL A   1      45.070  29.336  34.796  1.00  0.00     0.029 A 
ATOM     67  C   UNL A   1      44.708  28.641  33.652  1.00  0.00     0.049 A 
ATOM     68  H   UNL A   1      42.992  28.867  32.445  1.00  0.00     0.167 HD
ATOM     69  C   UNL A   1      45.000  26.945  31.872  1.00  0.00     0.074 A 
ATOM     70  C   UNL A   1      45.727  25.885  31.203  1.00  0.00     0.031 C 
ATOM     71  C   UNL A   1      45.431  27.587  32.985  1.00  0.00     0.031 A 
BRANCH  58  72
ATOM     72  C   UNL A   1      41.602  31.968  35.044  1.00  0.00    -0.014 A 
ATOM     73  C   UNL A   1      42.162  33.252  34.914  1.00  0.00     0.010 A 
ATOM     74  C   UNL A   1      40.900  31.643  36.219  1.00  0.00     0.010 A 
ATOM     75  C   UNL A   1      42.053  34.183  35.951  1.00  0.00     0.020 A 
ATOM     76  C   UNL A   1      40.765  32.580  37.246  1.00  0.00     0.020 A 
ATOM     77  C   UNL A   1      41.363  33.836  37.117  1.00  0.00     0.054 A 
BRANCH  77  78
ATOM     78  S   UNL A   1      41.250  35.047  38.463  1.00  0.00     0.124 S 
ATOM     79  O   UNL A   1      39.966  34.711  39.073  1.00  0.00    -0.237 OA
ATOM     80  O   UNL A   1      42.431  34.744  39.268  1.00  0.00    -0.237 OA
ATOM     81  O   UNL A   1      41.295  36.333  37.769  1.00  0.00    -0.744 OA
ENDBRANCH  77  78
ENDBRANCH  58  72
BRANCH  59  82
ATOM     82  C   UNL A   1      43.034  25.000  28.048  1.00  0.00    -0.014 A 
ATOM     83  C   UNL A   1      42.574  23.692  28.290  1.00  0.00     0.010 A 
ATOM     84  C   UNL A   1      43.750  25.266  26.868  1.00  0.00     0.010 A 
ATOM     85  C   UNL A   1      42.881  22.657  27.403  1.00  0.00     0.020 A 
ATOM     86  C   UNL A   1      44.034  24.238  25.964  1.00  0.00     0.020 A 
ATOM     87  C   UNL A   1      43.626  22.935  26.254  1.00  0.00     0.054 A 
BRANCH  87  88
ATOM     88  S   UNL A   1      44.072  21.565  25.152  1.00  0.00     0.124 S 
ATOM     89  O   UNL A   1      43.034  20.584  25.460  1.00  0.00    -0.237 OA
ATOM     90  O   UNL A   1      43.986  22.177  23.828  1.00  0.00    -0.237 OA
ATOM     91  O   UNL A   1      45.421  21.206  25.582  1.00  0.00    -0.744 OA
ENDBRANCH  87  88
ENDBRANCH  59  82
BRANCH  71  92
ATOM     92  C   UNL A   1      46.754  27.180  33.581  1.00  0.00    -0.014 A 
ATOM     93  C   UNL A   1      47.934  27.825  33.163  1.00  0.00     0.010 A 
ATOM     94  C   UNL A   1      46.847  26.070  34.438  1.00  0.00     0.010 A 
ATOM     95  C   UNL A   1      49.184  27.345  33.559  1.00  0.00     0.020 A 
ATOM     96  C   UNL A   1      48.097  25.603  34.858  1.00  0.00     0.020 A 
ATOM     97  C   UNL A   1      49.258  26.226  34.393  1.00  0.00     0.054 A 
BRANCH  97  98
ATOM     98  S   UNL A   1      50.891  25.590  34.862  1.00  0.00     0.124 S 
ATOM     99  O   UNL A   1      50.812  24.196  34.433  1.00  0.00    -0.237 OA
ATOM    100  O   UNL A   1      51.801  26.435  34.091  1.00  0.00    -0.237 OA
ATOM    101  O   UNL A   1      50.937  25.797  36.308  1.00  0.00    -0.744 OA
ENDBRANCH  97  98
ENDBRANCH  71  92
ENDBRANCH  45  46
ENDBRANCH  37  40
ENDBRANCH  35  36
ENDBRANCH  34  35
ENDBRANCH   1  34
TORSDOF 18
ENDMDL
