MODEL 1
REMARK VINA RESULT:      -9.8      0.000      0.000
REMARK SMILES O=C(CCN1C(=O)/C(=C/c2cccc(Cl)c2Cl)SC1=S)Nc1ccc(C(=O)NCCCNC(=O)c2ccc(-c3c4nc(c(-c5ccc(S(=O)(=O)[O-])cc5)c5ccc([nH]5)c(-c5ccc(S(=O)(=O)[O-])cc5)c5nc(c(-c6ccc(S(=O)(=O)[O-])cc6)c6ccc3[nH]6)C=C5)C=C4)cc2)cc1
REMARK SMILES IDX 29 1 28 2 26 3 27 4 25 6 22 7 23 8 96 9 24 10 95 11 21 12
REMARK SMILES IDX 1 13 2 14 3 16 4 17 5 18 6 19 19 20 7 21 8 22 18 23 20 24
REMARK SMILES IDX 9 25 10 26 11 27 16 28 12 29 14 30 17 31 13 32 15 33 30 34
REMARK SMILES IDX 31 35 32 36 33 37 34 39 35 40 36 41 94 42 37 43 93 44 38 45
REMARK SMILES IDX 39 46 40 47 87 48 41 49 92 50 86 51 88 52 42 53 91 54 85 55
REMARK SMILES IDX 84 56 43 58 73 59 54 60 72 61 55 62 58 63 71 64 89 65 56 66
REMARK SMILES IDX 57 67 70 69 90 70 59 71 44 72 45 73 53 74 46 75 52 76 47 77
REMARK SMILES IDX 48 78 49 79 50 80 51 81 74 82 75 83 83 84 76 85 82 86 77 87
REMARK SMILES IDX 78 88 79 89 80 90 81 91 60 92 61 93 69 94 62 95 68 96 63 97
REMARK SMILES IDX 64 98 65 99 66 100 67 101
REMARK H PARENT 28 5 21 15 32 38 88 57 58 68
REMARK Flexibility Score: inf
ROOT
ATOM      1  C   UNL A   1      35.251  33.312  30.457  1.00  0.00     0.118 C 
ENDROOT
BRANCH   1   2
ATOM      2  N   UNL A   1      34.659  33.392  31.775  1.00  0.00    -0.352 N 
ATOM      3  C   UNL A   1      35.134  33.021  33.003  1.00  0.00     0.251 C 
ATOM      4  O   UNL A   1      34.401  33.192  33.976  1.00  0.00    -0.269 OA
ATOM      5  H   UNL A   1      33.755  33.783  31.791  1.00  0.00     0.163 HD
BRANCH   3   6
ATOM      6  C   UNL A   1      36.514  32.502  33.208  1.00  0.00     0.039 A 
ATOM      7  C   UNL A   1      38.994  31.284  33.687  1.00  0.00     0.041 A 
ATOM      8  C   UNL A   1      37.961  30.559  33.096  1.00  0.00     0.027 A 
ATOM      9  C   UNL A   1      38.816  32.628  33.980  1.00  0.00     0.027 A 
ATOM     10  C   UNL A   1      36.719  31.157  32.891  1.00  0.00     0.016 A 
ATOM     11  C   UNL A   1      37.598  33.244  33.688  1.00  0.00     0.016 A 
BRANCH   7  12
ATOM     12  N   UNL A   1      40.209  30.630  33.901  1.00  0.00    -0.326 N 
ATOM     13  O   UNL A   1      39.896  29.807  36.043  1.00  0.00    -0.275 OA
ATOM     14  C   UNL A   1      40.600  29.985  35.052  1.00  0.00     0.226 C 
ATOM     15  H   UNL A   1      40.851  30.629  33.154  1.00  0.00     0.169 HD
BRANCH  14  16
ATOM     16  C   UNL A   1      42.050  29.538  35.035  1.00  0.00     0.122 C 
BRANCH  16  17
ATOM     17  C   UNL A   1      42.666  29.182  36.397  1.00  0.00     0.137 C 
BRANCH  17  18
ATOM     18  N   UNL A   1      43.579  28.022  36.387  1.00  0.00    -0.292 N 
ATOM     19  C   UNL A   1      43.060  26.742  36.543  1.00  0.00     0.266 C 
ATOM     20  C   UNL A   1      44.957  28.110  36.303  1.00  0.00     0.148 C 
ATOM     21  O   UNL A   1      41.884  26.462  36.733  1.00  0.00    -0.268 OA
ATOM     22  C   UNL A   1      44.126  25.719  36.355  1.00  0.00     0.081 C 
ATOM     23  S   UNL A   1      45.641  26.501  36.142  1.00  0.00    -0.054 SA
ATOM     24  S   UNL A   1      45.914  29.473  36.326  1.00  0.00    -0.052 S 
ATOM     25  C   UNL A   1      43.853  24.406  36.282  1.00  0.00     0.031 C 
BRANCH  25  26
ATOM     26  C   UNL A   1      44.820  23.320  35.995  1.00  0.00    -0.004 A 
ATOM     27  C   UNL A   1      44.979  22.884  34.669  1.00  0.00     0.010 A 
ATOM     28  C   UNL A   1      45.606  22.716  37.001  1.00  0.00     0.066 A 
ATOM     29  C   UNL A   1      45.828  21.823  34.357  1.00  0.00     0.002 A 
ATOM     30  C   UNL A   1      46.453  21.640  36.681  1.00  0.00     0.060 A 
ATOM     31  Cl  UNL A   1      45.553  23.317  38.626  1.00  0.00    -0.082 Cl
ATOM     32  C   UNL A   1      46.551  21.191  35.363  1.00  0.00     0.022 A 
ATOM     33  Cl  UNL A   1      47.408  20.815  37.866  1.00  0.00    -0.083 Cl
ENDBRANCH  25  26
ENDBRANCH  17  18
ENDBRANCH  16  17
ENDBRANCH  14  16
ENDBRANCH   7  12
ENDBRANCH   3   6
ENDBRANCH   1   2
BRANCH   1  34
ATOM     34  C   UNL A   1      34.169  33.420  29.384  1.00  0.00     0.042 C 
BRANCH  34  35
ATOM     35  C   UNL A   1      34.586  32.767  28.073  1.00  0.00     0.118 C 
BRANCH  35  36
ATOM     36  N   UNL A   1      33.896  31.503  27.876  1.00  0.00    -0.352 N 
ATOM     37  C   UNL A   1      34.404  30.242  27.724  1.00  0.00     0.251 C 
ATOM     38  H   UNL A   1      32.914  31.563  27.848  1.00  0.00     0.163 HD
ATOM     39  O   UNL A   1      33.684  29.358  27.266  1.00  0.00    -0.269 OA
BRANCH  37  40
ATOM     40  C   UNL A   1      35.796  29.942  28.115  1.00  0.00     0.039 A 
ATOM     41  C   UNL A   1      36.798  30.033  27.146  1.00  0.00     0.014 A 
ATOM     42  C   UNL A   1      36.108  29.510  29.408  1.00  0.00     0.014 A 
ATOM     43  C   UNL A   1      38.111  29.706  27.479  1.00  0.00     0.010 A 
ATOM     44  C   UNL A   1      37.430  29.275  29.763  1.00  0.00     0.010 A 
ATOM     45  C   UNL A   1      38.441  29.341  28.795  1.00  0.00    -0.014 A 
BRANCH  45  46
ATOM     46  C   UNL A   1      39.836  28.997  29.159  1.00  0.00     0.031 A 
ATOM     47  C   UNL A   1      40.685  29.977  29.923  1.00  0.00     0.074 A 
ATOM     48  C   UNL A   1      40.341  27.809  28.777  1.00  0.00     0.049 A 
ATOM     49  N   UNL A   1      41.911  29.837  30.362  1.00  0.00    -0.248 NA
ATOM     50  C   UNL A   1      40.094  31.294  30.210  1.00  0.00     0.031 C 
ATOM     51  C   UNL A   1      39.621  26.795  28.002  1.00  0.00     0.029 A 
ATOM     52  N   UNL A   1      41.569  27.244  29.004  1.00  0.00    -0.354 N 
ATOM     53  C   UNL A   1      42.238  31.048  30.962  1.00  0.00     0.074 A 
ATOM     54  C   UNL A   1      41.109  31.931  30.773  1.00  0.00     0.031 C 
ATOM     55  C   UNL A   1      40.399  25.709  27.871  1.00  0.00     0.029 A 
ATOM     56  C   UNL A   1      41.685  25.967  28.510  1.00  0.00     0.049 A 
ATOM     57  H   UNL A   1      42.299  27.708  29.475  1.00  0.00     0.167 HD
ATOM     58  C   UNL A   1      43.367  31.388  31.629  1.00  0.00     0.031 A 
ATOM     59  C   UNL A   1      42.710  25.095  28.577  1.00  0.00     0.031 A 
ATOM     60  C   UNL A   1      44.487  30.501  31.805  1.00  0.00     0.049 A 
ATOM     61  C   UNL A   1      43.963  25.501  29.300  1.00  0.00     0.074 A 
ATOM     62  C   UNL A   1      45.658  30.721  32.507  1.00  0.00     0.029 A 
ATOM     63  N   UNL A   1      44.578  29.226  31.263  1.00  0.00    -0.354 N 
ATOM     64  N   UNL A   1      44.227  26.623  29.928  1.00  0.00    -0.248 NA
ATOM     65  C   UNL A   1      45.053  24.517  29.333  1.00  0.00     0.031 C 
ATOM     66  C   UNL A   1      46.486  29.606  32.334  1.00  0.00     0.029 A 
ATOM     67  C   UNL A   1      45.800  28.660  31.588  1.00  0.00     0.049 A 
ATOM     68  H   UNL A   1      43.877  28.789  30.728  1.00  0.00     0.167 HD
ATOM     69  C   UNL A   1      45.501  26.465  30.463  1.00  0.00     0.074 A 
ATOM     70  C   UNL A   1      45.947  25.137  30.091  1.00  0.00     0.031 C 
ATOM     71  C   UNL A   1      46.230  27.339  31.202  1.00  0.00     0.031 A 
BRANCH  58  72
ATOM     72  C   UNL A   1      43.448  32.788  32.187  1.00  0.00    -0.014 A 
ATOM     73  C   UNL A   1      42.975  33.091  33.479  1.00  0.00     0.010 A 
ATOM     74  C   UNL A   1      44.004  33.818  31.408  1.00  0.00     0.010 A 
ATOM     75  C   UNL A   1      42.993  34.407  33.950  1.00  0.00     0.020 A 
ATOM     76  C   UNL A   1      44.057  35.130  31.890  1.00  0.00     0.020 A 
ATOM     77  C   UNL A   1      43.525  35.420  33.148  1.00  0.00     0.054 A 
BRANCH  77  78
ATOM     78  S   UNL A   1      43.517  37.122  33.776  1.00  0.00     0.124 S 
ATOM     79  O   UNL A   1      44.640  37.103  34.711  1.00  0.00    -0.237 OA
ATOM     80  O   UNL A   1      43.723  37.911  32.564  1.00  0.00    -0.237 OA
ATOM     81  O   UNL A   1      42.199  37.260  34.390  1.00  0.00    -0.744 OA
ENDBRANCH  77  78
ENDBRANCH  58  72
BRANCH  59  82
ATOM     82  C   UNL A   1      42.562  23.735  27.988  1.00  0.00    -0.014 A 
ATOM     83  C   UNL A   1      41.800  22.757  28.650  1.00  0.00     0.010 A 
ATOM     84  C   UNL A   1      43.148  23.423  26.748  1.00  0.00     0.010 A 
ATOM     85  C   UNL A   1      41.633  21.488  28.089  1.00  0.00     0.020 A 
ATOM     86  C   UNL A   1      42.960  22.164  26.170  1.00  0.00     0.020 A 
ATOM     87  C   UNL A   1      42.210  21.202  26.848  1.00  0.00     0.054 A 
BRANCH  87  88
ATOM     88  S   UNL A   1      41.925  19.569  26.111  1.00  0.00     0.124 S 
ATOM     89  O   UNL A   1      42.319  18.674  27.194  1.00  0.00    -0.237 OA
ATOM     90  O   UNL A   1      40.496  19.608  25.808  1.00  0.00    -0.237 OA
ATOM     91  O   UNL A   1      42.802  19.563  24.942  1.00  0.00    -0.744 OA
ENDBRANCH  87  88
ENDBRANCH  59  82
BRANCH  71  92
ATOM     92  C   UNL A   1      47.576  26.871  31.693  1.00  0.00    -0.014 A 
ATOM     93  C   UNL A   1      47.710  26.138  32.885  1.00  0.00     0.010 A 
ATOM     94  C   UNL A   1      48.721  27.130  30.916  1.00  0.00     0.010 A 
ATOM     95  C   UNL A   1      48.969  25.703  33.309  1.00  0.00     0.020 A 
ATOM     96  C   UNL A   1      49.975  26.668  31.318  1.00  0.00     0.020 A 
ATOM     97  C   UNL A   1      50.094  25.970  32.521  1.00  0.00     0.054 A 
BRANCH  97  98
ATOM     98  S   UNL A   1      51.710  25.357  33.071  1.00  0.00     0.124 S 
ATOM     99  O   UNL A   1      52.627  26.279  32.407  1.00  0.00    -0.237 OA
ATOM    100  O   UNL A   1      51.624  25.492  34.524  1.00  0.00    -0.237 OA
ATOM    101  O   UNL A   1      51.744  23.981  32.580  1.00  0.00    -0.744 OA
ENDBRANCH  97  98
ENDBRANCH  71  92
ENDBRANCH  45  46
ENDBRANCH  37  40
ENDBRANCH  35  36
ENDBRANCH  34  35
ENDBRANCH   1  34
TORSDOF 18
ENDMDL
MODEL 2
REMARK VINA RESULT:      -9.7      5.447      9.668
REMARK SMILES O=C(CCN1C(=O)/C(=C/c2cccc(Cl)c2Cl)SC1=S)Nc1ccc(C(=O)NCCCNC(=O)c2ccc(-c3c4nc(c(-c5ccc(S(=O)(=O)[O-])cc5)c5ccc([nH]5)c(-c5ccc(S(=O)(=O)[O-])cc5)c5nc(c(-c6ccc(S(=O)(=O)[O-])cc6)c6ccc3[nH]6)C=C5)C=C4)cc2)cc1
REMARK SMILES IDX 29 1 28 2 26 3 27 4 25 6 22 7 23 8 96 9 24 10 95 11 21 12
REMARK SMILES IDX 1 13 2 14 3 16 4 17 5 18 6 19 19 20 7 21 8 22 18 23 20 24
REMARK SMILES IDX 9 25 10 26 11 27 16 28 12 29 14 30 17 31 13 32 15 33 30 34
REMARK SMILES IDX 31 35 32 36 33 37 34 39 35 40 36 41 94 42 37 43 93 44 38 45
REMARK SMILES IDX 39 46 40 47 87 48 41 49 92 50 86 51 88 52 42 53 91 54 85 55
REMARK SMILES IDX 84 56 43 58 73 59 54 60 72 61 55 62 58 63 71 64 89 65 56 66
REMARK SMILES IDX 57 67 70 69 90 70 59 71 44 72 45 73 53 74 46 75 52 76 47 77
REMARK SMILES IDX 48 78 49 79 50 80 51 81 74 82 75 83 83 84 76 85 82 86 77 87
REMARK SMILES IDX 78 88 79 89 80 90 81 91 60 92 61 93 69 94 62 95 68 96 63 97
REMARK SMILES IDX 64 98 65 99 66 100 67 101
REMARK H PARENT 28 5 21 15 32 38 88 57 58 68
REMARK Flexibility Score: inf
ROOT
ATOM      1  C   UNL A   1      34.739  33.615  27.914  1.00  0.00     0.118 C 
ENDROOT
BRANCH   1   2
ATOM      2  N   UNL A   1      35.364  32.534  28.645  1.00  0.00    -0.352 N 
ATOM      3  C   UNL A   1      35.159  31.182  28.611  1.00  0.00     0.251 C 
ATOM      4  O   UNL A   1      35.832  30.481  29.365  1.00  0.00    -0.269 OA
ATOM      5  H   UNL A   1      36.060  32.823  29.280  1.00  0.00     0.163 HD
BRANCH   3   6
ATOM      6  C   UNL A   1      34.223  30.535  27.651  1.00  0.00     0.039 A 
ATOM      7  C   UNL A   1      32.688  29.255  25.685  1.00  0.00     0.041 A 
ATOM      8  C   UNL A   1      33.898  28.701  26.098  1.00  0.00     0.027 A 
ATOM      9  C   UNL A   1      32.211  30.407  26.292  1.00  0.00     0.027 A 
ATOM     10  C   UNL A   1      34.675  29.357  27.051  1.00  0.00     0.016 A 
ATOM     11  C   UNL A   1      32.953  31.009  27.310  1.00  0.00     0.016 A 
BRANCH   7  12
ATOM     12  N   UNL A   1      31.962  28.575  24.704  1.00  0.00    -0.326 N 
ATOM     13  O   UNL A   1      33.144  29.155  22.799  1.00  0.00    -0.275 OA
ATOM     14  C   UNL A   1      32.197  28.600  23.348  1.00  0.00     0.226 C 
ATOM     15  H   UNL A   1      31.207  28.023  25.013  1.00  0.00     0.169 HD
BRANCH  14  16
ATOM     16  C   UNL A   1      31.119  27.909  22.533  1.00  0.00     0.122 C 
BRANCH  16  17
ATOM     17  C   UNL A   1      30.692  26.515  23.017  1.00  0.00     0.137 C 
BRANCH  17  18
ATOM     18  N   UNL A   1      31.779  25.519  23.095  1.00  0.00    -0.292 N 
ATOM     19  C   UNL A   1      32.188  25.049  24.339  1.00  0.00     0.266 C 
ATOM     20  C   UNL A   1      32.493  25.051  22.007  1.00  0.00     0.148 C 
ATOM     21  O   UNL A   1      31.753  25.414  25.423  1.00  0.00    -0.268 OA
ATOM     22  C   UNL A   1      33.183  23.952  24.181  1.00  0.00     0.081 C 
ATOM     23  S   UNL A   1      33.561  23.754  22.517  1.00  0.00    -0.054 SA
ATOM     24  S   UNL A   1      32.419  25.556  20.422  1.00  0.00    -0.052 S 
ATOM     25  C   UNL A   1      33.603  23.213  25.221  1.00  0.00     0.031 C 
BRANCH  25  26
ATOM     26  C   UNL A   1      34.505  22.039  25.159  1.00  0.00    -0.004 A 
ATOM     27  C   UNL A   1      35.878  22.222  25.397  1.00  0.00     0.010 A 
ATOM     28  C   UNL A   1      34.038  20.733  24.889  1.00  0.00     0.066 A 
ATOM     29  C   UNL A   1      36.776  21.162  25.288  1.00  0.00     0.002 A 
ATOM     30  C   UNL A   1      34.951  19.670  24.771  1.00  0.00     0.060 A 
ATOM     31  Cl  UNL A   1      32.338  20.431  24.733  1.00  0.00    -0.082 Cl
ATOM     32  C   UNL A   1      36.316  19.891  24.959  1.00  0.00     0.022 A 
ATOM     33  Cl  UNL A   1      34.461  18.054  24.391  1.00  0.00    -0.083 Cl
ENDBRANCH  25  26
ENDBRANCH  17  18
ENDBRANCH  16  17
ENDBRANCH  14  16
ENDBRANCH   7  12
ENDBRANCH   3   6
ENDBRANCH   1   2
BRANCH   1  34
ATOM     34  C   UNL A   1      33.467  34.070  28.626  1.00  0.00     0.042 C 
BRANCH  34  35
ATOM     35  C   UNL A   1      33.605  35.462  29.226  1.00  0.00     0.118 C 
BRANCH  35  36
ATOM     36  N   UNL A   1      32.833  35.583  30.451  1.00  0.00    -0.352 N 
ATOM     37  C   UNL A   1      33.046  35.022  31.680  1.00  0.00     0.251 C 
ATOM     38  H   UNL A   1      32.035  36.156  30.388  1.00  0.00     0.163 HD
ATOM     39  O   UNL A   1      32.127  34.995  32.494  1.00  0.00    -0.269 OA
BRANCH  37  40
ATOM     40  C   UNL A   1      34.369  34.466  32.031  1.00  0.00     0.039 A 
ATOM     41  C   UNL A   1      34.485  33.088  32.227  1.00  0.00     0.014 A 
ATOM     42  C   UNL A   1      35.475  35.299  32.231  1.00  0.00     0.014 A 
ATOM     43  C   UNL A   1      35.711  32.547  32.608  1.00  0.00     0.010 A 
ATOM     44  C   UNL A   1      36.717  34.748  32.519  1.00  0.00     0.010 A 
ATOM     45  C   UNL A   1      36.842  33.371  32.740  1.00  0.00    -0.014 A 
BRANCH  45  46
ATOM     46  C   UNL A   1      38.151  32.802  33.140  1.00  0.00     0.031 A 
ATOM     47  C   UNL A   1      38.683  33.021  34.530  1.00  0.00     0.074 A 
ATOM     48  C   UNL A   1      38.868  32.107  32.236  1.00  0.00     0.049 A 
ATOM     49  N   UNL A   1      39.787  32.569  35.070  1.00  0.00    -0.248 NA
ATOM     50  C   UNL A   1      37.888  33.880  35.423  1.00  0.00     0.031 C 
ATOM     51  C   UNL A   1      38.468  31.861  30.848  1.00  0.00     0.029 A 
ATOM     52  N   UNL A   1      40.074  31.464  32.354  1.00  0.00    -0.354 N 
ATOM     53  C   UNL A   1      39.823  33.099  36.356  1.00  0.00     0.074 A 
ATOM     54  C   UNL A   1      38.666  33.956  36.491  1.00  0.00     0.031 C 
ATOM     55  C   UNL A   1      39.380  31.070  30.262  1.00  0.00     0.029 A 
ATOM     56  C   UNL A   1      40.450  30.793  31.215  1.00  0.00     0.049 A 
ATOM     57  H   UNL A   1      40.617  31.482  33.174  1.00  0.00     0.167 HD
ATOM     58  C   UNL A   1      40.724  32.875  37.342  1.00  0.00     0.031 A 
ATOM     59  C   UNL A   1      41.531  30.027  30.971  1.00  0.00     0.031 A 
ATOM     60  C   UNL A   1      41.874  32.023  37.192  1.00  0.00     0.049 A 
ATOM     61  C   UNL A   1      42.532  29.812  32.071  1.00  0.00     0.074 A 
ATOM     62  C   UNL A   1      42.824  31.682  38.139  1.00  0.00     0.029 A 
ATOM     63  N   UNL A   1      42.238  31.386  36.014  1.00  0.00    -0.354 N 
ATOM     64  N   UNL A   1      42.512  30.258  33.305  1.00  0.00    -0.248 NA
ATOM     65  C   UNL A   1      43.697  28.978  31.748  1.00  0.00     0.031 C 
ATOM     66  C   UNL A   1      43.797  30.894  37.516  1.00  0.00     0.029 A 
ATOM     67  C   UNL A   1      43.415  30.680  36.200  1.00  0.00     0.049 A 
ATOM     68  H   UNL A   1      41.733  31.428  35.170  1.00  0.00     0.167 HD
ATOM     69  C   UNL A   1      43.643  29.729  33.916  1.00  0.00     0.074 A 
ATOM     70  C   UNL A   1      44.318  28.924  32.918  1.00  0.00     0.031 C 
ATOM     71  C   UNL A   1      44.077  29.889  35.192  1.00  0.00     0.031 A 
BRANCH  58  72
ATOM     72  C   UNL A   1      40.509  33.589  38.654  1.00  0.00    -0.014 A 
ATOM     73  C   UNL A   1      39.654  33.065  39.643  1.00  0.00     0.010 A 
ATOM     74  C   UNL A   1      41.170  34.805  38.903  1.00  0.00     0.010 A 
ATOM     75  C   UNL A   1      39.411  33.776  40.820  1.00  0.00     0.020 A 
ATOM     76  C   UNL A   1      40.958  35.503  40.096  1.00  0.00     0.020 A 
ATOM     77  C   UNL A   1      40.058  34.996  41.036  1.00  0.00     0.054 A 
BRANCH  77  78
ATOM     78  S   UNL A   1      39.709  35.909  42.565  1.00  0.00     0.124 S 
ATOM     79  O   UNL A   1      39.333  37.223  42.050  1.00  0.00    -0.237 OA
ATOM     80  O   UNL A   1      38.624  35.134  43.159  1.00  0.00    -0.237 OA
ATOM     81  O   UNL A   1      40.974  35.865  43.293  1.00  0.00    -0.744 OA
ENDBRANCH  77  78
ENDBRANCH  58  72
BRANCH  59  82
ATOM     82  C   UNL A   1      41.684  29.367  29.645  1.00  0.00    -0.014 A 
ATOM     83  C   UNL A   1      42.423  29.993  28.625  1.00  0.00     0.010 A 
ATOM     84  C   UNL A   1      41.128  28.097  29.406  1.00  0.00     0.010 A 
ATOM     85  C   UNL A   1      42.594  29.367  27.388  1.00  0.00     0.020 A 
ATOM     86  C   UNL A   1      41.322  27.456  28.180  1.00  0.00     0.020 A 
ATOM     87  C   UNL A   1      42.048  28.098  27.176  1.00  0.00     0.054 A 
BRANCH  87  88
ATOM     88  S   UNL A   1      42.340  27.279  25.584  1.00  0.00     0.124 S 
ATOM     89  O   UNL A   1      43.642  26.655  25.798  1.00  0.00    -0.237 OA
ATOM     90  O   UNL A   1      41.206  26.363  25.489  1.00  0.00    -0.237 OA
ATOM     91  O   UNL A   1      42.324  28.380  24.623  1.00  0.00    -0.744 OA
ENDBRANCH  87  88
ENDBRANCH  59  82
BRANCH  71  92
ATOM     92  C   UNL A   1      45.325  29.147  35.594  1.00  0.00    -0.014 A 
ATOM     93  C   UNL A   1      45.270  27.837  36.102  1.00  0.00     0.010 A 
ATOM     94  C   UNL A   1      46.580  29.758  35.411  1.00  0.00     0.010 A 
ATOM     95  C   UNL A   1      46.445  27.166  36.453  1.00  0.00     0.020 A 
ATOM     96  C   UNL A   1      47.757  29.078  35.728  1.00  0.00     0.020 A 
ATOM     97  C   UNL A   1      47.681  27.791  36.262  1.00  0.00     0.054 A 
BRANCH  97  98
ATOM     98  S   UNL A   1      49.193  26.882  36.684  1.00  0.00     0.124 S 
ATOM     99  O   UNL A   1      49.398  27.263  38.078  1.00  0.00    -0.237 OA
ATOM    100  O   UNL A   1      48.802  25.492  36.462  1.00  0.00    -0.237 OA
ATOM    101  O   UNL A   1      50.184  27.401  35.743  1.00  0.00    -0.744 OA
ENDBRANCH  97  98
ENDBRANCH  71  92
ENDBRANCH  45  46
ENDBRANCH  37  40
ENDBRANCH  35  36
ENDBRANCH  34  35
ENDBRANCH   1  34
TORSDOF 18
ENDMDL
MODEL 3
REMARK VINA RESULT:      -9.6      4.813      8.818
REMARK SMILES O=C(CCN1C(=O)/C(=C/c2cccc(Cl)c2Cl)SC1=S)Nc1ccc(C(=O)NCCCNC(=O)c2ccc(-c3c4nc(c(-c5ccc(S(=O)(=O)[O-])cc5)c5ccc([nH]5)c(-c5ccc(S(=O)(=O)[O-])cc5)c5nc(c(-c6ccc(S(=O)(=O)[O-])cc6)c6ccc3[nH]6)C=C5)C=C4)cc2)cc1
REMARK SMILES IDX 29 1 28 2 26 3 27 4 25 6 22 7 23 8 96 9 24 10 95 11 21 12
REMARK SMILES IDX 1 13 2 14 3 16 4 17 5 18 6 19 19 20 7 21 8 22 18 23 20 24
REMARK SMILES IDX 9 25 10 26 11 27 16 28 12 29 14 30 17 31 13 32 15 33 30 34
REMARK SMILES IDX 31 35 32 36 33 37 34 39 35 40 36 41 94 42 37 43 93 44 38 45
REMARK SMILES IDX 39 46 40 47 87 48 41 49 92 50 86 51 88 52 42 53 91 54 85 55
REMARK SMILES IDX 84 56 43 58 73 59 54 60 72 61 55 62 58 63 71 64 89 65 56 66
REMARK SMILES IDX 57 67 70 69 90 70 59 71 44 72 45 73 53 74 46 75 52 76 47 77
REMARK SMILES IDX 48 78 49 79 50 80 51 81 74 82 75 83 83 84 76 85 82 86 77 87
REMARK SMILES IDX 78 88 79 89 80 90 81 91 60 92 61 93 69 94 62 95 68 96 63 97
REMARK SMILES IDX 64 98 65 99 66 100 67 101
REMARK H PARENT 28 5 21 15 32 38 88 57 58 68
REMARK Flexibility Score: inf
ROOT
ATOM      1  C   UNL A   1      34.991  33.367  27.951  1.00  0.00     0.118 C 
ENDROOT
BRANCH   1   2
ATOM      2  N   UNL A   1      35.536  32.371  28.848  1.00  0.00    -0.352 N 
ATOM      3  C   UNL A   1      35.388  31.012  28.886  1.00  0.00     0.251 C 
ATOM      4  O   UNL A   1      35.963  30.398  29.784  1.00  0.00    -0.269 OA
ATOM      5  H   UNL A   1      36.115  32.736  29.557  1.00  0.00     0.163 HD
BRANCH   3   6
ATOM      6  C   UNL A   1      34.634  30.255  27.849  1.00  0.00     0.039 A 
ATOM      7  C   UNL A   1      33.467  28.761  25.783  1.00  0.00     0.041 A 
ATOM      8  C   UNL A   1      34.596  28.281  26.442  1.00  0.00     0.027 A 
ATOM      9  C   UNL A   1      32.882  29.951  26.191  1.00  0.00     0.027 A 
ATOM     10  C   UNL A   1      35.194  29.041  27.445  1.00  0.00     0.016 A 
ATOM     11  C   UNL A   1      33.434  30.662  27.258  1.00  0.00     0.016 A 
BRANCH   7  12
ATOM     12  N   UNL A   1      32.925  27.976  24.763  1.00  0.00    -0.326 N 
ATOM     13  O   UNL A   1      31.298  26.807  25.923  1.00  0.00    -0.275 OA
ATOM     14  C   UNL A   1      31.929  27.035  24.896  1.00  0.00     0.226 C 
ATOM     15  H   UNL A   1      33.291  28.109  23.859  1.00  0.00     0.169 HD
BRANCH  14  16
ATOM     16  C   UNL A   1      31.694  26.219  23.638  1.00  0.00     0.122 C 
BRANCH  16  17
ATOM     17  C   UNL A   1      31.705  24.693  23.808  1.00  0.00     0.137 C 
BRANCH  17  18
ATOM     18  N   UNL A   1      32.866  24.154  24.545  1.00  0.00    -0.292 N 
ATOM     19  C   UNL A   1      34.107  24.099  23.920  1.00  0.00     0.266 C 
ATOM     20  C   UNL A   1      32.806  23.618  25.819  1.00  0.00     0.148 C 
ATOM     21  O   UNL A   1      34.345  24.428  22.766  1.00  0.00    -0.268 OA
ATOM     22  C   UNL A   1      35.157  23.666  24.883  1.00  0.00     0.081 C 
ATOM     23  S   UNL A   1      34.429  23.264  26.386  1.00  0.00    -0.054 SA
ATOM     24  S   UNL A   1      31.463  23.327  26.761  1.00  0.00    -0.052 S 
ATOM     25  C   UNL A   1      36.465  23.699  24.577  1.00  0.00     0.031 C 
BRANCH  25  26
ATOM     26  C   UNL A   1      37.591  23.390  25.490  1.00  0.00    -0.004 A 
ATOM     27  C   UNL A   1      38.049  24.387  26.367  1.00  0.00     0.010 A 
ATOM     28  C   UNL A   1      38.213  22.122  25.529  1.00  0.00     0.066 A 
ATOM     29  C   UNL A   1      39.146  24.166  27.199  1.00  0.00     0.002 A 
ATOM     30  C   UNL A   1      39.324  21.909  26.364  1.00  0.00     0.060 A 
ATOM     31  Cl  UNL A   1      37.590  20.817  24.573  1.00  0.00    -0.082 Cl
ATOM     32  C   UNL A   1      39.793  22.935  27.186  1.00  0.00     0.022 A 
ATOM     33  Cl  UNL A   1      40.171  20.401  26.429  1.00  0.00    -0.083 Cl
ENDBRANCH  25  26
ENDBRANCH  17  18
ENDBRANCH  16  17
ENDBRANCH  14  16
ENDBRANCH   7  12
ENDBRANCH   3   6
ENDBRANCH   1   2
BRANCH   1  34
ATOM     34  C   UNL A   1      33.724  33.979  28.546  1.00  0.00     0.042 C 
BRANCH  34  35
ATOM     35  C   UNL A   1      33.985  35.331  29.197  1.00  0.00     0.118 C 
BRANCH  35  36
ATOM     36  N   UNL A   1      33.164  35.507  30.384  1.00  0.00    -0.352 N 
ATOM     37  C   UNL A   1      33.303  34.967  31.633  1.00  0.00     0.251 C 
ATOM     38  H   UNL A   1      32.390  36.105  30.272  1.00  0.00     0.163 HD
ATOM     39  O   UNL A   1      32.348  34.991  32.405  1.00  0.00    -0.269 OA
BRANCH  37  40
ATOM     40  C   UNL A   1      34.589  34.374  32.055  1.00  0.00     0.039 A 
ATOM     41  C   UNL A   1      35.700  35.209  32.185  1.00  0.00     0.014 A 
ATOM     42  C   UNL A   1      34.718  32.996  32.258  1.00  0.00     0.014 A 
ATOM     43  C   UNL A   1      36.935  34.665  32.532  1.00  0.00     0.010 A 
ATOM     44  C   UNL A   1      35.927  32.469  32.696  1.00  0.00     0.010 A 
ATOM     45  C   UNL A   1      37.054  33.292  32.807  1.00  0.00    -0.014 A 
BRANCH  45  46
ATOM     46  C   UNL A   1      38.363  32.706  33.183  1.00  0.00     0.031 A 
ATOM     47  C   UNL A   1      38.926  32.924  34.561  1.00  0.00     0.074 A 
ATOM     48  C   UNL A   1      39.052  31.996  32.269  1.00  0.00     0.049 A 
ATOM     49  N   UNL A   1      40.033  32.458  35.082  1.00  0.00    -0.248 NA
ATOM     50  C   UNL A   1      38.161  33.798  35.466  1.00  0.00     0.031 C 
ATOM     51  C   UNL A   1      38.621  31.750  30.891  1.00  0.00     0.029 A 
ATOM     52  N   UNL A   1      40.250  31.336  32.366  1.00  0.00    -0.354 N 
ATOM     53  C   UNL A   1      40.102  32.993  36.364  1.00  0.00     0.074 A 
ATOM     54  C   UNL A   1      38.961  33.868  36.518  1.00  0.00     0.031 C 
ATOM     55  C   UNL A   1      39.510  30.943  30.290  1.00  0.00     0.029 A 
ATOM     56  C   UNL A   1      40.594  30.655  31.223  1.00  0.00     0.049 A 
ATOM     57  H   UNL A   1      40.810  31.350  33.175  1.00  0.00     0.167 HD
ATOM     58  C   UNL A   1      41.019  32.760  37.333  1.00  0.00     0.031 A 
ATOM     59  C   UNL A   1      41.659  29.872  30.962  1.00  0.00     0.031 A 
ATOM     60  C   UNL A   1      42.154  31.891  37.165  1.00  0.00     0.049 A 
ATOM     61  C   UNL A   1      42.678  29.647  32.043  1.00  0.00     0.074 A 
ATOM     62  C   UNL A   1      43.117  31.540  38.095  1.00  0.00     0.029 A 
ATOM     63  N   UNL A   1      42.485  31.243  35.983  1.00  0.00    -0.354 N 
ATOM     64  N   UNL A   1      42.689  30.099  33.275  1.00  0.00    -0.248 NA
ATOM     65  C   UNL A   1      43.825  28.795  31.701  1.00  0.00     0.031 C 
ATOM     66  C   UNL A   1      44.066  30.735  37.457  1.00  0.00     0.029 A 
ATOM     67  C   UNL A   1      43.655  30.521  36.150  1.00  0.00     0.049 A 
ATOM     68  H   UNL A   1      41.964  31.289  35.149  1.00  0.00     0.167 HD
ATOM     69  C   UNL A   1      43.824  29.557  33.867  1.00  0.00     0.074 A 
ATOM     70  C   UNL A   1      44.467  28.737  32.859  1.00  0.00     0.031 C 
ATOM     71  C   UNL A   1      44.286  29.716  35.132  1.00  0.00     0.031 A 
BRANCH  58  72
ATOM     72  C   UNL A   1      40.841  33.483  38.646  1.00  0.00    -0.014 A 
ATOM     73  C   UNL A   1      40.316  32.829  39.778  1.00  0.00     0.010 A 
ATOM     74  C   UNL A   1      41.200  34.838  38.751  1.00  0.00     0.010 A 
ATOM     75  C   UNL A   1      40.089  33.535  40.963  1.00  0.00     0.020 A 
ATOM     76  C   UNL A   1      41.009  35.539  39.946  1.00  0.00     0.020 A 
ATOM     77  C   UNL A   1      40.429  34.888  41.037  1.00  0.00     0.054 A 
BRANCH  77  78
ATOM     78  S   UNL A   1      40.107  35.784  42.581  1.00  0.00     0.124 S 
ATOM     79  O   UNL A   1      41.218  36.731  42.616  1.00  0.00    -0.237 OA
ATOM     80  O   UNL A   1      38.791  36.370  42.341  1.00  0.00    -0.237 OA
ATOM     81  O   UNL A   1      40.145  34.742  43.603  1.00  0.00    -0.744 OA
ENDBRANCH  77  78
ENDBRANCH  58  72
BRANCH  59  82
ATOM     82  C   UNL A   1      41.776  29.204  29.636  1.00  0.00    -0.014 A 
ATOM     83  C   UNL A   1      42.298  29.905  28.535  1.00  0.00     0.010 A 
ATOM     84  C   UNL A   1      41.405  27.857  29.475  1.00  0.00     0.010 A 
ATOM     85  C   UNL A   1      42.438  29.276  27.295  1.00  0.00     0.020 A 
ATOM     86  C   UNL A   1      41.569  27.216  28.244  1.00  0.00     0.020 A 
ATOM     87  C   UNL A   1      42.078  27.932  27.160  1.00  0.00     0.054 A 
BRANCH  87  88
ATOM     88  S   UNL A   1      42.330  27.120  25.557  1.00  0.00     0.124 S 
ATOM     89  O   UNL A   1      41.099  26.350  25.410  1.00  0.00    -0.237 OA
ATOM     90  O   UNL A   1      42.479  28.257  24.650  1.00  0.00    -0.237 OA
ATOM     91  O   UNL A   1      43.543  26.331  25.760  1.00  0.00    -0.744 OA
ENDBRANCH  87  88
ENDBRANCH  59  82
BRANCH  71  92
ATOM     92  C   UNL A   1      45.530  28.957  35.514  1.00  0.00    -0.014 A 
ATOM     93  C   UNL A   1      46.809  29.525  35.376  1.00  0.00     0.010 A 
ATOM     94  C   UNL A   1      45.408  27.669  36.068  1.00  0.00     0.010 A 
ATOM     95  C   UNL A   1      47.946  28.804  35.753  1.00  0.00     0.020 A 
ATOM     96  C   UNL A   1      46.539  26.959  36.477  1.00  0.00     0.020 A 
ATOM     97  C   UNL A   1      47.802  27.525  36.303  1.00  0.00     0.054 A 
BRANCH  97  98
ATOM     98  S   UNL A   1      49.290  26.628  36.824  1.00  0.00     0.124 S 
ATOM     99  O   UNL A   1      49.620  27.292  38.082  1.00  0.00    -0.237 OA
ATOM    100  O   UNL A   1      48.808  25.254  36.945  1.00  0.00    -0.237 OA
ATOM    101  O   UNL A   1      50.234  26.857  35.732  1.00  0.00    -0.744 OA
ENDBRANCH  97  98
ENDBRANCH  71  92
ENDBRANCH  45  46
ENDBRANCH  37  40
ENDBRANCH  35  36
ENDBRANCH  34  35
ENDBRANCH   1  34
TORSDOF 18
ENDMDL
