MODEL 1
REMARK VINA RESULT:     -10.1      0.000      0.000
REMARK SMILES CC(C)OCCS(=O)(=O)N1CCC[C@H](C(=O)NCCCNC(=O)c2ccc(-c3c4nc(c(-c5ccc(S(=O)(=O)[O-])cc5)c5ccc([nH]5)c(-c5ccc(S(=O)(=O)[O-])cc5)c5nc(c(-c6ccc(S(=O)(=O)[O-])cc6)c6ccc3[nH]6)C=C5)C=C4)cc2)C1
REMARK SMILES IDX 18 1 17 2 15 3 16 4 14 6 10 7 11 8 84 9 12 10 13 11 7 12
REMARK SMILES IDX 8 13 9 14 6 15 5 16 4 17 2 18 1 19 3 20 19 21 20 22 21 23
REMARK SMILES IDX 22 24 23 26 24 27 25 28 83 29 26 30 82 31 27 32 28 33 29 34
REMARK SMILES IDX 76 35 30 36 81 37 75 38 77 39 31 40 80 41 74 42 73 43 32 45
REMARK SMILES IDX 62 46 43 47 61 48 44 49 47 50 60 51 78 52 45 53 46 54 59 56
REMARK SMILES IDX 79 57 48 58 33 59 34 60 42 61 35 62 41 63 36 64 37 65 38 66
REMARK SMILES IDX 39 67 40 68 63 69 64 70 72 71 65 72 71 73 66 74 67 75 68 76
REMARK SMILES IDX 69 77 70 78 49 79 50 80 58 81 51 82 57 83 52 84 53 85 54 86
REMARK SMILES IDX 55 87 56 88
REMARK H PARENT 17 5 21 25 77 44 47 55
REMARK Flexibility Score: inf
ROOT
ATOM      1  C   UNL A   1      33.177  28.313  24.561  1.00  0.00     0.117 C 
ENDROOT
BRANCH   1   2
ATOM      2  N   UNL A   1      33.533  27.429  23.466  1.00  0.00    -0.356 N 
ATOM      3  C   UNL A   1      33.279  26.113  23.269  1.00  0.00     0.224 C 
ATOM      4  O   UNL A   1      33.740  25.597  22.246  1.00  0.00    -0.275 OA
ATOM      5  H   UNL A   1      34.048  27.858  22.745  1.00  0.00     0.163 HD
BRANCH   3   6
ATOM      6  C   UNL A   1      32.478  25.265  24.251  1.00  0.00     0.093 C 
ATOM      7  N   UNL A   1      33.155  22.872  24.813  1.00  0.00    -0.201 NA
ATOM      8  C   UNL A   1      31.866  22.373  24.300  1.00  0.00     0.102 C 
ATOM      9  C   UNL A   1      33.338  24.319  25.084  1.00  0.00     0.115 C 
ATOM     10  C   UNL A   1      31.315  23.255  23.196  1.00  0.00     0.018 C 
ATOM     11  C   UNL A   1      31.196  24.697  23.649  1.00  0.00     0.016 C 
BRANCH   7  12
ATOM     12  S   UNL A   1      34.217  21.777  25.543  1.00  0.00     0.216 S 
ATOM     13  O   UNL A   1      34.569  22.302  26.846  1.00  0.00    -0.212 OA
ATOM     14  O   UNL A   1      35.250  21.500  24.568  1.00  0.00    -0.212 OA
BRANCH  12  15
ATOM     15  C   UNL A   1      33.250  20.272  25.729  1.00  0.00     0.182 C 
BRANCH  15  16
ATOM     16  C   UNL A   1      33.641  19.155  24.778  1.00  0.00     0.178 C 
BRANCH  16  17
ATOM     17  O   UNL A   1      33.066  17.889  25.119  1.00  0.00    -0.378 OA
BRANCH  17  18
ATOM     18  C   UNL A   1      33.761  16.690  24.765  1.00  0.00     0.112 C 
ATOM     19  C   UNL A   1      33.162  15.406  25.336  1.00  0.00     0.038 C 
ATOM     20  C   UNL A   1      34.014  16.634  23.265  1.00  0.00     0.038 C 
ENDBRANCH  17  18
ENDBRANCH  16  17
ENDBRANCH  15  16
ENDBRANCH  12  15
ENDBRANCH   7  12
ENDBRANCH   3   6
ENDBRANCH   1   2
BRANCH   1  21
ATOM     21  C   UNL A   1      34.222  28.273  25.657  1.00  0.00     0.042 C 
BRANCH  21  22
ATOM     22  C   UNL A   1      33.576  28.473  27.014  1.00  0.00     0.118 C 
BRANCH  22  23
ATOM     23  N   UNL A   1      33.537  29.886  27.383  1.00  0.00    -0.352 N 
ATOM     24  C   UNL A   1      34.455  30.635  28.086  1.00  0.00     0.251 C 
ATOM     25  H   UNL A   1      32.737  30.376  27.085  1.00  0.00     0.163 HD
ATOM     26  O   UNL A   1      34.144  31.734  28.533  1.00  0.00    -0.269 OA
BRANCH  24  27
ATOM     27  C   UNL A   1      35.808  30.090  28.313  1.00  0.00     0.039 A 
ATOM     28  C   UNL A   1      36.761  30.131  27.293  1.00  0.00     0.014 A 
ATOM     29  C   UNL A   1      36.138  29.561  29.558  1.00  0.00     0.014 A 
ATOM     30  C   UNL A   1      38.070  29.719  27.559  1.00  0.00     0.010 A 
ATOM     31  C   UNL A   1      37.463  29.294  29.862  1.00  0.00     0.010 A 
ATOM     32  C   UNL A   1      38.443  29.346  28.861  1.00  0.00    -0.014 A 
BRANCH  32  33
ATOM     33  C   UNL A   1      39.832  28.961  29.219  1.00  0.00     0.031 A 
ATOM     34  C   UNL A   1      40.734  29.978  29.872  1.00  0.00     0.074 A 
ATOM     35  C   UNL A   1      40.313  27.754  28.860  1.00  0.00     0.049 A 
ATOM     36  N   UNL A   1      42.020  29.917  30.099  1.00  0.00    -0.248 NA
ATOM     37  C   UNL A   1      40.116  31.257  30.272  1.00  0.00     0.031 C 
ATOM     38  C   UNL A   1      39.560  26.702  28.171  1.00  0.00     0.029 A 
ATOM     39  N   UNL A   1      41.565  27.212  29.015  1.00  0.00    -0.354 N 
ATOM     40  C   UNL A   1      42.369  31.161  30.615  1.00  0.00     0.074 A 
ATOM     41  C   UNL A   1      41.175  31.975  30.611  1.00  0.00     0.031 C 
ATOM     42  C   UNL A   1      40.353  25.632  27.997  1.00  0.00     0.029 A 
ATOM     43  C   UNL A   1      41.682  25.937  28.514  1.00  0.00     0.049 A 
ATOM     44  H   UNL A   1      42.310  27.692  29.446  1.00  0.00     0.167 HD
ATOM     45  C   UNL A   1      43.568  31.582  31.080  1.00  0.00     0.031 A 
ATOM     46  C   UNL A   1      42.745  25.111  28.467  1.00  0.00     0.031 A 
ATOM     47  C   UNL A   1      44.734  30.746  31.142  1.00  0.00     0.049 A 
ATOM     48  C   UNL A   1      44.058  25.582  29.028  1.00  0.00     0.074 A 
ATOM     49  C   UNL A   1      45.976  31.037  31.679  1.00  0.00     0.029 A 
ATOM     50  N   UNL A   1      44.796  29.445  30.665  1.00  0.00    -0.354 N 
ATOM     51  N   UNL A   1      44.353  26.742  29.565  1.00  0.00    -0.248 NA
ATOM     52  C   UNL A   1      45.179  24.635  28.979  1.00  0.00     0.031 C 
ATOM     53  C   UNL A   1      46.800  29.924  31.492  1.00  0.00     0.029 A 
ATOM     54  C   UNL A   1      46.059  28.925  30.878  1.00  0.00     0.049 A 
ATOM     55  H   UNL A   1      44.052  28.964  30.237  1.00  0.00     0.167 HD
ATOM     56  C   UNL A   1      45.691  26.658  29.932  1.00  0.00     0.074 A 
ATOM     57  C   UNL A   1      46.140  25.328  29.573  1.00  0.00     0.031 C 
ATOM     58  C   UNL A   1      46.479  27.598  30.510  1.00  0.00     0.031 A 
BRANCH  45  59
ATOM     59  C   UNL A   1      43.666  33.003  31.569  1.00  0.00    -0.014 A 
ATOM     60  C   UNL A   1      43.836  34.072  30.670  1.00  0.00     0.010 A 
ATOM     61  C   UNL A   1      43.572  33.277  32.946  1.00  0.00     0.010 A 
ATOM     62  C   UNL A   1      43.963  35.381  31.140  1.00  0.00     0.020 A 
ATOM     63  C   UNL A   1      43.668  34.590  33.418  1.00  0.00     0.020 A 
ATOM     64  C   UNL A   1      43.884  35.631  32.513  1.00  0.00     0.054 A 
BRANCH  64  65
ATOM     65  S   UNL A   1      44.038  37.342  33.095  1.00  0.00     0.124 S 
ATOM     66  O   UNL A   1      44.003  38.090  31.840  1.00  0.00    -0.237 OA
ATOM     67  O   UNL A   1      42.864  37.497  33.950  1.00  0.00    -0.237 OA
ATOM     68  O   UNL A   1      45.320  37.355  33.794  1.00  0.00    -0.744 OA
ENDBRANCH  64  65
ENDBRANCH  45  59
BRANCH  46  69
ATOM     69  C   UNL A   1      42.603  23.749  27.884  1.00  0.00    -0.014 A 
ATOM     70  C   UNL A   1      42.230  22.665  28.698  1.00  0.00     0.010 A 
ATOM     71  C   UNL A   1      42.818  23.529  26.512  1.00  0.00     0.010 A 
ATOM     72  C   UNL A   1      42.087  21.385  28.155  1.00  0.00     0.020 A 
ATOM     73  C   UNL A   1      42.652  22.256  25.959  1.00  0.00     0.020 A 
ATOM     74  C   UNL A   1      42.297  21.188  26.787  1.00  0.00     0.054 A 
BRANCH  74  75
ATOM     75  S   UNL A   1      42.048  19.531  26.090  1.00  0.00     0.124 S 
ATOM     76  O   UNL A   1      42.506  18.673  27.178  1.00  0.00    -0.237 OA
ATOM     77  O   UNL A   1      40.611  19.510  25.828  1.00  0.00    -0.237 OA
ATOM     78  O   UNL A   1      42.890  19.534  24.896  1.00  0.00    -0.744 OA
ENDBRANCH  74  75
ENDBRANCH  46  69
BRANCH  58  79
ATOM     79  C   UNL A   1      47.903  27.215  30.804  1.00  0.00    -0.014 A 
ATOM     80  C   UNL A   1      48.913  27.411  29.845  1.00  0.00     0.010 A 
ATOM     81  C   UNL A   1      48.243  26.726  32.077  1.00  0.00     0.010 A 
ATOM     82  C   UNL A   1      50.240  27.101  30.151  1.00  0.00     0.020 A 
ATOM     83  C   UNL A   1      49.572  26.438  32.393  1.00  0.00     0.020 A 
ATOM     84  C   UNL A   1      50.562  26.618  31.423  1.00  0.00     0.054 A 
BRANCH  84  85
ATOM     85  S   UNL A   1      52.299  26.278  31.814  1.00  0.00     0.124 S 
ATOM     86  O   UNL A   1      52.431  26.865  33.145  1.00  0.00    -0.237 OA
ATOM     87  O   UNL A   1      52.360  24.819  31.761  1.00  0.00    -0.237 OA
ATOM     88  O   UNL A   1      53.033  26.965  30.755  1.00  0.00    -0.744 OA
ENDBRANCH  84  85
ENDBRANCH  58  79
ENDBRANCH  32  33
ENDBRANCH  24  27
ENDBRANCH  22  23
ENDBRANCH  21  22
ENDBRANCH   1  21
TORSDOF 18
ENDMDL
MODEL 2
REMARK VINA RESULT:     -10.0      3.071      3.926
REMARK SMILES CC(C)OCCS(=O)(=O)N1CCC[C@H](C(=O)NCCCNC(=O)c2ccc(-c3c4nc(c(-c5ccc(S(=O)(=O)[O-])cc5)c5ccc([nH]5)c(-c5ccc(S(=O)(=O)[O-])cc5)c5nc(c(-c6ccc(S(=O)(=O)[O-])cc6)c6ccc3[nH]6)C=C5)C=C4)cc2)C1
REMARK SMILES IDX 18 1 17 2 15 3 16 4 14 6 10 7 11 8 84 9 12 10 13 11 7 12
REMARK SMILES IDX 8 13 9 14 6 15 5 16 4 17 2 18 1 19 3 20 19 21 20 22 21 23
REMARK SMILES IDX 22 24 23 26 24 27 25 28 83 29 26 30 82 31 27 32 28 33 29 34
REMARK SMILES IDX 76 35 30 36 81 37 75 38 77 39 31 40 80 41 74 42 73 43 32 45
REMARK SMILES IDX 62 46 43 47 61 48 44 49 47 50 60 51 78 52 45 53 46 54 59 56
REMARK SMILES IDX 79 57 48 58 33 59 34 60 42 61 35 62 41 63 36 64 37 65 38 66
REMARK SMILES IDX 39 67 40 68 63 69 64 70 72 71 65 72 71 73 66 74 67 75 68 76
REMARK SMILES IDX 69 77 70 78 49 79 50 80 58 81 51 82 57 83 52 84 53 85 54 86
REMARK SMILES IDX 55 87 56 88
REMARK H PARENT 17 5 21 25 77 44 47 55
REMARK Flexibility Score: inf
ROOT
ATOM      1  C   UNL A   1      33.145  30.617  27.107  1.00  0.00     0.117 C 
ENDROOT
BRANCH   1   2
ATOM      2  N   UNL A   1      33.109  30.082  25.758  1.00  0.00    -0.356 N 
ATOM      3  C   UNL A   1      33.018  28.807  25.312  1.00  0.00     0.224 C 
ATOM      4  O   UNL A   1      33.044  28.635  24.089  1.00  0.00    -0.275 OA
ATOM      5  H   UNL A   1      33.162  30.761  25.048  1.00  0.00     0.163 HD
BRANCH   3   6
ATOM      6  C   UNL A   1      32.902  27.606  26.244  1.00  0.00     0.093 C 
ATOM      7  N   UNL A   1      33.516  25.254  25.475  1.00  0.00    -0.201 NA
ATOM      8  C   UNL A   1      32.139  24.795  25.735  1.00  0.00     0.102 C 
ATOM      9  C   UNL A   1      33.983  26.552  26.018  1.00  0.00     0.115 C 
ATOM     10  C   UNL A   1      31.126  25.909  25.554  1.00  0.00     0.018 C 
ATOM     11  C   UNL A   1      31.469  27.111  26.413  1.00  0.00     0.016 C 
BRANCH   7  12
ATOM     12  S   UNL A   1      34.675  24.115  25.004  1.00  0.00     0.216 S 
ATOM     13  O   UNL A   1      35.952  24.534  25.543  1.00  0.00    -0.212 OA
ATOM     14  O   UNL A   1      34.512  23.934  23.578  1.00  0.00    -0.212 OA
BRANCH  12  15
ATOM     15  C   UNL A   1      34.148  22.588  25.793  1.00  0.00     0.182 C 
BRANCH  15  16
ATOM     16  C   UNL A   1      35.220  21.514  25.856  1.00  0.00     0.178 C 
BRANCH  16  17
ATOM     17  O   UNL A   1      35.955  21.369  24.636  1.00  0.00    -0.378 OA
BRANCH  17  18
ATOM     18  C   UNL A   1      37.363  21.126  24.695  1.00  0.00     0.112 C 
ATOM     19  C   UNL A   1      38.131  22.028  25.659  1.00  0.00     0.038 C 
ATOM     20  C   UNL A   1      37.649  19.643  24.885  1.00  0.00     0.038 C 
ENDBRANCH  17  18
ENDBRANCH  16  17
ENDBRANCH  15  16
ENDBRANCH  12  15
ENDBRANCH   7  12
ENDBRANCH   3   6
ENDBRANCH   1   2
BRANCH   1  21
ATOM     21  C   UNL A   1      34.508  31.195  27.429  1.00  0.00     0.042 C 
BRANCH  21  22
ATOM     22  C   UNL A   1      35.359  30.172  28.157  1.00  0.00     0.118 C 
BRANCH  22  23
ATOM     23  N   UNL A   1      35.443  30.467  29.585  1.00  0.00    -0.352 N 
ATOM     24  C   UNL A   1      36.412  30.117  30.498  1.00  0.00     0.251 C 
ATOM     25  H   UNL A   1      34.695  30.994  29.948  1.00  0.00     0.163 HD
ATOM     26  O   UNL A   1      36.194  30.218  31.701  1.00  0.00    -0.269 OA
BRANCH  24  27
ATOM     27  C   UNL A   1      37.706  29.598  30.014  1.00  0.00     0.039 A 
ATOM     28  C   UNL A   1      38.144  29.899  28.722  1.00  0.00     0.014 A 
ATOM     29  C   UNL A   1      38.502  28.829  30.860  1.00  0.00     0.014 A 
ATOM     30  C   UNL A   1      39.421  29.500  28.319  1.00  0.00     0.010 A 
ATOM     31  C   UNL A   1      39.816  28.564  30.514  1.00  0.00     0.010 A 
ATOM     32  C   UNL A   1      40.287  28.873  29.231  1.00  0.00    -0.014 A 
BRANCH  32  33
ATOM     33  C   UNL A   1      41.676  28.483  28.880  1.00  0.00     0.031 A 
ATOM     34  C   UNL A   1      42.757  29.535  28.873  1.00  0.00     0.074 A 
ATOM     35  C   UNL A   1      41.943  27.229  28.464  1.00  0.00     0.049 A 
ATOM     36  N   UNL A   1      43.984  29.457  28.426  1.00  0.00    -0.248 NA
ATOM     37  C   UNL A   1      42.392  30.870  29.385  1.00  0.00     0.031 C 
ATOM     38  C   UNL A   1      40.973  26.134  28.369  1.00  0.00     0.029 A 
ATOM     39  N   UNL A   1      43.116  26.666  28.026  1.00  0.00    -0.354 N 
ATOM     40  C   UNL A   1      44.512  30.737  28.554  1.00  0.00     0.074 A 
ATOM     41  C   UNL A   1      43.457  31.585  29.062  1.00  0.00     0.031 C 
ATOM     42  C   UNL A   1      41.598  25.026  27.940  1.00  0.00     0.029 A 
ATOM     43  C   UNL A   1      42.998  25.341  27.680  1.00  0.00     0.049 A 
ATOM     44  H   UNL A   1      43.963  27.166  27.967  1.00  0.00     0.167 HD
ATOM     45  C   UNL A   1      45.770  31.166  28.302  1.00  0.00     0.031 A 
ATOM     46  C   UNL A   1      43.913  24.479  27.196  1.00  0.00     0.031 A 
ATOM     47  C   UNL A   1      46.831  30.304  27.860  1.00  0.00     0.049 A 
ATOM     48  C   UNL A   1      45.317  24.965  26.962  1.00  0.00     0.074 A 
ATOM     49  C   UNL A   1      48.165  30.610  27.663  1.00  0.00     0.029 A 
ATOM     50  N   UNL A   1      46.677  28.957  27.564  1.00  0.00    -0.354 N 
ATOM     51  N   UNL A   1      45.812  26.166  27.145  1.00  0.00    -0.248 NA
ATOM     52  C   UNL A   1      46.285  23.982  26.461  1.00  0.00     0.031 C 
ATOM     53  C   UNL A   1      48.811  29.456  27.210  1.00  0.00     0.029 A 
ATOM     54  C   UNL A   1      47.889  28.422  27.169  1.00  0.00     0.049 A 
ATOM     55  H   UNL A   1      45.832  28.457  27.626  1.00  0.00     0.167 HD
ATOM     56  C   UNL A   1      47.155  26.078  26.795  1.00  0.00     0.074 A 
ATOM     57  C   UNL A   1      47.396  24.703  26.409  1.00  0.00     0.031 C 
ATOM     58  C   UNL A   1      48.101  27.049  26.789  1.00  0.00     0.031 A 
BRANCH  45  59
ATOM     59  C   UNL A   1      46.064  32.628  28.514  1.00  0.00    -0.014 A 
ATOM     60  C   UNL A   1      46.505  33.107  29.762  1.00  0.00     0.010 A 
ATOM     61  C   UNL A   1      45.910  33.535  27.451  1.00  0.00     0.010 A 
ATOM     62  C   UNL A   1      46.737  34.470  29.957  1.00  0.00     0.020 A 
ATOM     63  C   UNL A   1      46.171  34.897  27.633  1.00  0.00     0.020 A 
ATOM     64  C   UNL A   1      46.563  35.358  28.892  1.00  0.00     0.054 A 
BRANCH  64  65
ATOM     65  S   UNL A   1      46.885  37.121  29.168  1.00  0.00     0.124 S 
ATOM     66  O   UNL A   1      45.540  37.639  29.406  1.00  0.00    -0.237 OA
ATOM     67  O   UNL A   1      47.767  37.108  30.332  1.00  0.00    -0.237 OA
ATOM     68  O   UNL A   1      47.510  37.558  27.922  1.00  0.00    -0.744 OA
ENDBRANCH  64  65
ENDBRANCH  45  59
BRANCH  46  69
ATOM     69  C   UNL A   1      43.534  23.068  26.919  1.00  0.00    -0.014 A 
ATOM     70  C   UNL A   1      43.848  22.479  25.681  1.00  0.00     0.010 A 
ATOM     71  C   UNL A   1      42.878  22.295  27.895  1.00  0.00     0.010 A 
ATOM     72  C   UNL A   1      43.501  21.150  25.418  1.00  0.00     0.020 A 
ATOM     73  C   UNL A   1      42.552  20.959  27.646  1.00  0.00     0.020 A 
ATOM     74  C   UNL A   1      42.857  20.397  26.404  1.00  0.00     0.054 A 
BRANCH  74  75
ATOM     75  S   UNL A   1      42.470  18.657  26.065  1.00  0.00     0.124 S 
ATOM     76  O   UNL A   1      42.787  18.022  27.340  1.00  0.00    -0.237 OA
ATOM     77  O   UNL A   1      41.052  18.709  25.719  1.00  0.00    -0.237 OA
ATOM     78  O   UNL A   1      43.361  18.320  24.957  1.00  0.00    -0.744 OA
ENDBRANCH  74  75
ENDBRANCH  46  69
BRANCH  58  79
ATOM     79  C   UNL A   1      49.488  26.654  26.366  1.00  0.00    -0.014 A 
ATOM     80  C   UNL A   1      50.392  26.100  27.290  1.00  0.00     0.010 A 
ATOM     81  C   UNL A   1      49.864  26.770  25.016  1.00  0.00     0.010 A 
ATOM     82  C   UNL A   1      51.660  25.689  26.872  1.00  0.00     0.020 A 
ATOM     83  C   UNL A   1      51.121  26.336  24.591  1.00  0.00     0.020 A 
ATOM     84  C   UNL A   1      52.015  25.808  25.525  1.00  0.00     0.054 A 
BRANCH  84  85
ATOM     85  S   UNL A   1      53.645  25.212  24.997  1.00  0.00     0.124 S 
ATOM     86  O   UNL A   1      53.442  23.766  24.963  1.00  0.00    -0.237 OA
ATOM     87  O   UNL A   1      53.814  25.854  23.695  1.00  0.00    -0.237 OA
ATOM     88  O   UNL A   1      54.544  25.692  26.043  1.00  0.00    -0.744 OA
ENDBRANCH  84  85
ENDBRANCH  58  79
ENDBRANCH  32  33
ENDBRANCH  24  27
ENDBRANCH  22  23
ENDBRANCH  21  22
ENDBRANCH   1  21
TORSDOF 18
ENDMDL
MODEL 3
REMARK VINA RESULT:      -9.9      3.096      3.969
REMARK SMILES CC(C)OCCS(=O)(=O)N1CCC[C@H](C(=O)NCCCNC(=O)c2ccc(-c3c4nc(c(-c5ccc(S(=O)(=O)[O-])cc5)c5ccc([nH]5)c(-c5ccc(S(=O)(=O)[O-])cc5)c5nc(c(-c6ccc(S(=O)(=O)[O-])cc6)c6ccc3[nH]6)C=C5)C=C4)cc2)C1
REMARK SMILES IDX 18 1 17 2 15 3 16 4 14 6 10 7 11 8 84 9 12 10 13 11 7 12
REMARK SMILES IDX 8 13 9 14 6 15 5 16 4 17 2 18 1 19 3 20 19 21 20 22 21 23
REMARK SMILES IDX 22 24 23 26 24 27 25 28 83 29 26 30 82 31 27 32 28 33 29 34
REMARK SMILES IDX 76 35 30 36 81 37 75 38 77 39 31 40 80 41 74 42 73 43 32 45
REMARK SMILES IDX 62 46 43 47 61 48 44 49 47 50 60 51 78 52 45 53 46 54 59 56
REMARK SMILES IDX 79 57 48 58 33 59 34 60 42 61 35 62 41 63 36 64 37 65 38 66
REMARK SMILES IDX 39 67 40 68 63 69 64 70 72 71 65 72 71 73 66 74 67 75 68 76
REMARK SMILES IDX 69 77 70 78 49 79 50 80 58 81 51 82 57 83 52 84 53 85 54 86
REMARK SMILES IDX 55 87 56 88
REMARK H PARENT 17 5 21 25 77 44 47 55
REMARK Flexibility Score: inf
ROOT
ATOM      1  C   UNL A   1      33.919  29.436  26.695  1.00  0.00     0.117 C 
ENDROOT
BRANCH   1   2
ATOM      2  N   UNL A   1      32.761  29.036  27.473  1.00  0.00    -0.356 N 
ATOM      3  C   UNL A   1      31.840  28.067  27.259  1.00  0.00     0.224 C 
ATOM      4  O   UNL A   1      30.924  27.968  28.082  1.00  0.00    -0.275 OA
ATOM      5  H   UNL A   1      32.621  29.558  28.296  1.00  0.00     0.163 HD
BRANCH   3   6
ATOM      6  C   UNL A   1      31.885  27.128  26.057  1.00  0.00     0.093 C 
ATOM      7  N   UNL A   1      32.088  24.603  26.341  1.00  0.00    -0.201 NA
ATOM      8  C   UNL A   1      33.358  24.607  25.592  1.00  0.00     0.102 C 
ATOM      9  C   UNL A   1      31.198  25.788  26.303  1.00  0.00     0.115 C 
ATOM     10  C   UNL A   1      34.108  25.915  25.756  1.00  0.00     0.018 C 
ATOM     11  C   UNL A   1      33.245  27.099  25.367  1.00  0.00     0.016 C 
BRANCH   7  12
ATOM     12  S   UNL A   1      31.430  23.118  26.814  1.00  0.00     0.216 S 
ATOM     13  O   UNL A   1      30.068  23.353  27.246  1.00  0.00    -0.212 OA
ATOM     14  O   UNL A   1      32.386  22.520  27.722  1.00  0.00    -0.212 OA
BRANCH  12  15
ATOM     15  C   UNL A   1      31.436  22.127  25.314  1.00  0.00     0.182 C 
BRANCH  15  16
ATOM     16  C   UNL A   1      32.334  20.905  25.375  1.00  0.00     0.178 C 
BRANCH  16  17
ATOM     17  O   UNL A   1      32.432  20.207  24.128  1.00  0.00    -0.378 OA
BRANCH  17  18
ATOM     18  C   UNL A   1      32.197  18.796  24.098  1.00  0.00     0.112 C 
ATOM     19  C   UNL A   1      32.649  18.095  22.819  1.00  0.00     0.038 C 
ATOM     20  C   UNL A   1      32.708  18.136  25.372  1.00  0.00     0.038 C 
ENDBRANCH  17  18
ENDBRANCH  16  17
ENDBRANCH  15  16
ENDBRANCH  12  15
ENDBRANCH   7  12
ENDBRANCH   3   6
ENDBRANCH   1   2
BRANCH   1  21
ATOM     21  C   UNL A   1      35.188  29.344  27.519  1.00  0.00     0.042 C 
BRANCH  21  22
ATOM     22  C   UNL A   1      35.574  30.710  28.053  1.00  0.00     0.118 C 
BRANCH  22  23
ATOM     23  N   UNL A   1      35.583  30.728  29.514  1.00  0.00    -0.352 N 
ATOM     24  C   UNL A   1      36.478  30.160  30.393  1.00  0.00     0.251 C 
ATOM     25  H   UNL A   1      34.839  31.218  29.932  1.00  0.00     0.163 HD
ATOM     26  O   UNL A   1      36.192  30.046  31.580  1.00  0.00    -0.269 OA
BRANCH  24  27
ATOM     27  C   UNL A   1      37.775  29.670  29.885  1.00  0.00     0.039 A 
ATOM     28  C   UNL A   1      38.267  30.125  28.660  1.00  0.00     0.014 A 
ATOM     29  C   UNL A   1      38.520  28.773  30.647  1.00  0.00     0.014 A 
ATOM     30  C   UNL A   1      39.546  29.744  28.249  1.00  0.00     0.010 A 
ATOM     31  C   UNL A   1      39.838  28.515  30.312  1.00  0.00     0.010 A 
ATOM     32  C   UNL A   1      40.363  28.976  29.096  1.00  0.00    -0.014 A 
BRANCH  32  33
ATOM     33  C   UNL A   1      41.753  28.594  28.742  1.00  0.00     0.031 A 
ATOM     34  C   UNL A   1      42.823  29.656  28.706  1.00  0.00     0.074 A 
ATOM     35  C   UNL A   1      42.029  27.334  28.348  1.00  0.00     0.049 A 
ATOM     36  N   UNL A   1      44.047  29.582  28.251  1.00  0.00    -0.248 NA
ATOM     37  C   UNL A   1      42.448  30.996  29.196  1.00  0.00     0.031 C 
ATOM     38  C   UNL A   1      41.070  26.229  28.282  1.00  0.00     0.029 A 
ATOM     39  N   UNL A   1      43.204  26.775  27.911  1.00  0.00    -0.354 N 
ATOM     40  C   UNL A   1      44.563  30.870  28.351  1.00  0.00     0.074 A 
ATOM     41  C   UNL A   1      43.504  31.716  28.851  1.00  0.00     0.031 C 
ATOM     42  C   UNL A   1      41.703  25.118  27.869  1.00  0.00     0.029 A 
ATOM     43  C   UNL A   1      43.097  25.442  27.591  1.00  0.00     0.049 A 
ATOM     44  H   UNL A   1      44.046  27.282  27.836  1.00  0.00     0.167 HD
ATOM     45  C   UNL A   1      45.815  31.306  28.080  1.00  0.00     0.031 A 
ATOM     46  C   UNL A   1      44.017  24.581  27.116  1.00  0.00     0.031 A 
ATOM     47  C   UNL A   1      46.880  30.446  27.647  1.00  0.00     0.049 A 
ATOM     48  C   UNL A   1      45.414  25.077  26.862  1.00  0.00     0.074 A 
ATOM     49  C   UNL A   1      48.210  30.762  27.432  1.00  0.00     0.029 A 
ATOM     50  N   UNL A   1      46.739  29.093  27.377  1.00  0.00    -0.354 N 
ATOM     51  N   UNL A   1      45.899  26.286  27.018  1.00  0.00    -0.248 NA
ATOM     52  C   UNL A   1      46.388  24.093  26.371  1.00  0.00     0.031 C 
ATOM     53  C   UNL A   1      48.865  29.607  26.997  1.00  0.00     0.029 A 
ATOM     54  C   UNL A   1      47.952  28.562  26.982  1.00  0.00     0.049 A 
ATOM     55  H   UNL A   1      45.899  28.586  27.455  1.00  0.00     0.167 HD
ATOM     56  C   UNL A   1      47.239  26.205  26.659  1.00  0.00     0.074 A 
ATOM     57  C   UNL A   1      47.491  24.825  26.297  1.00  0.00     0.031 C 
ATOM     58  C   UNL A   1      48.176  27.184  26.626  1.00  0.00     0.031 A 
BRANCH  45  59
ATOM     59  C   UNL A   1      46.095  32.774  28.263  1.00  0.00    -0.014 A 
ATOM     60  C   UNL A   1      46.542  33.281  29.497  1.00  0.00     0.010 A 
ATOM     61  C   UNL A   1      45.924  33.659  27.183  1.00  0.00     0.010 A 
ATOM     62  C   UNL A   1      46.760  34.650  29.665  1.00  0.00     0.020 A 
ATOM     63  C   UNL A   1      46.173  35.027  27.338  1.00  0.00     0.020 A 
ATOM     64  C   UNL A   1      46.569  35.516  28.584  1.00  0.00     0.054 A 
BRANCH  64  65
ATOM     65  S   UNL A   1      46.876  37.287  28.825  1.00  0.00     0.124 S 
ATOM     66  O   UNL A   1      48.215  37.284  29.409  1.00  0.00    -0.237 OA
ATOM     67  O   UNL A   1      46.785  37.817  27.467  1.00  0.00    -0.237 OA
ATOM     68  O   UNL A   1      45.803  37.704  29.726  1.00  0.00    -0.744 OA
ENDBRANCH  64  65
ENDBRANCH  45  59
BRANCH  46  69
ATOM     69  C   UNL A   1      43.650  23.161  26.868  1.00  0.00    -0.014 A 
ATOM     70  C   UNL A   1      43.003  22.411  27.867  1.00  0.00     0.010 A 
ATOM     71  C   UNL A   1      43.921  22.554  25.629  1.00  0.00     0.010 A 
ATOM     72  C   UNL A   1      42.648  21.079  27.638  1.00  0.00     0.020 A 
ATOM     73  C   UNL A   1      43.545  21.230  25.386  1.00  0.00     0.020 A 
ATOM     74  C   UNL A   1      42.920  20.497  26.397  1.00  0.00     0.054 A 
BRANCH  74  75
ATOM     75  S   UNL A   1      42.396  18.784  26.098  1.00  0.00     0.124 S 
ATOM     76  O   UNL A   1      43.277  18.384  25.006  1.00  0.00    -0.237 OA
ATOM     77  O   UNL A   1      42.653  18.146  27.386  1.00  0.00    -0.237 OA
ATOM     78  O   UNL A   1      40.983  18.917  25.749  1.00  0.00    -0.744 OA
ENDBRANCH  74  75
ENDBRANCH  46  69
BRANCH  58  79
ATOM     79  C   UNL A   1      49.563  26.795  26.200  1.00  0.00    -0.014 A 
ATOM     80  C   UNL A   1      50.503  26.338  27.140  1.00  0.00     0.010 A 
ATOM     81  C   UNL A   1      49.904  26.818  24.836  1.00  0.00     0.010 A 
ATOM     82  C   UNL A   1      51.772  25.929  26.723  1.00  0.00     0.020 A 
ATOM     83  C   UNL A   1      51.163  26.387  24.413  1.00  0.00     0.020 A 
ATOM     84  C   UNL A   1      52.093  25.955  25.362  1.00  0.00     0.054 A 
BRANCH  84  85
ATOM     85  S   UNL A   1      53.726  25.365  24.840  1.00  0.00     0.124 S 
ATOM     86  O   UNL A   1      53.522  23.920  24.781  1.00  0.00    -0.237 OA
ATOM     87  O   UNL A   1      53.909  26.027  23.550  1.00  0.00    -0.237 OA
ATOM     88  O   UNL A   1      54.617  25.826  25.901  1.00  0.00    -0.744 OA
ENDBRANCH  84  85
ENDBRANCH  58  79
ENDBRANCH  32  33
ENDBRANCH  24  27
ENDBRANCH  22  23
ENDBRANCH  21  22
ENDBRANCH   1  21
TORSDOF 18
ENDMDL
