MODEL 1
REMARK VINA RESULT:     -12.5      0.000      0.000
REMARK SMILES C=C(C)COc1ccc2nc(C)n(-c3cccc(C(=O)NCCCNC(=O)c4ccc(-c5c6nc(c(-c7ccc(S(=O)(=O)[O-])cc7)c7ccc([nH]7)c(-c7ccc(S(=O)(=O)[O-])cc7)c7nc(c(-c8ccc(S(=O)(=O)[O-])cc8)c8ccc5[nH]8)C=C7)C=C6)cc4)c3)c(=O)c2c1
REMARK SMILES IDX 22 1 21 2 19 3 20 4 18 6 14 7 15 8 88 9 16 10 17 11 13 12
REMARK SMILES IDX 6 13 7 14 92 15 8 16 91 17 9 18 89 19 10 20 90 21 11 22
REMARK SMILES IDX 12 23 5 24 4 25 2 26 1 27 3 28 23 29 24 30 25 31 26 32 27 34
REMARK SMILES IDX 28 35 29 36 87 37 30 38 86 39 31 40 32 41 33 42 80 43 34 44
REMARK SMILES IDX 85 45 79 46 81 47 35 48 84 49 78 50 77 51 36 53 66 54 47 55
REMARK SMILES IDX 65 56 48 57 51 58 64 59 82 60 49 61 50 62 63 64 83 65 52 66
REMARK SMILES IDX 37 67 38 68 46 69 39 70 45 71 40 72 41 73 42 74 43 75 44 76
REMARK SMILES IDX 67 77 68 78 76 79 69 80 75 81 70 82 71 83 72 84 73 85 74 86
REMARK SMILES IDX 53 87 54 88 62 89 55 90 61 91 56 92 57 93 58 94 59 95 60 96
REMARK H PARENT 21 5 25 33 81 52 51 63
REMARK Flexibility Score: inf
ROOT
ATOM      1  C   UNL A   1      36.782  22.832  26.358  1.00  0.00     0.118 C 
ENDROOT
BRANCH   1   2
ATOM      2  N   UNL A   1      37.047  21.491  25.840  1.00  0.00    -0.352 N 
ATOM      3  C   UNL A   1      36.298  20.569  25.145  1.00  0.00     0.251 C 
ATOM      4  O   UNL A   1      36.837  19.502  24.847  1.00  0.00    -0.269 OA
ATOM      5  H   UNL A   1      37.962  21.180  26.029  1.00  0.00     0.163 HD
BRANCH   3   6
ATOM      6  C   UNL A   1      34.863  20.763  24.803  1.00  0.00     0.041 A 
ATOM      7  C   UNL A   1      32.903  22.178  24.640  1.00  0.00     0.051 A 
ATOM      8  C   UNL A   1      32.093  21.042  24.535  1.00  0.00     0.027 A 
ATOM      9  C   UNL A   1      34.293  22.017  24.609  1.00  0.00     0.040 A 
ATOM     10  C   UNL A   1      32.663  19.770  24.544  1.00  0.00     0.003 A 
ATOM     11  C   UNL A   1      34.039  19.631  24.730  1.00  0.00     0.014 A 
BRANCH   7  12
ATOM     12  N   UNL A   1      32.372  23.466  24.986  1.00  0.00    -0.264 N 
ATOM     13  C   UNL A   1      31.102  28.024  23.839  1.00  0.00     0.120 A 
ATOM     14  C   UNL A   1      31.009  28.290  25.205  1.00  0.00     0.049 A 
ATOM     15  C   UNL A   1      31.431  26.740  23.404  1.00  0.00     0.062 A 
ATOM     16  C   UNL A   1      31.281  27.290  26.135  1.00  0.00     0.033 A 
ATOM     17  C   UNL A   1      31.700  25.740  24.351  1.00  0.00     0.070 A 
ATOM     18  C   UNL A   1      31.625  26.009  25.712  1.00  0.00     0.078 A 
ATOM     19  C   UNL A   1      32.093  24.375  23.949  1.00  0.00     0.266 A 
ATOM     20  N   UNL A   1      31.916  25.056  26.680  1.00  0.00    -0.234 NA
ATOM     21  O   UNL A   1      32.155  24.120  22.746  1.00  0.00    -0.268 OA
ATOM     22  C   UNL A   1      32.299  23.877  26.313  1.00  0.00     0.113 A 
ATOM     23  C   UNL A   1      32.741  22.975  27.450  1.00  0.00     0.088 C 
BRANCH  13  24
ATOM     24  O   UNL A   1      30.801  28.960  22.885  1.00  0.00    -0.489 OA
BRANCH  24  25
ATOM     25  C   UNL A   1      29.742  29.853  23.273  1.00  0.00     0.260 C 
BRANCH  25  26
ATOM     26  C   UNL A   1      28.414  29.528  22.622  1.00  0.00    -0.043 C 
ATOM     27  C   UNL A   1      27.507  28.695  23.163  1.00  0.00     0.011 C 
ATOM     28  C   UNL A   1      28.131  30.267  21.342  1.00  0.00     0.042 C 
ENDBRANCH  25  26
ENDBRANCH  24  25
ENDBRANCH  13  24
ENDBRANCH   7  12
ENDBRANCH   3   6
ENDBRANCH   1   2
BRANCH   1  29
ATOM     29  C   UNL A   1      37.691  23.915  25.798  1.00  0.00     0.042 C 
BRANCH  29  30
ATOM     30  C   UNL A   1      38.789  24.382  26.737  1.00  0.00     0.118 C 
BRANCH  30  31
ATOM     31  N   UNL A   1      39.904  25.028  26.055  1.00  0.00    -0.352 N 
ATOM     32  C   UNL A   1      40.604  26.186  26.319  1.00  0.00     0.251 C 
ATOM     33  H   UNL A   1      40.216  24.546  25.255  1.00  0.00     0.163 HD
ATOM     34  O   UNL A   1      41.426  26.580  25.500  1.00  0.00    -0.269 OA
BRANCH  32  35
ATOM     35  C   UNL A   1      40.344  26.986  27.542  1.00  0.00     0.039 A 
ATOM     36  C   UNL A   1      40.721  28.322  27.636  1.00  0.00     0.014 A 
ATOM     37  C   UNL A   1      39.685  26.385  28.620  1.00  0.00     0.014 A 
ATOM     38  C   UNL A   1      40.663  28.975  28.865  1.00  0.00     0.010 A 
ATOM     39  C   UNL A   1      39.511  27.086  29.821  1.00  0.00     0.010 A 
ATOM     40  C   UNL A   1      40.061  28.366  29.978  1.00  0.00    -0.014 A 
BRANCH  40  41
ATOM     41  C   UNL A   1      40.040  29.086  31.281  1.00  0.00     0.031 A 
ATOM     42  C   UNL A   1      41.190  28.960  32.249  1.00  0.00     0.074 A 
ATOM     43  C   UNL A   1      39.029  29.935  31.555  1.00  0.00     0.049 A 
ATOM     44  N   UNL A   1      41.365  29.560  33.400  1.00  0.00    -0.248 NA
ATOM     45  C   UNL A   1      42.288  28.048  31.882  1.00  0.00     0.031 C 
ATOM     46  C   UNL A   1      37.875  30.174  30.685  1.00  0.00     0.029 A 
ATOM     47  N   UNL A   1      38.830  30.793  32.608  1.00  0.00    -0.354 N 
ATOM     48  C   UNL A   1      42.578  29.092  33.896  1.00  0.00     0.074 A 
ATOM     49  C   UNL A   1      43.080  28.128  32.942  1.00  0.00     0.031 C 
ATOM     50  C   UNL A   1      37.146  31.180  31.187  1.00  0.00     0.029 A 
ATOM     51  C   UNL A   1      37.728  31.603  32.458  1.00  0.00     0.049 A 
ATOM     52  H   UNL A   1      39.420  30.827  33.395  1.00  0.00     0.167 HD
ATOM     53  C   UNL A   1      43.225  29.446  35.032  1.00  0.00     0.031 A 
ATOM     54  C   UNL A   1      37.230  32.578  33.245  1.00  0.00     0.031 A 
ATOM     55  C   UNL A   1      42.728  30.412  35.977  1.00  0.00     0.049 A 
ATOM     56  C   UNL A   1      37.930  32.909  34.531  1.00  0.00     0.074 A 
ATOM     57  C   UNL A   1      43.300  30.817  37.171  1.00  0.00     0.029 A 
ATOM     58  N   UNL A   1      41.553  31.135  35.832  1.00  0.00    -0.354 N 
ATOM     59  N   UNL A   1      39.052  32.421  35.001  1.00  0.00    -0.248 NA
ATOM     60  C   UNL A   1      37.295  33.912  35.396  1.00  0.00     0.031 C 
ATOM     61  C   UNL A   1      42.448  31.745  37.771  1.00  0.00     0.029 A 
ATOM     62  C   UNL A   1      41.376  31.972  36.922  1.00  0.00     0.049 A 
ATOM     63  H   UNL A   1      40.936  31.065  35.068  1.00  0.00     0.167 HD
ATOM     64  C   UNL A   1      39.262  33.058  36.218  1.00  0.00     0.074 A 
ATOM     65  C   UNL A   1      38.162  33.985  36.400  1.00  0.00     0.031 C 
ATOM     66  C   UNL A   1      40.273  32.884  37.101  1.00  0.00     0.031 A 
BRANCH  53  67
ATOM     67  C   UNL A   1      44.547  28.785  35.329  1.00  0.00    -0.014 A 
ATOM     68  C   UNL A   1      44.585  27.603  36.091  1.00  0.00     0.010 A 
ATOM     69  C   UNL A   1      45.758  29.380  34.930  1.00  0.00     0.010 A 
ATOM     70  C   UNL A   1      45.807  27.033  36.458  1.00  0.00     0.020 A 
ATOM     71  C   UNL A   1      46.982  28.797  35.271  1.00  0.00     0.020 A 
ATOM     72  C   UNL A   1      46.999  27.636  36.048  1.00  0.00     0.054 A 
BRANCH  72  73
ATOM     73  S   UNL A   1      48.578  26.873  36.516  1.00  0.00     0.124 S 
ATOM     74  O   UNL A   1      48.212  25.466  36.650  1.00  0.00    -0.237 OA
ATOM     75  O   UNL A   1      49.440  27.199  35.383  1.00  0.00    -0.237 OA
ATOM     76  O   UNL A   1      48.926  27.552  37.763  1.00  0.00    -0.744 OA
ENDBRANCH  72  73
ENDBRANCH  53  67
BRANCH  54  77
ATOM     77  C   UNL A   1      36.017  33.315  32.799  1.00  0.00    -0.014 A 
ATOM     78  C   UNL A   1      36.133  34.442  31.964  1.00  0.00     0.010 A 
ATOM     79  C   UNL A   1      34.751  32.967  33.303  1.00  0.00     0.010 A 
ATOM     80  C   UNL A   1      35.024  35.250  31.703  1.00  0.00     0.020 A 
ATOM     81  C   UNL A   1      33.632  33.757  33.019  1.00  0.00     0.020 A 
ATOM     82  C   UNL A   1      33.785  34.914  32.251  1.00  0.00     0.054 A 
BRANCH  82  83
ATOM     83  S   UNL A   1      32.377  36.024  31.971  1.00  0.00     0.124 S 
ATOM     84  O   UNL A   1      32.744  37.179  32.786  1.00  0.00    -0.237 OA
ATOM     85  O   UNL A   1      32.418  36.236  30.527  1.00  0.00    -0.237 OA
ATOM     86  O   UNL A   1      31.234  35.254  32.453  1.00  0.00    -0.744 OA
ENDBRANCH  82  83
ENDBRANCH  54  77
BRANCH  66  87
ATOM     87  C   UNL A   1      40.259  33.699  38.367  1.00  0.00    -0.014 A 
ATOM     88  C   UNL A   1      39.789  33.124  39.562  1.00  0.00     0.010 A 
ATOM     89  C   UNL A   1      40.581  35.067  38.343  1.00  0.00     0.010 A 
ATOM     90  C   UNL A   1      39.604  33.910  40.702  1.00  0.00     0.020 A 
ATOM     91  C   UNL A   1      40.422  35.852  39.489  1.00  0.00     0.020 A 
ATOM     92  C   UNL A   1      39.910  35.273  40.652  1.00  0.00     0.054 A 
BRANCH  92  93
ATOM     93  S   UNL A   1      39.624  36.287  42.129  1.00  0.00     0.124 S 
ATOM     94  O   UNL A   1      38.420  35.681  42.690  1.00  0.00    -0.237 OA
ATOM     95  O   UNL A   1      40.848  36.085  42.902  1.00  0.00    -0.237 OA
ATOM     96  O   UNL A   1      39.453  37.635  41.590  1.00  0.00    -0.744 OA
ENDBRANCH  92  93
ENDBRANCH  66  87
ENDBRANCH  40  41
ENDBRANCH  32  35
ENDBRANCH  30  31
ENDBRANCH  29  30
ENDBRANCH   1  29
TORSDOF 17
ENDMDL
MODEL 2
REMARK VINA RESULT:     -12.4      1.552      8.019
REMARK SMILES C=C(C)COc1ccc2nc(C)n(-c3cccc(C(=O)NCCCNC(=O)c4ccc(-c5c6nc(c(-c7ccc(S(=O)(=O)[O-])cc7)c7ccc([nH]7)c(-c7ccc(S(=O)(=O)[O-])cc7)c7nc(c(-c8ccc(S(=O)(=O)[O-])cc8)c8ccc5[nH]8)C=C7)C=C6)cc4)c3)c(=O)c2c1
REMARK SMILES IDX 22 1 21 2 19 3 20 4 18 6 14 7 15 8 88 9 16 10 17 11 13 12
REMARK SMILES IDX 6 13 7 14 92 15 8 16 91 17 9 18 89 19 10 20 90 21 11 22
REMARK SMILES IDX 12 23 5 24 4 25 2 26 1 27 3 28 23 29 24 30 25 31 26 32 27 34
REMARK SMILES IDX 28 35 29 36 87 37 30 38 86 39 31 40 32 41 33 42 80 43 34 44
REMARK SMILES IDX 85 45 79 46 81 47 35 48 84 49 78 50 77 51 36 53 66 54 47 55
REMARK SMILES IDX 65 56 48 57 51 58 64 59 82 60 49 61 50 62 63 64 83 65 52 66
REMARK SMILES IDX 37 67 38 68 46 69 39 70 45 71 40 72 41 73 42 74 43 75 44 76
REMARK SMILES IDX 67 77 68 78 76 79 69 80 75 81 70 82 71 83 72 84 73 85 74 86
REMARK SMILES IDX 53 87 54 88 62 89 55 90 61 91 56 92 57 93 58 94 59 95 60 96
REMARK H PARENT 21 5 25 33 81 52 51 63
REMARK Flexibility Score: inf
ROOT
ATOM      1  C   UNL A   1      36.980  22.465  24.774  1.00  0.00     0.118 C 
ENDROOT
BRANCH   1   2
ATOM      2  N   UNL A   1      36.241  21.209  24.668  1.00  0.00    -0.352 N 
ATOM      3  C   UNL A   1      34.963  20.820  24.999  1.00  0.00     0.251 C 
ATOM      4  O   UNL A   1      34.643  19.653  24.768  1.00  0.00    -0.269 OA
ATOM      5  H   UNL A   1      36.774  20.482  24.272  1.00  0.00     0.163 HD
BRANCH   3   6
ATOM      6  C   UNL A   1      33.983  21.707  25.682  1.00  0.00     0.041 A 
ATOM      7  C   UNL A   1      32.743  23.785  25.806  1.00  0.00     0.051 A 
ATOM      8  C   UNL A   1      32.449  23.527  27.149  1.00  0.00     0.027 A 
ATOM      9  C   UNL A   1      33.371  22.786  25.053  1.00  0.00     0.040 A 
ATOM     10  C   UNL A   1      32.901  22.356  27.756  1.00  0.00     0.003 A 
ATOM     11  C   UNL A   1      33.709  21.474  27.037  1.00  0.00     0.014 A 
BRANCH   7  12
ATOM     12  N   UNL A   1      32.619  25.095  25.234  1.00  0.00    -0.264 N 
ATOM     13  C   UNL A   1      30.304  28.353  22.453  1.00  0.00     0.120 A 
ATOM     14  C   UNL A   1      31.446  29.151  22.523  1.00  0.00     0.049 A 
ATOM     15  C   UNL A   1      30.265  27.138  23.138  1.00  0.00     0.062 A 
ATOM     16  C   UNL A   1      32.559  28.724  23.243  1.00  0.00     0.033 A 
ATOM     17  C   UNL A   1      31.392  26.719  23.862  1.00  0.00     0.070 A 
ATOM     18  C   UNL A   1      32.536  27.506  23.918  1.00  0.00     0.078 A 
ATOM     19  C   UNL A   1      31.423  25.425  24.571  1.00  0.00     0.266 A 
ATOM     20  N   UNL A   1      33.683  27.112  24.595  1.00  0.00    -0.234 NA
ATOM     21  O   UNL A   1      30.413  24.721  24.538  1.00  0.00    -0.268 OA
ATOM     22  C   UNL A   1      33.709  25.958  25.177  1.00  0.00     0.113 A 
ATOM     23  C   UNL A   1      35.062  25.568  25.745  1.00  0.00     0.088 C 
BRANCH  13  24
ATOM     24  O   UNL A   1      29.168  28.749  21.797  1.00  0.00    -0.489 OA
BRANCH  24  25
ATOM     25  C   UNL A   1      28.182  29.336  22.664  1.00  0.00     0.260 C 
BRANCH  25  26
ATOM     26  C   UNL A   1      28.014  30.827  22.458  1.00  0.00    -0.043 C 
ATOM     27  C   UNL A   1      27.873  31.397  21.248  1.00  0.00     0.011 C 
ATOM     28  C   UNL A   1      27.936  31.642  23.720  1.00  0.00     0.042 C 
ENDBRANCH  25  26
ENDBRANCH  24  25
ENDBRANCH  13  24
ENDBRANCH   7  12
ENDBRANCH   3   6
ENDBRANCH   1   2
BRANCH   1  29
ATOM     29  C   UNL A   1      37.551  22.745  26.156  1.00  0.00     0.042 C 
BRANCH  29  30
ATOM     30  C   UNL A   1      38.333  24.041  26.277  1.00  0.00     0.118 C 
BRANCH  30  31
ATOM     31  N   UNL A   1      39.772  23.871  26.120  1.00  0.00    -0.352 N 
ATOM     32  C   UNL A   1      40.847  24.588  26.601  1.00  0.00     0.251 C 
ATOM     33  H   UNL A   1      40.024  23.096  25.568  1.00  0.00     0.163 HD
ATOM     34  O   UNL A   1      41.972  24.303  26.206  1.00  0.00    -0.269 OA
BRANCH  32  35
ATOM     35  C   UNL A   1      40.663  25.724  27.538  1.00  0.00     0.039 A 
ATOM     36  C   UNL A   1      41.412  26.891  27.430  1.00  0.00     0.014 A 
ATOM     37  C   UNL A   1      39.695  25.624  28.545  1.00  0.00     0.014 A 
ATOM     38  C   UNL A   1      41.372  27.839  28.448  1.00  0.00     0.010 A 
ATOM     39  C   UNL A   1      39.566  26.640  29.500  1.00  0.00     0.010 A 
ATOM     40  C   UNL A   1      40.451  27.727  29.502  1.00  0.00    -0.014 A 
BRANCH  40  41
ATOM     41  C   UNL A   1      40.455  28.748  30.587  1.00  0.00     0.031 A 
ATOM     42  C   UNL A   1      39.437  29.861  30.599  1.00  0.00     0.074 A 
ATOM     43  C   UNL A   1      41.312  28.617  31.619  1.00  0.00     0.049 A 
ATOM     44  N   UNL A   1      39.257  30.800  31.495  1.00  0.00    -0.248 NA
ATOM     45  C   UNL A   1      38.499  29.935  29.466  1.00  0.00     0.031 C 
ATOM     46  C   UNL A   1      42.321  27.562  31.743  1.00  0.00     0.029 A 
ATOM     47  N   UNL A   1      41.442  29.335  32.782  1.00  0.00    -0.354 N 
ATOM     48  C   UNL A   1      38.200  31.576  31.030  1.00  0.00     0.074 A 
ATOM     49  C   UNL A   1      37.802  31.025  29.754  1.00  0.00     0.031 C 
ATOM     50  C   UNL A   1      42.893  27.641  32.952  1.00  0.00     0.029 A 
ATOM     51  C   UNL A   1      42.358  28.802  33.659  1.00  0.00     0.049 A 
ATOM     52  H   UNL A   1      40.927  30.153  32.972  1.00  0.00     0.167 HD
ATOM     53  C   UNL A   1      37.602  32.638  31.621  1.00  0.00     0.031 A 
ATOM     54  C   UNL A   1      42.736  29.192  34.894  1.00  0.00     0.031 A 
ATOM     55  C   UNL A   1      37.994  33.180  32.896  1.00  0.00     0.049 A 
ATOM     56  C   UNL A   1      42.103  30.410  35.501  1.00  0.00     0.074 A 
ATOM     57  C   UNL A   1      37.465  34.272  33.563  1.00  0.00     0.029 A 
ATOM     58  N   UNL A   1      38.998  32.667  33.704  1.00  0.00    -0.354 N 
ATOM     59  N   UNL A   1      41.137  31.155  35.023  1.00  0.00    -0.248 NA
ATOM     60  C   UNL A   1      42.616  30.847  36.806  1.00  0.00     0.031 C 
ATOM     61  C   UNL A   1      38.181  34.450  34.748  1.00  0.00     0.029 A 
ATOM     62  C   UNL A   1      39.114  33.429  34.854  1.00  0.00     0.049 A 
ATOM     63  H   UNL A   1      39.547  31.878  33.491  1.00  0.00     0.167 HD
ATOM     64  C   UNL A   1      40.921  32.149  35.969  1.00  0.00     0.074 A 
ATOM     65  C   UNL A   1      41.843  31.898  37.058  1.00  0.00     0.031 C 
ATOM     66  C   UNL A   1      40.041  33.178  35.930  1.00  0.00     0.031 A 
BRANCH  53  67
ATOM     67  C   UNL A   1      36.456  33.298  30.897  1.00  0.00    -0.014 A 
ATOM     68  C   UNL A   1      36.692  34.001  29.702  1.00  0.00     0.010 A 
ATOM     69  C   UNL A   1      35.159  33.296  31.444  1.00  0.00     0.010 A 
ATOM     70  C   UNL A   1      35.659  34.700  29.071  1.00  0.00     0.020 A 
ATOM     71  C   UNL A   1      34.116  33.970  30.802  1.00  0.00     0.020 A 
ATOM     72  C   UNL A   1      34.377  34.683  29.628  1.00  0.00     0.054 A 
BRANCH  72  73
ATOM     73  S   UNL A   1      33.041  35.579  28.787  1.00  0.00     0.124 S 
ATOM     74  O   UNL A   1      32.355  34.508  28.070  1.00  0.00    -0.237 OA
ATOM     75  O   UNL A   1      32.303  36.171  29.900  1.00  0.00    -0.237 OA
ATOM     76  O   UNL A   1      33.754  36.540  27.948  1.00  0.00    -0.744 OA
ENDBRANCH  72  73
ENDBRANCH  53  67
BRANCH  54  77
ATOM     77  C   UNL A   1      43.748  28.385  35.627  1.00  0.00    -0.014 A 
ATOM     78  C   UNL A   1      45.123  28.592  35.406  1.00  0.00     0.010 A 
ATOM     79  C   UNL A   1      43.342  27.325  36.457  1.00  0.00     0.010 A 
ATOM     80  C   UNL A   1      46.068  27.712  35.937  1.00  0.00     0.020 A 
ATOM     81  C   UNL A   1      44.288  26.459  37.016  1.00  0.00     0.020 A 
ATOM     82  C   UNL A   1      45.642  26.638  36.722  1.00  0.00     0.054 A 
BRANCH  82  83
ATOM     83  S   UNL A   1      46.878  25.458  37.330  1.00  0.00     0.124 S 
ATOM     84  O   UNL A   1      46.439  24.216  36.698  1.00  0.00    -0.237 OA
ATOM     85  O   UNL A   1      48.129  26.013  36.821  1.00  0.00    -0.237 OA
ATOM     86  O   UNL A   1      46.720  25.513  38.780  1.00  0.00    -0.744 OA
ENDBRANCH  82  83
ENDBRANCH  54  77
BRANCH  66  87
ATOM     87  C   UNL A   1      40.016  34.135  37.092  1.00  0.00    -0.014 A 
ATOM     88  C   UNL A   1      39.150  33.895  38.175  1.00  0.00     0.010 A 
ATOM     89  C   UNL A   1      40.746  35.335  37.049  1.00  0.00     0.010 A 
ATOM     90  C   UNL A   1      38.985  34.855  39.176  1.00  0.00     0.020 A 
ATOM     91  C   UNL A   1      40.603  36.288  38.063  1.00  0.00     0.020 A 
ATOM     92  C   UNL A   1      39.703  36.051  39.105  1.00  0.00     0.054 A 
BRANCH  92  93
ATOM     93  S   UNL A   1      39.444  37.305  40.391  1.00  0.00     0.124 S 
ATOM     94  O   UNL A   1      38.678  38.323  39.677  1.00  0.00    -0.237 OA
ATOM     95  O   UNL A   1      38.709  36.568  41.417  1.00  0.00    -0.237 OA
ATOM     96  O   UNL A   1      40.801  37.694  40.768  1.00  0.00    -0.744 OA
ENDBRANCH  92  93
ENDBRANCH  66  87
ENDBRANCH  40  41
ENDBRANCH  32  35
ENDBRANCH  30  31
ENDBRANCH  29  30
ENDBRANCH   1  29
TORSDOF 17
ENDMDL
MODEL 3
REMARK VINA RESULT:     -12.3      1.595      2.387
REMARK SMILES C=C(C)COc1ccc2nc(C)n(-c3cccc(C(=O)NCCCNC(=O)c4ccc(-c5c6nc(c(-c7ccc(S(=O)(=O)[O-])cc7)c7ccc([nH]7)c(-c7ccc(S(=O)(=O)[O-])cc7)c7nc(c(-c8ccc(S(=O)(=O)[O-])cc8)c8ccc5[nH]8)C=C7)C=C6)cc4)c3)c(=O)c2c1
REMARK SMILES IDX 22 1 21 2 19 3 20 4 18 6 14 7 15 8 88 9 16 10 17 11 13 12
REMARK SMILES IDX 6 13 7 14 92 15 8 16 91 17 9 18 89 19 10 20 90 21 11 22
REMARK SMILES IDX 12 23 5 24 4 25 2 26 1 27 3 28 23 29 24 30 25 31 26 32 27 34
REMARK SMILES IDX 28 35 29 36 87 37 30 38 86 39 31 40 32 41 33 42 80 43 34 44
REMARK SMILES IDX 85 45 79 46 81 47 35 48 84 49 78 50 77 51 36 53 66 54 47 55
REMARK SMILES IDX 65 56 48 57 51 58 64 59 82 60 49 61 50 62 63 64 83 65 52 66
REMARK SMILES IDX 37 67 38 68 46 69 39 70 45 71 40 72 41 73 42 74 43 75 44 76
REMARK SMILES IDX 67 77 68 78 76 79 69 80 75 81 70 82 71 83 72 84 73 85 74 86
REMARK SMILES IDX 53 87 54 88 62 89 55 90 61 91 56 92 57 93 58 94 59 95 60 96
REMARK H PARENT 21 5 25 33 81 52 51 63
REMARK Flexibility Score: inf
ROOT
ATOM      1  C   UNL A   1      36.913  22.739  25.330  1.00  0.00     0.118 C 
ENDROOT
BRANCH   1   2
ATOM      2  N   UNL A   1      36.229  21.447  25.343  1.00  0.00    -0.352 N 
ATOM      3  C   UNL A   1      35.015  21.002  24.870  1.00  0.00     0.251 C 
ATOM      4  O   UNL A   1      34.733  19.816  25.046  1.00  0.00    -0.269 OA
ATOM      5  H   UNL A   1      36.752  20.740  25.786  1.00  0.00     0.163 HD
BRANCH   3   6
ATOM      6  C   UNL A   1      34.006  21.889  24.231  1.00  0.00     0.041 A 
ATOM      7  C   UNL A   1      32.703  23.931  24.205  1.00  0.00     0.051 A 
ATOM      8  C   UNL A   1      31.846  23.370  23.252  1.00  0.00     0.027 A 
ATOM      9  C   UNL A   1      33.865  23.234  24.555  1.00  0.00     0.040 A 
ATOM     10  C   UNL A   1      32.074  22.080  22.774  1.00  0.00     0.003 A 
ATOM     11  C   UNL A   1      33.122  21.324  23.301  1.00  0.00     0.014 A 
BRANCH   7  12
ATOM     12  N   UNL A   1      32.335  25.080  24.982  1.00  0.00    -0.264 N 
ATOM     13  C   UNL A   1      33.167  29.590  26.617  1.00  0.00     0.120 A 
ATOM     14  C   UNL A   1      32.155  29.384  27.555  1.00  0.00     0.049 A 
ATOM     15  C   UNL A   1      33.468  28.590  25.692  1.00  0.00     0.062 A 
ATOM     16  C   UNL A   1      31.472  28.171  27.596  1.00  0.00     0.033 A 
ATOM     17  C   UNL A   1      32.771  27.373  25.742  1.00  0.00     0.070 A 
ATOM     18  C   UNL A   1      31.775  27.161  26.687  1.00  0.00     0.078 A 
ATOM     19  C   UNL A   1      33.075  26.265  24.815  1.00  0.00     0.266 A 
ATOM     20  N   UNL A   1      31.085  25.959  26.790  1.00  0.00    -0.234 NA
ATOM     21  O   UNL A   1      33.949  26.442  23.966  1.00  0.00    -0.268 OA
ATOM     22  C   UNL A   1      31.392  24.984  26.000  1.00  0.00     0.113 A 
ATOM     23  C   UNL A   1      30.687  23.675  26.309  1.00  0.00     0.088 C 
BRANCH  13  24
ATOM     24  O   UNL A   1      33.836  30.780  26.506  1.00  0.00    -0.489 OA
BRANCH  24  25
ATOM     25  C   UNL A   1      34.699  31.057  27.623  1.00  0.00     0.260 C 
BRANCH  25  26
ATOM     26  C   UNL A   1      34.737  32.523  28.003  1.00  0.00    -0.043 C 
ATOM     27  C   UNL A   1      33.646  33.228  28.349  1.00  0.00     0.011 C 
ATOM     28  C   UNL A   1      36.111  33.136  28.044  1.00  0.00     0.042 C 
ENDBRANCH  25  26
ENDBRANCH  24  25
ENDBRANCH  13  24
ENDBRANCH   7  12
ENDBRANCH   3   6
ENDBRANCH   1   2
BRANCH   1  29
ATOM     29  C   UNL A   1      38.216  22.770  26.114  1.00  0.00     0.042 C 
BRANCH  29  30
ATOM     30  C   UNL A   1      38.587  24.125  26.689  1.00  0.00     0.118 C 
BRANCH  30  31
ATOM     31  N   UNL A   1      39.698  24.767  25.997  1.00  0.00    -0.352 N 
ATOM     32  C   UNL A   1      40.397  25.929  26.248  1.00  0.00     0.251 C 
ATOM     33  H   UNL A   1      40.008  24.279  25.201  1.00  0.00     0.163 HD
ATOM     34  O   UNL A   1      41.216  26.316  25.423  1.00  0.00    -0.269 OA
BRANCH  32  35
ATOM     35  C   UNL A   1      40.141  26.739  27.465  1.00  0.00     0.039 A 
ATOM     36  C   UNL A   1      40.461  28.092  27.524  1.00  0.00     0.014 A 
ATOM     37  C   UNL A   1      39.544  26.129  28.574  1.00  0.00     0.014 A 
ATOM     38  C   UNL A   1      40.413  28.764  28.742  1.00  0.00     0.010 A 
ATOM     39  C   UNL A   1      39.378  26.845  29.768  1.00  0.00     0.010 A 
ATOM     40  C   UNL A   1      39.875  28.150  29.884  1.00  0.00    -0.014 A 
BRANCH  40  41
ATOM     41  C   UNL A   1      39.863  28.892  31.176  1.00  0.00     0.031 A 
ATOM     42  C   UNL A   1      41.002  28.753  32.154  1.00  0.00     0.074 A 
ATOM     43  C   UNL A   1      38.872  29.772  31.427  1.00  0.00     0.049 A 
ATOM     44  N   UNL A   1      41.184  29.367  33.296  1.00  0.00    -0.248 NA
ATOM     45  C   UNL A   1      42.077  27.805  31.812  1.00  0.00     0.031 C 
ATOM     46  C   UNL A   1      37.732  30.027  30.543  1.00  0.00     0.029 A 
ATOM     47  N   UNL A   1      38.689  30.654  32.464  1.00  0.00    -0.354 N 
ATOM     48  C   UNL A   1      42.380  28.876  33.810  1.00  0.00     0.074 A 
ATOM     49  C   UNL A   1      42.864  27.883  32.877  1.00  0.00     0.031 C 
ATOM     50  C   UNL A   1      37.027  31.060  31.023  1.00  0.00     0.029 A 
ATOM     51  C   UNL A   1      37.610  31.489  32.291  1.00  0.00     0.049 A 
ATOM     52  H   UNL A   1      39.274  30.685  33.255  1.00  0.00     0.167 HD
ATOM     53  C   UNL A   1      43.027  29.232  34.946  1.00  0.00     0.031 A 
ATOM     54  C   UNL A   1      37.132  32.491  33.058  1.00  0.00     0.031 A 
ATOM     55  C   UNL A   1      42.549  30.227  35.869  1.00  0.00     0.049 A 
ATOM     56  C   UNL A   1      37.831  32.825  34.343  1.00  0.00     0.074 A 
ATOM     57  C   UNL A   1      43.123  30.637  37.061  1.00  0.00     0.029 A 
ATOM     58  N   UNL A   1      41.395  30.978  35.703  1.00  0.00    -0.354 N 
ATOM     59  N   UNL A   1      38.935  32.315  34.831  1.00  0.00    -0.248 NA
ATOM     60  C   UNL A   1      37.217  33.859  35.187  1.00  0.00     0.031 C 
ATOM     61  C   UNL A   1      42.291  31.598  37.639  1.00  0.00     0.029 A 
ATOM     62  C   UNL A   1      41.232  31.838  36.777  1.00  0.00     0.049 A 
ATOM     63  H   UNL A   1      40.783  30.911  34.935  1.00  0.00     0.167 HD
ATOM     64  C   UNL A   1      39.153  32.968  36.038  1.00  0.00     0.074 A 
ATOM     65  C   UNL A   1      38.077  33.926  36.196  1.00  0.00     0.031 C 
ATOM     66  C   UNL A   1      40.153  32.781  36.932  1.00  0.00     0.031 A 
BRANCH  53  67
ATOM     67  C   UNL A   1      44.329  28.542  35.264  1.00  0.00    -0.014 A 
ATOM     68  C   UNL A   1      45.454  28.752  34.445  1.00  0.00     0.010 A 
ATOM     69  C   UNL A   1      44.417  27.618  36.322  1.00  0.00     0.010 A 
ATOM     70  C   UNL A   1      46.639  28.045  34.669  1.00  0.00     0.020 A 
ATOM     71  C   UNL A   1      45.610  26.929  36.567  1.00  0.00     0.020 A 
ATOM     72  C   UNL A   1      46.707  27.135  35.727  1.00  0.00     0.054 A 
BRANCH  72  73
ATOM     73  S   UNL A   1      48.259  26.238  36.016  1.00  0.00     0.124 S 
ATOM     74  O   UNL A   1      47.917  25.390  37.154  1.00  0.00    -0.237 OA
ATOM     75  O   UNL A   1      48.470  25.544  34.749  1.00  0.00    -0.237 OA
ATOM     76  O   UNL A   1      49.219  27.304  36.295  1.00  0.00    -0.744 OA
ENDBRANCH  72  73
ENDBRANCH  53  67
BRANCH  54  77
ATOM     77  C   UNL A   1      35.942  33.252  32.589  1.00  0.00    -0.014 A 
ATOM     78  C   UNL A   1      36.071  34.234  31.589  1.00  0.00     0.010 A 
ATOM     79  C   UNL A   1      34.699  33.084  33.224  1.00  0.00     0.010 A 
ATOM     80  C   UNL A   1      35.005  35.083  31.286  1.00  0.00     0.020 A 
ATOM     81  C   UNL A   1      33.619  33.913  32.902  1.00  0.00     0.020 A 
ATOM     82  C   UNL A   1      33.792  34.931  31.961  1.00  0.00     0.054 A 
BRANCH  82  83
ATOM     83  S   UNL A   1      32.448  36.100  31.615  1.00  0.00     0.124 S 
ATOM     84  O   UNL A   1      32.321  35.985  30.165  1.00  0.00    -0.237 OA
ATOM     85  O   UNL A   1      31.338  35.551  32.389  1.00  0.00    -0.237 OA
ATOM     86  O   UNL A   1      32.971  37.375  32.098  1.00  0.00    -0.744 OA
ENDBRANCH  82  83
ENDBRANCH  54  77
BRANCH  66  87
ATOM     87  C   UNL A   1      40.151  33.619  38.184  1.00  0.00    -0.014 A 
ATOM     88  C   UNL A   1      39.195  33.372  39.186  1.00  0.00     0.010 A 
ATOM     89  C   UNL A   1      41.003  34.730  38.305  1.00  0.00     0.010 A 
ATOM     90  C   UNL A   1      39.064  34.243  40.270  1.00  0.00     0.020 A 
ATOM     91  C   UNL A   1      40.892  35.590  39.403  1.00  0.00     0.020 A 
ATOM     92  C   UNL A   1      39.906  35.354  40.363  1.00  0.00     0.054 A 
BRANCH  92  93
ATOM     93  S   UNL A   1      39.694  36.499  41.755  1.00  0.00     0.124 S 
ATOM     94  O   UNL A   1      39.005  35.665  42.736  1.00  0.00    -0.237 OA
ATOM     95  O   UNL A   1      41.071  36.858  42.090  1.00  0.00    -0.237 OA
ATOM     96  O   UNL A   1      38.897  37.584  41.187  1.00  0.00    -0.744 OA
ENDBRANCH  92  93
ENDBRANCH  66  87
ENDBRANCH  40  41
ENDBRANCH  32  35
ENDBRANCH  30  31
ENDBRANCH  29  30
ENDBRANCH   1  29
TORSDOF 17
ENDMDL
