MODEL 1
REMARK VINA RESULT:      -9.9      0.000      0.000
REMARK SMILES C[N@@H+](CC(=O)NCCCNC(=O)c1ccc(-c2c3nc(c(-c4ccc(S(=O)(=O)[O-])cc4)c4ccc([nH]4)c(-c4ccc(S(=O)(=O)[O-])cc4)c4nc(c(-c5ccc(S(=O)(=O)[O-])cc5)c5ccc2[nH]5)C=C4)C=C3)cc1)Cc1csc(-c2ccco2)n1
REMARK SMILES IDX 7 1 6 2 4 3 5 4 3 6 2 7 1 8 73 10 74 11 75 12 83 13 76 14
REMARK SMILES IDX 77 15 78 16 79 17 82 18 80 19 81 20 8 21 9 22 10 23 11 24
REMARK SMILES IDX 12 26 13 27 14 28 72 29 15 30 71 31 16 32 17 33 18 34 65 35
REMARK SMILES IDX 19 36 70 37 64 38 66 39 20 40 69 41 63 42 62 43 21 45 51 46
REMARK SMILES IDX 32 47 50 48 33 49 36 50 49 51 67 52 34 53 35 54 48 56 68 57
REMARK SMILES IDX 37 58 22 59 23 60 31 61 24 62 30 63 25 64 26 65 27 66 28 67
REMARK SMILES IDX 29 68 52 69 53 70 61 71 54 72 60 73 55 74 56 75 57 76 58 77
REMARK SMILES IDX 59 78 38 79 39 80 47 81 40 82 46 83 41 84 42 85 43 86 44 87
REMARK SMILES IDX 45 88
REMARK H PARENT 6 5 2 9 10 25 66 44 36 55
REMARK Flexibility Score: inf
ROOT
ATOM      1  C   UNL A   1      33.518  26.372  25.319  1.00  0.00     0.118 C 
ENDROOT
BRANCH   1   2
ATOM      2  N   UNL A   1      32.840  25.560  26.312  1.00  0.00    -0.351 N 
ATOM      3  C   UNL A   1      31.683  24.844  26.248  1.00  0.00     0.275 C 
ATOM      4  O   UNL A   1      31.422  24.109  27.205  1.00  0.00    -0.269 OA
ATOM      5  H   UNL A   1      33.295  25.520  27.183  1.00  0.00     0.163 HD
BRANCH   3   6
ATOM      6  C   UNL A   1      30.774  24.894  25.023  1.00  0.00     0.363 C 
BRANCH   6   7
ATOM      7  N   UNL A   1      31.400  24.534  23.753  1.00  0.00    -0.325 N 
ATOM      8  C   UNL A   1      31.389  25.507  22.691  1.00  0.00     0.333 C 
ATOM      9  H   UNL A   1      32.364  24.651  24.067  1.00  0.00     0.348 HD
BRANCH   7  10
ATOM     10  C   UNL A   1      31.508  23.124  23.388  1.00  0.00     0.320 C 
BRANCH  10  11
ATOM     11  C   UNL A   1      32.562  22.329  24.109  1.00  0.00     0.106 A 
ATOM     12  C   UNL A   1      32.534  20.998  24.487  1.00  0.00     0.097 A 
ATOM     13  N   UNL A   1      33.781  22.957  24.370  1.00  0.00    -0.232 NA
ATOM     14  S   UNL A   1      33.998  20.556  25.258  1.00  0.00    -0.119 S 
ATOM     15  C   UNL A   1      34.614  22.130  24.969  1.00  0.00     0.159 A 
BRANCH  15  16
ATOM     16  C   UNL A   1      35.956  22.501  25.327  1.00  0.00     0.162 A 
ATOM     17  C   UNL A   1      37.066  21.679  25.461  1.00  0.00     0.053 A 
ATOM     18  O   UNL A   1      36.339  23.788  25.623  1.00  0.00    -0.462 OA
ATOM     19  C   UNL A   1      38.153  22.493  25.863  1.00  0.00     0.043 A 
ATOM     20  C   UNL A   1      37.655  23.770  25.951  1.00  0.00     0.196 A 
ENDBRANCH  15  16
ENDBRANCH  10  11
ENDBRANCH   7  10
ENDBRANCH   6   7
ENDBRANCH   3   6
ENDBRANCH   1   2
BRANCH   1  21
ATOM     21  C   UNL A   1      33.581  27.853  25.680  1.00  0.00     0.042 C 
BRANCH  21  22
ATOM     22  C   UNL A   1      33.565  28.171  27.172  1.00  0.00     0.118 C 
BRANCH  22  23
ATOM     23  N   UNL A   1      33.405  29.588  27.442  1.00  0.00    -0.352 N 
ATOM     24  C   UNL A   1      34.297  30.478  27.993  1.00  0.00     0.251 C 
ATOM     25  H   UNL A   1      32.530  29.966  27.196  1.00  0.00     0.163 HD
ATOM     26  O   UNL A   1      33.906  31.602  28.297  1.00  0.00    -0.269 OA
BRANCH  24  27
ATOM     27  C   UNL A   1      35.709  30.095  28.245  1.00  0.00     0.039 A 
ATOM     28  C   UNL A   1      36.070  29.701  29.538  1.00  0.00     0.014 A 
ATOM     29  C   UNL A   1      36.688  30.172  27.249  1.00  0.00     0.014 A 
ATOM     30  C   UNL A   1      37.393  29.347  29.821  1.00  0.00     0.010 A 
ATOM     31  C   UNL A   1      37.998  29.761  27.519  1.00  0.00     0.010 A 
ATOM     32  C   UNL A   1      38.367  29.356  28.810  1.00  0.00    -0.014 A 
BRANCH  32  33
ATOM     33  C   UNL A   1      39.772  28.967  29.103  1.00  0.00     0.031 A 
ATOM     34  C   UNL A   1      40.711  29.939  29.770  1.00  0.00     0.074 A 
ATOM     35  C   UNL A   1      40.222  27.746  28.750  1.00  0.00     0.049 A 
ATOM     36  N   UNL A   1      41.967  29.778  30.101  1.00  0.00    -0.248 NA
ATOM     37  C   UNL A   1      40.170  31.269  30.091  1.00  0.00     0.031 C 
ATOM     38  C   UNL A   1      39.431  26.715  28.076  1.00  0.00     0.029 A 
ATOM     39  N   UNL A   1      41.457  27.165  28.911  1.00  0.00    -0.354 N 
ATOM     40  C   UNL A   1      42.371  30.986  30.657  1.00  0.00     0.074 A 
ATOM     41  C   UNL A   1      41.237  31.882  30.581  1.00  0.00     0.031 C 
ATOM     42  C   UNL A   1      40.192  25.621  27.903  1.00  0.00     0.029 A 
ATOM     43  C   UNL A   1      41.530  25.881  28.428  1.00  0.00     0.049 A 
ATOM     44  H   UNL A   1      42.217  27.626  29.333  1.00  0.00     0.167 HD
ATOM     45  C   UNL A   1      43.569  31.319  31.198  1.00  0.00     0.031 A 
ATOM     46  C   UNL A   1      42.556  25.007  28.408  1.00  0.00     0.031 A 
ATOM     47  C   UNL A   1      44.699  30.431  31.282  1.00  0.00     0.049 A 
ATOM     48  C   UNL A   1      43.878  25.398  29.005  1.00  0.00     0.074 A 
ATOM     49  C   UNL A   1      45.937  30.666  31.855  1.00  0.00     0.029 A 
ATOM     50  N   UNL A   1      44.731  29.140  30.778  1.00  0.00    -0.354 N 
ATOM     51  N   UNL A   1      44.221  26.527  29.576  1.00  0.00    -0.248 NA
ATOM     52  C   UNL A   1      44.948  24.390  28.966  1.00  0.00     0.031 C 
ATOM     53  C   UNL A   1      46.732  29.529  31.662  1.00  0.00     0.029 A 
ATOM     54  C   UNL A   1      45.973  28.572  31.009  1.00  0.00     0.049 A 
ATOM     55  H   UNL A   1      43.982  28.694  30.322  1.00  0.00     0.167 HD
ATOM     56  C   UNL A   1      45.540  26.358  29.984  1.00  0.00     0.074 A 
ATOM     57  C   UNL A   1      45.929  25.016  29.604  1.00  0.00     0.031 C 
ATOM     58  C   UNL A   1      46.353  27.237  30.621  1.00  0.00     0.031 A 
BRANCH  45  59
ATOM     59  C   UNL A   1      43.717  32.719  31.731  1.00  0.00    -0.014 A 
ATOM     60  C   UNL A   1      44.168  33.764  30.906  1.00  0.00     0.010 A 
ATOM     61  C   UNL A   1      43.388  32.995  33.070  1.00  0.00     0.010 A 
ATOM     62  C   UNL A   1      44.339  35.051  31.423  1.00  0.00     0.020 A 
ATOM     63  C   UNL A   1      43.534  34.287  33.586  1.00  0.00     0.020 A 
ATOM     64  C   UNL A   1      44.030  35.301  32.764  1.00  0.00     0.054 A 
BRANCH  64  65
ATOM     65  S   UNL A   1      44.264  36.979  33.415  1.00  0.00     0.124 S 
ATOM     66  O   UNL A   1      44.038  37.796  32.226  1.00  0.00    -0.237 OA
ATOM     67  O   UNL A   1      43.233  37.073  34.446  1.00  0.00    -0.237 OA
ATOM     68  O   UNL A   1      45.638  36.967  33.912  1.00  0.00    -0.744 OA
ENDBRANCH  64  65
ENDBRANCH  45  59
BRANCH  46  69
ATOM     69  C   UNL A   1      42.357  23.655  27.820  1.00  0.00    -0.014 A 
ATOM     70  C   UNL A   1      42.764  23.388  26.501  1.00  0.00     0.010 A 
ATOM     71  C   UNL A   1      41.789  22.621  28.586  1.00  0.00     0.010 A 
ATOM     72  C   UNL A   1      42.606  22.110  25.958  1.00  0.00     0.020 A 
ATOM     73  C   UNL A   1      41.647  21.338  28.052  1.00  0.00     0.020 A 
ATOM     74  C   UNL A   1      42.052  21.092  26.738  1.00  0.00     0.054 A 
BRANCH  74  75
ATOM     75  S   UNL A   1      41.928  19.421  26.042  1.00  0.00     0.124 S 
ATOM     76  O   UNL A   1      40.496  19.304  25.785  1.00  0.00    -0.237 OA
ATOM     77  O   UNL A   1      42.779  19.506  24.857  1.00  0.00    -0.237 OA
ATOM     78  O   UNL A   1      42.447  18.569  27.110  1.00  0.00    -0.744 OA
ENDBRANCH  74  75
ENDBRANCH  46  69
BRANCH  58  79
ATOM     79  C   UNL A   1      47.740  26.770  30.970  1.00  0.00    -0.014 A 
ATOM     80  C   UNL A   1      48.819  26.981  30.095  1.00  0.00     0.010 A 
ATOM     81  C   UNL A   1      47.974  26.154  32.213  1.00  0.00     0.010 A 
ATOM     82  C   UNL A   1      50.105  26.559  30.445  1.00  0.00     0.020 A 
ATOM     83  C   UNL A   1      49.261  25.750  32.575  1.00  0.00     0.020 A 
ATOM     84  C   UNL A   1      50.318  25.943  31.682  1.00  0.00     0.054 A 
BRANCH  84  85
ATOM     85  S   UNL A   1      52.001  25.441  32.135  1.00  0.00     0.124 S 
ATOM     86  O   UNL A   1      52.232  26.215  33.352  1.00  0.00    -0.237 OA
ATOM     87  O   UNL A   1      51.870  23.998  32.323  1.00  0.00    -0.237 OA
ATOM     88  O   UNL A   1      52.803  25.841  30.980  1.00  0.00    -0.744 OA
ENDBRANCH  84  85
ENDBRANCH  58  79
ENDBRANCH  32  33
ENDBRANCH  24  27
ENDBRANCH  22  23
ENDBRANCH  21  22
ENDBRANCH   1  21
TORSDOF 17
ENDMDL
MODEL 2
REMARK VINA RESULT:      -9.8      2.586      9.194
REMARK SMILES C[N@@H+](CC(=O)NCCCNC(=O)c1ccc(-c2c3nc(c(-c4ccc(S(=O)(=O)[O-])cc4)c4ccc([nH]4)c(-c4ccc(S(=O)(=O)[O-])cc4)c4nc(c(-c5ccc(S(=O)(=O)[O-])cc5)c5ccc2[nH]5)C=C4)C=C3)cc1)Cc1csc(-c2ccco2)n1
REMARK SMILES IDX 7 1 6 2 4 3 5 4 3 6 2 7 1 8 73 10 74 11 75 12 83 13 76 14
REMARK SMILES IDX 77 15 78 16 79 17 82 18 80 19 81 20 8 21 9 22 10 23 11 24
REMARK SMILES IDX 12 26 13 27 14 28 72 29 15 30 71 31 16 32 17 33 18 34 65 35
REMARK SMILES IDX 19 36 70 37 64 38 66 39 20 40 69 41 63 42 62 43 21 45 51 46
REMARK SMILES IDX 32 47 50 48 33 49 36 50 49 51 67 52 34 53 35 54 48 56 68 57
REMARK SMILES IDX 37 58 22 59 23 60 31 61 24 62 30 63 25 64 26 65 27 66 28 67
REMARK SMILES IDX 29 68 52 69 53 70 61 71 54 72 60 73 55 74 56 75 57 76 58 77
REMARK SMILES IDX 59 78 38 79 39 80 47 81 40 82 46 83 41 84 42 85 43 86 44 87
REMARK SMILES IDX 45 88
REMARK H PARENT 6 5 2 9 10 25 66 44 36 55
REMARK Flexibility Score: inf
ROOT
ATOM      1  C   UNL A   1      34.171  23.696  25.270  1.00  0.00     0.118 C 
ENDROOT
BRANCH   1   2
ATOM      2  N   UNL A   1      33.509  22.419  25.459  1.00  0.00    -0.351 N 
ATOM      3  C   UNL A   1      32.286  21.974  25.057  1.00  0.00     0.275 C 
ATOM      4  O   UNL A   1      32.041  20.775  25.220  1.00  0.00    -0.269 OA
ATOM      5  H   UNL A   1      34.035  21.760  25.965  1.00  0.00     0.163 HD
BRANCH   3   6
ATOM      6  C   UNL A   1      31.279  22.897  24.377  1.00  0.00     0.363 C 
BRANCH   6   7
ATOM      7  N   UNL A   1      30.980  24.141  25.082  1.00  0.00    -0.325 N 
ATOM      8  C   UNL A   1      30.475  24.056  26.428  1.00  0.00     0.333 C 
ATOM      9  H   UNL A   1      31.949  24.386  25.290  1.00  0.00     0.348 HD
BRANCH   7  10
ATOM     10  C   UNL A   1      30.664  25.339  24.307  1.00  0.00     0.320 C 
BRANCH  10  11
ATOM     11  C   UNL A   1      31.758  26.365  24.190  1.00  0.00     0.106 A 
ATOM     12  C   UNL A   1      32.486  26.729  23.072  1.00  0.00     0.097 A 
ATOM     13  N   UNL A   1      32.045  27.136  25.318  1.00  0.00    -0.232 NA
ATOM     14  S   UNL A   1      33.601  27.972  23.453  1.00  0.00    -0.119 S 
ATOM     15  C   UNL A   1      32.993  28.012  25.056  1.00  0.00     0.159 A 
BRANCH  15  16
ATOM     16  C   UNL A   1      33.466  28.962  26.027  1.00  0.00     0.162 A 
ATOM     17  C   UNL A   1      34.529  28.832  26.908  1.00  0.00     0.053 A 
ATOM     18  O   UNL A   1      32.881  30.189  26.241  1.00  0.00    -0.462 OA
ATOM     19  C   UNL A   1      34.582  30.011  27.690  1.00  0.00     0.043 A 
ATOM     20  C   UNL A   1      33.553  30.804  27.246  1.00  0.00     0.196 A 
ENDBRANCH  15  16
ENDBRANCH  10  11
ENDBRANCH   7  10
ENDBRANCH   6   7
ENDBRANCH   3   6
ENDBRANCH   1   2
BRANCH   1  21
ATOM     21  C   UNL A   1      35.516  23.797  25.984  1.00  0.00     0.042 C 
BRANCH  21  22
ATOM     22  C   UNL A   1      36.746  23.798  25.082  1.00  0.00     0.118 C 
BRANCH  22  23
ATOM     23  N   UNL A   1      37.684  22.741  25.410  1.00  0.00    -0.352 N 
ATOM     24  C   UNL A   1      38.889  22.817  26.069  1.00  0.00     0.251 C 
ATOM     25  H   UNL A   1      37.420  21.838  25.118  1.00  0.00     0.163 HD
ATOM     26  O   UNL A   1      39.617  21.827  26.096  1.00  0.00    -0.269 OA
BRANCH  24  27
ATOM     27  C   UNL A   1      39.330  24.075  26.723  1.00  0.00     0.039 A 
ATOM     28  C   UNL A   1      38.918  24.321  28.037  1.00  0.00     0.014 A 
ATOM     29  C   UNL A   1      40.091  25.035  26.047  1.00  0.00     0.014 A 
ATOM     30  C   UNL A   1      39.300  25.501  28.683  1.00  0.00     0.010 A 
ATOM     31  C   UNL A   1      40.520  26.187  26.713  1.00  0.00     0.010 A 
ATOM     32  C   UNL A   1      40.120  26.438  28.034  1.00  0.00    -0.014 A 
BRANCH  32  33
ATOM     33  C   UNL A   1      40.539  27.688  28.722  1.00  0.00     0.031 A 
ATOM     34  C   UNL A   1      41.920  27.809  29.313  1.00  0.00     0.074 A 
ATOM     35  C   UNL A   1      39.674  28.715  28.842  1.00  0.00     0.049 A 
ATOM     36  N   UNL A   1      42.460  28.818  29.950  1.00  0.00    -0.248 NA
ATOM     37  C   UNL A   1      42.801  26.638  29.185  1.00  0.00     0.031 C 
ATOM     38  C   UNL A   1      38.299  28.725  28.340  1.00  0.00     0.029 A 
ATOM     39  N   UNL A   1      39.824  29.950  29.424  1.00  0.00    -0.354 N 
ATOM     40  C   UNL A   1      43.736  28.402  30.309  1.00  0.00     0.074 A 
ATOM     41  C   UNL A   1      43.874  27.034  29.854  1.00  0.00     0.031 C 
ATOM     42  C   UNL A   1      37.740  29.917  28.614  1.00  0.00     0.029 A 
ATOM     43  C   UNL A   1      38.705  30.743  29.334  1.00  0.00     0.049 A 
ATOM     44  H   UNL A   1      40.656  30.240  29.864  1.00  0.00     0.167 HD
ATOM     45  C   UNL A   1      44.713  29.094  30.944  1.00  0.00     0.031 A 
ATOM     46  C   UNL A   1      38.478  31.995  29.778  1.00  0.00     0.031 A 
ATOM     47  C   UNL A   1      44.585  30.456  31.393  1.00  0.00     0.049 A 
ATOM     48  C   UNL A   1      39.572  32.744  30.487  1.00  0.00     0.074 A 
ATOM     49  C   UNL A   1      45.538  31.254  32.003  1.00  0.00     0.029 A 
ATOM     50  N   UNL A   1      43.434  31.220  31.284  1.00  0.00    -0.354 N 
ATOM     51  N   UNL A   1      40.790  32.350  30.766  1.00  0.00    -0.248 NA
ATOM     52  C   UNL A   1      39.261  34.112  30.928  1.00  0.00     0.031 C 
ATOM     53  C   UNL A   1      44.949  32.489  32.299  1.00  0.00     0.029 A 
ATOM     54  C   UNL A   1      43.645  32.475  31.833  1.00  0.00     0.049 A 
ATOM     55  H   UNL A   1      42.591  30.917  30.878  1.00  0.00     0.167 HD
ATOM     56  C   UNL A   1      41.400  33.429  31.397  1.00  0.00     0.074 A 
ATOM     57  C   UNL A   1      40.420  34.494  31.449  1.00  0.00     0.031 C 
ATOM     58  C   UNL A   1      42.662  33.527  31.885  1.00  0.00     0.031 A 
BRANCH  45  59
ATOM     59  C   UNL A   1      46.010  28.375  31.200  1.00  0.00    -0.014 A 
ATOM     60  C   UNL A   1      47.044  28.384  30.246  1.00  0.00     0.010 A 
ATOM     61  C   UNL A   1      46.204  27.692  32.414  1.00  0.00     0.010 A 
ATOM     62  C   UNL A   1      48.228  27.681  30.479  1.00  0.00     0.020 A 
ATOM     63  C   UNL A   1      47.398  27.007  32.662  1.00  0.00     0.020 A 
ATOM     64  C   UNL A   1      48.393  26.987  31.682  1.00  0.00     0.054 A 
BRANCH  64  65
ATOM     65  S   UNL A   1      49.936  26.076  31.961  1.00  0.00     0.124 S 
ATOM     66  O   UNL A   1      50.865  27.153  32.295  1.00  0.00    -0.237 OA
ATOM     67  O   UNL A   1      49.591  25.181  33.063  1.00  0.00    -0.237 OA
ATOM     68  O   UNL A   1      50.183  25.415  30.681  1.00  0.00    -0.744 OA
ENDBRANCH  64  65
ENDBRANCH  45  59
BRANCH  46  69
ATOM     69  C   UNL A   1      37.155  32.631  29.535  1.00  0.00    -0.014 A 
ATOM     70  C   UNL A   1      36.189  32.669  30.555  1.00  0.00     0.010 A 
ATOM     71  C   UNL A   1      36.869  33.228  28.294  1.00  0.00     0.010 A 
ATOM     72  C   UNL A   1      34.957  33.293  30.339  1.00  0.00     0.020 A 
ATOM     73  C   UNL A   1      35.646  33.870  28.081  1.00  0.00     0.020 A 
ATOM     74  C   UNL A   1      34.695  33.893  29.104  1.00  0.00     0.054 A 
BRANCH  74  75
ATOM     75  S   UNL A   1      33.122  34.766  28.869  1.00  0.00     0.124 S 
ATOM     76  O   UNL A   1      32.553  34.734  30.212  1.00  0.00    -0.237 OA
ATOM     77  O   UNL A   1      33.555  36.079  28.396  1.00  0.00    -0.237 OA
ATOM     78  O   UNL A   1      32.428  33.954  27.872  1.00  0.00    -0.744 OA
ENDBRANCH  74  75
ENDBRANCH  46  69
BRANCH  58  79
ATOM     79  C   UNL A   1      43.066  34.840  32.499  1.00  0.00    -0.014 A 
ATOM     80  C   UNL A   1      43.653  35.854  31.722  1.00  0.00     0.010 A 
ATOM     81  C   UNL A   1      42.809  35.080  33.861  1.00  0.00     0.010 A 
ATOM     82  C   UNL A   1      44.003  37.076  32.304  1.00  0.00     0.020 A 
ATOM     83  C   UNL A   1      43.138  36.307  34.441  1.00  0.00     0.020 A 
ATOM     84  C   UNL A   1      43.745  37.294  33.662  1.00  0.00     0.054 A 
BRANCH  84  85
ATOM     85  S   UNL A   1      44.168  38.902  34.387  1.00  0.00     0.124 S 
ATOM     86  O   UNL A   1      44.161  38.601  35.817  1.00  0.00    -0.237 OA
ATOM     87  O   UNL A   1      45.482  39.182  33.812  1.00  0.00    -0.237 OA
ATOM     88  O   UNL A   1      43.095  39.781  33.929  1.00  0.00    -0.744 OA
ENDBRANCH  84  85
ENDBRANCH  58  79
ENDBRANCH  32  33
ENDBRANCH  24  27
ENDBRANCH  22  23
ENDBRANCH  21  22
ENDBRANCH   1  21
TORSDOF 17
ENDMDL
MODEL 3
REMARK VINA RESULT:      -9.6      1.248      2.113
REMARK SMILES C[N@@H+](CC(=O)NCCCNC(=O)c1ccc(-c2c3nc(c(-c4ccc(S(=O)(=O)[O-])cc4)c4ccc([nH]4)c(-c4ccc(S(=O)(=O)[O-])cc4)c4nc(c(-c5ccc(S(=O)(=O)[O-])cc5)c5ccc2[nH]5)C=C4)C=C3)cc1)Cc1csc(-c2ccco2)n1
REMARK SMILES IDX 7 1 6 2 4 3 5 4 3 6 2 7 1 8 73 10 74 11 75 12 83 13 76 14
REMARK SMILES IDX 77 15 78 16 79 17 82 18 80 19 81 20 8 21 9 22 10 23 11 24
REMARK SMILES IDX 12 26 13 27 14 28 72 29 15 30 71 31 16 32 17 33 18 34 65 35
REMARK SMILES IDX 19 36 70 37 64 38 66 39 20 40 69 41 63 42 62 43 21 45 51 46
REMARK SMILES IDX 32 47 50 48 33 49 36 50 49 51 67 52 34 53 35 54 48 56 68 57
REMARK SMILES IDX 37 58 22 59 23 60 31 61 24 62 30 63 25 64 26 65 27 66 28 67
REMARK SMILES IDX 29 68 52 69 53 70 61 71 54 72 60 73 55 74 56 75 57 76 58 77
REMARK SMILES IDX 59 78 38 79 39 80 47 81 40 82 46 83 41 84 42 85 43 86 44 87
REMARK SMILES IDX 45 88
REMARK H PARENT 6 5 2 9 10 25 66 44 36 55
REMARK Flexibility Score: inf
ROOT
ATOM      1  C   UNL A   1      32.633  28.239  24.537  1.00  0.00     0.118 C 
ENDROOT
BRANCH   1   2
ATOM      2  N   UNL A   1      31.377  27.600  24.879  1.00  0.00    -0.351 N 
ATOM      3  C   UNL A   1      30.828  26.422  24.472  1.00  0.00     0.275 C 
ATOM      4  O   UNL A   1      29.807  26.045  25.053  1.00  0.00    -0.269 OA
ATOM      5  H   UNL A   1      30.826  28.106  25.518  1.00  0.00     0.163 HD
BRANCH   3   6
ATOM      6  C   UNL A   1      31.476  25.568  23.385  1.00  0.00     0.363 C 
BRANCH   6   7
ATOM      7  N   UNL A   1      32.625  24.768  23.806  1.00  0.00    -0.325 N 
ATOM      8  C   UNL A   1      33.552  24.327  22.797  1.00  0.00     0.333 C 
ATOM      9  H   UNL A   1      33.164  25.544  24.192  1.00  0.00     0.348 HD
BRANCH   7  10
ATOM     10  C   UNL A   1      32.536  23.992  25.040  1.00  0.00     0.320 C 
BRANCH  10  11
ATOM     11  C   UNL A   1      33.447  22.799  25.144  1.00  0.00     0.106 A 
ATOM     12  C   UNL A   1      34.779  22.757  25.515  1.00  0.00     0.097 A 
ATOM     13  N   UNL A   1      32.888  21.538  24.930  1.00  0.00    -0.232 NA
ATOM     14  S   UNL A   1      35.360  21.146  25.504  1.00  0.00    -0.119 S 
ATOM     15  C   UNL A   1      33.791  20.593  25.090  1.00  0.00     0.159 A 
BRANCH  15  16
ATOM     16  C   UNL A   1      33.485  19.193  24.964  1.00  0.00     0.162 A 
ATOM     17  C   UNL A   1      34.095  18.252  24.147  1.00  0.00     0.053 A 
ATOM     18  O   UNL A   1      32.475  18.568  25.657  1.00  0.00    -0.462 OA
ATOM     19  C   UNL A   1      33.424  17.019  24.343  1.00  0.00     0.043 A 
ATOM     20  C   UNL A   1      32.443  17.269  25.270  1.00  0.00     0.196 A 
ENDBRANCH  15  16
ENDBRANCH  10  11
ENDBRANCH   7  10
ENDBRANCH   6   7
ENDBRANCH   3   6
ENDBRANCH   1   2
BRANCH   1  21
ATOM     21  C   UNL A   1      33.791  27.835  25.444  1.00  0.00     0.042 C 
BRANCH  21  22
ATOM     22  C   UNL A   1      33.594  28.110  26.932  1.00  0.00     0.118 C 
BRANCH  22  23
ATOM     23  N   UNL A   1      33.389  29.518  27.220  1.00  0.00    -0.352 N 
ATOM     24  C   UNL A   1      34.219  30.408  27.861  1.00  0.00     0.251 C 
ATOM     25  H   UNL A   1      32.531  29.889  26.912  1.00  0.00     0.163 HD
ATOM     26  O   UNL A   1      33.787  31.518  28.158  1.00  0.00    -0.269 OA
BRANCH  24  27
ATOM     27  C   UNL A   1      35.613  30.039  28.218  1.00  0.00     0.039 A 
ATOM     28  C   UNL A   1      36.593  30.102  27.222  1.00  0.00     0.014 A 
ATOM     29  C   UNL A   1      35.955  29.581  29.495  1.00  0.00     0.014 A 
ATOM     30  C   UNL A   1      37.914  29.749  27.514  1.00  0.00     0.010 A 
ATOM     31  C   UNL A   1      37.287  29.284  29.800  1.00  0.00     0.010 A 
ATOM     32  C   UNL A   1      38.278  29.354  28.811  1.00  0.00    -0.014 A 
BRANCH  32  33
ATOM     33  C   UNL A   1      39.685  28.990  29.129  1.00  0.00     0.031 A 
ATOM     34  C   UNL A   1      40.593  29.976  29.817  1.00  0.00     0.074 A 
ATOM     35  C   UNL A   1      40.164  27.779  28.780  1.00  0.00     0.049 A 
ATOM     36  N   UNL A   1      41.845  29.837  30.171  1.00  0.00    -0.248 NA
ATOM     37  C   UNL A   1      40.021  31.294  30.133  1.00  0.00     0.031 C 
ATOM     38  C   UNL A   1      39.405  26.737  28.087  1.00  0.00     0.029 A 
ATOM     39  N   UNL A   1      41.406  27.221  28.961  1.00  0.00    -0.354 N 
ATOM     40  C   UNL A   1      42.216  31.050  30.740  1.00  0.00     0.074 A 
ATOM     41  C   UNL A   1      41.068  31.925  30.646  1.00  0.00     0.031 C 
ATOM     42  C   UNL A   1      40.190  25.657  27.924  1.00  0.00     0.029 A 
ATOM     43  C   UNL A   1      41.512  25.940  28.474  1.00  0.00     0.049 A 
ATOM     44  H   UNL A   1      42.150  27.694  29.400  1.00  0.00     0.167 HD
ATOM     45  C   UNL A   1      43.397  31.402  31.304  1.00  0.00     0.031 A 
ATOM     46  C   UNL A   1      42.554  25.085  28.470  1.00  0.00     0.031 A 
ATOM     47  C   UNL A   1      44.542  30.535  31.407  1.00  0.00     0.049 A 
ATOM     48  C   UNL A   1      43.858  25.498  29.094  1.00  0.00     0.074 A 
ATOM     49  C   UNL A   1      45.764  30.791  32.004  1.00  0.00     0.029 A 
ATOM     50  N   UNL A   1      44.607  29.248  30.897  1.00  0.00    -0.354 N 
ATOM     51  N   UNL A   1      44.169  26.630  29.676  1.00  0.00    -0.248 NA
ATOM     52  C   UNL A   1      44.947  24.510  29.071  1.00  0.00     0.031 C 
ATOM     53  C   UNL A   1      46.583  29.670  31.821  1.00  0.00     0.029 A 
ATOM     54  C   UNL A   1      45.855  28.701  31.150  1.00  0.00     0.049 A 
ATOM     55  H   UNL A   1      43.875  28.789  30.426  1.00  0.00     0.167 HD
ATOM     56  C   UNL A   1      45.483  26.485  30.108  1.00  0.00     0.074 A 
ATOM     57  C   UNL A   1      45.904  25.152  29.729  1.00  0.00     0.031 C 
ATOM     58  C   UNL A   1      46.267  27.376  30.763  1.00  0.00     0.031 A 
BRANCH  45  59
ATOM     59  C   UNL A   1      43.509  32.802  31.846  1.00  0.00    -0.014 A 
ATOM     60  C   UNL A   1      44.039  33.842  31.062  1.00  0.00     0.010 A 
ATOM     61  C   UNL A   1      43.067  33.085  33.151  1.00  0.00     0.010 A 
ATOM     62  C   UNL A   1      44.173  35.129  31.589  1.00  0.00     0.020 A 
ATOM     63  C   UNL A   1      43.177  34.377  33.675  1.00  0.00     0.020 A 
ATOM     64  C   UNL A   1      43.751  35.385  32.897  1.00  0.00     0.054 A 
BRANCH  64  65
ATOM     65  S   UNL A   1      43.940  37.062  33.564  1.00  0.00     0.124 S 
ATOM     66  O   UNL A   1      42.656  37.267  34.229  1.00  0.00    -0.237 OA
ATOM     67  O   UNL A   1      45.092  36.929  34.453  1.00  0.00    -0.237 OA
ATOM     68  O   UNL A   1      44.166  37.882  32.376  1.00  0.00    -0.744 OA
ENDBRANCH  64  65
ENDBRANCH  45  59
BRANCH  46  69
ATOM     69  C   UNL A   1      42.392  23.732  27.873  1.00  0.00    -0.014 A 
ATOM     70  C   UNL A   1      42.481  23.556  26.481  1.00  0.00     0.010 A 
ATOM     71  C   UNL A   1      42.179  22.611  28.696  1.00  0.00     0.010 A 
ATOM     72  C   UNL A   1      42.359  22.282  25.921  1.00  0.00     0.020 A 
ATOM     73  C   UNL A   1      42.077  21.333  28.140  1.00  0.00     0.020 A 
ATOM     74  C   UNL A   1      42.161  21.177  26.755  1.00  0.00     0.054 A 
BRANCH  74  75
ATOM     75  S   UNL A   1      42.085  19.522  26.016  1.00  0.00     0.124 S 
ATOM     76  O   UNL A   1      42.528  18.676  27.118  1.00  0.00    -0.237 OA
ATOM     77  O   UNL A   1      40.675  19.401  25.651  1.00  0.00    -0.237 OA
ATOM     78  O   UNL A   1      43.005  19.613  24.883  1.00  0.00    -0.744 OA
ENDBRANCH  74  75
ENDBRANCH  46  69
BRANCH  58  79
ATOM     79  C   UNL A   1      47.656  26.932  31.137  1.00  0.00    -0.014 A 
ATOM     80  C   UNL A   1      47.918  26.341  32.385  1.00  0.00     0.010 A 
ATOM     81  C   UNL A   1      48.702  27.065  30.206  1.00  0.00     0.010 A 
ATOM     82  C   UNL A   1      49.210  25.915  32.706  1.00  0.00     0.020 A 
ATOM     83  C   UNL A   1      49.990  26.621  30.516  1.00  0.00     0.020 A 
ATOM     84  C   UNL A   1      50.239  26.060  31.771  1.00  0.00     0.054 A 
BRANCH  84  85
ATOM     85  S   UNL A   1      51.899  25.463  32.192  1.00  0.00     0.124 S 
ATOM     86  O   UNL A   1      52.721  26.102  31.168  1.00  0.00    -0.237 OA
ATOM     87  O   UNL A   1      52.089  25.964  33.552  1.00  0.00    -0.237 OA
ATOM     88  O   UNL A   1      51.782  24.010  32.082  1.00  0.00    -0.744 OA
ENDBRANCH  84  85
ENDBRANCH  58  79
ENDBRANCH  32  33
ENDBRANCH  24  27
ENDBRANCH  22  23
ENDBRANCH  21  22
ENDBRANCH   1  21
TORSDOF 17
ENDMDL
