MODEL 1
REMARK VINA RESULT:     -11.8      0.000      0.000
REMARK SMILES CC1(C)O[C@](C)([C@H](O)C2CCCCC2)CC[C@H]1C(=O)NCCCNC(=O)c1ccc(-c2c3nc(c(-c4ccc(S(=O)(=O)[O-])cc4)c4ccc([nH]4)c(-c4ccc(S(=O)(=O)[O-])cc4)c4nc(c(-c5ccc(S(=O)(=O)[O-])cc5)c5ccc2[nH]5)C=C4)C=C3)cc1
REMARK SMILES IDX 22 1 21 2 20 3 18 4 19 5 17 7 1 8 2 9 3 10 4 11 5 12 16 13
REMARK SMILES IDX 6 14 15 15 7 16 9 17 10 18 14 19 11 20 13 21 12 22 8 23
REMARK SMILES IDX 23 25 24 26 25 27 26 29 27 30 28 31 86 32 29 33 85 34 30 35
REMARK SMILES IDX 31 36 32 37 79 38 33 39 84 40 78 41 80 42 34 43 83 44 77 45
REMARK SMILES IDX 76 46 35 48 65 49 46 50 64 51 47 52 50 53 63 54 81 55 48 56
REMARK SMILES IDX 49 57 62 59 82 60 51 61 36 62 37 63 45 64 38 65 44 66 39 67
REMARK SMILES IDX 40 68 41 69 42 70 43 71 66 72 67 73 75 74 68 75 74 76 69 77
REMARK SMILES IDX 70 78 71 79 72 80 73 81 52 82 53 83 61 84 54 85 60 86 55 87
REMARK SMILES IDX 56 88 57 89 58 90 59 91
REMARK H PARENT 20 6 8 24 24 28 80 47 50 58
REMARK Flexibility Score: inf
ROOT
ATOM      1  C   UNL A   1      32.562  27.378  26.011  1.00  0.00     0.042 C 
ENDROOT
BRANCH   1   2
ATOM      2  C   UNL A   1      32.811  26.011  25.388  1.00  0.00     0.117 C 
BRANCH   2   3
ATOM      3  N   UNL A   1      33.288  26.103  24.017  1.00  0.00    -0.356 N 
ATOM      4  C   UNL A   1      33.746  25.190  23.125  1.00  0.00     0.226 C 
ATOM      5  O   UNL A   1      34.128  25.641  22.038  1.00  0.00    -0.275 OA
ATOM      6  H   UNL A   1      33.276  27.022  23.663  1.00  0.00     0.163 HD
BRANCH   4   7
ATOM      7  C   UNL A   1      33.811  23.682  23.375  1.00  0.00     0.110 C 
ATOM      8  C   UNL A   1      35.530  24.003  25.350  1.00  0.00     0.043 C 
ATOM      9  C   UNL A   1      35.066  23.183  24.148  1.00  0.00     0.075 C 
ATOM     10  C   UNL A   1      36.270  23.190  23.172  1.00  0.00     0.043 C 
ATOM     11  O   UNL A   1      34.957  21.811  24.560  1.00  0.00    -0.366 OA
ATOM     12  C   UNL A   1      33.734  21.324  25.125  1.00  0.00     0.092 C 
ATOM     13  C   UNL A   1      32.464  23.054  23.746  1.00  0.00     0.019 C 
ATOM     14  C   UNL A   1      33.344  21.972  26.470  1.00  0.00     0.045 C 
ATOM     15  C   UNL A   1      32.609  21.576  24.096  1.00  0.00     0.039 C 
BRANCH  12  16
ATOM     16  C   UNL A   1      33.907  19.769  25.301  1.00  0.00     0.149 C 
BRANCH  16  17
ATOM     17  C   UNL A   1      32.786  18.839  24.727  1.00  0.00     0.021 C 
ATOM     18  C   UNL A   1      32.982  18.244  23.324  1.00  0.00     0.006 C 
ATOM     19  C   UNL A   1      32.399  17.703  25.704  1.00  0.00     0.006 C 
ATOM     20  C   UNL A   1      33.963  17.080  23.287  1.00  0.00     0.000 C 
ATOM     21  C   UNL A   1      33.305  16.470  25.641  1.00  0.00     0.000 C 
ATOM     22  C   UNL A   1      33.506  15.963  24.217  1.00  0.00     0.000 C 
ENDBRANCH  16  17
BRANCH  16  23
ATOM     23  O   UNL A   1      35.217  19.379  24.885  1.00  0.00    -0.390 OA
ATOM     24  H   UNL A   1      35.195  19.115  23.952  1.00  0.00     0.211 HD
ENDBRANCH  16  23
ENDBRANCH  12  16
ENDBRANCH   4   7
ENDBRANCH   2   3
ENDBRANCH   1   2
BRANCH   1  25
ATOM     25  C   UNL A   1      33.792  27.989  26.658  1.00  0.00     0.118 C 
BRANCH  25  26
ATOM     26  N   UNL A   1      33.589  29.387  26.996  1.00  0.00    -0.352 N 
ATOM     27  C   UNL A   1      34.381  30.247  27.718  1.00  0.00     0.251 C 
ATOM     28  H   UNL A   1      32.752  29.780  26.656  1.00  0.00     0.163 HD
ATOM     29  O   UNL A   1      33.903  31.315  28.100  1.00  0.00    -0.269 OA
BRANCH  27  30
ATOM     30  C   UNL A   1      35.784  29.903  28.055  1.00  0.00     0.039 A 
ATOM     31  C   UNL A   1      36.774  30.057  27.079  1.00  0.00     0.014 A 
ATOM     32  C   UNL A   1      36.130  29.376  29.303  1.00  0.00     0.014 A 
ATOM     33  C   UNL A   1      38.102  29.730  27.368  1.00  0.00     0.010 A 
ATOM     34  C   UNL A   1      37.467  29.152  29.625  1.00  0.00     0.010 A 
ATOM     35  C   UNL A   1      38.466  29.299  28.654  1.00  0.00    -0.014 A 
BRANCH  35  36
ATOM     36  C   UNL A   1      39.871  28.944  28.991  1.00  0.00     0.031 A 
ATOM     37  C   UNL A   1      40.771  29.968  29.639  1.00  0.00     0.074 A 
ATOM     38  C   UNL A   1      40.360  27.731  28.664  1.00  0.00     0.049 A 
ATOM     39  N   UNL A   1      42.042  29.880  29.937  1.00  0.00    -0.248 NA
ATOM     40  C   UNL A   1      40.169  31.273  29.965  1.00  0.00     0.031 C 
ATOM     41  C   UNL A   1      39.609  26.665  27.995  1.00  0.00     0.029 A 
ATOM     42  N   UNL A   1      41.608  27.191  28.846  1.00  0.00    -0.354 N 
ATOM     43  C   UNL A   1      42.396  31.121  30.454  1.00  0.00     0.074 A 
ATOM     44  C   UNL A   1      41.222  31.961  30.383  1.00  0.00     0.031 C 
ATOM     45  C   UNL A   1      40.404  25.592  27.850  1.00  0.00     0.029 A 
ATOM     46  C   UNL A   1      41.728  25.904  28.379  1.00  0.00     0.049 A 
ATOM     47  H   UNL A   1      42.349  27.680  29.272  1.00  0.00     0.167 HD
ATOM     48  C   UNL A   1      43.585  31.524  30.965  1.00  0.00     0.031 A 
ATOM     49  C   UNL A   1      42.785  25.068  28.372  1.00  0.00     0.031 A 
ATOM     50  C   UNL A   1      44.743  30.678  31.070  1.00  0.00     0.049 A 
ATOM     51  C   UNL A   1      44.088  25.527  28.965  1.00  0.00     0.074 A 
ATOM     52  C   UNL A   1      45.974  30.970  31.632  1.00  0.00     0.029 A 
ATOM     53  N   UNL A   1      44.811  29.372  30.611  1.00  0.00    -0.354 N 
ATOM     54  N   UNL A   1      44.385  26.688  29.500  1.00  0.00    -0.248 NA
ATOM     55  C   UNL A   1      45.195  24.560  28.965  1.00  0.00     0.031 C 
ATOM     56  C   UNL A   1      46.800  29.852  31.476  1.00  0.00     0.029 A 
ATOM     57  C   UNL A   1      46.068  28.848  30.862  1.00  0.00     0.049 A 
ATOM     58  H   UNL A   1      44.075  28.889  30.171  1.00  0.00     0.167 HD
ATOM     59  C   UNL A   1      45.706  26.582  29.922  1.00  0.00     0.074 A 
ATOM     60  C   UNL A   1      46.145  25.241  29.593  1.00  0.00     0.031 C 
ATOM     61  C   UNL A   1      46.485  27.511  30.528  1.00  0.00     0.031 A 
BRANCH  48  62
ATOM     62  C   UNL A   1      43.686  32.946  31.451  1.00  0.00    -0.014 A 
ATOM     63  C   UNL A   1      44.153  33.971  30.608  1.00  0.00     0.010 A 
ATOM     64  C   UNL A   1      43.282  33.269  32.760  1.00  0.00     0.010 A 
ATOM     65  C   UNL A   1      44.261  35.282  31.078  1.00  0.00     0.020 A 
ATOM     66  C   UNL A   1      43.362  34.585  33.226  1.00  0.00     0.020 A 
ATOM     67  C   UNL A   1      43.869  35.580  32.388  1.00  0.00     0.054 A 
BRANCH  67  68
ATOM     68  S   UNL A   1      44.007  37.292  32.968  1.00  0.00     0.124 S 
ATOM     69  O   UNL A   1      45.328  37.292  33.593  1.00  0.00    -0.237 OA
ATOM     70  O   UNL A   1      43.898  38.062  31.732  1.00  0.00    -0.237 OA
ATOM     71  O   UNL A   1      42.883  37.438  33.889  1.00  0.00    -0.744 OA
ENDBRANCH  67  68
ENDBRANCH  48  62
BRANCH  49  72
ATOM     72  C   UNL A   1      42.644  23.700  27.804  1.00  0.00    -0.014 A 
ATOM     73  C   UNL A   1      42.137  22.651  28.591  1.00  0.00     0.010 A 
ATOM     74  C   UNL A   1      42.997  23.442  26.467  1.00  0.00     0.010 A 
ATOM     75  C   UNL A   1      41.998  21.367  28.057  1.00  0.00     0.020 A 
ATOM     76  C   UNL A   1      42.837  22.165  25.922  1.00  0.00     0.020 A 
ATOM     77  C   UNL A   1      42.348  21.133  26.724  1.00  0.00     0.054 A 
BRANCH  77  78
ATOM     78  S   UNL A   1      42.105  19.472  26.033  1.00  0.00     0.124 S 
ATOM     79  O   UNL A   1      42.888  19.536  24.804  1.00  0.00    -0.237 OA
ATOM     80  O   UNL A   1      42.643  18.610  27.084  1.00  0.00    -0.237 OA
ATOM     81  O   UNL A   1      40.657  19.387  25.853  1.00  0.00    -0.744 OA
ENDBRANCH  77  78
ENDBRANCH  49  72
BRANCH  61  82
ATOM     82  C   UNL A   1      47.884  27.104  30.903  1.00  0.00    -0.014 A 
ATOM     83  C   UNL A   1      48.970  27.360  30.048  1.00  0.00     0.010 A 
ATOM     84  C   UNL A   1      48.120  26.505  32.154  1.00  0.00     0.010 A 
ATOM     85  C   UNL A   1      50.266  27.001  30.428  1.00  0.00     0.020 A 
ATOM     86  C   UNL A   1      49.416  26.168  32.548  1.00  0.00     0.020 A 
ATOM     87  C   UNL A   1      50.480  26.406  31.675  1.00  0.00     0.054 A 
BRANCH  87  88
ATOM     88  S   UNL A   1      52.176  25.990  32.165  1.00  0.00     0.124 S 
ATOM     89  O   UNL A   1      52.861  25.939  30.875  1.00  0.00    -0.237 OA
ATOM     90  O   UNL A   1      52.546  27.109  33.029  1.00  0.00    -0.237 OA
ATOM     91  O   UNL A   1      52.035  24.705  32.847  1.00  0.00    -0.744 OA
ENDBRANCH  87  88
ENDBRANCH  61  82
ENDBRANCH  35  36
ENDBRANCH  27  30
ENDBRANCH  25  26
ENDBRANCH   1  25
TORSDOF 16
ENDMDL
MODEL 2
REMARK VINA RESULT:     -11.5      4.126      7.675
REMARK SMILES CC1(C)O[C@](C)([C@H](O)C2CCCCC2)CC[C@H]1C(=O)NCCCNC(=O)c1ccc(-c2c3nc(c(-c4ccc(S(=O)(=O)[O-])cc4)c4ccc([nH]4)c(-c4ccc(S(=O)(=O)[O-])cc4)c4nc(c(-c5ccc(S(=O)(=O)[O-])cc5)c5ccc2[nH]5)C=C4)C=C3)cc1
REMARK SMILES IDX 22 1 21 2 20 3 18 4 19 5 17 7 1 8 2 9 3 10 4 11 5 12 16 13
REMARK SMILES IDX 6 14 15 15 7 16 9 17 10 18 14 19 11 20 13 21 12 22 8 23
REMARK SMILES IDX 23 25 24 26 25 27 26 29 27 30 28 31 86 32 29 33 85 34 30 35
REMARK SMILES IDX 31 36 32 37 79 38 33 39 84 40 78 41 80 42 34 43 83 44 77 45
REMARK SMILES IDX 76 46 35 48 65 49 46 50 64 51 47 52 50 53 63 54 81 55 48 56
REMARK SMILES IDX 49 57 62 59 82 60 51 61 36 62 37 63 45 64 38 65 44 66 39 67
REMARK SMILES IDX 40 68 41 69 42 70 43 71 66 72 67 73 75 74 68 75 74 76 69 77
REMARK SMILES IDX 70 78 71 79 72 80 73 81 52 82 53 83 61 84 54 85 60 86 55 87
REMARK SMILES IDX 56 88 57 89 58 90 59 91
REMARK H PARENT 20 6 8 24 24 28 80 47 50 58
REMARK Flexibility Score: inf
ROOT
ATOM      1  C   UNL A   1      34.735  33.263  29.704  1.00  0.00     0.042 C 
ENDROOT
BRANCH   1   2
ATOM      2  C   UNL A   1      36.128  33.750  30.085  1.00  0.00     0.117 C 
BRANCH   2   3
ATOM      3  N   UNL A   1      36.128  34.519  31.319  1.00  0.00    -0.356 N 
ATOM      4  C   UNL A   1      36.719  34.341  32.528  1.00  0.00     0.226 C 
ATOM      5  O   UNL A   1      36.451  35.189  33.389  1.00  0.00    -0.275 OA
ATOM      6  H   UNL A   1      35.586  35.339  31.267  1.00  0.00     0.163 HD
BRANCH   4   7
ATOM      7  C   UNL A   1      37.670  33.196  32.875  1.00  0.00     0.110 C 
ATOM      8  C   UNL A   1      38.699  34.556  34.888  1.00  0.00     0.043 C 
ATOM      9  C   UNL A   1      38.914  33.590  33.725  1.00  0.00     0.075 C 
ATOM     10  C   UNL A   1      39.927  34.303  32.796  1.00  0.00     0.043 C 
ATOM     11  O   UNL A   1      39.634  32.450  34.220  1.00  0.00    -0.366 OA
ATOM     12  C   UNL A   1      38.925  31.332  34.769  1.00  0.00     0.092 C 
ATOM     13  C   UNL A   1      36.963  31.886  33.237  1.00  0.00     0.019 C 
ATOM     14  C   UNL A   1      38.131  31.645  36.054  1.00  0.00     0.045 C 
ATOM     15  C   UNL A   1      37.953  30.815  33.685  1.00  0.00     0.039 C 
BRANCH  12  16
ATOM     16  C   UNL A   1      39.997  30.214  35.049  1.00  0.00     0.149 C 
BRANCH  16  17
ATOM     17  C   UNL A   1      41.021  29.881  33.913  1.00  0.00     0.021 C 
ATOM     18  C   UNL A   1      42.518  30.052  34.211  1.00  0.00     0.006 C 
ATOM     19  C   UNL A   1      40.789  28.481  33.296  1.00  0.00     0.006 C 
ATOM     20  C   UNL A   1      43.103  28.933  35.062  1.00  0.00     0.000 C 
ATOM     21  C   UNL A   1      41.435  27.327  34.068  1.00  0.00     0.000 C 
ATOM     22  C   UNL A   1      42.904  27.583  34.383  1.00  0.00     0.000 C 
ENDBRANCH  16  17
BRANCH  16  23
ATOM     23  O   UNL A   1      40.625  30.453  36.310  1.00  0.00    -0.390 OA
ATOM     24  H   UNL A   1      41.154  29.678  36.559  1.00  0.00     0.211 HD
ENDBRANCH  16  23
ENDBRANCH  12  16
ENDBRANCH   4   7
ENDBRANCH   2   3
ENDBRANCH   1   2
BRANCH   1  25
ATOM     25  C   UNL A   1      34.601  32.877  28.241  1.00  0.00     0.118 C 
BRANCH  25  26
ATOM     26  N   UNL A   1      33.861  31.639  28.074  1.00  0.00    -0.352 N 
ATOM     27  C   UNL A   1      34.313  30.348  27.950  1.00  0.00     0.251 C 
ATOM     28  H   UNL A   1      32.881  31.741  28.043  1.00  0.00     0.163 HD
ATOM     29  O   UNL A   1      33.531  29.479  27.563  1.00  0.00    -0.269 OA
BRANCH  27  30
ATOM     30  C   UNL A   1      35.721  29.991  28.253  1.00  0.00     0.039 A 
ATOM     31  C   UNL A   1      36.055  29.596  29.553  1.00  0.00     0.014 A 
ATOM     32  C   UNL A   1      36.728  30.096  27.290  1.00  0.00     0.014 A 
ATOM     33  C   UNL A   1      37.377  29.264  29.867  1.00  0.00     0.010 A 
ATOM     34  C   UNL A   1      38.021  29.664  27.575  1.00  0.00     0.010 A 
ATOM     35  C   UNL A   1      38.369  29.270  28.874  1.00  0.00    -0.014 A 
BRANCH  35  36
ATOM     36  C   UNL A   1      39.782  28.922  29.179  1.00  0.00     0.031 A 
ATOM     37  C   UNL A   1      40.686  29.943  29.825  1.00  0.00     0.074 A 
ATOM     38  C   UNL A   1      40.275  27.719  28.824  1.00  0.00     0.049 A 
ATOM     39  N   UNL A   1      41.963  29.862  30.099  1.00  0.00    -0.248 NA
ATOM     40  C   UNL A   1      40.080  31.238  30.184  1.00  0.00     0.031 C 
ATOM     41  C   UNL A   1      39.521  26.657  28.152  1.00  0.00     0.029 A 
ATOM     42  N   UNL A   1      41.531  27.187  28.974  1.00  0.00    -0.354 N 
ATOM     43  C   UNL A   1      42.317  31.098  30.628  1.00  0.00     0.074 A 
ATOM     44  C   UNL A   1      41.134  31.928  30.592  1.00  0.00     0.031 C 
ATOM     45  C   UNL A   1      40.321  25.593  27.976  1.00  0.00     0.029 A 
ATOM     46  C   UNL A   1      41.653  25.908  28.485  1.00  0.00     0.049 A 
ATOM     47  H   UNL A   1      42.276  27.675  29.393  1.00  0.00     0.167 HD
ATOM     48  C   UNL A   1      43.512  31.503  31.123  1.00  0.00     0.031 A 
ATOM     49  C   UNL A   1      42.716  25.082  28.445  1.00  0.00     0.031 A 
ATOM     50  C   UNL A   1      44.678  30.666  31.193  1.00  0.00     0.049 A 
ATOM     51  C   UNL A   1      44.026  25.542  29.020  1.00  0.00     0.074 A 
ATOM     52  C   UNL A   1      45.917  30.959  31.736  1.00  0.00     0.029 A 
ATOM     53  N   UNL A   1      44.748  29.368  30.712  1.00  0.00    -0.354 N 
ATOM     54  N   UNL A   1      44.324  26.697  29.568  1.00  0.00    -0.248 NA
ATOM     55  C   UNL A   1      45.142  24.585  28.984  1.00  0.00     0.031 C 
ATOM     56  C   UNL A   1      46.749  29.851  31.548  1.00  0.00     0.029 A 
ATOM     57  C   UNL A   1      46.014  28.851  30.931  1.00  0.00     0.049 A 
ATOM     58  H   UNL A   1      44.008  28.885  30.278  1.00  0.00     0.167 HD
ATOM     59  C   UNL A   1      45.654  26.596  29.963  1.00  0.00     0.074 A 
ATOM     60  C   UNL A   1      46.098  25.264  29.605  1.00  0.00     0.031 C 
ATOM     61  C   UNL A   1      46.436  27.523  30.569  1.00  0.00     0.031 A 
BRANCH  48  62
ATOM     62  C   UNL A   1      43.610  32.918  31.629  1.00  0.00    -0.014 A 
ATOM     63  C   UNL A   1      43.521  33.207  33.004  1.00  0.00     0.010 A 
ATOM     64  C   UNL A   1      43.824  33.972  30.723  1.00  0.00     0.010 A 
ATOM     65  C   UNL A   1      43.593  34.526  33.457  1.00  0.00     0.020 A 
ATOM     66  C   UNL A   1      43.926  35.291  31.175  1.00  0.00     0.020 A 
ATOM     67  C   UNL A   1      43.790  35.562  32.538  1.00  0.00     0.054 A 
BRANCH  67  68
ATOM     68  S   UNL A   1      43.895  37.264  33.155  1.00  0.00     0.124 S 
ATOM     69  O   UNL A   1      42.710  37.348  34.005  1.00  0.00    -0.237 OA
ATOM     70  O   UNL A   1      45.174  37.274  33.860  1.00  0.00    -0.237 OA
ATOM     71  O   UNL A   1      43.850  38.076  31.942  1.00  0.00    -0.744 OA
ENDBRANCH  67  68
ENDBRANCH  48  62
BRANCH  49  72
ATOM     72  C   UNL A   1      42.575  23.721  27.859  1.00  0.00    -0.014 A 
ATOM     73  C   UNL A   1      42.394  22.602  28.690  1.00  0.00     0.010 A 
ATOM     74  C   UNL A   1      42.603  23.539  26.464  1.00  0.00     0.010 A 
ATOM     75  C   UNL A   1      42.256  21.325  28.140  1.00  0.00     0.020 A 
ATOM     76  C   UNL A   1      42.440  22.266  25.909  1.00  0.00     0.020 A 
ATOM     77  C   UNL A   1      42.278  21.165  26.751  1.00  0.00     0.054 A 
BRANCH  77  78
ATOM     78  S   UNL A   1      42.039  19.506  26.057  1.00  0.00     0.124 S 
ATOM     79  O   UNL A   1      42.517  18.651  27.138  1.00  0.00    -0.237 OA
ATOM     80  O   UNL A   1      40.599  19.470  25.810  1.00  0.00    -0.237 OA
ATOM     81  O   UNL A   1      42.867  19.519  24.852  1.00  0.00    -0.744 OA
ENDBRANCH  77  78
ENDBRANCH  49  72
BRANCH  61  82
ATOM     82  C   UNL A   1      47.845  27.121  30.911  1.00  0.00    -0.014 A 
ATOM     83  C   UNL A   1      48.896  27.306  29.995  1.00  0.00     0.010 A 
ATOM     84  C   UNL A   1      48.128  26.604  32.188  1.00  0.00     0.010 A 
ATOM     85  C   UNL A   1      50.203  26.955  30.344  1.00  0.00     0.020 A 
ATOM     86  C   UNL A   1      49.436  26.275  32.549  1.00  0.00     0.020 A 
ATOM     87  C   UNL A   1      50.464  26.440  31.618  1.00  0.00     0.054 A 
BRANCH  87  88
ATOM     88  S   UNL A   1      52.175  26.034  32.062  1.00  0.00     0.124 S 
ATOM     89  O   UNL A   1      52.479  27.055  33.062  1.00  0.00    -0.237 OA
ATOM     90  O   UNL A   1      52.062  24.670  32.571  1.00  0.00    -0.237 OA
ATOM     91  O   UNL A   1      52.901  26.162  30.800  1.00  0.00    -0.744 OA
ENDBRANCH  87  88
ENDBRANCH  61  82
ENDBRANCH  35  36
ENDBRANCH  27  30
ENDBRANCH  25  26
ENDBRANCH   1  25
TORSDOF 16
ENDMDL
MODEL 3
REMARK VINA RESULT:     -11.5      0.714      8.244
REMARK SMILES CC1(C)O[C@](C)([C@H](O)C2CCCCC2)CC[C@H]1C(=O)NCCCNC(=O)c1ccc(-c2c3nc(c(-c4ccc(S(=O)(=O)[O-])cc4)c4ccc([nH]4)c(-c4ccc(S(=O)(=O)[O-])cc4)c4nc(c(-c5ccc(S(=O)(=O)[O-])cc5)c5ccc2[nH]5)C=C4)C=C3)cc1
REMARK SMILES IDX 22 1 21 2 20 3 18 4 19 5 17 7 1 8 2 9 3 10 4 11 5 12 16 13
REMARK SMILES IDX 6 14 15 15 7 16 9 17 10 18 14 19 11 20 13 21 12 22 8 23
REMARK SMILES IDX 23 25 24 26 25 27 26 29 27 30 28 31 86 32 29 33 85 34 30 35
REMARK SMILES IDX 31 36 32 37 79 38 33 39 84 40 78 41 80 42 34 43 83 44 77 45
REMARK SMILES IDX 76 46 35 48 65 49 46 50 64 51 47 52 50 53 63 54 81 55 48 56
REMARK SMILES IDX 49 57 62 59 82 60 51 61 36 62 37 63 45 64 38 65 44 66 39 67
REMARK SMILES IDX 40 68 41 69 42 70 43 71 66 72 67 73 75 74 68 75 74 76 69 77
REMARK SMILES IDX 70 78 71 79 72 80 73 81 52 82 53 83 61 84 54 85 60 86 55 87
REMARK SMILES IDX 56 88 57 89 58 90 59 91
REMARK H PARENT 20 6 8 24 24 28 80 47 50 58
REMARK Flexibility Score: inf
ROOT
ATOM      1  C   UNL A   1      32.615  26.934  26.163  1.00  0.00     0.042 C 
ENDROOT
BRANCH   1   2
ATOM      2  C   UNL A   1      32.923  25.614  25.467  1.00  0.00     0.117 C 
BRANCH   2   3
ATOM      3  N   UNL A   1      33.340  25.799  24.086  1.00  0.00    -0.356 N 
ATOM      4  C   UNL A   1      33.823  24.958  23.137  1.00  0.00     0.226 C 
ATOM      5  O   UNL A   1      34.133  25.481  22.059  1.00  0.00    -0.275 OA
ATOM      6  H   UNL A   1      33.255  26.729  23.775  1.00  0.00     0.163 HD
BRANCH   4   7
ATOM      7  C   UNL A   1      33.996  23.449  23.314  1.00  0.00     0.110 C 
ATOM      8  C   UNL A   1      35.730  23.797  25.272  1.00  0.00     0.043 C 
ATOM      9  C   UNL A   1      35.298  23.002  24.041  1.00  0.00     0.075 C 
ATOM     10  C   UNL A   1      36.478  23.137  23.045  1.00  0.00     0.043 C 
ATOM     11  O   UNL A   1      35.292  21.609  24.390  1.00  0.00    -0.366 OA
ATOM     12  C   UNL A   1      34.116  21.013  24.951  1.00  0.00     0.092 C 
ATOM     13  C   UNL A   1      32.703  22.713  23.679  1.00  0.00     0.019 C 
ATOM     14  C   UNL A   1      33.711  21.570  26.332  1.00  0.00     0.045 C 
ATOM     15  C   UNL A   1      32.955  21.233  23.955  1.00  0.00     0.039 C 
BRANCH  12  16
ATOM     16  C   UNL A   1      34.399  19.467  25.050  1.00  0.00     0.149 C 
BRANCH  16  17
ATOM     17  C   UNL A   1      33.514  18.506  24.188  1.00  0.00     0.021 C 
ATOM     18  C   UNL A   1      34.198  17.324  23.484  1.00  0.00     0.006 C 
ATOM     19  C   UNL A   1      32.279  17.983  24.959  1.00  0.00     0.006 C 
ATOM     20  C   UNL A   1      34.537  16.170  24.419  1.00  0.00     0.000 C 
ATOM     21  C   UNL A   1      32.548  16.765  25.848  1.00  0.00     0.000 C 
ATOM     22  C   UNL A   1      33.280  15.651  25.107  1.00  0.00     0.000 C 
ENDBRANCH  16  17
BRANCH  16  23
ATOM     23  O   UNL A   1      35.798  19.221  24.896  1.00  0.00    -0.390 OA
ATOM     24  H   UNL A   1      36.119  18.702  25.649  1.00  0.00     0.211 HD
ENDBRANCH  16  23
ENDBRANCH  12  16
ENDBRANCH   4   7
ENDBRANCH   2   3
ENDBRANCH   1   2
BRANCH   1  25
ATOM     25  C   UNL A   1      33.847  27.768  26.465  1.00  0.00     0.118 C 
BRANCH  25  26
ATOM     26  N   UNL A   1      33.504  29.139  26.800  1.00  0.00    -0.352 N 
ATOM     27  C   UNL A   1      34.190  30.065  27.548  1.00  0.00     0.251 C 
ATOM     28  H   UNL A   1      32.644  29.454  26.436  1.00  0.00     0.163 HD
ATOM     29  O   UNL A   1      33.603  31.082  27.919  1.00  0.00    -0.269 OA
BRANCH  27  30
ATOM     30  C   UNL A   1      35.608  29.852  27.927  1.00  0.00     0.039 A 
ATOM     31  C   UNL A   1      35.913  29.516  29.251  1.00  0.00     0.014 A 
ATOM     32  C   UNL A   1      36.648  30.035  27.011  1.00  0.00     0.014 A 
ATOM     33  C   UNL A   1      37.243  29.320  29.636  1.00  0.00     0.010 A 
ATOM     34  C   UNL A   1      37.960  29.736  27.369  1.00  0.00     0.010 A 
ATOM     35  C   UNL A   1      38.279  29.403  28.692  1.00  0.00    -0.014 A 
BRANCH  35  36
ATOM     36  C   UNL A   1      39.702  29.200  29.073  1.00  0.00     0.031 A 
ATOM     37  C   UNL A   1      40.386  27.892  28.759  1.00  0.00     0.074 A 
ATOM     38  C   UNL A   1      40.364  30.158  29.752  1.00  0.00     0.049 A 
ATOM     39  N   UNL A   1      41.591  27.492  29.076  1.00  0.00    -0.248 NA
ATOM     40  C   UNL A   1      39.600  26.890  28.016  1.00  0.00     0.031 C 
ATOM     41  C   UNL A   1      39.807  31.450  30.158  1.00  0.00     0.029 A 
ATOM     42  N   UNL A   1      41.651  30.190  30.226  1.00  0.00    -0.354 N 
ATOM     43  C   UNL A   1      41.694  26.189  28.602  1.00  0.00     0.074 A 
ATOM     44  C   UNL A   1      40.416  25.846  28.021  1.00  0.00     0.031 C 
ATOM     45  C   UNL A   1      40.755  32.159  30.793  1.00  0.00     0.029 A 
ATOM     46  C   UNL A   1      41.974  31.359  30.874  1.00  0.00     0.049 A 
ATOM     47  H   UNL A   1      42.286  29.446  30.112  1.00  0.00     0.167 HD
ATOM     48  C   UNL A   1      42.763  25.356  28.626  1.00  0.00     0.031 A 
ATOM     49  C   UNL A   1      43.118  31.744  31.471  1.00  0.00     0.031 A 
ATOM     50  C   UNL A   1      44.046  25.708  29.171  1.00  0.00     0.049 A 
ATOM     51  C   UNL A   1      44.299  30.814  31.466  1.00  0.00     0.074 A 
ATOM     52  C   UNL A   1      45.210  24.961  29.185  1.00  0.00     0.029 A 
ATOM     53  N   UNL A   1      44.335  26.913  29.792  1.00  0.00    -0.354 N 
ATOM     54  N   UNL A   1      44.392  29.606  30.962  1.00  0.00    -0.248 NA
ATOM     55  C   UNL A   1      45.533  31.302  32.098  1.00  0.00     0.031 C 
ATOM     56  C   UNL A   1      46.195  25.699  29.850  1.00  0.00     0.029 A 
ATOM     57  C   UNL A   1      45.656  26.925  30.207  1.00  0.00     0.049 A 
ATOM     58  H   UNL A   1      43.696  27.651  29.919  1.00  0.00     0.167 HD
ATOM     59  C   UNL A   1      45.701  29.199  31.196  1.00  0.00     0.074 A 
ATOM     60  C   UNL A   1      46.366  30.294  31.873  1.00  0.00     0.031 C 
ATOM     61  C   UNL A   1      46.300  28.025  30.877  1.00  0.00     0.031 A 
BRANCH  48  62
ATOM     62  C   UNL A   1      42.584  23.979  28.041  1.00  0.00    -0.014 A 
ATOM     63  C   UNL A   1      42.185  22.894  28.843  1.00  0.00     0.010 A 
ATOM     64  C   UNL A   1      42.788  23.771  26.665  1.00  0.00     0.010 A 
ATOM     65  C   UNL A   1      42.043  21.619  28.292  1.00  0.00     0.020 A 
ATOM     66  C   UNL A   1      42.618  22.503  26.102  1.00  0.00     0.020 A 
ATOM     67  C   UNL A   1      42.266  21.429  26.924  1.00  0.00     0.054 A 
BRANCH  67  68
ATOM     68  S   UNL A   1      42.060  19.767  26.231  1.00  0.00     0.124 S 
ATOM     69  O   UNL A   1      42.484  18.922  27.345  1.00  0.00    -0.237 OA
ATOM     70  O   UNL A   1      40.634  19.722  25.917  1.00  0.00    -0.237 OA
ATOM     71  O   UNL A   1      42.949  19.762  25.072  1.00  0.00    -0.744 OA
ENDBRANCH  67  68
ENDBRANCH  48  62
BRANCH  49  72
ATOM     72  C   UNL A   1      43.208  33.089  32.103  1.00  0.00    -0.014 A 
ATOM     73  C   UNL A   1      43.485  34.225  31.323  1.00  0.00     0.010 A 
ATOM     74  C   UNL A   1      42.998  33.243  33.486  1.00  0.00     0.010 A 
ATOM     75  C   UNL A   1      43.564  35.489  31.915  1.00  0.00     0.020 A 
ATOM     76  C   UNL A   1      43.051  34.508  34.077  1.00  0.00     0.020 A 
ATOM     77  C   UNL A   1      43.344  35.623  33.289  1.00  0.00     0.054 A 
BRANCH  77  78
ATOM     78  S   UNL A   1      43.394  37.280  34.027  1.00  0.00     0.124 S 
ATOM     79  O   UNL A   1      42.062  37.393  34.612  1.00  0.00    -0.237 OA
ATOM     80  O   UNL A   1      44.497  37.171  34.978  1.00  0.00    -0.237 OA
ATOM     81  O   UNL A   1      43.653  38.153  32.883  1.00  0.00    -0.744 OA
ENDBRANCH  77  78
ENDBRANCH  49  72
BRANCH  61  82
ATOM     82  C   UNL A   1      47.754  27.872  31.230  1.00  0.00    -0.014 A 
ATOM     83  C   UNL A   1      48.764  28.227  30.319  1.00  0.00     0.010 A 
ATOM     84  C   UNL A   1      48.113  27.417  32.512  1.00  0.00     0.010 A 
ATOM     85  C   UNL A   1      50.110  28.106  30.676  1.00  0.00     0.020 A 
ATOM     86  C   UNL A   1      49.456  27.318  32.881  1.00  0.00     0.020 A 
ATOM     87  C   UNL A   1      50.447  27.650  31.955  1.00  0.00     0.054 A 
BRANCH  87  88
ATOM     88  S   UNL A   1      52.199  27.544  32.411  1.00  0.00     0.124 S 
ATOM     89  O   UNL A   1      52.371  26.110  32.623  1.00  0.00    -0.237 OA
ATOM     90  O   UNL A   1      52.872  28.091  31.235  1.00  0.00    -0.237 OA
ATOM     91  O   UNL A   1      52.293  28.369  33.614  1.00  0.00    -0.744 OA
ENDBRANCH  87  88
ENDBRANCH  61  82
ENDBRANCH  35  36
ENDBRANCH  27  30
ENDBRANCH  25  26
ENDBRANCH   1  25
TORSDOF 16
ENDMDL
