MODEL 1
REMARK VINA RESULT:     -10.8      0.000      0.000
REMARK SMILES [NH3+][C@@H](Cc1ccc(OC(F)F)cc1)C(=O)NCCCNC(=O)c1ccc(-c2c3nc(c(-c4ccc(S(=O)(=O)[O-])cc4)c4ccc([nH]4)c(-c4ccc(S(=O)(=O)[O-])cc4)c4nc(c(-c5ccc(S(=O)(=O)[O-])cc5)c5ccc2[nH]5)C=C4)C=C3)cc1
REMARK SMILES IDX 17 1 16 2 14 3 15 4 2 6 1 7 3 11 4 12 5 13 13 14 6 15 12 16
REMARK SMILES IDX 7 17 8 18 9 19 10 20 11 21 18 22 19 23 20 24 21 25 22 27
REMARK SMILES IDX 23 28 24 29 82 30 25 31 81 32 26 33 27 34 28 35 75 36 29 37
REMARK SMILES IDX 80 38 74 39 76 40 30 41 79 42 73 43 72 44 31 46 61 47 42 48
REMARK SMILES IDX 60 49 43 50 46 51 59 52 77 53 44 54 45 55 58 57 78 58 47 59
REMARK SMILES IDX 32 60 33 61 41 62 34 63 40 64 35 65 36 66 37 67 38 68 39 69
REMARK SMILES IDX 62 70 63 71 71 72 64 73 70 74 65 75 66 76 67 77 68 78 69 79
REMARK SMILES IDX 48 80 49 81 57 82 50 83 56 84 51 85 52 86 53 87 54 88 55 89
REMARK H PARENT 16 5 1 8 1 9 1 10 20 26 76 45 46 56
REMARK Flexibility Score: inf
ROOT
ATOM      1  C   UNL A   1      32.497  27.608  25.094  1.00  0.00     0.118 C 
ENDROOT
BRANCH   1   2
ATOM      2  N   UNL A   1      31.645  26.805  25.944  1.00  0.00    -0.351 N 
ATOM      3  C   UNL A   1      30.753  25.833  25.582  1.00  0.00     0.278 C 
ATOM      4  O   UNL A   1      30.447  25.017  26.463  1.00  0.00    -0.268 OA
ATOM      5  H   UNL A   1      31.716  26.982  26.910  1.00  0.00     0.163 HD
BRANCH   3   6
ATOM      6  C   UNL A   1      30.131  25.686  24.165  1.00  0.00     0.275 C 
BRANCH   6   7
ATOM      7  N   UNL A   1      30.316  24.347  23.567  1.00  0.00    -0.347 N 
ATOM      8  H   UNL A   1      30.145  23.633  24.275  1.00  0.00     0.345 HD
ATOM      9  H   UNL A   1      31.271  24.259  23.219  1.00  0.00     0.345 HD
ATOM     10  H   UNL A   1      29.660  24.226  22.796  1.00  0.00     0.345 HD
ENDBRANCH   6   7
BRANCH   6  11
ATOM     11  C   UNL A   1      28.718  26.310  23.988  1.00  0.00     0.111 C 
BRANCH  11  12
ATOM     12  C   UNL A   1      28.634  27.686  23.362  1.00  0.00    -0.041 A 
ATOM     13  C   UNL A   1      27.419  28.370  23.338  1.00  0.00     0.008 A 
ATOM     14  C   UNL A   1      29.750  28.302  22.775  1.00  0.00     0.008 A 
ATOM     15  C   UNL A   1      27.259  29.511  22.549  1.00  0.00     0.047 A 
ATOM     16  C   UNL A   1      29.612  29.493  22.047  1.00  0.00     0.047 A 
ATOM     17  C   UNL A   1      28.351  30.059  21.887  1.00  0.00     0.126 A 
BRANCH  17  18
ATOM     18  O   UNL A   1      28.090  31.050  20.988  1.00  0.00    -0.435 OA
BRANCH  18  19
ATOM     19  C   UNL A   1      28.340  32.362  21.472  1.00  0.00     0.542 C 
ATOM     20  F   UNL A   1      27.603  33.275  20.793  1.00  0.00    -0.167 F 
ATOM     21  F   UNL A   1      27.992  32.433  22.780  1.00  0.00    -0.167 F 
ENDBRANCH  18  19
ENDBRANCH  17  18
ENDBRANCH  11  12
ENDBRANCH   6  11
ENDBRANCH   3   6
ENDBRANCH   1   2
BRANCH   1  22
ATOM     22  C   UNL A   1      33.567  28.422  25.793  1.00  0.00     0.042 C 
BRANCH  22  23
ATOM     23  C   UNL A   1      33.324  28.651  27.287  1.00  0.00     0.118 C 
BRANCH  23  24
ATOM     24  N   UNL A   1      33.471  30.038  27.741  1.00  0.00    -0.352 N 
ATOM     25  C   UNL A   1      34.510  30.743  28.317  1.00  0.00     0.251 C 
ATOM     26  H   UNL A   1      32.659  30.580  27.608  1.00  0.00     0.163 HD
ATOM     27  O   UNL A   1      34.308  31.877  28.717  1.00  0.00    -0.269 OA
BRANCH  25  28
ATOM     28  C   UNL A   1      35.851  30.131  28.474  1.00  0.00     0.039 A 
ATOM     29  C   UNL A   1      36.741  30.127  27.394  1.00  0.00     0.014 A 
ATOM     30  C   UNL A   1      36.237  29.562  29.681  1.00  0.00     0.014 A 
ATOM     31  C   UNL A   1      38.051  29.666  27.575  1.00  0.00     0.010 A 
ATOM     32  C   UNL A   1      37.570  29.251  29.902  1.00  0.00     0.010 A 
ATOM     33  C   UNL A   1      38.497  29.292  28.853  1.00  0.00    -0.014 A 
BRANCH  33  34
ATOM     34  C   UNL A   1      39.913  28.937  29.138  1.00  0.00     0.031 A 
ATOM     35  C   UNL A   1      40.841  29.971  29.727  1.00  0.00     0.074 A 
ATOM     36  C   UNL A   1      40.395  27.738  28.752  1.00  0.00     0.049 A 
ATOM     37  N   UNL A   1      42.140  29.925  29.880  1.00  0.00    -0.248 NA
ATOM     38  C   UNL A   1      40.237  31.250  30.143  1.00  0.00     0.031 C 
ATOM     39  C   UNL A   1      39.623  26.674  28.102  1.00  0.00     0.029 A 
ATOM     40  N   UNL A   1      41.661  27.215  28.839  1.00  0.00    -0.354 N 
ATOM     41  C   UNL A   1      42.508  31.180  30.353  1.00  0.00     0.074 A 
ATOM     42  C   UNL A   1      41.308  31.984  30.401  1.00  0.00     0.031 C 
ATOM     43  C   UNL A   1      40.419  25.615  27.891  1.00  0.00     0.029 A 
ATOM     44  C   UNL A   1      41.767  25.937  28.342  1.00  0.00     0.049 A 
ATOM     45  H   UNL A   1      42.422  27.709  29.222  1.00  0.00     0.167 HD
ATOM     46  C   UNL A   1      43.729  31.619  30.744  1.00  0.00     0.031 A 
ATOM     47  C   UNL A   1      42.832  25.115  28.258  1.00  0.00     0.031 A 
ATOM     48  C   UNL A   1      44.906  30.793  30.756  1.00  0.00     0.049 A 
ATOM     49  C   UNL A   1      44.162  25.595  28.767  1.00  0.00     0.074 A 
ATOM     50  C   UNL A   1      46.174  31.108  31.212  1.00  0.00     0.029 A 
ATOM     51  N   UNL A   1      44.952  29.481  30.312  1.00  0.00    -0.354 N 
ATOM     52  N   UNL A   1      44.478  26.769  29.262  1.00  0.00    -0.248 NA
ATOM     53  C   UNL A   1      45.273  24.636  28.723  1.00  0.00     0.031 C 
ATOM     54  C   UNL A   1      46.995  29.992  31.016  1.00  0.00     0.029 A 
ATOM     55  C   UNL A   1      46.226  28.970  30.482  1.00  0.00     0.049 A 
ATOM     56  H   UNL A   1      44.191  28.986  29.932  1.00  0.00     0.167 HD
ATOM     57  C   UNL A   1      45.820  26.679  29.615  1.00  0.00     0.074 A 
ATOM     58  C   UNL A   1      46.248  25.333  29.291  1.00  0.00     0.031 C 
ATOM     59  C   UNL A   1      46.626  27.624  30.158  1.00  0.00     0.031 A 
BRANCH  46  60
ATOM     60  C   UNL A   1      43.838  33.049  31.207  1.00  0.00    -0.014 A 
ATOM     61  C   UNL A   1      43.592  33.398  32.548  1.00  0.00     0.010 A 
ATOM     62  C   UNL A   1      44.206  34.055  30.296  1.00  0.00     0.010 A 
ATOM     63  C   UNL A   1      43.653  34.733  32.956  1.00  0.00     0.020 A 
ATOM     64  C   UNL A   1      44.301  35.389  30.708  1.00  0.00     0.020 A 
ATOM     65  C   UNL A   1      44.002  35.721  32.032  1.00  0.00     0.054 A 
BRANCH  65  66
ATOM     66  S   UNL A   1      44.085  37.444  32.592  1.00  0.00     0.124 S 
ATOM     67  O   UNL A   1      45.464  37.540  33.063  1.00  0.00    -0.237 OA
ATOM     68  O   UNL A   1      43.786  38.192  31.373  1.00  0.00    -0.237 OA
ATOM     69  O   UNL A   1      43.064  37.520  33.632  1.00  0.00    -0.744 OA
ENDBRANCH  65  66
ENDBRANCH  46  60
BRANCH  47  70
ATOM     70  C   UNL A   1      42.671  23.739  27.713  1.00  0.00    -0.014 A 
ATOM     71  C   UNL A   1      42.338  22.675  28.570  1.00  0.00     0.010 A 
ATOM     72  C   UNL A   1      42.829  23.485  26.339  1.00  0.00     0.010 A 
ATOM     73  C   UNL A   1      42.188  21.379  28.070  1.00  0.00     0.020 A 
ATOM     74  C   UNL A   1      42.654  22.194  25.830  1.00  0.00     0.020 A 
ATOM     75  C   UNL A   1      42.347  21.146  26.700  1.00  0.00     0.054 A 
BRANCH  75  76
ATOM     76  S   UNL A   1      42.098  19.465  26.065  1.00  0.00     0.124 S 
ATOM     77  O   UNL A   1      42.562  18.648  27.181  1.00  0.00    -0.237 OA
ATOM     78  O   UNL A   1      40.660  19.432  25.811  1.00  0.00    -0.237 OA
ATOM     79  O   UNL A   1      42.935  19.426  24.868  1.00  0.00    -0.744 OA
ENDBRANCH  75  76
ENDBRANCH  47  70
BRANCH  59  80
ATOM     80  C   UNL A   1      48.039  27.220  30.477  1.00  0.00    -0.014 A 
ATOM     81  C   UNL A   1      48.346  26.502  31.647  1.00  0.00     0.010 A 
ATOM     82  C   UNL A   1      49.068  27.531  29.570  1.00  0.00     0.010 A 
ATOM     83  C   UNL A   1      49.665  26.138  31.922  1.00  0.00     0.020 A 
ATOM     84  C   UNL A   1      50.384  27.145  29.829  1.00  0.00     0.020 A 
ATOM     85  C   UNL A   1      50.677  26.465  31.013  1.00  0.00     0.054 A 
BRANCH  85  86
ATOM     86  S   UNL A   1      52.379  25.958  31.378  1.00  0.00     0.124 S 
ATOM     87  O   UNL A   1      52.832  27.031  32.258  1.00  0.00    -0.237 OA
ATOM     88  O   UNL A   1      52.198  24.656  32.016  1.00  0.00    -0.237 OA
ATOM     89  O   UNL A   1      53.017  25.916  30.064  1.00  0.00    -0.744 OA
ENDBRANCH  85  86
ENDBRANCH  59  80
ENDBRANCH  33  34
ENDBRANCH  25  28
ENDBRANCH  23  24
ENDBRANCH  22  23
ENDBRANCH   1  22
TORSDOF 18
ENDMDL
MODEL 2
REMARK VINA RESULT:     -10.6      4.758     10.438
REMARK SMILES [NH3+][C@@H](Cc1ccc(OC(F)F)cc1)C(=O)NCCCNC(=O)c1ccc(-c2c3nc(c(-c4ccc(S(=O)(=O)[O-])cc4)c4ccc([nH]4)c(-c4ccc(S(=O)(=O)[O-])cc4)c4nc(c(-c5ccc(S(=O)(=O)[O-])cc5)c5ccc2[nH]5)C=C4)C=C3)cc1
REMARK SMILES IDX 17 1 16 2 14 3 15 4 2 6 1 7 3 11 4 12 5 13 13 14 6 15 12 16
REMARK SMILES IDX 7 17 8 18 9 19 10 20 11 21 18 22 19 23 20 24 21 25 22 27
REMARK SMILES IDX 23 28 24 29 82 30 25 31 81 32 26 33 27 34 28 35 75 36 29 37
REMARK SMILES IDX 80 38 74 39 76 40 30 41 79 42 73 43 72 44 31 46 61 47 42 48
REMARK SMILES IDX 60 49 43 50 46 51 59 52 77 53 44 54 45 55 58 57 78 58 47 59
REMARK SMILES IDX 32 60 33 61 41 62 34 63 40 64 35 65 36 66 37 67 38 68 39 69
REMARK SMILES IDX 62 70 63 71 71 72 64 73 70 74 65 75 66 76 67 77 68 78 69 79
REMARK SMILES IDX 48 80 49 81 57 82 50 83 56 84 51 85 52 86 53 87 54 88 55 89
REMARK H PARENT 16 5 1 8 1 9 1 10 20 26 76 45 46 56
REMARK Flexibility Score: inf
ROOT
ATOM      1  C   UNL A   1      35.084  22.096  24.425  1.00  0.00     0.118 C 
ENDROOT
BRANCH   1   2
ATOM      2  N   UNL A   1      34.812  22.845  23.217  1.00  0.00    -0.351 N 
ATOM      3  C   UNL A   1      33.601  23.201  22.690  1.00  0.00     0.278 C 
ATOM      4  O   UNL A   1      33.607  24.158  21.904  1.00  0.00    -0.268 OA
ATOM      5  H   UNL A   1      35.603  23.136  22.708  1.00  0.00     0.163 HD
BRANCH   3   6
ATOM      6  C   UNL A   1      32.251  22.503  23.023  1.00  0.00     0.275 C 
BRANCH   6   7
ATOM      7  N   UNL A   1      31.094  23.421  23.045  1.00  0.00    -0.347 N 
ATOM      8  H   UNL A   1      30.497  23.234  22.239  1.00  0.00     0.345 HD
ATOM      9  H   UNL A   1      31.425  24.386  23.006  1.00  0.00     0.345 HD
ATOM     10  H   UNL A   1      30.561  23.277  23.902  1.00  0.00     0.345 HD
ENDBRANCH   6   7
BRANCH   6  11
ATOM     11  C   UNL A   1      32.012  21.140  22.315  1.00  0.00     0.111 C 
BRANCH  11  12
ATOM     12  C   UNL A   1      32.258  19.881  23.120  1.00  0.00    -0.041 A 
ATOM     13  C   UNL A   1      32.359  19.948  24.509  1.00  0.00     0.008 A 
ATOM     14  C   UNL A   1      32.414  18.628  22.506  1.00  0.00     0.008 A 
ATOM     15  C   UNL A   1      32.836  18.860  25.242  1.00  0.00     0.047 A 
ATOM     16  C   UNL A   1      32.816  17.510  23.251  1.00  0.00     0.047 A 
ATOM     17  C   UNL A   1      33.085  17.648  24.609  1.00  0.00     0.126 A 
BRANCH  17  18
ATOM     18  O   UNL A   1      33.726  16.693  25.341  1.00  0.00    -0.435 OA
BRANCH  18  19
ATOM     19  C   UNL A   1      35.042  16.397  24.895  1.00  0.00     0.542 C 
ATOM     20  F   UNL A   1      35.733  17.536  24.643  1.00  0.00    -0.167 F 
ATOM     21  F   UNL A   1      35.702  15.712  25.859  1.00  0.00    -0.167 F 
ENDBRANCH  18  19
ENDBRANCH  17  18
ENDBRANCH  11  12
ENDBRANCH   6  11
ENDBRANCH   3   6
ENDBRANCH   1   2
BRANCH   1  22
ATOM     22  C   UNL A   1      35.782  22.850  25.539  1.00  0.00     0.042 C 
BRANCH  22  23
ATOM     23  C   UNL A   1      37.120  23.478  25.146  1.00  0.00     0.118 C 
BRANCH  23  24
ATOM     24  N   UNL A   1      38.311  22.714  25.534  1.00  0.00    -0.352 N 
ATOM     25  C   UNL A   1      39.466  23.039  26.219  1.00  0.00     0.251 C 
ATOM     26  H   UNL A   1      38.280  21.773  25.246  1.00  0.00     0.163 HD
ATOM     27  O   UNL A   1      40.365  22.218  26.289  1.00  0.00    -0.269 OA
BRANCH  25  28
ATOM     28  C   UNL A   1      39.631  24.373  26.843  1.00  0.00     0.039 A 
ATOM     29  C   UNL A   1      39.144  24.599  28.135  1.00  0.00     0.014 A 
ATOM     30  C   UNL A   1      40.267  25.404  26.161  1.00  0.00     0.014 A 
ATOM     31  C   UNL A   1      39.411  25.815  28.776  1.00  0.00     0.010 A 
ATOM     32  C   UNL A   1      40.662  26.542  26.846  1.00  0.00     0.010 A 
ATOM     33  C   UNL A   1      40.237  26.770  28.161  1.00  0.00    -0.014 A 
BRANCH  33  34
ATOM     34  C   UNL A   1      40.678  28.013  28.848  1.00  0.00     0.031 A 
ATOM     35  C   UNL A   1      42.052  28.079  29.470  1.00  0.00     0.074 A 
ATOM     36  C   UNL A   1      39.807  29.027  29.027  1.00  0.00     0.049 A 
ATOM     37  N   UNL A   1      42.558  28.989  30.263  1.00  0.00    -0.248 NA
ATOM     38  C   UNL A   1      42.955  26.942  29.215  1.00  0.00     0.031 C 
ATOM     39  C   UNL A   1      38.423  29.061  28.543  1.00  0.00     0.029 A 
ATOM     40  N   UNL A   1      39.953  30.226  29.679  1.00  0.00    -0.354 N 
ATOM     41  C   UNL A   1      43.806  28.506  30.641  1.00  0.00     0.074 A 
ATOM     42  C   UNL A   1      43.954  27.198  30.044  1.00  0.00     0.031 C 
ATOM     43  C   UNL A   1      37.865  30.235  28.876  1.00  0.00     0.029 A 
ATOM     44  C   UNL A   1      38.830  31.018  29.638  1.00  0.00     0.049 A 
ATOM     45  H   UNL A   1      40.785  30.493  30.132  1.00  0.00     0.167 HD
ATOM     46  C   UNL A   1      44.760  29.107  31.392  1.00  0.00     0.031 A 
ATOM     47  C   UNL A   1      38.600  32.241  30.158  1.00  0.00     0.031 A 
ATOM     48  C   UNL A   1      44.633  30.435  31.927  1.00  0.00     0.049 A 
ATOM     49  C   UNL A   1      39.700  32.921  30.924  1.00  0.00     0.074 A 
ATOM     50  C   UNL A   1      45.569  31.174  32.629  1.00  0.00     0.029 A 
ATOM     51  N   UNL A   1      43.506  31.232  31.801  1.00  0.00    -0.354 N 
ATOM     52  N   UNL A   1      40.895  32.470  31.225  1.00  0.00    -0.248 NA
ATOM     53  C   UNL A   1      39.427  34.282  31.405  1.00  0.00     0.031 C 
ATOM     54  C   UNL A   1      44.996  32.409  32.951  1.00  0.00     0.029 A 
ATOM     55  C   UNL A   1      43.720  32.455  32.410  1.00  0.00     0.049 A 
ATOM     56  H   UNL A   1      42.675  30.965  31.345  1.00  0.00     0.167 HD
ATOM     57  C   UNL A   1      41.527  33.503  31.907  1.00  0.00     0.074 A 
ATOM     58  C   UNL A   1      40.588  34.606  31.958  1.00  0.00     0.031 C 
ATOM     59  C   UNL A   1      42.772  33.539  32.442  1.00  0.00     0.031 A 
BRANCH  46  60
ATOM     60  C   UNL A   1      46.027  28.335  31.655  1.00  0.00    -0.014 A 
ATOM     61  C   UNL A   1      47.141  28.455  30.803  1.00  0.00     0.010 A 
ATOM     62  C   UNL A   1      46.114  27.488  32.775  1.00  0.00     0.010 A 
ATOM     63  C   UNL A   1      48.294  27.700  31.031  1.00  0.00     0.020 A 
ATOM     64  C   UNL A   1      47.279  26.756  33.026  1.00  0.00     0.020 A 
ATOM     65  C   UNL A   1      48.354  26.852  32.139  1.00  0.00     0.054 A 
BRANCH  65  66
ATOM     66  S   UNL A   1      49.868  25.893  32.418  1.00  0.00     0.124 S 
ATOM     67  O   UNL A   1      50.902  26.911  32.256  1.00  0.00    -0.237 OA
ATOM     68  O   UNL A   1      49.686  25.395  33.780  1.00  0.00    -0.237 OA
ATOM     69  O   UNL A   1      49.829  24.871  31.375  1.00  0.00    -0.744 OA
ENDBRANCH  65  66
ENDBRANCH  46  60
BRANCH  47  70
ATOM     70  C   UNL A   1      37.294  32.915  29.929  1.00  0.00    -0.014 A 
ATOM     71  C   UNL A   1      37.017  33.514  28.687  1.00  0.00     0.010 A 
ATOM     72  C   UNL A   1      36.313  32.948  30.936  1.00  0.00     0.010 A 
ATOM     73  C   UNL A   1      35.795  34.154  28.463  1.00  0.00     0.020 A 
ATOM     74  C   UNL A   1      35.078  33.565  30.707  1.00  0.00     0.020 A 
ATOM     75  C   UNL A   1      34.832  34.175  29.476  1.00  0.00     0.054 A 
BRANCH  75  76
ATOM     76  S   UNL A   1      33.232  34.967  29.145  1.00  0.00     0.124 S 
ATOM     77  O   UNL A   1      32.660  34.083  28.136  1.00  0.00    -0.237 OA
ATOM     78  O   UNL A   1      32.586  34.936  30.455  1.00  0.00    -0.237 OA
ATOM     79  O   UNL A   1      33.604  36.300  28.675  1.00  0.00    -0.744 OA
ENDBRANCH  75  76
ENDBRANCH  47  70
BRANCH  59  80
ATOM     80  C   UNL A   1      43.205  34.825  33.089  1.00  0.00    -0.014 A 
ATOM     81  C   UNL A   1      43.715  35.891  32.326  1.00  0.00     0.010 A 
ATOM     82  C   UNL A   1      43.060  34.982  34.480  1.00  0.00     0.010 A 
ATOM     83  C   UNL A   1      44.110  37.076  32.949  1.00  0.00     0.020 A 
ATOM     84  C   UNL A   1      43.429  36.175  35.102  1.00  0.00     0.020 A 
ATOM     85  C   UNL A   1      43.968  37.209  34.334  1.00  0.00     0.054 A 
BRANCH  85  86
ATOM     86  S   UNL A   1      44.463  38.767  35.118  1.00  0.00     0.124 S 
ATOM     87  O   UNL A   1      45.911  38.752  34.933  1.00  0.00    -0.237 OA
ATOM     88  O   UNL A   1      43.740  39.766  34.336  1.00  0.00    -0.237 OA
ATOM     89  O   UNL A   1      44.009  38.619  36.499  1.00  0.00    -0.744 OA
ENDBRANCH  85  86
ENDBRANCH  59  80
ENDBRANCH  33  34
ENDBRANCH  25  28
ENDBRANCH  23  24
ENDBRANCH  22  23
ENDBRANCH   1  22
TORSDOF 18
ENDMDL
MODEL 3
REMARK VINA RESULT:     -10.3      5.628     12.168
REMARK SMILES [NH3+][C@@H](Cc1ccc(OC(F)F)cc1)C(=O)NCCCNC(=O)c1ccc(-c2c3nc(c(-c4ccc(S(=O)(=O)[O-])cc4)c4ccc([nH]4)c(-c4ccc(S(=O)(=O)[O-])cc4)c4nc(c(-c5ccc(S(=O)(=O)[O-])cc5)c5ccc2[nH]5)C=C4)C=C3)cc1
REMARK SMILES IDX 17 1 16 2 14 3 15 4 2 6 1 7 3 11 4 12 5 13 13 14 6 15 12 16
REMARK SMILES IDX 7 17 8 18 9 19 10 20 11 21 18 22 19 23 20 24 21 25 22 27
REMARK SMILES IDX 23 28 24 29 82 30 25 31 81 32 26 33 27 34 28 35 75 36 29 37
REMARK SMILES IDX 80 38 74 39 76 40 30 41 79 42 73 43 72 44 31 46 61 47 42 48
REMARK SMILES IDX 60 49 43 50 46 51 59 52 77 53 44 54 45 55 58 57 78 58 47 59
REMARK SMILES IDX 32 60 33 61 41 62 34 63 40 64 35 65 36 66 37 67 38 68 39 69
REMARK SMILES IDX 62 70 63 71 71 72 64 73 70 74 65 75 66 76 67 77 68 78 69 79
REMARK SMILES IDX 48 80 49 81 57 82 50 83 56 84 51 85 52 86 53 87 54 88 55 89
REMARK H PARENT 16 5 1 8 1 9 1 10 20 26 76 45 46 56
REMARK Flexibility Score: inf
ROOT
ATOM      1  C   UNL A   1      42.499  19.734  26.547  1.00  0.00     0.118 C 
ENDROOT
BRANCH   1   2
ATOM      2  N   UNL A   1      42.896  19.484  25.179  1.00  0.00    -0.351 N 
ATOM      3  C   UNL A   1      44.150  19.246  24.686  1.00  0.00     0.278 C 
ATOM      4  O   UNL A   1      44.207  18.668  23.592  1.00  0.00    -0.268 OA
ATOM      5  H   UNL A   1      42.169  19.485  24.515  1.00  0.00     0.163 HD
BRANCH   3   6
ATOM      6  C   UNL A   1      45.472  19.633  25.407  1.00  0.00     0.275 C 
BRANCH   6   7
ATOM      7  N   UNL A   1      46.192  18.483  25.993  1.00  0.00    -0.347 N 
ATOM      8  H   UNL A   1      45.671  18.129  26.795  1.00  0.00     0.345 HD
ATOM      9  H   UNL A   1      47.120  18.781  26.294  1.00  0.00     0.345 HD
ATOM     10  H   UNL A   1      46.282  17.746  25.293  1.00  0.00     0.345 HD
ENDBRANCH   6   7
BRANCH   6  11
ATOM     11  C   UNL A   1      46.359  20.670  24.662  1.00  0.00     0.111 C 
BRANCH  11  12
ATOM     12  C   UNL A   1      46.183  22.130  25.025  1.00  0.00    -0.041 A 
ATOM     13  C   UNL A   1      46.591  23.125  24.139  1.00  0.00     0.008 A 
ATOM     14  C   UNL A   1      45.631  22.526  26.254  1.00  0.00     0.008 A 
ATOM     15  C   UNL A   1      46.678  24.456  24.551  1.00  0.00     0.047 A 
ATOM     16  C   UNL A   1      45.641  23.874  26.643  1.00  0.00     0.047 A 
ATOM     17  C   UNL A   1      46.222  24.826  25.811  1.00  0.00     0.126 A 
BRANCH  17  18
ATOM     18  O   UNL A   1      46.510  26.094  26.221  1.00  0.00    -0.435 OA
BRANCH  18  19
ATOM     19  C   UNL A   1      45.477  26.717  26.971  1.00  0.00     0.542 C 
ATOM     20  F   UNL A   1      45.984  27.665  27.796  1.00  0.00    -0.167 F 
ATOM     21  F   UNL A   1      44.607  27.320  26.125  1.00  0.00    -0.167 F 
ENDBRANCH  18  19
ENDBRANCH  17  18
ENDBRANCH  11  12
ENDBRANCH   6  11
ENDBRANCH   3   6
ENDBRANCH   1   2
BRANCH   1  22
ATOM     22  C   UNL A   1      42.458  21.186  26.979  1.00  0.00     0.042 C 
BRANCH  22  23
ATOM     23  C   UNL A   1      41.134  21.634  27.601  1.00  0.00     0.118 C 
BRANCH  23  24
ATOM     24  N   UNL A   1      40.015  21.773  26.662  1.00  0.00    -0.352 N 
ATOM     25  C   UNL A   1      39.153  22.809  26.361  1.00  0.00     0.251 C 
ATOM     26  H   UNL A   1      39.843  20.958  26.138  1.00  0.00     0.163 HD
ATOM     27  O   UNL A   1      38.213  22.600  25.611  1.00  0.00    -0.269 OA
BRANCH  25  28
ATOM     28  C   UNL A   1      39.341  24.154  26.954  1.00  0.00     0.039 A 
ATOM     29  C   UNL A   1      38.862  24.416  28.243  1.00  0.00     0.014 A 
ATOM     30  C   UNL A   1      39.989  25.160  26.248  1.00  0.00     0.014 A 
ATOM     31  C   UNL A   1      39.149  25.641  28.855  1.00  0.00     0.010 A 
ATOM     32  C   UNL A   1      40.404  26.307  26.905  1.00  0.00     0.010 A 
ATOM     33  C   UNL A   1      39.987  26.570  28.216  1.00  0.00    -0.014 A 
BRANCH  33  34
ATOM     34  C   UNL A   1      40.449  27.822  28.874  1.00  0.00     0.031 A 
ATOM     35  C   UNL A   1      41.819  27.875  29.506  1.00  0.00     0.074 A 
ATOM     36  C   UNL A   1      39.598  28.858  29.018  1.00  0.00     0.049 A 
ATOM     37  N   UNL A   1      42.338  28.794  30.279  1.00  0.00    -0.248 NA
ATOM     38  C   UNL A   1      42.699  26.713  29.289  1.00  0.00     0.031 C 
ATOM     39  C   UNL A   1      38.220  28.909  28.522  1.00  0.00     0.029 A 
ATOM     40  N   UNL A   1      39.765  30.071  29.639  1.00  0.00    -0.354 N 
ATOM     41  C   UNL A   1      43.573  28.295  30.681  1.00  0.00     0.074 A 
ATOM     42  C   UNL A   1      43.697  26.969  30.120  1.00  0.00     0.031 C 
ATOM     43  C   UNL A   1      37.685  30.103  28.818  1.00  0.00     0.029 A 
ATOM     44  C   UNL A   1      38.660  30.886  29.568  1.00  0.00     0.049 A 
ATOM     45  H   UNL A   1      40.599  30.332  30.093  1.00  0.00     0.167 HD
ATOM     46  C   UNL A   1      44.533  28.896  31.424  1.00  0.00     0.031 A 
ATOM     47  C   UNL A   1      38.453  32.126  30.052  1.00  0.00     0.031 A 
ATOM     48  C   UNL A   1      44.431  30.240  31.922  1.00  0.00     0.049 A 
ATOM     49  C   UNL A   1      39.561  32.804  30.809  1.00  0.00     0.074 A 
ATOM     50  C   UNL A   1      45.377  30.978  32.612  1.00  0.00     0.029 A 
ATOM     51  N   UNL A   1      43.321  31.057  31.764  1.00  0.00    -0.354 N 
ATOM     52  N   UNL A   1      40.743  32.335  31.133  1.00  0.00    -0.248 NA
ATOM     53  C   UNL A   1      39.313  34.182  31.252  1.00  0.00     0.031 C 
ATOM     54  C   UNL A   1      44.827  32.233  32.896  1.00  0.00     0.029 A 
ATOM     55  C   UNL A   1      43.557  32.291  32.343  1.00  0.00     0.049 A 
ATOM     56  H   UNL A   1      42.489  30.796  31.309  1.00  0.00     0.167 HD
ATOM     57  C   UNL A   1      41.392  33.373  31.793  1.00  0.00     0.074 A 
ATOM     58  C   UNL A   1      40.476  34.496  31.806  1.00  0.00     0.031 C 
ATOM     59  C   UNL A   1      42.633  33.396  32.338  1.00  0.00     0.031 A 
BRANCH  46  60
ATOM     60  C   UNL A   1      45.781  28.104  31.718  1.00  0.00    -0.014 A 
ATOM     61  C   UNL A   1      46.919  28.212  30.898  1.00  0.00     0.010 A 
ATOM     62  C   UNL A   1      45.824  27.251  32.836  1.00  0.00     0.010 A 
ATOM     63  C   UNL A   1      48.055  27.440  31.154  1.00  0.00     0.020 A 
ATOM     64  C   UNL A   1      46.971  26.501  33.116  1.00  0.00     0.020 A 
ATOM     65  C   UNL A   1      48.071  26.585  32.260  1.00  0.00     0.054 A 
BRANCH  65  66
ATOM     66  S   UNL A   1      49.563  25.603  32.577  1.00  0.00     0.124 S 
ATOM     67  O   UNL A   1      49.812  25.005  31.267  1.00  0.00    -0.237 OA
ATOM     68  O   UNL A   1      50.529  26.614  32.998  1.00  0.00    -0.237 OA
ATOM     69  O   UNL A   1      49.148  24.669  33.620  1.00  0.00    -0.744 OA
ENDBRANCH  65  66
ENDBRANCH  46  60
BRANCH  47  70
ATOM     70  C   UNL A   1      37.163  32.822  29.794  1.00  0.00    -0.014 A 
ATOM     71  C   UNL A   1      36.278  33.085  30.855  1.00  0.00     0.010 A 
ATOM     72  C   UNL A   1      36.818  33.243  28.497  1.00  0.00     0.010 A 
ATOM     73  C   UNL A   1      35.063  33.734  30.623  1.00  0.00     0.020 A 
ATOM     74  C   UNL A   1      35.613  33.916  28.265  1.00  0.00     0.020 A 
ATOM     75  C   UNL A   1      34.738  34.147  29.327  1.00  0.00     0.054 A 
BRANCH  75  76
ATOM     76  S   UNL A   1      33.177  35.034  29.058  1.00  0.00     0.124 S 
ATOM     77  O   UNL A   1      32.552  34.235  28.010  1.00  0.00    -0.237 OA
ATOM     78  O   UNL A   1      32.543  34.964  30.372  1.00  0.00    -0.237 OA
ATOM     79  O   UNL A   1      33.610  36.370  28.656  1.00  0.00    -0.744 OA
ENDBRANCH  75  76
ENDBRANCH  47  70
BRANCH  59  80
ATOM     80  C   UNL A   1      43.088  34.690  32.954  1.00  0.00    -0.014 A 
ATOM     81  C   UNL A   1      42.828  34.987  34.304  1.00  0.00     0.010 A 
ATOM     82  C   UNL A   1      43.822  35.604  32.176  1.00  0.00     0.010 A 
ATOM     83  C   UNL A   1      43.261  36.195  34.853  1.00  0.00     0.020 A 
ATOM     84  C   UNL A   1      44.278  36.801  32.730  1.00  0.00     0.020 A 
ATOM     85  C   UNL A   1      43.980  37.096  34.062  1.00  0.00     0.054 A 
BRANCH  85  86
ATOM     86  S   UNL A   1      44.555  38.647  34.805  1.00  0.00     0.124 S 
ATOM     87  O   UNL A   1      44.454  38.355  36.231  1.00  0.00    -0.237 OA
ATOM     88  O   UNL A   1      45.914  38.771  34.283  1.00  0.00    -0.237 OA
ATOM     89  O   UNL A   1      43.609  39.642  34.303  1.00  0.00    -0.744 OA
ENDBRANCH  85  86
ENDBRANCH  59  80
ENDBRANCH  33  34
ENDBRANCH  25  28
ENDBRANCH  23  24
ENDBRANCH  22  23
ENDBRANCH   1  22
TORSDOF 18
ENDMDL
