MODEL 1
REMARK VINA RESULT:     -11.9      0.000      0.000
REMARK SMILES Cc1cc(Br)cc2c1O[C@H](C(F)(F)F)C(C(=O)NCCCNC(=O)c1ccc(-c3c4nc(c(-c5ccc(S(=O)(=O)[O-])cc5)c5ccc([nH]5)c(-c5ccc(S(=O)(=O)[O-])cc5)c5nc(c(-c6ccc(S(=O)(=O)[O-])cc6)c6ccc3[nH]6)C=C5)C=C4)cc1)=C2
REMARK SMILES IDX 21 1 20 2 19 3 18 4 16 5 17 6 15 8 1 9 2 10 3 11 8 12 4 13
REMARK SMILES IDX 7 14 9 15 5 16 6 17 85 18 10 19 11 20 12 21 13 22 14 23
REMARK SMILES IDX 22 24 23 25 24 27 25 28 26 29 84 30 27 31 83 32 28 33 29 34
REMARK SMILES IDX 30 35 77 36 31 37 82 38 76 39 78 40 32 41 81 42 75 43 74 44
REMARK SMILES IDX 33 46 63 47 44 48 62 49 45 50 48 51 61 52 79 53 46 54 47 55
REMARK SMILES IDX 60 57 80 58 49 59 34 60 35 61 43 62 36 63 42 64 37 65 38 66
REMARK SMILES IDX 39 67 40 68 41 69 64 70 65 71 73 72 66 73 72 74 67 75 68 76
REMARK SMILES IDX 69 77 70 78 71 79 50 80 51 81 59 82 52 83 58 84 53 85 54 86
REMARK SMILES IDX 55 87 56 88 57 89
REMARK H PARENT 18 7 22 26 78 45 48 56
REMARK Flexibility Score: inf
ROOT
ATOM      1  C   UNL A   1      36.352  23.710  25.781  1.00  0.00     0.118 C 
ENDROOT
BRANCH   1   2
ATOM      2  C   UNL A   1      35.125  23.370  26.616  1.00  0.00     0.042 C 
BRANCH   2   3
ATOM      3  C   UNL A   1      33.981  22.847  25.761  1.00  0.00     0.118 C 
BRANCH   3   4
ATOM      4  N   UNL A   1      34.218  23.066  24.340  1.00  0.00    -0.352 N 
ATOM      5  C   UNL A   1      33.966  24.033  23.430  1.00  0.00     0.251 C 
ATOM      6  O   UNL A   1      34.372  23.801  22.287  1.00  0.00    -0.270 OA
ATOM      7  H   UNL A   1      34.689  22.303  23.933  1.00  0.00     0.163 HD
BRANCH   5   8
ATOM      8  C   UNL A   1      33.261  25.316  23.716  1.00  0.00     0.067 C 
ATOM      9  C   UNL A   1      30.248  29.472  23.672  1.00  0.00     0.048 C 
ATOM     10  C   UNL A   1      31.499  29.071  24.402  1.00  0.00    -0.007 A 
ATOM     11  C   UNL A   1      32.029  29.897  25.401  1.00  0.00     0.023 A 
ATOM     12  C   UNL A   1      32.119  27.841  24.148  1.00  0.00     0.130 A 
ATOM     13  C   UNL A   1      33.172  29.508  26.099  1.00  0.00     0.019 A 
ATOM     14  C   UNL A   1      33.271  27.451  24.842  1.00  0.00     0.019 A 
ATOM     15  O   UNL A   1      31.577  27.065  23.163  1.00  0.00    -0.475 OA
ATOM     16  Br  UNL A   1      33.881  30.642  27.437  1.00  0.00    -0.051 Br
ATOM     17  C   UNL A   1      33.801  28.294  25.822  1.00  0.00     0.027 A 
ATOM     18  C   UNL A   1      33.915  26.186  24.507  1.00  0.00     0.025 C 
ATOM     19  C   UNL A   1      31.890  25.650  23.204  1.00  0.00     0.314 C 
BRANCH  19  20
ATOM     20  C   UNL A   1      30.777  24.906  23.967  1.00  0.00     0.429 C 
ATOM     21  F   UNL A   1      30.418  23.778  23.305  1.00  0.00    -0.167 F 
ATOM     22  F   UNL A   1      31.162  24.516  25.206  1.00  0.00    -0.167 F 
ATOM     23  F   UNL A   1      29.662  25.654  24.125  1.00  0.00    -0.167 F 
ENDBRANCH  19  20
ENDBRANCH   5   8
ENDBRANCH   3   4
ENDBRANCH   2   3
ENDBRANCH   1   2
BRANCH   1  24
ATOM     24  N   UNL A   1      37.391  22.691  25.909  1.00  0.00    -0.352 N 
ATOM     25  C   UNL A   1      38.722  22.819  26.219  1.00  0.00     0.251 C 
ATOM     26  H   UNL A   1      37.090  21.768  25.747  1.00  0.00     0.163 HD
ATOM     27  O   UNL A   1      39.492  21.890  25.985  1.00  0.00    -0.269 OA
BRANCH  25  28
ATOM     28  C   UNL A   1      39.219  24.066  26.829  1.00  0.00     0.039 A 
ATOM     29  C   UNL A   1      39.951  24.969  26.055  1.00  0.00     0.014 A 
ATOM     30  C   UNL A   1      38.981  24.328  28.179  1.00  0.00     0.014 A 
ATOM     31  C   UNL A   1      40.392  26.163  26.627  1.00  0.00     0.010 A 
ATOM     32  C   UNL A   1      39.324  25.560  28.716  1.00  0.00     0.010 A 
ATOM     33  C   UNL A   1      40.054  26.480  27.953  1.00  0.00    -0.014 A 
BRANCH  33  34
ATOM     34  C   UNL A   1      40.489  27.749  28.582  1.00  0.00     0.031 A 
ATOM     35  C   UNL A   1      41.905  27.893  29.068  1.00  0.00     0.074 A 
ATOM     36  C   UNL A   1      39.600  28.745  28.759  1.00  0.00     0.049 A 
ATOM     37  N   UNL A   1      42.469  28.905  29.673  1.00  0.00    -0.248 NA
ATOM     38  C   UNL A   1      42.797  26.737  28.875  1.00  0.00     0.031 C 
ATOM     39  C   UNL A   1      38.192  28.704  28.359  1.00  0.00     0.029 A 
ATOM     40  N   UNL A   1      39.753  29.990  29.314  1.00  0.00    -0.354 N 
ATOM     41  C   UNL A   1      43.773  28.506  29.936  1.00  0.00     0.074 A 
ATOM     42  C   UNL A   1      43.894  27.134  29.499  1.00  0.00     0.031 C 
ATOM     43  C   UNL A   1      37.625  29.890  28.632  1.00  0.00     0.029 A 
ATOM     44  C   UNL A   1      38.614  30.757  29.264  1.00  0.00     0.049 A 
ATOM     45  H   UNL A   1      40.599  30.303  29.710  1.00  0.00     0.167 HD
ATOM     46  C   UNL A   1      44.793  29.225  30.461  1.00  0.00     0.031 A 
ATOM     47  C   UNL A   1      38.395  32.022  29.673  1.00  0.00     0.031 A 
ATOM     48  C   UNL A   1      44.666  30.591  30.891  1.00  0.00     0.049 A 
ATOM     49  C   UNL A   1      39.527  32.792  30.293  1.00  0.00     0.074 A 
ATOM     50  C   UNL A   1      45.639  31.427  31.405  1.00  0.00     0.029 A 
ATOM     51  N   UNL A   1      43.486  31.321  30.856  1.00  0.00    -0.354 N 
ATOM     52  N   UNL A   1      40.769  32.415  30.488  1.00  0.00    -0.248 NA
ATOM     53  C   UNL A   1      39.230  34.158  30.744  1.00  0.00     0.031 C 
ATOM     54  C   UNL A   1      45.037  32.645  31.730  1.00  0.00     0.029 A 
ATOM     55  C   UNL A   1      43.700  32.589  31.366  1.00  0.00     0.049 A 
ATOM     56  H   UNL A   1      42.624  30.986  30.516  1.00  0.00     0.167 HD
ATOM     57  C   UNL A   1      41.407  33.503  31.073  1.00  0.00     0.074 A 
ATOM     58  C   UNL A   1      40.417  34.557  31.184  1.00  0.00     0.031 C 
ATOM     59  C   UNL A   1      42.695  33.618  31.482  1.00  0.00     0.031 A 
BRANCH  46  60
ATOM     60  C   UNL A   1      46.125  28.535  30.591  1.00  0.00    -0.014 A 
ATOM     61  C   UNL A   1      47.067  28.583  29.545  1.00  0.00     0.010 A 
ATOM     62  C   UNL A   1      46.441  27.825  31.763  1.00  0.00     0.010 A 
ATOM     63  C   UNL A   1      48.270  27.881  29.643  1.00  0.00     0.020 A 
ATOM     64  C   UNL A   1      47.659  27.148  31.878  1.00  0.00     0.020 A 
ATOM     65  C   UNL A   1      48.556  27.161  30.806  1.00  0.00     0.054 A 
BRANCH  65  66
ATOM     66  S   UNL A   1      50.119  26.249  30.897  1.00  0.00     0.124 S 
ATOM     67  O   UNL A   1      49.928  25.445  32.103  1.00  0.00    -0.237 OA
ATOM     68  O   UNL A   1      50.128  25.503  29.642  1.00  0.00    -0.237 OA
ATOM     69  O   UNL A   1      51.130  27.299  31.004  1.00  0.00    -0.744 OA
ENDBRANCH  65  66
ENDBRANCH  46  60
BRANCH  47  70
ATOM     70  C   UNL A   1      37.061  32.639  29.451  1.00  0.00    -0.014 A 
ATOM     71  C   UNL A   1      36.121  32.681  30.496  1.00  0.00     0.010 A 
ATOM     72  C   UNL A   1      36.749  33.258  28.226  1.00  0.00     0.010 A 
ATOM     73  C   UNL A   1      34.902  33.342  30.327  1.00  0.00     0.020 A 
ATOM     74  C   UNL A   1      35.539  33.940  28.061  1.00  0.00     0.020 A 
ATOM     75  C   UNL A   1      34.624  33.979  29.115  1.00  0.00     0.054 A 
BRANCH  75  76
ATOM     76  S   UNL A   1      33.078  34.917  28.959  1.00  0.00     0.124 S 
ATOM     77  O   UNL A   1      32.336  34.123  27.985  1.00  0.00    -0.237 OA
ATOM     78  O   UNL A   1      32.559  34.890  30.325  1.00  0.00    -0.237 OA
ATOM     79  O   UNL A   1      33.518  36.230  28.494  1.00  0.00    -0.744 OA
ENDBRANCH  75  76
ENDBRANCH  47  70
BRANCH  59  80
ATOM     80  C   UNL A   1      43.117  34.926  32.094  1.00  0.00    -0.014 A 
ATOM     81  C   UNL A   1      43.760  35.907  31.319  1.00  0.00     0.010 A 
ATOM     82  C   UNL A   1      42.777  35.214  33.428  1.00  0.00     0.010 A 
ATOM     83  C   UNL A   1      44.068  37.152  31.874  1.00  0.00     0.020 A 
ATOM     84  C   UNL A   1      43.059  36.467  33.978  1.00  0.00     0.020 A 
ATOM     85  C   UNL A   1      43.708  37.427  33.197  1.00  0.00     0.054 A 
BRANCH  85  86
ATOM     86  S   UNL A   1      44.052  39.077  33.864  1.00  0.00     0.124 S 
ATOM     87  O   UNL A   1      44.380  38.780  35.257  1.00  0.00    -0.237 OA
ATOM     88  O   UNL A   1      45.169  39.528  33.038  1.00  0.00    -0.237 OA
ATOM     89  O   UNL A   1      42.800  39.802  33.661  1.00  0.00    -0.744 OA
ENDBRANCH  85  86
ENDBRANCH  59  80
ENDBRANCH  33  34
ENDBRANCH  25  28
ENDBRANCH   1  24
TORSDOF 14
ENDMDL
MODEL 2
REMARK VINA RESULT:     -11.9      2.909      9.331
REMARK SMILES Cc1cc(Br)cc2c1O[C@H](C(F)(F)F)C(C(=O)NCCCNC(=O)c1ccc(-c3c4nc(c(-c5ccc(S(=O)(=O)[O-])cc5)c5ccc([nH]5)c(-c5ccc(S(=O)(=O)[O-])cc5)c5nc(c(-c6ccc(S(=O)(=O)[O-])cc6)c6ccc3[nH]6)C=C5)C=C4)cc1)=C2
REMARK SMILES IDX 21 1 20 2 19 3 18 4 16 5 17 6 15 8 1 9 2 10 3 11 8 12 4 13
REMARK SMILES IDX 7 14 9 15 5 16 6 17 85 18 10 19 11 20 12 21 13 22 14 23
REMARK SMILES IDX 22 24 23 25 24 27 25 28 26 29 84 30 27 31 83 32 28 33 29 34
REMARK SMILES IDX 30 35 77 36 31 37 82 38 76 39 78 40 32 41 81 42 75 43 74 44
REMARK SMILES IDX 33 46 63 47 44 48 62 49 45 50 48 51 61 52 79 53 46 54 47 55
REMARK SMILES IDX 60 57 80 58 49 59 34 60 35 61 43 62 36 63 42 64 37 65 38 66
REMARK SMILES IDX 39 67 40 68 41 69 64 70 65 71 73 72 66 73 72 74 67 75 68 76
REMARK SMILES IDX 69 77 70 78 71 79 50 80 51 81 59 82 52 83 58 84 53 85 54 86
REMARK SMILES IDX 55 87 56 88 57 89
REMARK H PARENT 18 7 22 26 78 45 48 56
REMARK Flexibility Score: inf
ROOT
ATOM      1  C   UNL A   1      33.687  28.296  26.837  1.00  0.00     0.118 C 
ENDROOT
BRANCH   1   2
ATOM      2  C   UNL A   1      34.020  27.930  25.397  1.00  0.00     0.042 C 
BRANCH   2   3
ATOM      3  C   UNL A   1      32.785  27.508  24.617  1.00  0.00     0.118 C 
BRANCH   3   4
ATOM      4  N   UNL A   1      31.767  26.926  25.481  1.00  0.00    -0.352 N 
ATOM      5  C   UNL A   1      31.455  25.701  25.959  1.00  0.00     0.251 C 
ATOM      6  O   UNL A   1      30.471  25.661  26.705  1.00  0.00    -0.270 OA
ATOM      7  H   UNL A   1      31.136  27.610  25.803  1.00  0.00     0.163 HD
BRANCH   5   8
ATOM      8  C   UNL A   1      32.203  24.447  25.657  1.00  0.00     0.067 C 
ATOM      9  C   UNL A   1      33.674  19.634  24.644  1.00  0.00     0.048 C 
ATOM     10  C   UNL A   1      34.370  20.889  25.089  1.00  0.00    -0.007 A 
ATOM     11  C   UNL A   1      35.766  20.917  25.211  1.00  0.00     0.023 A 
ATOM     12  C   UNL A   1      33.651  22.068  25.325  1.00  0.00     0.130 A 
ATOM     13  C   UNL A   1      36.412  22.093  25.594  1.00  0.00     0.019 A 
ATOM     14  C   UNL A   1      34.297  23.247  25.716  1.00  0.00     0.019 A 
ATOM     15  O   UNL A   1      32.292  22.000  25.201  1.00  0.00    -0.475 OA
ATOM     16  Br  UNL A   1      38.296  22.108  25.766  1.00  0.00    -0.051 Br
ATOM     17  C   UNL A   1      35.687  23.256  25.854  1.00  0.00     0.027 A 
ATOM     18  C   UNL A   1      33.503  24.436  26.004  1.00  0.00     0.025 C 
ATOM     19  C   UNL A   1      31.597  23.253  24.979  1.00  0.00     0.314 C 
BRANCH  19  20
ATOM     20  C   UNL A   1      31.409  23.467  23.463  1.00  0.00     0.429 C 
ATOM     21  F   UNL A   1      30.150  23.896  23.197  1.00  0.00    -0.167 F 
ATOM     22  F   UNL A   1      32.248  24.403  22.959  1.00  0.00    -0.167 F 
ATOM     23  F   UNL A   1      31.612  22.338  22.748  1.00  0.00    -0.167 F 
ENDBRANCH  19  20
ENDBRANCH   5   8
ENDBRANCH   3   4
ENDBRANCH   2   3
ENDBRANCH   1   2
BRANCH   1  24
ATOM     24  N   UNL A   1      33.564  29.741  27.012  1.00  0.00    -0.352 N 
ATOM     25  C   UNL A   1      34.350  30.617  27.717  1.00  0.00     0.251 C 
ATOM     26  H   UNL A   1      32.795  30.151  26.553  1.00  0.00     0.163 HD
ATOM     27  O   UNL A   1      33.920  31.735  27.992  1.00  0.00    -0.269 OA
BRANCH  25  28
ATOM     28  C   UNL A   1      35.705  30.215  28.139  1.00  0.00     0.039 A 
ATOM     29  C   UNL A   1      35.901  29.689  29.418  1.00  0.00     0.014 A 
ATOM     30  C   UNL A   1      36.787  30.384  27.274  1.00  0.00     0.014 A 
ATOM     31  C   UNL A   1      37.179  29.278  29.802  1.00  0.00     0.010 A 
ATOM     32  C   UNL A   1      38.032  29.876  27.616  1.00  0.00     0.010 A 
ATOM     33  C   UNL A   1      38.246  29.341  28.891  1.00  0.00    -0.014 A 
BRANCH  33  34
ATOM     34  C   UNL A   1      39.609  28.893  29.262  1.00  0.00     0.031 A 
ATOM     35  C   UNL A   1      40.500  29.801  30.065  1.00  0.00     0.074 A 
ATOM     36  C   UNL A   1      40.058  27.697  28.836  1.00  0.00     0.049 A 
ATOM     37  N   UNL A   1      41.731  29.609  30.460  1.00  0.00    -0.248 NA
ATOM     38  C   UNL A   1      39.944  31.110  30.450  1.00  0.00     0.031 C 
ATOM     39  C   UNL A   1      39.295  26.747  28.023  1.00  0.00     0.029 A 
ATOM     40  N   UNL A   1      41.263  27.073  29.035  1.00  0.00    -0.354 N 
ATOM     41  C   UNL A   1      42.095  30.770  31.130  1.00  0.00     0.074 A 
ATOM     42  C   UNL A   1      40.987  31.690  31.021  1.00  0.00     0.031 C 
ATOM     43  C   UNL A   1      40.030  25.639  27.839  1.00  0.00     0.029 A 
ATOM     44  C   UNL A   1      41.329  25.817  28.482  1.00  0.00     0.049 A 
ATOM     45  H   UNL A   1      42.009  27.486  29.527  1.00  0.00     0.167 HD
ATOM     46  C   UNL A   1      43.236  31.036  31.809  1.00  0.00     0.031 A 
ATOM     47  C   UNL A   1      42.321  24.906  28.500  1.00  0.00     0.031 A 
ATOM     48  C   UNL A   1      44.333  30.114  31.917  1.00  0.00     0.049 A 
ATOM     49  C   UNL A   1      43.597  25.234  29.223  1.00  0.00     0.074 A 
ATOM     50  C   UNL A   1      45.521  30.265  32.607  1.00  0.00     0.029 A 
ATOM     51  N   UNL A   1      44.374  28.865  31.313  1.00  0.00    -0.354 N 
ATOM     52  N   UNL A   1      43.905  26.318  29.896  1.00  0.00    -0.248 NA
ATOM     53  C   UNL A   1      44.656  24.218  29.192  1.00  0.00     0.031 C 
ATOM     54  C   UNL A   1      46.303  29.130  32.377  1.00  0.00     0.029 A 
ATOM     55  C   UNL A   1      45.579  28.246  31.591  1.00  0.00     0.049 A 
ATOM     56  H   UNL A   1      43.652  28.477  30.768  1.00  0.00     0.167 HD
ATOM     57  C   UNL A   1      45.191  26.110  30.381  1.00  0.00     0.074 A 
ATOM     58  C   UNL A   1      45.595  24.789  29.939  1.00  0.00     0.031 C 
ATOM     59  C   UNL A   1      45.967  26.936  31.126  1.00  0.00     0.031 A 
BRANCH  46  60
ATOM     60  C   UNL A   1      43.337  32.380  32.483  1.00  0.00    -0.014 A 
ATOM     61  C   UNL A   1      43.877  33.488  31.802  1.00  0.00     0.010 A 
ATOM     62  C   UNL A   1      42.897  32.541  33.808  1.00  0.00     0.010 A 
ATOM     63  C   UNL A   1      44.035  34.712  32.455  1.00  0.00     0.020 A 
ATOM     64  C   UNL A   1      43.022  33.773  34.455  1.00  0.00     0.020 A 
ATOM     65  C   UNL A   1      43.613  34.845  33.781  1.00  0.00     0.054 A 
BRANCH  65  66
ATOM     66  S   UNL A   1      43.844  36.443  34.607  1.00  0.00     0.124 S 
ATOM     67  O   UNL A   1      43.990  36.040  36.004  1.00  0.00    -0.237 OA
ATOM     68  O   UNL A   1      45.055  36.958  33.973  1.00  0.00    -0.237 OA
ATOM     69  O   UNL A   1      42.620  37.176  34.296  1.00  0.00    -0.744 OA
ENDBRANCH  65  66
ENDBRANCH  46  60
BRANCH  47  70
ATOM     70  C   UNL A   1      42.108  23.583  27.856  1.00  0.00    -0.014 A 
ATOM     71  C   UNL A   1      42.596  23.345  26.559  1.00  0.00     0.010 A 
ATOM     72  C   UNL A   1      41.491  22.531  28.558  1.00  0.00     0.010 A 
ATOM     73  C   UNL A   1      42.486  22.077  25.982  1.00  0.00     0.020 A 
ATOM     74  C   UNL A   1      41.399  21.255  27.992  1.00  0.00     0.020 A 
ATOM     75  C   UNL A   1      41.899  21.036  26.707  1.00  0.00     0.054 A 
BRANCH  75  76
ATOM     76  S   UNL A   1      41.862  19.378  25.973  1.00  0.00     0.124 S 
ATOM     77  O   UNL A   1      40.445  19.211  25.666  1.00  0.00    -0.237 OA
ATOM     78  O   UNL A   1      42.746  19.528  24.819  1.00  0.00    -0.237 OA
ATOM     79  O   UNL A   1      42.379  18.520  27.036  1.00  0.00    -0.744 OA
ENDBRANCH  75  76
ENDBRANCH  47  70
BRANCH  59  80
ATOM     80  C   UNL A   1      47.336  26.446  31.510  1.00  0.00    -0.014 A 
ATOM     81  C   UNL A   1      47.544  25.776  32.728  1.00  0.00     0.010 A 
ATOM     82  C   UNL A   1      48.402  26.571  30.601  1.00  0.00     0.010 A 
ATOM     83  C   UNL A   1      48.800  25.248  33.036  1.00  0.00     0.020 A 
ATOM     84  C   UNL A   1      49.652  26.020  30.893  1.00  0.00     0.020 A 
ATOM     85  C   UNL A   1      49.844  25.366  32.112  1.00  0.00     0.054 A 
BRANCH  85  86
ATOM     86  S   UNL A   1      51.441  24.603  32.508  1.00  0.00     0.124 S 
ATOM     87  O   UNL A   1      51.540  24.833  33.947  1.00  0.00    -0.237 OA
ATOM     88  O   UNL A   1      51.238  23.214  32.105  1.00  0.00    -0.237 OA
ATOM     89  O   UNL A   1      52.395  25.350  31.691  1.00  0.00    -0.744 OA
ENDBRANCH  85  86
ENDBRANCH  59  80
ENDBRANCH  33  34
ENDBRANCH  25  28
ENDBRANCH   1  24
TORSDOF 14
ENDMDL
MODEL 3
REMARK VINA RESULT:     -11.7      2.730      9.080
REMARK SMILES Cc1cc(Br)cc2c1O[C@H](C(F)(F)F)C(C(=O)NCCCNC(=O)c1ccc(-c3c4nc(c(-c5ccc(S(=O)(=O)[O-])cc5)c5ccc([nH]5)c(-c5ccc(S(=O)(=O)[O-])cc5)c5nc(c(-c6ccc(S(=O)(=O)[O-])cc6)c6ccc3[nH]6)C=C5)C=C4)cc1)=C2
REMARK SMILES IDX 21 1 20 2 19 3 18 4 16 5 17 6 15 8 1 9 2 10 3 11 8 12 4 13
REMARK SMILES IDX 7 14 9 15 5 16 6 17 85 18 10 19 11 20 12 21 13 22 14 23
REMARK SMILES IDX 22 24 23 25 24 27 25 28 26 29 84 30 27 31 83 32 28 33 29 34
REMARK SMILES IDX 30 35 77 36 31 37 82 38 76 39 78 40 32 41 81 42 75 43 74 44
REMARK SMILES IDX 33 46 63 47 44 48 62 49 45 50 48 51 61 52 79 53 46 54 47 55
REMARK SMILES IDX 60 57 80 58 49 59 34 60 35 61 43 62 36 63 42 64 37 65 38 66
REMARK SMILES IDX 39 67 40 68 41 69 64 70 65 71 73 72 66 73 72 74 67 75 68 76
REMARK SMILES IDX 69 77 70 78 71 79 50 80 51 81 59 82 52 83 58 84 53 85 54 86
REMARK SMILES IDX 55 87 56 88 57 89
REMARK H PARENT 18 7 22 26 78 45 48 56
REMARK Flexibility Score: inf
ROOT
ATOM      1  C   UNL A   1      33.404  28.415  27.249  1.00  0.00     0.118 C 
ENDROOT
BRANCH   1   2
ATOM      2  C   UNL A   1      33.721  27.940  25.838  1.00  0.00     0.042 C 
BRANCH   2   3
ATOM      3  C   UNL A   1      33.739  26.423  25.739  1.00  0.00     0.118 C 
BRANCH   3   4
ATOM      4  N   UNL A   1      33.645  25.965  24.359  1.00  0.00    -0.352 N 
ATOM      5  C   UNL A   1      32.749  26.037  23.349  1.00  0.00     0.251 C 
ATOM      6  O   UNL A   1      33.098  25.496  22.294  1.00  0.00    -0.270 OA
ATOM      7  H   UNL A   1      34.452  25.470  24.089  1.00  0.00     0.163 HD
BRANCH   5   8
ATOM      8  C   UNL A   1      31.420  26.709  23.429  1.00  0.00     0.067 C 
ATOM      9  C   UNL A   1      26.429  27.887  23.658  1.00  0.00     0.048 C 
ATOM     10  C   UNL A   1      27.691  28.649  23.366  1.00  0.00    -0.007 A 
ATOM     11  C   UNL A   1      27.650  30.037  23.182  1.00  0.00     0.023 A 
ATOM     12  C   UNL A   1      28.934  28.003  23.340  1.00  0.00     0.130 A 
ATOM     13  C   UNL A   1      28.828  30.746  22.942  1.00  0.00     0.019 A 
ATOM     14  C   UNL A   1      30.115  28.712  23.094  1.00  0.00     0.019 A 
ATOM     15  O   UNL A   1      28.932  26.649  23.520  1.00  0.00    -0.475 OA
ATOM     16  Br  UNL A   1      28.752  32.619  22.682  1.00  0.00    -0.051 Br
ATOM     17  C   UNL A   1      30.059  30.093  22.891  1.00  0.00     0.027 A 
ATOM     18  C   UNL A   1      31.381  27.991  23.021  1.00  0.00     0.025 C 
ATOM     19  C   UNL A   1      30.178  26.050  23.955  1.00  0.00     0.314 C 
BRANCH  19  20
ATOM     20  C   UNL A   1      30.176  25.936  25.493  1.00  0.00     0.429 C 
ATOM     21  F   UNL A   1      30.987  24.926  25.896  1.00  0.00    -0.167 F 
ATOM     22  F   UNL A   1      30.631  27.058  26.101  1.00  0.00    -0.167 F 
ATOM     23  F   UNL A   1      28.946  25.694  25.997  1.00  0.00    -0.167 F 
ENDBRANCH  19  20
ENDBRANCH   5   8
ENDBRANCH   3   4
ENDBRANCH   2   3
ENDBRANCH   1   2
BRANCH   1  24
ATOM     24  N   UNL A   1      33.417  29.873  27.344  1.00  0.00    -0.352 N 
ATOM     25  C   UNL A   1      34.336  30.715  27.917  1.00  0.00     0.251 C 
ATOM     26  H   UNL A   1      32.643  30.323  26.932  1.00  0.00     0.163 HD
ATOM     27  O   UNL A   1      34.026  31.880  28.159  1.00  0.00    -0.269 OA
BRANCH  25  28
ATOM     28  C   UNL A   1      35.688  30.219  28.238  1.00  0.00     0.039 A 
ATOM     29  C   UNL A   1      36.695  30.287  27.273  1.00  0.00     0.014 A 
ATOM     30  C   UNL A   1      35.950  29.662  29.491  1.00  0.00     0.014 A 
ATOM     31  C   UNL A   1      37.981  29.848  27.592  1.00  0.00     0.010 A 
ATOM     32  C   UNL A   1      37.249  29.329  29.841  1.00  0.00     0.010 A 
ATOM     33  C   UNL A   1      38.273  29.395  28.889  1.00  0.00    -0.014 A 
BRANCH  33  34
ATOM     34  C   UNL A   1      39.633  28.942  29.264  1.00  0.00     0.031 A 
ATOM     35  C   UNL A   1      40.525  29.848  30.068  1.00  0.00     0.074 A 
ATOM     36  C   UNL A   1      40.078  27.745  28.840  1.00  0.00     0.049 A 
ATOM     37  N   UNL A   1      41.754  29.652  30.466  1.00  0.00    -0.248 NA
ATOM     38  C   UNL A   1      39.973  31.159  30.451  1.00  0.00     0.031 C 
ATOM     39  C   UNL A   1      39.314  26.797  28.026  1.00  0.00     0.029 A 
ATOM     40  N   UNL A   1      41.281  27.116  29.043  1.00  0.00    -0.354 N 
ATOM     41  C   UNL A   1      42.121  30.812  31.137  1.00  0.00     0.074 A 
ATOM     42  C   UNL A   1      41.017  31.737  31.024  1.00  0.00     0.031 C 
ATOM     43  C   UNL A   1      40.046  25.686  27.845  1.00  0.00     0.029 A 
ATOM     44  C   UNL A   1      41.343  25.859  28.491  1.00  0.00     0.049 A 
ATOM     45  H   UNL A   1      42.027  27.527  29.537  1.00  0.00     0.167 HD
ATOM     46  C   UNL A   1      43.261  31.075  31.819  1.00  0.00     0.031 A 
ATOM     47  C   UNL A   1      42.332  24.945  28.513  1.00  0.00     0.031 A 
ATOM     48  C   UNL A   1      44.354  30.149  31.930  1.00  0.00     0.049 A 
ATOM     49  C   UNL A   1      43.607  25.269  29.239  1.00  0.00     0.074 A 
ATOM     50  C   UNL A   1      45.541  30.296  32.623  1.00  0.00     0.029 A 
ATOM     51  N   UNL A   1      44.392  28.899  31.327  1.00  0.00    -0.354 N 
ATOM     52  N   UNL A   1      43.918  26.353  29.912  1.00  0.00    -0.248 NA
ATOM     53  C   UNL A   1      44.663  24.248  29.213  1.00  0.00     0.031 C 
ATOM     54  C   UNL A   1      46.319  29.157  32.397  1.00  0.00     0.029 A 
ATOM     55  C   UNL A   1      45.594  28.275  31.610  1.00  0.00     0.049 A 
ATOM     56  H   UNL A   1      43.670  28.513  30.781  1.00  0.00     0.167 HD
ATOM     57  C   UNL A   1      45.201  26.139  30.401  1.00  0.00     0.074 A 
ATOM     58  C   UNL A   1      45.601  24.817  29.961  1.00  0.00     0.031 C 
ATOM     59  C   UNL A   1      45.978  26.964  31.147  1.00  0.00     0.031 A 
BRANCH  46  60
ATOM     60  C   UNL A   1      43.365  32.419  32.491  1.00  0.00    -0.014 A 
ATOM     61  C   UNL A   1      42.906  32.602  33.810  1.00  0.00     0.010 A 
ATOM     62  C   UNL A   1      43.916  33.513  31.802  1.00  0.00     0.010 A 
ATOM     63  C   UNL A   1      42.939  33.866  34.402  1.00  0.00     0.020 A 
ATOM     64  C   UNL A   1      43.982  34.773  32.403  1.00  0.00     0.020 A 
ATOM     65  C   UNL A   1      43.470  34.946  33.691  1.00  0.00     0.054 A 
BRANCH  65  66
ATOM     66  S   UNL A   1      43.485  36.578  34.481  1.00  0.00     0.124 S 
ATOM     67  O   UNL A   1      43.632  37.467  33.330  1.00  0.00    -0.237 OA
ATOM     68  O   UNL A   1      42.186  36.624  35.146  1.00  0.00    -0.237 OA
ATOM     69  O   UNL A   1      44.639  36.522  35.375  1.00  0.00    -0.744 OA
ENDBRANCH  65  66
ENDBRANCH  46  60
BRANCH  47  70
ATOM     70  C   UNL A   1      42.116  23.622  27.869  1.00  0.00    -0.014 A 
ATOM     71  C   UNL A   1      42.639  23.368  26.589  1.00  0.00     0.010 A 
ATOM     72  C   UNL A   1      41.460  22.584  28.558  1.00  0.00     0.010 A 
ATOM     73  C   UNL A   1      42.524  22.099  26.016  1.00  0.00     0.020 A 
ATOM     74  C   UNL A   1      41.363  21.307  27.996  1.00  0.00     0.020 A 
ATOM     75  C   UNL A   1      41.899  21.073  26.728  1.00  0.00     0.054 A 
BRANCH  75  76
ATOM     76  S   UNL A   1      41.855  19.411  26.001  1.00  0.00     0.124 S 
ATOM     77  O   UNL A   1      40.438  19.251  25.690  1.00  0.00    -0.237 OA
ATOM     78  O   UNL A   1      42.745  19.550  24.851  1.00  0.00    -0.237 OA
ATOM     79  O   UNL A   1      42.362  18.555  27.071  1.00  0.00    -0.744 OA
ENDBRANCH  75  76
ENDBRANCH  47  70
BRANCH  59  80
ATOM     80  C   UNL A   1      47.345  26.469  31.535  1.00  0.00    -0.014 A 
ATOM     81  C   UNL A   1      47.527  25.697  32.696  1.00  0.00     0.010 A 
ATOM     82  C   UNL A   1      48.438  26.696  30.680  1.00  0.00     0.010 A 
ATOM     83  C   UNL A   1      48.783  25.169  33.001  1.00  0.00     0.020 A 
ATOM     84  C   UNL A   1      49.690  26.147  30.967  1.00  0.00     0.020 A 
ATOM     85  C   UNL A   1      49.855  25.390  32.130  1.00  0.00     0.054 A 
BRANCH  85  86
ATOM     86  S   UNL A   1      51.455  24.627  32.513  1.00  0.00     0.124 S 
ATOM     87  O   UNL A   1      51.217  23.229  32.162  1.00  0.00    -0.237 OA
ATOM     88  O   UNL A   1      52.370  25.349  31.634  1.00  0.00    -0.237 OA
ATOM     89  O   UNL A   1      51.632  24.889  33.940  1.00  0.00    -0.744 OA
ENDBRANCH  85  86
ENDBRANCH  59  80
ENDBRANCH  33  34
ENDBRANCH  25  28
ENDBRANCH   1  24
TORSDOF 14
ENDMDL
