MODEL 1
REMARK VINA RESULT:     -13.8      0.000      0.000
REMARK SMILES NS(=O)(=O)c1ccc(-n2nc(C(=O)NCCCNC(=O)c3ccc(-c4c5nc(c(-c6ccc(S(=O)(=O)[O-])cc6)c6ccc([nH]6)c(-c6ccc(S(=O)(=O)[O-])cc6)c6nc(c(-c7ccc(S(=O)(=O)[O-])cc7)c7ccc4[nH]7)C=C6)C=C5)cc3)c(Cl)c2-c2ccc(Cl)cc2)cc1
REMARK SMILES IDX 16 1 15 2 14 3 12 4 13 5 11 7 9 8 10 9 83 10 81 11 82 12
REMARK SMILES IDX 8 13 5 14 6 15 92 16 7 17 91 18 2 19 3 20 4 21 1 22 84 25
REMARK SMILES IDX 85 26 90 27 86 28 89 29 87 30 88 31 17 32 18 33 19 34 20 36
REMARK SMILES IDX 21 37 22 38 80 39 23 40 79 41 24 42 25 43 26 44 73 45 27 46
REMARK SMILES IDX 78 47 72 48 74 49 28 50 77 51 71 52 70 53 29 55 59 56 40 57
REMARK SMILES IDX 58 58 41 59 44 60 57 61 75 62 42 63 43 64 56 66 76 67 45 68
REMARK SMILES IDX 30 69 31 70 39 71 32 72 38 73 33 74 34 75 35 76 36 77 37 78
REMARK SMILES IDX 60 79 61 80 69 81 62 82 68 83 63 84 64 85 65 86 66 87 67 88
REMARK SMILES IDX 46 89 47 90 55 91 48 92 54 93 49 94 50 95 51 96 52 97 53 98
REMARK H PARENT 14 6 1 23 1 24 18 35 74 54 44 65
REMARK Flexibility Score: inf
ROOT
ATOM      1  C   UNL A   1      36.383  22.153  25.686  1.00  0.00     0.042 C 
ENDROOT
BRANCH   1   2
ATOM      2  C   UNL A   1      35.677  22.308  24.333  1.00  0.00     0.118 C 
BRANCH   2   3
ATOM      3  N   UNL A   1      34.485  21.470  24.227  1.00  0.00    -0.351 N 
ATOM      4  C   UNL A   1      33.135  21.777  24.254  1.00  0.00     0.273 C 
ATOM      5  O   UNL A   1      32.355  20.860  23.994  1.00  0.00    -0.267 OA
ATOM      6  H   UNL A   1      34.678  20.510  24.117  1.00  0.00     0.163 HD
BRANCH   4   7
ATOM      7  C   UNL A   1      32.672  23.155  24.492  1.00  0.00     0.169 A 
ATOM      8  N   UNL A   1      31.846  25.082  24.030  1.00  0.00    -0.231 N 
ATOM      9  N   UNL A   1      31.962  23.825  23.549  1.00  0.00    -0.160 NA
ATOM     10  C   UNL A   1      32.540  25.255  25.206  1.00  0.00     0.094 A 
ATOM     11  C   UNL A   1      32.771  23.970  25.642  1.00  0.00     0.100 A 
ATOM     12  Cl  UNL A   1      33.077  23.574  27.259  1.00  0.00    -0.079 Cl
BRANCH   8  13
ATOM     13  C   UNL A   1      30.956  26.024  23.474  1.00  0.00     0.065 A 
ATOM     14  C   UNL A   1      29.335  28.195  22.890  1.00  0.00     0.082 A 
ATOM     15  C   UNL A   1      28.799  27.105  23.587  1.00  0.00     0.024 A 
ATOM     16  C   UNL A   1      30.659  28.180  22.438  1.00  0.00     0.024 A 
ATOM     17  C   UNL A   1      29.610  26.000  23.867  1.00  0.00     0.030 A 
ATOM     18  C   UNL A   1      31.480  27.098  22.750  1.00  0.00     0.030 A 
BRANCH  14  19
ATOM     19  S   UNL A   1      28.369  29.647  22.601  1.00  0.00     0.238 S 
ATOM     20  O   UNL A   1      28.373  29.947  21.197  1.00  0.00    -0.207 OA
ATOM     21  O   UNL A   1      28.718  30.632  23.609  1.00  0.00    -0.207 OA
BRANCH  19  22
ATOM     22  N   UNL A   1      26.800  29.165  22.947  1.00  0.00    -0.225 NA
ATOM     23  H   UNL A   1      26.299  29.933  23.394  1.00  0.00     0.137 HD
ATOM     24  H   UNL A   1      26.822  28.361  23.575  1.00  0.00     0.137 HD
ENDBRANCH  19  22
ENDBRANCH  14  19
ENDBRANCH   8  13
BRANCH  10  25
ATOM     25  C   UNL A   1      32.741  26.479  25.964  1.00  0.00     0.002 A 
ATOM     26  C   UNL A   1      31.667  26.982  26.710  1.00  0.00     0.012 A 
ATOM     27  C   UNL A   1      33.874  27.268  25.748  1.00  0.00     0.012 A 
ATOM     28  C   UNL A   1      31.704  28.289  27.195  1.00  0.00     0.021 A 
ATOM     29  C   UNL A   1      33.908  28.576  26.231  1.00  0.00     0.021 A 
ATOM     30  C   UNL A   1      32.817  29.086  26.935  1.00  0.00     0.041 A 
ATOM     31  Cl  UNL A   1      32.823  30.729  27.446  1.00  0.00    -0.084 Cl
ENDBRANCH  10  25
ENDBRANCH   4   7
ENDBRANCH   2   3
ENDBRANCH   1   2
BRANCH   1  32
ATOM     32  C   UNL A   1      37.763  22.761  25.748  1.00  0.00     0.118 C 
BRANCH  32  33
ATOM     33  N   UNL A   1      38.763  21.911  26.392  1.00  0.00    -0.352 N 
ATOM     34  C   UNL A   1      39.979  22.321  26.924  1.00  0.00     0.251 C 
ATOM     35  H   UNL A   1      38.555  20.951  26.455  1.00  0.00     0.163 HD
ATOM     36  O   UNL A   1      40.886  21.518  27.106  1.00  0.00    -0.269 OA
BRANCH  34  37
ATOM     37  C   UNL A   1      40.154  23.754  27.235  1.00  0.00     0.039 A 
ATOM     38  C   UNL A   1      39.145  24.697  27.035  1.00  0.00     0.014 A 
ATOM     39  C   UNL A   1      41.349  24.127  27.839  1.00  0.00     0.014 A 
ATOM     40  C   UNL A   1      39.324  25.985  27.542  1.00  0.00     0.010 A 
ATOM     41  C   UNL A   1      41.410  25.291  28.551  1.00  0.00     0.010 A 
ATOM     42  C   UNL A   1      40.453  26.266  28.333  1.00  0.00    -0.014 A 
BRANCH  42  43
ATOM     43  C   UNL A   1      40.632  27.553  28.995  1.00  0.00     0.031 A 
ATOM     44  C   UNL A   1      41.696  28.413  28.425  1.00  0.00     0.074 A 
ATOM     45  C   UNL A   1      39.791  28.037  29.937  1.00  0.00     0.049 A 
ATOM     46  N   UNL A   1      42.863  28.644  28.925  1.00  0.00    -0.248 NA
ATOM     47  C   UNL A   1      41.499  28.970  27.077  1.00  0.00     0.031 C 
ATOM     48  C   UNL A   1      38.516  27.483  30.418  1.00  0.00     0.029 A 
ATOM     49  N   UNL A   1      39.864  29.219  30.605  1.00  0.00    -0.354 N 
ATOM     50  C   UNL A   1      43.469  29.558  28.074  1.00  0.00     0.074 A 
ATOM     51  C   UNL A   1      42.674  29.570  26.869  1.00  0.00     0.031 C 
ATOM     52  C   UNL A   1      37.835  28.429  31.102  1.00  0.00     0.029 A 
ATOM     53  C   UNL A   1      38.708  29.570  31.290  1.00  0.00     0.049 A 
ATOM     54  H   UNL A   1      40.673  29.781  30.604  1.00  0.00     0.167 HD
ATOM     55  C   UNL A   1      44.430  30.415  28.518  1.00  0.00     0.031 A 
ATOM     56  C   UNL A   1      38.485  30.716  31.976  1.00  0.00     0.031 A 
ATOM     57  C   UNL A   1      44.916  30.042  29.824  1.00  0.00     0.049 A 
ATOM     58  C   UNL A   1      39.816  31.267  32.322  1.00  0.00     0.074 A 
ATOM     59  C   UNL A   1      45.514  28.912  30.347  1.00  0.00     0.029 A 
ATOM     60  N   UNL A   1      44.412  30.734  30.902  1.00  0.00    -0.354 N 
ATOM     61  N   UNL A   1      40.648  30.671  33.130  1.00  0.00    -0.248 NA
ATOM     62  C   UNL A   1      40.411  32.247  31.429  1.00  0.00     0.031 C 
ATOM     63  C   UNL A   1      44.910  28.739  31.630  1.00  0.00     0.029 A 
ATOM     64  C   UNL A   1      44.044  29.812  31.851  1.00  0.00     0.049 A 
ATOM     65  H   UNL A   1      44.331  31.712  30.978  1.00  0.00     0.167 HD
ATOM     66  C   UNL A   1      41.898  30.864  32.561  1.00  0.00     0.074 A 
ATOM     67  C   UNL A   1      41.700  31.931  31.580  1.00  0.00     0.031 C 
ATOM     68  C   UNL A   1      42.909  29.963  32.743  1.00  0.00     0.031 A 
BRANCH  55  69
ATOM     69  C   UNL A   1      44.648  31.791  27.942  1.00  0.00    -0.014 A 
ATOM     70  C   UNL A   1      45.823  32.056  27.212  1.00  0.00     0.010 A 
ATOM     71  C   UNL A   1      43.856  32.901  28.304  1.00  0.00     0.010 A 
ATOM     72  C   UNL A   1      46.201  33.369  26.895  1.00  0.00     0.020 A 
ATOM     73  C   UNL A   1      44.199  34.207  27.956  1.00  0.00     0.020 A 
ATOM     74  C   UNL A   1      45.387  34.437  27.277  1.00  0.00     0.054 A 
BRANCH  74  75
ATOM     75  S   UNL A   1      45.918  36.131  26.935  1.00  0.00     0.124 S 
ATOM     76  O   UNL A   1      44.641  36.828  26.811  1.00  0.00    -0.237 OA
ATOM     77  O   UNL A   1      46.706  36.454  28.122  1.00  0.00    -0.237 OA
ATOM     78  O   UNL A   1      46.687  36.006  25.699  1.00  0.00    -0.744 OA
ENDBRANCH  74  75
ENDBRANCH  55  69
BRANCH  56  79
ATOM     79  C   UNL A   1      37.229  31.493  32.083  1.00  0.00    -0.014 A 
ATOM     80  C   UNL A   1      36.869  32.114  33.293  1.00  0.00     0.010 A 
ATOM     81  C   UNL A   1      36.536  31.875  30.915  1.00  0.00     0.010 A 
ATOM     82  C   UNL A   1      35.908  33.138  33.320  1.00  0.00     0.020 A 
ATOM     83  C   UNL A   1      35.572  32.890  30.936  1.00  0.00     0.020 A 
ATOM     84  C   UNL A   1      35.284  33.538  32.136  1.00  0.00     0.054 A 
BRANCH  84  85
ATOM     85  S   UNL A   1      34.199  34.997  32.149  1.00  0.00     0.124 S 
ATOM     86  O   UNL A   1      34.979  35.956  32.926  1.00  0.00    -0.237 OA
ATOM     87  O   UNL A   1      34.059  35.300  30.727  1.00  0.00    -0.237 OA
ATOM     88  O   UNL A   1      32.982  34.515  32.798  1.00  0.00    -0.744 OA
ENDBRANCH  84  85
ENDBRANCH  56  79
BRANCH  68  89
ATOM     89  C   UNL A   1      42.740  28.895  33.807  1.00  0.00    -0.014 A 
ATOM     90  C   UNL A   1      43.126  29.052  35.154  1.00  0.00     0.010 A 
ATOM     91  C   UNL A   1      42.031  27.732  33.453  1.00  0.00     0.010 A 
ATOM     92  C   UNL A   1      42.836  28.062  36.108  1.00  0.00     0.020 A 
ATOM     93  C   UNL A   1      41.723  26.752  34.401  1.00  0.00     0.020 A 
ATOM     94  C   UNL A   1      42.136  26.916  35.724  1.00  0.00     0.054 A 
BRANCH  94  95
ATOM     95  S   UNL A   1      41.728  25.654  36.964  1.00  0.00     0.124 S 
ATOM     96  O   UNL A   1      41.474  24.473  36.145  1.00  0.00    -0.237 OA
ATOM     97  O   UNL A   1      42.935  25.602  37.786  1.00  0.00    -0.237 OA
ATOM     98  O   UNL A   1      40.552  26.198  37.643  1.00  0.00    -0.744 OA
ENDBRANCH  94  95
ENDBRANCH  68  89
ENDBRANCH  42  43
ENDBRANCH  34  37
ENDBRANCH  32  33
ENDBRANCH   1  32
TORSDOF 17
ENDMDL
MODEL 2
REMARK VINA RESULT:     -13.5      3.175      9.643
REMARK SMILES NS(=O)(=O)c1ccc(-n2nc(C(=O)NCCCNC(=O)c3ccc(-c4c5nc(c(-c6ccc(S(=O)(=O)[O-])cc6)c6ccc([nH]6)c(-c6ccc(S(=O)(=O)[O-])cc6)c6nc(c(-c7ccc(S(=O)(=O)[O-])cc7)c7ccc4[nH]7)C=C6)C=C5)cc3)c(Cl)c2-c2ccc(Cl)cc2)cc1
REMARK SMILES IDX 16 1 15 2 14 3 12 4 13 5 11 7 9 8 10 9 83 10 81 11 82 12
REMARK SMILES IDX 8 13 5 14 6 15 92 16 7 17 91 18 2 19 3 20 4 21 1 22 84 25
REMARK SMILES IDX 85 26 90 27 86 28 89 29 87 30 88 31 17 32 18 33 19 34 20 36
REMARK SMILES IDX 21 37 22 38 80 39 23 40 79 41 24 42 25 43 26 44 73 45 27 46
REMARK SMILES IDX 78 47 72 48 74 49 28 50 77 51 71 52 70 53 29 55 59 56 40 57
REMARK SMILES IDX 58 58 41 59 44 60 57 61 75 62 42 63 43 64 56 66 76 67 45 68
REMARK SMILES IDX 30 69 31 70 39 71 32 72 38 73 33 74 34 75 35 76 36 77 37 78
REMARK SMILES IDX 60 79 61 80 69 81 62 82 68 83 63 84 64 85 65 86 66 87 67 88
REMARK SMILES IDX 46 89 47 90 55 91 48 92 54 93 49 94 50 95 51 96 52 97 53 98
REMARK H PARENT 14 6 1 23 1 24 18 35 74 54 44 65
REMARK Flexibility Score: inf
ROOT
ATOM      1  C   UNL A   1      33.083  29.390  25.928  1.00  0.00     0.042 C 
ENDROOT
BRANCH   1   2
ATOM      2  C   UNL A   1      31.854  28.507  26.176  1.00  0.00     0.118 C 
BRANCH   2   3
ATOM      3  N   UNL A   1      30.981  28.425  25.007  1.00  0.00    -0.351 N 
ATOM      4  C   UNL A   1      30.818  27.442  24.044  1.00  0.00     0.273 C 
ATOM      5  O   UNL A   1      29.890  27.597  23.249  1.00  0.00    -0.267 OA
ATOM      6  H   UNL A   1      30.405  29.213  24.880  1.00  0.00     0.163 HD
BRANCH   4   7
ATOM      7  C   UNL A   1      31.659  26.233  24.039  1.00  0.00     0.169 A 
ATOM      8  N   UNL A   1      32.169  24.166  24.311  1.00  0.00    -0.231 N 
ATOM      9  N   UNL A   1      31.114  25.003  24.217  1.00  0.00    -0.160 NA
ATOM     10  C   UNL A   1      33.370  24.838  24.292  1.00  0.00     0.094 A 
ATOM     11  C   UNL A   1      33.042  26.079  23.795  1.00  0.00     0.100 A 
ATOM     12  Cl  UNL A   1      34.157  27.109  23.044  1.00  0.00    -0.079 Cl
BRANCH   8  13
ATOM     13  C   UNL A   1      32.030  22.764  24.241  1.00  0.00     0.065 A 
ATOM     14  C   UNL A   1      32.366  20.021  24.028  1.00  0.00     0.082 A 
ATOM     15  C   UNL A   1      32.110  20.774  22.875  1.00  0.00     0.024 A 
ATOM     16  C   UNL A   1      32.400  20.626  25.289  1.00  0.00     0.024 A 
ATOM     17  C   UNL A   1      31.921  22.156  22.982  1.00  0.00     0.030 A 
ATOM     18  C   UNL A   1      32.253  22.007  25.394  1.00  0.00     0.030 A 
BRANCH  14  19
ATOM     19  S   UNL A   1      32.702  18.289  23.922  1.00  0.00     0.238 S 
ATOM     20  O   UNL A   1      31.882  17.588  24.868  1.00  0.00    -0.207 OA
ATOM     21  O   UNL A   1      34.142  18.110  23.854  1.00  0.00    -0.207 OA
BRANCH  19  22
ATOM     22  N   UNL A   1      32.110  17.854  22.414  1.00  0.00    -0.225 NA
ATOM     23  H   UNL A   1      31.208  17.390  22.524  1.00  0.00     0.137 HD
ATOM     24  H   UNL A   1      32.767  17.219  21.961  1.00  0.00     0.137 HD
ENDBRANCH  19  22
ENDBRANCH  14  19
ENDBRANCH   8  13
BRANCH  10  25
ATOM     25  C   UNL A   1      34.709  24.302  24.475  1.00  0.00     0.002 A 
ATOM     26  C   UNL A   1      35.280  23.569  23.426  1.00  0.00     0.012 A 
ATOM     27  C   UNL A   1      35.299  24.287  25.742  1.00  0.00     0.012 A 
ATOM     28  C   UNL A   1      36.409  22.783  23.656  1.00  0.00     0.021 A 
ATOM     29  C   UNL A   1      36.426  23.498  25.971  1.00  0.00     0.021 A 
ATOM     30  C   UNL A   1      36.963  22.737  24.933  1.00  0.00     0.041 A 
ATOM     31  Cl  UNL A   1      38.295  21.691  25.243  1.00  0.00    -0.084 Cl
ENDBRANCH  10  25
ENDBRANCH   4   7
ENDBRANCH   2   3
ENDBRANCH   1   2
BRANCH   1  32
ATOM     32  C   UNL A   1      33.775  29.871  27.179  1.00  0.00     0.118 C 
BRANCH  32  33
ATOM     33  N   UNL A   1      34.132  31.289  27.160  1.00  0.00    -0.352 N 
ATOM     34  C   UNL A   1      35.211  31.880  27.804  1.00  0.00     0.251 C 
ATOM     35  H   UNL A   1      33.548  31.885  26.637  1.00  0.00     0.163 HD
ATOM     36  O   UNL A   1      35.222  33.084  28.029  1.00  0.00    -0.269 OA
BRANCH  34  37
ATOM     37  C   UNL A   1      36.326  31.011  28.234  1.00  0.00     0.039 A 
ATOM     38  C   UNL A   1      36.481  29.703  27.773  1.00  0.00     0.014 A 
ATOM     39  C   UNL A   1      37.291  31.583  29.052  1.00  0.00     0.014 A 
ATOM     40  C   UNL A   1      37.666  29.027  28.070  1.00  0.00     0.010 A 
ATOM     41  C   UNL A   1      38.536  31.026  29.118  1.00  0.00     0.010 A 
ATOM     42  C   UNL A   1      38.709  29.711  28.719  1.00  0.00    -0.014 A 
BRANCH  42  43
ATOM     43  C   UNL A   1      40.014  29.100  28.943  1.00  0.00     0.031 A 
ATOM     44  C   UNL A   1      40.374  28.884  30.364  1.00  0.00     0.074 A 
ATOM     45  C   UNL A   1      40.782  28.586  27.956  1.00  0.00     0.049 A 
ATOM     46  N   UNL A   1      41.213  29.566  31.068  1.00  0.00    -0.248 NA
ATOM     47  C   UNL A   1      39.613  27.889  31.137  1.00  0.00     0.031 C 
ATOM     48  C   UNL A   1      40.474  28.423  26.527  1.00  0.00     0.029 A 
ATOM     49  N   UNL A   1      42.000  27.992  28.059  1.00  0.00    -0.354 N 
ATOM     50  C   UNL A   1      41.264  28.947  32.309  1.00  0.00     0.074 A 
ATOM     51  C   UNL A   1      40.129  28.055  32.357  1.00  0.00     0.031 C 
ATOM     52  C   UNL A   1      41.358  27.572  25.961  1.00  0.00     0.029 A 
ATOM     53  C   UNL A   1      42.407  27.304  26.923  1.00  0.00     0.049 A 
ATOM     54  H   UNL A   1      42.551  28.047  28.874  1.00  0.00     0.167 HD
ATOM     55  C   UNL A   1      42.369  29.028  33.102  1.00  0.00     0.031 A 
ATOM     56  C   UNL A   1      43.537  26.571  26.778  1.00  0.00     0.031 A 
ATOM     57  C   UNL A   1      43.285  30.041  32.638  1.00  0.00     0.049 A 
ATOM     58  C   UNL A   1      44.492  27.058  27.800  1.00  0.00     0.074 A 
ATOM     59  C   UNL A   1      43.193  31.403  32.421  1.00  0.00     0.029 A 
ATOM     60  N   UNL A   1      44.371  29.617  31.907  1.00  0.00    -0.354 N 
ATOM     61  N   UNL A   1      44.993  28.262  27.794  1.00  0.00    -0.248 NA
ATOM     62  C   UNL A   1      44.544  26.369  29.079  1.00  0.00     0.031 C 
ATOM     63  C   UNL A   1      43.905  31.629  31.204  1.00  0.00     0.029 A 
ATOM     64  C   UNL A   1      44.458  30.415  30.792  1.00  0.00     0.049 A 
ATOM     65  H   UNL A   1      44.976  28.877  32.141  1.00  0.00     0.167 HD
ATOM     66  C   UNL A   1      45.017  28.645  29.128  1.00  0.00     0.074 A 
ATOM     67  C   UNL A   1      44.834  27.402  29.876  1.00  0.00     0.031 C 
ATOM     68  C   UNL A   1      44.912  29.958  29.492  1.00  0.00     0.031 A 
BRANCH  55  69
ATOM     69  C   UNL A   1      42.790  27.940  34.057  1.00  0.00    -0.014 A 
ATOM     70  C   UNL A   1      42.961  28.246  35.420  1.00  0.00     0.010 A 
ATOM     71  C   UNL A   1      43.263  26.685  33.618  1.00  0.00     0.010 A 
ATOM     72  C   UNL A   1      43.607  27.356  36.289  1.00  0.00     0.020 A 
ATOM     73  C   UNL A   1      43.867  25.773  34.483  1.00  0.00     0.020 A 
ATOM     74  C   UNL A   1      44.062  26.126  35.810  1.00  0.00     0.054 A 
BRANCH  74  75
ATOM     75  S   UNL A   1      44.964  25.015  36.917  1.00  0.00     0.124 S 
ATOM     76  O   UNL A   1      44.097  24.992  38.092  1.00  0.00    -0.237 OA
ATOM     77  O   UNL A   1      45.014  23.779  36.140  1.00  0.00    -0.237 OA
ATOM     78  O   UNL A   1      46.250  25.682  37.099  1.00  0.00    -0.744 OA
ENDBRANCH  74  75
ENDBRANCH  55  69
BRANCH  56  79
ATOM     79  C   UNL A   1      43.722  25.309  26.026  1.00  0.00    -0.014 A 
ATOM     80  C   UNL A   1      44.977  24.971  25.488  1.00  0.00     0.010 A 
ATOM     81  C   UNL A   1      42.742  24.297  26.097  1.00  0.00     0.010 A 
ATOM     82  C   UNL A   1      45.268  23.649  25.110  1.00  0.00     0.020 A 
ATOM     83  C   UNL A   1      43.023  22.979  25.717  1.00  0.00     0.020 A 
ATOM     84  C   UNL A   1      44.296  22.656  25.252  1.00  0.00     0.054 A 
BRANCH  84  85
ATOM     85  S   UNL A   1      44.747  20.919  24.956  1.00  0.00     0.124 S 
ATOM     86  O   UNL A   1      46.135  20.878  25.408  1.00  0.00    -0.237 OA
ATOM     87  O   UNL A   1      43.789  20.197  25.790  1.00  0.00    -0.237 OA
ATOM     88  O   UNL A   1      44.557  20.755  23.516  1.00  0.00    -0.744 OA
ENDBRANCH  84  85
ENDBRANCH  56  79
BRANCH  68  89
ATOM     89  C   UNL A   1      45.057  31.018  28.416  1.00  0.00    -0.014 A 
ATOM     90  C   UNL A   1      43.989  31.500  27.632  1.00  0.00     0.010 A 
ATOM     91  C   UNL A   1      46.308  31.651  28.292  1.00  0.00     0.010 A 
ATOM     92  C   UNL A   1      44.176  32.563  26.732  1.00  0.00     0.020 A 
ATOM     93  C   UNL A   1      46.496  32.720  27.412  1.00  0.00     0.020 A 
ATOM     94  C   UNL A   1      45.432  33.166  26.628  1.00  0.00     0.054 A 
BRANCH  94  95
ATOM     95  S   UNL A   1      45.666  34.564  25.492  1.00  0.00     0.124 S 
ATOM     96  O   UNL A   1      44.858  34.177  24.340  1.00  0.00    -0.237 OA
ATOM     97  O   UNL A   1      45.160  35.698  26.262  1.00  0.00    -0.237 OA
ATOM     98  O   UNL A   1      47.109  34.584  25.255  1.00  0.00    -0.744 OA
ENDBRANCH  94  95
ENDBRANCH  68  89
ENDBRANCH  42  43
ENDBRANCH  34  37
ENDBRANCH  32  33
ENDBRANCH   1  32
TORSDOF 17
ENDMDL
MODEL 3
REMARK VINA RESULT:     -12.9      3.023      6.985
REMARK SMILES NS(=O)(=O)c1ccc(-n2nc(C(=O)NCCCNC(=O)c3ccc(-c4c5nc(c(-c6ccc(S(=O)(=O)[O-])cc6)c6ccc([nH]6)c(-c6ccc(S(=O)(=O)[O-])cc6)c6nc(c(-c7ccc(S(=O)(=O)[O-])cc7)c7ccc4[nH]7)C=C6)C=C5)cc3)c(Cl)c2-c2ccc(Cl)cc2)cc1
REMARK SMILES IDX 16 1 15 2 14 3 12 4 13 5 11 7 9 8 10 9 83 10 81 11 82 12
REMARK SMILES IDX 8 13 5 14 6 15 92 16 7 17 91 18 2 19 3 20 4 21 1 22 84 25
REMARK SMILES IDX 85 26 90 27 86 28 89 29 87 30 88 31 17 32 18 33 19 34 20 36
REMARK SMILES IDX 21 37 22 38 80 39 23 40 79 41 24 42 25 43 26 44 73 45 27 46
REMARK SMILES IDX 78 47 72 48 74 49 28 50 77 51 71 52 70 53 29 55 59 56 40 57
REMARK SMILES IDX 58 58 41 59 44 60 57 61 75 62 42 63 43 64 56 66 76 67 45 68
REMARK SMILES IDX 30 69 31 70 39 71 32 72 38 73 33 74 34 75 35 76 36 77 37 78
REMARK SMILES IDX 60 79 61 80 69 81 62 82 68 83 63 84 64 85 65 86 66 87 67 88
REMARK SMILES IDX 46 89 47 90 55 91 48 92 54 93 49 94 50 95 51 96 52 97 53 98
REMARK H PARENT 14 6 1 23 1 24 18 35 74 54 44 65
REMARK Flexibility Score: inf
ROOT
ATOM      1  C   UNL A   1      36.579  21.248  25.613  1.00  0.00     0.042 C 
ENDROOT
BRANCH   1   2
ATOM      2  C   UNL A   1      35.687  22.109  24.710  1.00  0.00     0.118 C 
BRANCH   2   3
ATOM      3  N   UNL A   1      34.523  21.377  24.216  1.00  0.00    -0.351 N 
ATOM      4  C   UNL A   1      33.217  21.773  23.976  1.00  0.00     0.273 C 
ATOM      5  O   UNL A   1      32.486  20.954  23.417  1.00  0.00    -0.267 OA
ATOM      6  H   UNL A   1      34.699  20.429  24.018  1.00  0.00     0.163 HD
BRANCH   4   7
ATOM      7  C   UNL A   1      32.764  23.138  24.295  1.00  0.00     0.169 A 
ATOM      8  N   UNL A   1      31.928  25.085  23.952  1.00  0.00    -0.231 N 
ATOM      9  N   UNL A   1      32.028  23.853  23.407  1.00  0.00    -0.160 NA
ATOM     10  C   UNL A   1      32.657  25.200  25.114  1.00  0.00     0.094 A 
ATOM     11  C   UNL A   1      32.898  23.895  25.480  1.00  0.00     0.100 A 
ATOM     12  Cl  UNL A   1      33.251  23.420  27.066  1.00  0.00    -0.079 Cl
BRANCH   8  13
ATOM     13  C   UNL A   1      31.024  26.054  23.470  1.00  0.00     0.065 A 
ATOM     14  C   UNL A   1      29.340  28.218  23.069  1.00  0.00     0.082 A 
ATOM     15  C   UNL A   1      28.821  27.033  23.607  1.00  0.00     0.024 A 
ATOM     16  C   UNL A   1      30.681  28.305  22.682  1.00  0.00     0.024 A 
ATOM     17  C   UNL A   1      29.665  25.934  23.793  1.00  0.00     0.030 A 
ATOM     18  C   UNL A   1      31.533  27.225  22.902  1.00  0.00     0.030 A 
BRANCH  14  19
ATOM     19  S   UNL A   1      28.327  29.658  22.908  1.00  0.00     0.238 S 
ATOM     20  O   UNL A   1      29.070  30.810  23.334  1.00  0.00    -0.207 OA
ATOM     21  O   UNL A   1      27.008  29.345  23.428  1.00  0.00    -0.207 OA
BRANCH  19  22
ATOM     22  N   UNL A   1      28.141  29.838  21.251  1.00  0.00    -0.225 NA
ATOM     23  H   UNL A   1      28.404  30.786  20.980  1.00  0.00     0.137 HD
ATOM     24  H   UNL A   1      27.168  29.669  20.997  1.00  0.00     0.137 HD
ENDBRANCH  19  22
ENDBRANCH  14  19
ENDBRANCH   8  13
BRANCH  10  25
ATOM     25  C   UNL A   1      32.883  26.385  25.925  1.00  0.00     0.002 A 
ATOM     26  C   UNL A   1      31.821  26.873  26.699  1.00  0.00     0.012 A 
ATOM     27  C   UNL A   1      34.029  27.164  25.738  1.00  0.00     0.012 A 
ATOM     28  C   UNL A   1      31.883  28.156  27.241  1.00  0.00     0.021 A 
ATOM     29  C   UNL A   1      34.087  28.449  26.279  1.00  0.00     0.021 A 
ATOM     30  C   UNL A   1      33.008  28.944  27.011  1.00  0.00     0.041 A 
ATOM     31  Cl  UNL A   1      33.045  30.563  27.595  1.00  0.00    -0.084 Cl
ENDBRANCH  10  25
ENDBRANCH   4   7
ENDBRANCH   2   3
ENDBRANCH   1   2
BRANCH   1  32
ATOM     32  C   UNL A   1      38.050  21.311  25.288  1.00  0.00     0.118 C 
BRANCH  32  33
ATOM     33  N   UNL A   1      38.755  20.039  25.449  1.00  0.00    -0.352 N 
ATOM     34  C   UNL A   1      40.090  19.870  25.791  1.00  0.00     0.251 C 
ATOM     35  H   UNL A   1      38.229  19.220  25.299  1.00  0.00     0.163 HD
ATOM     36  O   UNL A   1      40.669  18.818  25.550  1.00  0.00    -0.269 OA
BRANCH  34  37
ATOM     37  C   UNL A   1      40.795  21.003  26.424  1.00  0.00     0.039 A 
ATOM     38  C   UNL A   1      41.407  22.017  25.686  1.00  0.00     0.014 A 
ATOM     39  C   UNL A   1      40.744  21.081  27.810  1.00  0.00     0.014 A 
ATOM     40  C   UNL A   1      41.871  23.147  26.361  1.00  0.00     0.010 A 
ATOM     41  C   UNL A   1      40.958  22.281  28.426  1.00  0.00     0.010 A 
ATOM     42  C   UNL A   1      41.612  23.287  27.736  1.00  0.00    -0.014 A 
BRANCH  42  43
ATOM     43  C   UNL A   1      41.958  24.499  28.469  1.00  0.00     0.031 A 
ATOM     44  C   UNL A   1      41.010  25.627  28.308  1.00  0.00     0.074 A 
ATOM     45  C   UNL A   1      42.954  24.566  29.382  1.00  0.00     0.049 A 
ATOM     46  N   UNL A   1      41.182  26.695  27.604  1.00  0.00    -0.248 NA
ATOM     47  C   UNL A   1      39.660  25.495  28.877  1.00  0.00     0.031 C 
ATOM     48  C   UNL A   1      43.805  23.489  29.910  1.00  0.00     0.029 A 
ATOM     49  N   UNL A   1      43.350  25.636  30.120  1.00  0.00    -0.354 N 
ATOM     50  C   UNL A   1      40.060  27.480  27.821  1.00  0.00     0.074 A 
ATOM     51  C   UNL A   1      39.083  26.619  28.444  1.00  0.00     0.031 C 
ATOM     52  C   UNL A   1      44.430  23.907  31.032  1.00  0.00     0.029 A 
ATOM     53  C   UNL A   1      44.196  25.329  31.178  1.00  0.00     0.049 A 
ATOM     54  H   UNL A   1      43.060  26.556  29.920  1.00  0.00     0.167 HD
ATOM     55  C   UNL A   1      40.105  28.837  27.699  1.00  0.00     0.031 A 
ATOM     56  C   UNL A   1      44.682  26.187  32.106  1.00  0.00     0.031 A 
ATOM     57  C   UNL A   1      41.315  29.274  27.048  1.00  0.00     0.049 A 
ATOM     58  C   UNL A   1      44.610  27.542  31.509  1.00  0.00     0.074 A 
ATOM     59  C   UNL A   1      41.898  29.025  25.820  1.00  0.00     0.029 A 
ATOM     60  N   UNL A   1      42.325  29.746  27.855  1.00  0.00    -0.354 N 
ATOM     61  N   UNL A   1      45.310  27.902  30.469  1.00  0.00    -0.248 NA
ATOM     62  C   UNL A   1      43.435  28.353  31.780  1.00  0.00     0.031 C 
ATOM     63  C   UNL A   1      43.291  28.886  26.098  1.00  0.00     0.029 A 
ATOM     64  C   UNL A   1      43.492  29.139  27.457  1.00  0.00     0.049 A 
ATOM     65  H   UNL A   1      42.230  30.400  28.584  1.00  0.00     0.167 HD
ATOM     66  C   UNL A   1      44.449  28.685  29.714  1.00  0.00     0.074 A 
ATOM     67  C   UNL A   1      43.352  29.016  30.623  1.00  0.00     0.031 C 
ATOM     68  C   UNL A   1      44.569  28.766  28.355  1.00  0.00     0.031 A 
BRANCH  55  69
ATOM     69  C   UNL A   1      39.242  29.774  28.506  1.00  0.00    -0.014 A 
ATOM     70  C   UNL A   1      37.950  30.093  28.045  1.00  0.00     0.010 A 
ATOM     71  C   UNL A   1      39.749  30.546  29.573  1.00  0.00     0.010 A 
ATOM     72  C   UNL A   1      37.222  31.155  28.600  1.00  0.00     0.020 A 
ATOM     73  C   UNL A   1      39.017  31.575  30.162  1.00  0.00     0.020 A 
ATOM     74  C   UNL A   1      37.766  31.893  29.653  1.00  0.00     0.054 A 
BRANCH  74  75
ATOM     75  S   UNL A   1      36.856  33.311  30.313  1.00  0.00     0.124 S 
ATOM     76  O   UNL A   1      36.280  33.888  29.101  1.00  0.00    -0.237 OA
ATOM     77  O   UNL A   1      35.910  32.673  31.224  1.00  0.00    -0.237 OA
ATOM     78  O   UNL A   1      37.892  34.112  30.959  1.00  0.00    -0.744 OA
ENDBRANCH  74  75
ENDBRANCH  55  69
BRANCH  56  79
ATOM     79  C   UNL A   1      44.917  25.945  33.547  1.00  0.00    -0.014 A 
ATOM     80  C   UNL A   1      45.930  26.635  34.237  1.00  0.00     0.010 A 
ATOM     81  C   UNL A   1      43.950  25.259  34.313  1.00  0.00     0.010 A 
ATOM     82  C   UNL A   1      45.931  26.705  35.640  1.00  0.00     0.020 A 
ATOM     83  C   UNL A   1      43.948  25.319  35.711  1.00  0.00     0.020 A 
ATOM     84  C   UNL A   1      44.923  26.068  36.368  1.00  0.00     0.054 A 
BRANCH  84  85
ATOM     85  S   UNL A   1      44.814  26.336  38.163  1.00  0.00     0.124 S 
ATOM     86  O   UNL A   1      45.629  27.533  38.347  1.00  0.00    -0.237 OA
ATOM     87  O   UNL A   1      43.379  26.509  38.371  1.00  0.00    -0.237 OA
ATOM     88  O   UNL A   1      45.375  25.110  38.728  1.00  0.00    -0.744 OA
ENDBRANCH  84  85
ENDBRANCH  56  79
BRANCH  68  89
ATOM     89  C   UNL A   1      45.828  28.219  27.709  1.00  0.00    -0.014 A 
ATOM     90  C   UNL A   1      46.996  28.977  27.488  1.00  0.00     0.010 A 
ATOM     91  C   UNL A   1      45.873  26.838  27.442  1.00  0.00     0.010 A 
ATOM     92  C   UNL A   1      48.163  28.374  26.987  1.00  0.00     0.020 A 
ATOM     93  C   UNL A   1      47.036  26.229  26.960  1.00  0.00     0.020 A 
ATOM     94  C   UNL A   1      48.174  27.002  26.725  1.00  0.00     0.054 A 
BRANCH  94  95
ATOM     95  S   UNL A   1      49.693  26.216  26.113  1.00  0.00     0.124 S 
ATOM     96  O   UNL A   1      49.371  25.945  24.716  1.00  0.00    -0.237 OA
ATOM     97  O   UNL A   1      50.706  27.246  26.337  1.00  0.00    -0.237 OA
ATOM     98  O   UNL A   1      49.836  25.029  26.956  1.00  0.00    -0.744 OA
ENDBRANCH  94  95
ENDBRANCH  68  89
ENDBRANCH  42  43
ENDBRANCH  34  37
ENDBRANCH  32  33
ENDBRANCH   1  32
TORSDOF 17
ENDMDL
