MODEL 1
REMARK VINA RESULT:     -11.8      0.000      0.000
REMARK SMILES Cc1cc(Br)cc2c1O[C@H](C(F)(F)F)C(C(=O)NCCCNC(=O)c1ccc(-c3c4nc(c(-c5ccc(S(=O)(=O)[O-])cc5)c5ccc([nH]5)c(-c5ccc(S(=O)(=O)[O-])cc5)c5nc(c(-c6ccc(S(=O)(=O)[O-])cc6)c6ccc3[nH]6)C=C5)C=C4)cc1)=C2
REMARK SMILES IDX 21 1 20 2 19 3 18 4 16 5 17 6 15 8 1 9 2 10 3 11 8 12 4 13
REMARK SMILES IDX 7 14 9 15 5 16 6 17 85 18 10 19 11 20 12 21 13 22 14 23
REMARK SMILES IDX 22 24 23 25 24 27 25 28 26 29 84 30 27 31 83 32 28 33 29 34
REMARK SMILES IDX 30 35 77 36 31 37 82 38 76 39 78 40 32 41 81 42 75 43 74 44
REMARK SMILES IDX 33 46 63 47 44 48 62 49 45 50 48 51 61 52 79 53 46 54 47 55
REMARK SMILES IDX 60 57 80 58 49 59 34 60 35 61 43 62 36 63 42 64 37 65 38 66
REMARK SMILES IDX 39 67 40 68 41 69 64 70 65 71 73 72 66 73 72 74 67 75 68 76
REMARK SMILES IDX 69 77 70 78 71 79 50 80 51 81 59 82 52 83 58 84 53 85 54 86
REMARK SMILES IDX 55 87 56 88 57 89
REMARK H PARENT 18 7 22 26 78 45 48 56
REMARK Flexibility Score: inf
ROOT
ATOM      1  C   UNL A   1      33.758  28.053  26.700  1.00  0.00     0.118 C 
ENDROOT
BRANCH   1   2
ATOM      2  C   UNL A   1      33.923  27.661  25.237  1.00  0.00     0.042 C 
BRANCH   2   3
ATOM      3  C   UNL A   1      32.590  27.354  24.572  1.00  0.00     0.118 C 
BRANCH   3   4
ATOM      4  N   UNL A   1      31.660  26.709  25.485  1.00  0.00    -0.352 N 
ATOM      5  C   UNL A   1      31.479  25.473  26.008  1.00  0.00     0.251 C 
ATOM      6  O   UNL A   1      30.534  25.367  26.795  1.00  0.00    -0.270 OA
ATOM      7  H   UNL A   1      30.978  27.340  25.811  1.00  0.00     0.163 HD
BRANCH   5   8
ATOM      8  C   UNL A   1      32.325  24.285  25.706  1.00  0.00     0.067 C 
ATOM      9  C   UNL A   1      34.171  19.599  24.673  1.00  0.00     0.048 C 
ATOM     10  C   UNL A   1      34.761  20.913  25.100  1.00  0.00    -0.007 A 
ATOM     11  C   UNL A   1      36.143  21.030  25.290  1.00  0.00     0.023 A 
ATOM     12  C   UNL A   1      33.950  22.024  25.367  1.00  0.00     0.130 A 
ATOM     13  C   UNL A   1      36.693  22.239  25.719  1.00  0.00     0.019 A 
ATOM     14  C   UNL A   1      34.499  23.238  25.798  1.00  0.00     0.019 A 
ATOM     15  O   UNL A   1      32.600  21.859  25.235  1.00  0.00    -0.475 OA
ATOM     16  Br  UNL A   1      38.563  22.375  25.969  1.00  0.00    -0.051 Br
ATOM     17  C   UNL A   1      35.881  23.344  25.975  1.00  0.00     0.027 A 
ATOM     18  C   UNL A   1      33.613  24.360  26.091  1.00  0.00     0.025 C 
ATOM     19  C   UNL A   1      31.830  23.063  24.989  1.00  0.00     0.314 C 
BRANCH  19  20
ATOM     20  C   UNL A   1      31.692  23.283  23.470  1.00  0.00     0.429 C 
ATOM     21  F   UNL A   1      31.922  22.128  22.798  1.00  0.00    -0.167 F 
ATOM     22  F   UNL A   1      30.450  23.693  23.112  1.00  0.00    -0.167 F 
ATOM     23  F   UNL A   1      32.556  24.207  22.993  1.00  0.00    -0.167 F 
ENDBRANCH  19  20
ENDBRANCH   5   8
ENDBRANCH   3   4
ENDBRANCH   2   3
ENDBRANCH   1   2
BRANCH   1  24
ATOM     24  N   UNL A   1      33.591  29.496  26.855  1.00  0.00    -0.352 N 
ATOM     25  C   UNL A   1      34.345  30.402  27.556  1.00  0.00     0.251 C 
ATOM     26  H   UNL A   1      32.816  29.878  26.384  1.00  0.00     0.163 HD
ATOM     27  O   UNL A   1      33.884  31.514  27.805  1.00  0.00    -0.269 OA
BRANCH  25  28
ATOM     28  C   UNL A   1      35.702  30.040  28.007  1.00  0.00     0.039 A 
ATOM     29  C   UNL A   1      35.898  29.594  29.316  1.00  0.00     0.014 A 
ATOM     30  C   UNL A   1      36.787  30.163  27.135  1.00  0.00     0.014 A 
ATOM     31  C   UNL A   1      37.175  29.210  29.727  1.00  0.00     0.010 A 
ATOM     32  C   UNL A   1      38.035  29.687  27.513  1.00  0.00     0.010 A 
ATOM     33  C   UNL A   1      38.245  29.222  28.817  1.00  0.00    -0.014 A 
BRANCH  33  34
ATOM     34  C   UNL A   1      39.606  28.789  29.213  1.00  0.00     0.031 A 
ATOM     35  C   UNL A   1      40.473  29.717  30.022  1.00  0.00     0.074 A 
ATOM     36  C   UNL A   1      40.073  27.590  28.811  1.00  0.00     0.049 A 
ATOM     37  N   UNL A   1      41.714  29.561  30.403  1.00  0.00    -0.248 NA
ATOM     38  C   UNL A   1      39.876  31.000  30.441  1.00  0.00     0.031 C 
ATOM     39  C   UNL A   1      39.329  26.614  28.008  1.00  0.00     0.029 A 
ATOM     40  N   UNL A   1      41.283  26.982  29.029  1.00  0.00    -0.354 N 
ATOM     41  C   UNL A   1      42.042  30.718  31.101  1.00  0.00     0.074 A 
ATOM     42  C   UNL A   1      40.899  31.598  31.033  1.00  0.00     0.031 C 
ATOM     43  C   UNL A   1      40.082  25.514  27.843  1.00  0.00     0.029 A 
ATOM     44  C   UNL A   1      41.376  25.722  28.484  1.00  0.00     0.049 A 
ATOM     45  H   UNL A   1      42.016  27.407  29.529  1.00  0.00     0.167 HD
ATOM     46  C   UNL A   1      43.181  31.005  31.772  1.00  0.00     0.031 A 
ATOM     47  C   UNL A   1      42.391  24.838  28.502  1.00  0.00     0.031 A 
ATOM     48  C   UNL A   1      44.307  30.117  31.856  1.00  0.00     0.049 A 
ATOM     49  C   UNL A   1      43.668  25.212  29.209  1.00  0.00     0.074 A 
ATOM     50  C   UNL A   1      45.501  30.308  32.527  1.00  0.00     0.029 A 
ATOM     51  N   UNL A   1      44.371  28.865  31.268  1.00  0.00    -0.354 N 
ATOM     52  N   UNL A   1      43.948  26.301  29.883  1.00  0.00    -0.248 NA
ATOM     53  C   UNL A   1      44.764  24.233  29.160  1.00  0.00     0.031 C 
ATOM     54  C   UNL A   1      46.306  29.186  32.310  1.00  0.00     0.029 A 
ATOM     55  C   UNL A   1      45.590  28.275  31.549  1.00  0.00     0.049 A 
ATOM     56  H   UNL A   1      43.656  28.454  30.729  1.00  0.00     0.167 HD
ATOM     57  C   UNL A   1      45.240  26.124  30.366  1.00  0.00     0.074 A 
ATOM     58  C   UNL A   1      45.679  24.817  29.921  1.00  0.00     0.031 C 
ATOM     59  C   UNL A   1      45.999  26.967  31.108  1.00  0.00     0.031 A 
BRANCH  46  60
ATOM     60  C   UNL A   1      43.255  32.316  32.504  1.00  0.00    -0.014 A 
ATOM     61  C   UNL A   1      43.672  33.482  31.835  1.00  0.00     0.010 A 
ATOM     62  C   UNL A   1      42.818  32.410  33.838  1.00  0.00     0.010 A 
ATOM     63  C   UNL A   1      43.658  34.715  32.488  1.00  0.00     0.020 A 
ATOM     64  C   UNL A   1      42.778  33.648  34.487  1.00  0.00     0.020 A 
ATOM     65  C   UNL A   1      43.201  34.792  33.807  1.00  0.00     0.054 A 
BRANCH  65  66
ATOM     66  S   UNL A   1      43.121  36.422  34.597  1.00  0.00     0.124 S 
ATOM     67  O   UNL A   1      43.202  37.320  33.448  1.00  0.00    -0.237 OA
ATOM     68  O   UNL A   1      41.827  36.383  35.274  1.00  0.00    -0.237 OA
ATOM     69  O   UNL A   1      44.284  36.437  35.481  1.00  0.00    -0.744 OA
ENDBRANCH  65  66
ENDBRANCH  46  60
BRANCH  47  70
ATOM     70  C   UNL A   1      42.250  23.505  27.852  1.00  0.00    -0.014 A 
ATOM     71  C   UNL A   1      41.743  22.413  28.581  1.00  0.00     0.010 A 
ATOM     72  C   UNL A   1      42.648  23.308  26.518  1.00  0.00     0.010 A 
ATOM     73  C   UNL A   1      41.675  21.143  28.002  1.00  0.00     0.020 A 
ATOM     74  C   UNL A   1      42.553  22.046  25.924  1.00  0.00     0.020 A 
ATOM     75  C   UNL A   1      42.086  20.966  26.678  1.00  0.00     0.054 A 
BRANCH  75  76
ATOM     76  S   UNL A   1      41.987  19.308  25.948  1.00  0.00     0.124 S 
ATOM     77  O   UNL A   1      42.847  19.443  24.776  1.00  0.00    -0.237 OA
ATOM     78  O   UNL A   1      42.505  18.462  27.019  1.00  0.00    -0.237 OA
ATOM     79  O   UNL A   1      40.564  19.143  25.665  1.00  0.00    -0.744 OA
ENDBRANCH  75  76
ENDBRANCH  47  70
BRANCH  59  80
ATOM     80  C   UNL A   1      47.366  26.495  31.520  1.00  0.00    -0.014 A 
ATOM     81  C   UNL A   1      47.561  25.808  32.729  1.00  0.00     0.010 A 
ATOM     82  C   UNL A   1      48.453  26.670  30.643  1.00  0.00     0.010 A 
ATOM     83  C   UNL A   1      48.826  25.321  33.066  1.00  0.00     0.020 A 
ATOM     84  C   UNL A   1      49.712  26.160  30.962  1.00  0.00     0.020 A 
ATOM     85  C   UNL A   1      49.892  25.496  32.177  1.00  0.00     0.054 A 
BRANCH  85  86
ATOM     86  S   UNL A   1      51.507  24.799  32.615  1.00  0.00     0.124 S 
ATOM     87  O   UNL A   1      51.394  23.431  32.116  1.00  0.00    -0.237 OA
ATOM     88  O   UNL A   1      52.434  25.660  31.885  1.00  0.00    -0.237 OA
ATOM     89  O   UNL A   1      51.559  24.928  34.070  1.00  0.00    -0.744 OA
ENDBRANCH  85  86
ENDBRANCH  59  80
ENDBRANCH  33  34
ENDBRANCH  25  28
ENDBRANCH   1  24
TORSDOF 14
ENDMDL
MODEL 2
REMARK VINA RESULT:     -11.6      2.857      9.320
REMARK SMILES Cc1cc(Br)cc2c1O[C@H](C(F)(F)F)C(C(=O)NCCCNC(=O)c1ccc(-c3c4nc(c(-c5ccc(S(=O)(=O)[O-])cc5)c5ccc([nH]5)c(-c5ccc(S(=O)(=O)[O-])cc5)c5nc(c(-c6ccc(S(=O)(=O)[O-])cc6)c6ccc3[nH]6)C=C5)C=C4)cc1)=C2
REMARK SMILES IDX 21 1 20 2 19 3 18 4 16 5 17 6 15 8 1 9 2 10 3 11 8 12 4 13
REMARK SMILES IDX 7 14 9 15 5 16 6 17 85 18 10 19 11 20 12 21 13 22 14 23
REMARK SMILES IDX 22 24 23 25 24 27 25 28 26 29 84 30 27 31 83 32 28 33 29 34
REMARK SMILES IDX 30 35 77 36 31 37 82 38 76 39 78 40 32 41 81 42 75 43 74 44
REMARK SMILES IDX 33 46 63 47 44 48 62 49 45 50 48 51 61 52 79 53 46 54 47 55
REMARK SMILES IDX 60 57 80 58 49 59 34 60 35 61 43 62 36 63 42 64 37 65 38 66
REMARK SMILES IDX 39 67 40 68 41 69 64 70 65 71 73 72 66 73 72 74 67 75 68 76
REMARK SMILES IDX 69 77 70 78 71 79 50 80 51 81 59 82 52 83 58 84 53 85 54 86
REMARK SMILES IDX 55 87 56 88 57 89
REMARK H PARENT 18 7 22 26 78 45 48 56
REMARK Flexibility Score: inf
ROOT
ATOM      1  C   UNL A   1      36.724  23.657  24.983  1.00  0.00     0.118 C 
ENDROOT
BRANCH   1   2
ATOM      2  C   UNL A   1      35.435  23.673  25.794  1.00  0.00     0.042 C 
BRANCH   2   3
ATOM      3  C   UNL A   1      34.380  22.745  25.212  1.00  0.00     0.118 C 
BRANCH   3   4
ATOM      4  N   UNL A   1      34.245  22.906  23.772  1.00  0.00    -0.352 N 
ATOM      5  C   UNL A   1      33.749  23.833  22.919  1.00  0.00     0.251 C 
ATOM      6  O   UNL A   1      33.865  23.562  21.720  1.00  0.00    -0.270 OA
ATOM      7  H   UNL A   1      34.614  22.132  23.287  1.00  0.00     0.163 HD
BRANCH   5   8
ATOM      8  C   UNL A   1      33.102  25.111  23.329  1.00  0.00     0.067 C 
ATOM      9  C   UNL A   1      30.221  29.350  23.719  1.00  0.00     0.048 C 
ATOM     10  C   UNL A   1      31.472  28.841  24.377  1.00  0.00    -0.007 A 
ATOM     11  C   UNL A   1      32.104  29.606  25.363  1.00  0.00     0.023 A 
ATOM     12  C   UNL A   1      32.058  27.629  23.988  1.00  0.00     0.130 A 
ATOM     13  C   UNL A   1      33.286  29.153  25.953  1.00  0.00     0.019 A 
ATOM     14  C   UNL A   1      33.243  27.172  24.578  1.00  0.00     0.019 A 
ATOM     15  O   UNL A   1      31.452  26.937  22.977  1.00  0.00    -0.475 OA
ATOM     16  Br  UNL A   1      34.124  30.203  27.285  1.00  0.00    -0.051 Br
ATOM     17  C   UNL A   1      33.859  27.942  25.568  1.00  0.00     0.027 A 
ATOM     18  C   UNL A   1      33.832  25.917  24.122  1.00  0.00     0.025 C 
ATOM     19  C   UNL A   1      31.710  25.511  22.935  1.00  0.00     0.314 C 
BRANCH  19  20
ATOM     20  C   UNL A   1      30.630  24.768  23.744  1.00  0.00     0.429 C 
ATOM     21  F   UNL A   1      30.193  23.677  23.067  1.00  0.00    -0.167 F 
ATOM     22  F   UNL A   1      31.088  24.319  24.938  1.00  0.00    -0.167 F 
ATOM     23  F   UNL A   1      29.551  25.538  24.010  1.00  0.00    -0.167 F 
ENDBRANCH  19  20
ENDBRANCH   5   8
ENDBRANCH   3   4
ENDBRANCH   2   3
ENDBRANCH   1   2
BRANCH   1  24
ATOM     24  N   UNL A   1      37.649  22.633  25.461  1.00  0.00    -0.352 N 
ATOM     25  C   UNL A   1      38.844  22.762  26.122  1.00  0.00     0.251 C 
ATOM     26  H   UNL A   1      37.373  21.706  25.281  1.00  0.00     0.163 HD
ATOM     27  O   UNL A   1      39.613  21.804  26.181  1.00  0.00    -0.269 OA
BRANCH  25  28
ATOM     28  C   UNL A   1      39.201  24.045  26.756  1.00  0.00     0.039 A 
ATOM     29  C   UNL A   1      38.755  24.323  28.050  1.00  0.00     0.014 A 
ATOM     30  C   UNL A   1      39.964  24.985  26.057  1.00  0.00     0.014 A 
ATOM     31  C   UNL A   1      39.130  25.518  28.664  1.00  0.00     0.010 A 
ATOM     32  C   UNL A   1      40.419  26.124  26.705  1.00  0.00     0.010 A 
ATOM     33  C   UNL A   1      39.994  26.411  28.008  1.00  0.00    -0.014 A 
BRANCH  33  34
ATOM     34  C   UNL A   1      40.438  27.673  28.646  1.00  0.00     0.031 A 
ATOM     35  C   UNL A   1      41.850  27.788  29.158  1.00  0.00     0.074 A 
ATOM     36  C   UNL A   1      39.566  28.689  28.802  1.00  0.00     0.049 A 
ATOM     37  N   UNL A   1      42.410  28.771  29.813  1.00  0.00    -0.248 NA
ATOM     38  C   UNL A   1      42.744  26.638  28.926  1.00  0.00     0.031 C 
ATOM     39  C   UNL A   1      38.168  28.684  28.361  1.00  0.00     0.029 A 
ATOM     40  N   UNL A   1      39.729  29.928  29.367  1.00  0.00    -0.354 N 
ATOM     41  C   UNL A   1      43.713  28.361  30.067  1.00  0.00     0.074 A 
ATOM     42  C   UNL A   1      43.844  27.014  29.562  1.00  0.00     0.031 C 
ATOM     43  C   UNL A   1      37.618  29.879  28.630  1.00  0.00     0.029 A 
ATOM     44  C   UNL A   1      38.604  30.717  29.304  1.00  0.00     0.049 A 
ATOM     45  H   UNL A   1      40.572  30.225  29.779  1.00  0.00     0.167 HD
ATOM     46  C   UNL A   1      44.723  29.058  30.636  1.00  0.00     0.031 A 
ATOM     47  C   UNL A   1      38.395  31.974  29.740  1.00  0.00     0.031 A 
ATOM     48  C   UNL A   1      44.595  30.406  31.116  1.00  0.00     0.049 A 
ATOM     49  C   UNL A   1      39.523  32.703  30.422  1.00  0.00     0.074 A 
ATOM     50  C   UNL A   1      45.564  31.207  31.692  1.00  0.00     0.029 A 
ATOM     51  N   UNL A   1      43.433  31.158  31.058  1.00  0.00    -0.354 N 
ATOM     52  N   UNL A   1      40.756  32.304  30.630  1.00  0.00    -0.248 NA
ATOM     53  C   UNL A   1      39.233  34.054  30.923  1.00  0.00     0.031 C 
ATOM     54  C   UNL A   1      44.976  32.431  32.022  1.00  0.00     0.029 A 
ATOM     55  C   UNL A   1      43.656  32.410  31.601  1.00  0.00     0.049 A 
ATOM     56  H   UNL A   1      42.575  30.847  30.687  1.00  0.00     0.167 HD
ATOM     57  C   UNL A   1      41.395  33.369  31.257  1.00  0.00     0.074 A 
ATOM     58  C   UNL A   1      40.419  34.432  31.378  1.00  0.00     0.031 C 
ATOM     59  C   UNL A   1      42.674  33.458  31.696  1.00  0.00     0.031 A 
BRANCH  46  60
ATOM     60  C   UNL A   1      46.069  28.394  30.735  1.00  0.00    -0.014 A 
ATOM     61  C   UNL A   1      46.397  27.618  31.862  1.00  0.00     0.010 A 
ATOM     62  C   UNL A   1      46.975  28.463  29.661  1.00  0.00     0.010 A 
ATOM     63  C   UNL A   1      47.611  26.930  31.917  1.00  0.00     0.020 A 
ATOM     64  C   UNL A   1      48.179  27.755  29.702  1.00  0.00     0.020 A 
ATOM     65  C   UNL A   1      48.489  26.995  30.832  1.00  0.00     0.054 A 
BRANCH  65  66
ATOM     66  S   UNL A   1      50.020  26.024  30.905  1.00  0.00     0.124 S 
ATOM     67  O   UNL A   1      51.024  27.060  31.135  1.00  0.00    -0.237 OA
ATOM     68  O   UNL A   1      49.773  25.128  32.031  1.00  0.00    -0.237 OA
ATOM     69  O   UNL A   1      50.083  25.376  29.597  1.00  0.00    -0.744 OA
ENDBRANCH  65  66
ENDBRANCH  46  60
BRANCH  47  70
ATOM     70  C   UNL A   1      37.078  32.641  29.537  1.00  0.00    -0.014 A 
ATOM     71  C   UNL A   1      36.802  33.304  28.327  1.00  0.00     0.010 A 
ATOM     72  C   UNL A   1      36.109  32.648  30.555  1.00  0.00     0.010 A 
ATOM     73  C   UNL A   1      35.598  33.994  28.154  1.00  0.00     0.020 A 
ATOM     74  C   UNL A   1      34.891  33.311  30.376  1.00  0.00     0.020 A 
ATOM     75  C   UNL A   1      34.653  33.997  29.182  1.00  0.00     0.054 A 
BRANCH  75  76
ATOM     76  S   UNL A   1      33.098  34.899  28.935  1.00  0.00     0.124 S 
ATOM     77  O   UNL A   1      32.550  34.932  30.287  1.00  0.00    -0.237 OA
ATOM     78  O   UNL A   1      33.558  36.180  28.407  1.00  0.00    -0.237 OA
ATOM     79  O   UNL A   1      32.367  34.067  27.983  1.00  0.00    -0.744 OA
ENDBRANCH  75  76
ENDBRANCH  47  70
BRANCH  59  80
ATOM     80  C   UNL A   1      43.108  34.757  32.317  1.00  0.00    -0.014 A 
ATOM     81  C   UNL A   1      43.725  35.757  31.546  1.00  0.00     0.010 A 
ATOM     82  C   UNL A   1      42.819  35.011  33.670  1.00  0.00     0.010 A 
ATOM     83  C   UNL A   1      44.064  36.982  32.124  1.00  0.00     0.020 A 
ATOM     84  C   UNL A   1      43.129  36.244  34.244  1.00  0.00     0.020 A 
ATOM     85  C   UNL A   1      43.760  37.219  33.469  1.00  0.00     0.054 A 
BRANCH  85  86
ATOM     86  S   UNL A   1      44.157  38.841  34.174  1.00  0.00     0.124 S 
ATOM     87  O   UNL A   1      44.303  38.529  35.593  1.00  0.00    -0.237 OA
ATOM     88  O   UNL A   1      45.390  39.198  33.478  1.00  0.00    -0.237 OA
ATOM     89  O   UNL A   1      42.996  39.662  33.834  1.00  0.00    -0.744 OA
ENDBRANCH  85  86
ENDBRANCH  59  80
ENDBRANCH  33  34
ENDBRANCH  25  28
ENDBRANCH   1  24
TORSDOF 14
ENDMDL
MODEL 3
REMARK VINA RESULT:     -11.2      4.442      9.562
REMARK SMILES Cc1cc(Br)cc2c1O[C@H](C(F)(F)F)C(C(=O)NCCCNC(=O)c1ccc(-c3c4nc(c(-c5ccc(S(=O)(=O)[O-])cc5)c5ccc([nH]5)c(-c5ccc(S(=O)(=O)[O-])cc5)c5nc(c(-c6ccc(S(=O)(=O)[O-])cc6)c6ccc3[nH]6)C=C5)C=C4)cc1)=C2
REMARK SMILES IDX 21 1 20 2 19 3 18 4 16 5 17 6 15 8 1 9 2 10 3 11 8 12 4 13
REMARK SMILES IDX 7 14 9 15 5 16 6 17 85 18 10 19 11 20 12 21 13 22 14 23
REMARK SMILES IDX 22 24 23 25 24 27 25 28 26 29 84 30 27 31 83 32 28 33 29 34
REMARK SMILES IDX 30 35 77 36 31 37 82 38 76 39 78 40 32 41 81 42 75 43 74 44
REMARK SMILES IDX 33 46 63 47 44 48 62 49 45 50 48 51 61 52 79 53 46 54 47 55
REMARK SMILES IDX 60 57 80 58 49 59 34 60 35 61 43 62 36 63 42 64 37 65 38 66
REMARK SMILES IDX 39 67 40 68 41 69 64 70 65 71 73 72 66 73 72 74 67 75 68 76
REMARK SMILES IDX 69 77 70 78 71 79 50 80 51 81 59 82 52 83 58 84 53 85 54 86
REMARK SMILES IDX 55 87 56 88 57 89
REMARK H PARENT 18 7 22 26 78 45 48 56
REMARK Flexibility Score: inf
ROOT
ATOM      1  C   UNL A   1      40.296  23.346  27.134  1.00  0.00     0.118 C 
ENDROOT
BRANCH   1   2
ATOM      2  C   UNL A   1      39.062  22.712  26.505  1.00  0.00     0.042 C 
BRANCH   2   3
ATOM      3  C   UNL A   1      38.079  23.754  25.995  1.00  0.00     0.118 C 
BRANCH   3   4
ATOM      4  N   UNL A   1      37.554  23.413  24.682  1.00  0.00    -0.352 N 
ATOM      5  C   UNL A   1      36.347  23.393  24.070  1.00  0.00     0.251 C 
ATOM      6  O   UNL A   1      36.361  23.040  22.887  1.00  0.00    -0.270 OA
ATOM      7  H   UNL A   1      38.270  23.117  24.073  1.00  0.00     0.163 HD
BRANCH   5   8
ATOM      8  C   UNL A   1      35.056  23.763  24.714  1.00  0.00     0.067 C 
ATOM      9  C   UNL A   1      30.244  23.950  26.515  1.00  0.00     0.048 C 
ATOM     10  C   UNL A   1      31.357  24.942  26.327  1.00  0.00    -0.007 A 
ATOM     11  C   UNL A   1      31.174  26.278  26.701  1.00  0.00     0.023 A 
ATOM     12  C   UNL A   1      32.570  24.572  25.731  1.00  0.00     0.130 A 
ATOM     13  C   UNL A   1      32.192  27.211  26.497  1.00  0.00     0.019 A 
ATOM     14  C   UNL A   1      33.593  25.506  25.524  1.00  0.00     0.019 A 
ATOM     15  O   UNL A   1      32.693  23.276  25.317  1.00  0.00    -0.475 OA
ATOM     16  Br  UNL A   1      31.924  29.011  27.011  1.00  0.00    -0.051 Br
ATOM     17  C   UNL A   1      33.400  26.834  25.911  1.00  0.00     0.027 A 
ATOM     18  C   UNL A   1      34.829  25.080  24.874  1.00  0.00     0.025 C 
ATOM     19  C   UNL A   1      34.046  22.767  25.205  1.00  0.00     0.314 C 
BRANCH  19  20
ATOM     20  C   UNL A   1      34.461  22.111  26.536  1.00  0.00     0.429 C 
ATOM     21  F   UNL A   1      33.437  21.382  27.047  1.00  0.00    -0.167 F 
ATOM     22  F   UNL A   1      35.505  21.257  26.395  1.00  0.00    -0.167 F 
ATOM     23  F   UNL A   1      34.823  23.012  27.475  1.00  0.00    -0.167 F 
ENDBRANCH  19  20
ENDBRANCH   5   8
ENDBRANCH   3   4
ENDBRANCH   2   3
ENDBRANCH   1   2
BRANCH   1  24
ATOM     24  N   UNL A   1      41.096  24.066  26.146  1.00  0.00    -0.352 N 
ATOM     25  C   UNL A   1      41.386  25.403  26.050  1.00  0.00     0.251 C 
ATOM     26  H   UNL A   1      41.489  23.504  25.441  1.00  0.00     0.163 HD
ATOM     27  O   UNL A   1      41.829  25.854  24.995  1.00  0.00    -0.269 OA
BRANCH  25  28
ATOM     28  C   UNL A   1      41.166  26.291  27.206  1.00  0.00     0.039 A 
ATOM     29  C   UNL A   1      40.193  25.963  28.153  1.00  0.00     0.014 A 
ATOM     30  C   UNL A   1      41.910  27.466  27.340  1.00  0.00     0.014 A 
ATOM     31  C   UNL A   1      40.016  26.782  29.268  1.00  0.00     0.010 A 
ATOM     32  C   UNL A   1      41.804  28.223  28.498  1.00  0.00     0.010 A 
ATOM     33  C   UNL A   1      40.845  27.899  29.466  1.00  0.00    -0.014 A 
BRANCH  33  34
ATOM     34  C   UNL A   1      40.705  28.770  30.657  1.00  0.00     0.031 A 
ATOM     35  C   UNL A   1      39.670  29.863  30.658  1.00  0.00     0.074 A 
ATOM     36  C   UNL A   1      41.531  28.605  31.709  1.00  0.00     0.049 A 
ATOM     37  N   UNL A   1      39.439  30.777  31.564  1.00  0.00    -0.248 NA
ATOM     38  C   UNL A   1      38.791  29.958  29.476  1.00  0.00     0.031 C 
ATOM     39  C   UNL A   1      42.585  27.590  31.812  1.00  0.00     0.029 A 
ATOM     40  N   UNL A   1      41.611  29.284  32.898  1.00  0.00    -0.354 N 
ATOM     41  C   UNL A   1      38.397  31.549  31.064  1.00  0.00     0.074 A 
ATOM     42  C   UNL A   1      38.084  31.045  29.748  1.00  0.00     0.031 C 
ATOM     43  C   UNL A   1      43.170  27.685  33.017  1.00  0.00     0.029 A 
ATOM     44  C   UNL A   1      42.571  28.793  33.753  1.00  0.00     0.049 A 
ATOM     45  H   UNL A   1      41.035  30.050  33.120  1.00  0.00     0.167 HD
ATOM     46  C   UNL A   1      37.732  32.562  31.665  1.00  0.00     0.031 A 
ATOM     47  C   UNL A   1      42.924  29.194  34.989  1.00  0.00     0.031 A 
ATOM     48  C   UNL A   1      38.031  33.046  32.985  1.00  0.00     0.049 A 
ATOM     49  C   UNL A   1      42.204  30.363  35.607  1.00  0.00     0.074 A 
ATOM     50  C   UNL A   1      37.404  34.056  33.690  1.00  0.00     0.029 A 
ATOM     51  N   UNL A   1      39.028  32.540  33.804  1.00  0.00    -0.354 N 
ATOM     52  N   UNL A   1      41.204  31.063  35.126  1.00  0.00    -0.248 NA
ATOM     53  C   UNL A   1      42.657  30.793  36.938  1.00  0.00     0.031 C 
ATOM     54  C   UNL A   1      38.050  34.191  34.923  1.00  0.00     0.029 A 
ATOM     55  C   UNL A   1      39.043  33.226  35.004  1.00  0.00     0.049 A 
ATOM     56  H   UNL A   1      39.636  31.802  33.567  1.00  0.00     0.167 HD
ATOM     57  C   UNL A   1      40.889  31.994  36.110  1.00  0.00     0.074 A 
ATOM     58  C   UNL A   1      41.791  31.757  37.218  1.00  0.00     0.031 C 
ATOM     59  C   UNL A   1      39.940  32.962  36.099  1.00  0.00     0.031 A 
BRANCH  46  60
ATOM     60  C   UNL A   1      36.589  33.194  30.920  1.00  0.00    -0.014 A 
ATOM     61  C   UNL A   1      35.296  33.200  31.476  1.00  0.00     0.010 A 
ATOM     62  C   UNL A   1      36.818  33.868  29.707  1.00  0.00     0.010 A 
ATOM     63  C   UNL A   1      34.252  33.862  30.828  1.00  0.00     0.020 A 
ATOM     64  C   UNL A   1      35.780  34.553  29.069  1.00  0.00     0.020 A 
ATOM     65  C   UNL A   1      34.503  34.543  29.634  1.00  0.00     0.054 A 
BRANCH  65  66
ATOM     66  S   UNL A   1      33.141  35.458  28.862  1.00  0.00     0.124 S 
ATOM     67  O   UNL A   1      33.855  36.478  28.099  1.00  0.00    -0.237 OA
ATOM     68  O   UNL A   1      32.479  34.428  28.066  1.00  0.00    -0.237 OA
ATOM     69  O   UNL A   1      32.369  35.957  29.997  1.00  0.00    -0.744 OA
ENDBRANCH  65  66
ENDBRANCH  46  60
BRANCH  47  70
ATOM     70  C   UNL A   1      43.995  28.482  35.741  1.00  0.00    -0.014 A 
ATOM     71  C   UNL A   1      43.671  27.398  36.577  1.00  0.00     0.010 A 
ATOM     72  C   UNL A   1      45.335  28.900  35.656  1.00  0.00     0.010 A 
ATOM     73  C   UNL A   1      44.658  26.771  37.343  1.00  0.00     0.020 A 
ATOM     74  C   UNL A   1      46.331  28.256  36.396  1.00  0.00     0.020 A 
ATOM     75  C   UNL A   1      45.982  27.208  37.251  1.00  0.00     0.054 A 
BRANCH  75  76
ATOM     76  S   UNL A   1      47.246  26.378  38.254  1.00  0.00     0.124 S 
ATOM     77  O   UNL A   1      47.645  27.439  39.174  1.00  0.00    -0.237 OA
ATOM     78  O   UNL A   1      46.500  25.273  38.848  1.00  0.00    -0.237 OA
ATOM     79  O   UNL A   1      48.256  25.985  37.275  1.00  0.00    -0.744 OA
ENDBRANCH  75  76
ENDBRANCH  47  70
BRANCH  59  80
ATOM     80  C   UNL A   1      39.800  33.816  37.328  1.00  0.00    -0.014 A 
ATOM     81  C   UNL A   1      40.501  35.027  37.452  1.00  0.00     0.010 A 
ATOM     82  C   UNL A   1      38.891  33.440  38.334  1.00  0.00     0.010 A 
ATOM     83  C   UNL A   1      40.312  35.838  38.572  1.00  0.00     0.020 A 
ATOM     84  C   UNL A   1      38.676  34.262  39.441  1.00  0.00     0.020 A 
ATOM     85  C   UNL A   1      39.396  35.453  39.558  1.00  0.00     0.054 A 
BRANCH  85  86
ATOM     86  S   UNL A   1      39.126  36.558  40.969  1.00  0.00     0.124 S 
ATOM     87  O   UNL A   1      38.203  35.780  41.792  1.00  0.00    -0.237 OA
ATOM     88  O   UNL A   1      40.472  36.716  41.511  1.00  0.00    -0.237 OA
ATOM     89  O   UNL A   1      38.557  37.761  40.365  1.00  0.00    -0.744 OA
ENDBRANCH  85  86
ENDBRANCH  59  80
ENDBRANCH  33  34
ENDBRANCH  25  28
ENDBRANCH   1  24
TORSDOF 14
ENDMDL
