MODEL 1
REMARK VINA RESULT:     -11.4      0.000      0.000
REMARK SMILES CC(C)[C@@H](NC(=O)/C(=C\c1ccccc1F)NC(=O)c1ccccc1)C(=O)NCCCNC(=O)c1ccc(-c2c3nc(c(-c4ccc(S(=O)(=O)[O-])cc4)c4ccc([nH]4)c(-c4ccc(S(=O)(=O)[O-])cc4)c4nc(c(-c5ccc(S(=O)(=O)[O-])cc5)c5ccc2[nH]5)C=C4)C=C3)cc1
REMARK SMILES IDX 29 1 28 2 26 3 27 4 4 6 2 7 1 8 3 9 5 10 6 11 7 13 8 14 9 15
REMARK SMILES IDX 17 16 18 17 19 19 20 20 21 21 25 22 22 23 24 24 23 25 10 26
REMARK SMILES IDX 11 27 15 28 12 29 14 30 16 31 13 32 30 33 31 34 32 35 33 36
REMARK SMILES IDX 34 38 35 39 36 40 94 41 37 42 93 43 38 44 39 45 40 46 87 47
REMARK SMILES IDX 41 48 92 49 86 50 88 51 42 52 91 53 85 54 84 55 43 57 73 58
REMARK SMILES IDX 54 59 72 60 55 61 58 62 71 63 89 64 56 65 57 66 70 68 90 69
REMARK SMILES IDX 59 70 44 71 45 72 53 73 46 74 52 75 47 76 48 77 49 78 50 79
REMARK SMILES IDX 51 80 74 81 75 82 83 83 76 84 82 85 77 86 78 87 79 88 80 89
REMARK SMILES IDX 81 90 60 91 61 92 69 93 62 94 68 95 63 96 64 97 65 98 66 99
REMARK SMILES IDX 67 100
REMARK H PARENT 28 5 5 12 17 18 32 37 88 56 58 67
REMARK Flexibility Score: inf
ROOT
ATOM      1  C   UNL A   1      35.172  24.159  24.152  1.00  0.00     0.117 C 
ENDROOT
BRANCH   1   2
ATOM      2  N   UNL A   1      34.441  23.694  22.997  1.00  0.00    -0.354 N 
ATOM      3  C   UNL A   1      33.116  23.847  22.772  1.00  0.00     0.242 C 
ATOM      4  O   UNL A   1      32.494  22.860  22.376  1.00  0.00    -0.273 OA
ATOM      5  H   UNL A   1      34.957  23.218  22.306  1.00  0.00     0.163 HD
BRANCH   3   6
ATOM      6  C   UNL A   1      32.416  25.152  23.137  1.00  0.00     0.174 C 
BRANCH   6   7
ATOM      7  C   UNL A   1      32.741  26.231  22.047  1.00  0.00     0.015 C 
ATOM      8  C   UNL A   1      32.090  25.898  20.700  1.00  0.00     0.010 C 
ATOM      9  C   UNL A   1      32.293  27.650  22.444  1.00  0.00     0.010 C 
ENDBRANCH   6   7
BRANCH   6  10
ATOM     10  N   UNL A   1      30.959  24.999  23.385  1.00  0.00    -0.339 N 
ATOM     11  C   UNL A   1      30.181  25.656  24.315  1.00  0.00     0.268 C 
ATOM     12  H   UNL A   1      30.490  24.347  22.813  1.00  0.00     0.164 HD
ATOM     13  O   UNL A   1      29.147  26.201  23.926  1.00  0.00    -0.268 OA
BRANCH  11  14
ATOM     14  C   UNL A   1      30.419  25.505  25.804  1.00  0.00     0.107 C 
ATOM     15  C   UNL A   1      31.159  26.357  26.550  1.00  0.00     0.043 C 
BRANCH  14  16
ATOM     16  N   UNL A   1      29.790  24.493  26.523  1.00  0.00    -0.317 N 
ATOM     17  C   UNL A   1      30.115  23.228  26.944  1.00  0.00     0.255 C 
ATOM     18  H   UNL A   1      28.882  24.750  26.803  1.00  0.00     0.170 HD
ATOM     19  O   UNL A   1      29.261  22.565  27.532  1.00  0.00    -0.269 OA
BRANCH  17  20
ATOM     20  C   UNL A   1      31.419  22.606  26.707  1.00  0.00     0.040 A 
ATOM     21  C   UNL A   1      31.567  21.773  25.596  1.00  0.00     0.014 A 
ATOM     22  C   UNL A   1      32.447  22.733  27.643  1.00  0.00     0.014 A 
ATOM     23  C   UNL A   1      32.785  21.129  25.379  1.00  0.00     0.001 A 
ATOM     24  C   UNL A   1      33.666  22.099  27.416  1.00  0.00     0.001 A 
ATOM     25  C   UNL A   1      33.837  21.306  26.280  1.00  0.00     0.000 A 
ENDBRANCH  17  20
ENDBRANCH  14  16
BRANCH  15  26
ATOM     26  C   UNL A   1      31.997  27.498  26.168  1.00  0.00     0.012 A 
ATOM     27  C   UNL A   1      31.349  28.728  25.948  1.00  0.00     0.011 A 
ATOM     28  C   UNL A   1      33.386  27.455  26.060  1.00  0.00     0.130 A 
ATOM     29  C   UNL A   1      32.088  29.902  25.786  1.00  0.00     0.001 A 
ATOM     30  C   UNL A   1      34.127  28.621  25.884  1.00  0.00     0.040 A 
ATOM     31  F   UNL A   1      34.039  26.290  26.159  1.00  0.00    -0.206 F 
ATOM     32  C   UNL A   1      33.479  29.851  25.786  1.00  0.00     0.003 A 
ENDBRANCH  15  26
ENDBRANCH  11  14
ENDBRANCH   6  10
ENDBRANCH   3   6
ENDBRANCH   1   2
BRANCH   1  33
ATOM     33  C   UNL A   1      36.322  23.202  24.408  1.00  0.00     0.042 C 
BRANCH  33  34
ATOM     34  C   UNL A   1      36.926  23.437  25.784  1.00  0.00     0.118 C 
BRANCH  34  35
ATOM     35  N   UNL A   1      38.016  22.511  26.052  1.00  0.00    -0.352 N 
ATOM     36  C   UNL A   1      39.286  22.813  26.481  1.00  0.00     0.251 C 
ATOM     37  H   UNL A   1      37.822  21.556  25.909  1.00  0.00     0.163 HD
ATOM     38  O   UNL A   1      40.190  21.996  26.396  1.00  0.00    -0.269 OA
BRANCH  36  39
ATOM     39  C   UNL A   1      39.525  24.161  27.025  1.00  0.00     0.039 A 
ATOM     40  C   UNL A   1      39.227  24.423  28.361  1.00  0.00     0.014 A 
ATOM     41  C   UNL A   1      40.123  25.134  26.216  1.00  0.00     0.014 A 
ATOM     42  C   UNL A   1      39.585  25.655  28.905  1.00  0.00     0.010 A 
ATOM     43  C   UNL A   1      40.579  26.310  26.790  1.00  0.00     0.010 A 
ATOM     44  C   UNL A   1      40.295  26.592  28.133  1.00  0.00    -0.014 A 
BRANCH  44  45
ATOM     45  C   UNL A   1      40.728  27.892  28.699  1.00  0.00     0.031 A 
ATOM     46  C   UNL A   1      42.134  28.044  29.213  1.00  0.00     0.074 A 
ATOM     47  C   UNL A   1      39.844  28.902  28.811  1.00  0.00     0.049 A 
ATOM     48  N   UNL A   1      42.688  29.072  29.803  1.00  0.00    -0.248 NA
ATOM     49  C   UNL A   1      43.027  26.879  29.078  1.00  0.00     0.031 C 
ATOM     50  C   UNL A   1      38.439  28.855  28.395  1.00  0.00     0.029 A 
ATOM     51  N   UNL A   1      39.997  30.170  29.311  1.00  0.00    -0.354 N 
ATOM     52  C   UNL A   1      43.979  28.668  30.124  1.00  0.00     0.074 A 
ATOM     53  C   UNL A   1      44.107  27.286  29.725  1.00  0.00     0.031 C 
ATOM     54  C   UNL A   1      37.872  30.050  28.623  1.00  0.00     0.029 A 
ATOM     55  C   UNL A   1      38.856  30.933  29.242  1.00  0.00     0.049 A 
ATOM     56  H   UNL A   1      40.845  30.503  29.684  1.00  0.00     0.167 HD
ATOM     57  C   UNL A   1      44.979  29.392  30.680  1.00  0.00     0.031 A 
ATOM     58  C   UNL A   1      38.626  32.201  29.637  1.00  0.00     0.031 A 
ATOM     59  C   UNL A   1      44.851  30.774  31.054  1.00  0.00     0.049 A 
ATOM     60  C   UNL A   1      39.754  32.986  30.249  1.00  0.00     0.074 A 
ATOM     61  C   UNL A   1      45.819  31.619  31.567  1.00  0.00     0.029 A 
ATOM     62  N   UNL A   1      43.683  31.515  30.951  1.00  0.00    -0.354 N 
ATOM     63  N   UNL A   1      40.988  32.609  30.484  1.00  0.00    -0.248 NA
ATOM     64  C   UNL A   1      39.461  34.372  30.638  1.00  0.00     0.031 C 
ATOM     65  C   UNL A   1      45.223  32.856  31.825  1.00  0.00     0.029 A 
ATOM     66  C   UNL A   1      43.900  32.802  31.414  1.00  0.00     0.049 A 
ATOM     67  H   UNL A   1      42.827  31.177  30.603  1.00  0.00     0.167 HD
ATOM     68  C   UNL A   1      41.626  33.720  31.023  1.00  0.00     0.074 A 
ATOM     69  C   UNL A   1      40.646  34.786  31.063  1.00  0.00     0.031 C 
ATOM     70  C   UNL A   1      42.909  33.848  31.445  1.00  0.00     0.031 A 
BRANCH  57  71
ATOM     71  C   UNL A   1      46.295  28.699  30.912  1.00  0.00    -0.014 A 
ATOM     72  C   UNL A   1      47.316  28.733  29.945  1.00  0.00     0.010 A 
ATOM     73  C   UNL A   1      46.528  28.032  32.128  1.00  0.00     0.010 A 
ATOM     74  C   UNL A   1      48.529  28.078  30.171  1.00  0.00     0.020 A 
ATOM     75  C   UNL A   1      47.752  27.402  32.371  1.00  0.00     0.020 A 
ATOM     76  C   UNL A   1      48.738  27.415  31.384  1.00  0.00     0.054 A 
BRANCH  76  77
ATOM     77  S   UNL A   1      50.334  26.598  31.661  1.00  0.00     0.124 S 
ATOM     78  O   UNL A   1      50.929  26.641  30.327  1.00  0.00    -0.237 OA
ATOM     79  O   UNL A   1      50.965  27.459  32.658  1.00  0.00    -0.237 OA
ATOM     80  O   UNL A   1      49.964  25.267  32.136  1.00  0.00    -0.744 OA
ENDBRANCH  76  77
ENDBRANCH  57  71
BRANCH  58  81
ATOM     81  C   UNL A   1      37.280  32.808  29.448  1.00  0.00    -0.014 A 
ATOM     82  C   UNL A   1      36.375  32.884  30.520  1.00  0.00     0.010 A 
ATOM     83  C   UNL A   1      36.902  33.327  28.197  1.00  0.00     0.010 A 
ATOM     84  C   UNL A   1      35.108  33.447  30.340  1.00  0.00     0.020 A 
ATOM     85  C   UNL A   1      35.648  33.917  28.020  1.00  0.00     0.020 A 
ATOM     86  C   UNL A   1      34.753  33.963  29.091  1.00  0.00     0.054 A 
BRANCH  86  87
ATOM     87  S   UNL A   1      33.122  34.733  28.893  1.00  0.00     0.124 S 
ATOM     88  O   UNL A   1      32.608  34.709  30.258  1.00  0.00    -0.237 OA
ATOM     89  O   UNL A   1      33.459  36.053  28.365  1.00  0.00    -0.237 OA
ATOM     90  O   UNL A   1      32.440  33.849  27.950  1.00  0.00    -0.744 OA
ENDBRANCH  86  87
ENDBRANCH  58  81
BRANCH  70  91
ATOM     91  C   UNL A   1      43.339  35.198  31.954  1.00  0.00    -0.014 A 
ATOM     92  C   UNL A   1      43.883  36.163  31.091  1.00  0.00     0.010 A 
ATOM     93  C   UNL A   1      43.134  35.523  33.308  1.00  0.00     0.010 A 
ATOM     94  C   UNL A   1      44.247  37.420  31.580  1.00  0.00     0.020 A 
ATOM     95  C   UNL A   1      43.467  36.788  33.793  1.00  0.00     0.020 A 
ATOM     96  C   UNL A   1      44.036  37.725  32.928  1.00  0.00     0.054 A 
BRANCH  96  97
ATOM     97  S   UNL A   1      44.474  39.379  33.528  1.00  0.00     0.124 S 
ATOM     98  O   UNL A   1      43.265  39.772  34.245  1.00  0.00    -0.237 OA
ATOM     99  O   UNL A   1      45.644  39.117  34.364  1.00  0.00    -0.237 OA
ATOM    100  O   UNL A   1      44.746  40.131  32.304  1.00  0.00    -0.744 OA
ENDBRANCH  96  97
ENDBRANCH  70  91
ENDBRANCH  44  45
ENDBRANCH  36  39
ENDBRANCH  34  35
ENDBRANCH  33  34
ENDBRANCH   1  33
TORSDOF 19
ENDMDL
MODEL 2
REMARK VINA RESULT:     -11.3      2.440      9.108
REMARK SMILES CC(C)[C@@H](NC(=O)/C(=C\c1ccccc1F)NC(=O)c1ccccc1)C(=O)NCCCNC(=O)c1ccc(-c2c3nc(c(-c4ccc(S(=O)(=O)[O-])cc4)c4ccc([nH]4)c(-c4ccc(S(=O)(=O)[O-])cc4)c4nc(c(-c5ccc(S(=O)(=O)[O-])cc5)c5ccc2[nH]5)C=C4)C=C3)cc1
REMARK SMILES IDX 29 1 28 2 26 3 27 4 4 6 2 7 1 8 3 9 5 10 6 11 7 13 8 14 9 15
REMARK SMILES IDX 17 16 18 17 19 19 20 20 21 21 25 22 22 23 24 24 23 25 10 26
REMARK SMILES IDX 11 27 15 28 12 29 14 30 16 31 13 32 30 33 31 34 32 35 33 36
REMARK SMILES IDX 34 38 35 39 36 40 94 41 37 42 93 43 38 44 39 45 40 46 87 47
REMARK SMILES IDX 41 48 92 49 86 50 88 51 42 52 91 53 85 54 84 55 43 57 73 58
REMARK SMILES IDX 54 59 72 60 55 61 58 62 71 63 89 64 56 65 57 66 70 68 90 69
REMARK SMILES IDX 59 70 44 71 45 72 53 73 46 74 52 75 47 76 48 77 49 78 50 79
REMARK SMILES IDX 51 80 74 81 75 82 83 83 76 84 82 85 77 86 78 87 79 88 80 89
REMARK SMILES IDX 81 90 60 91 61 92 69 93 62 94 68 95 63 96 64 97 65 98 66 99
REMARK SMILES IDX 67 100
REMARK H PARENT 28 5 5 12 17 18 32 37 88 56 58 67
REMARK Flexibility Score: inf
ROOT
ATOM      1  C   UNL A   1      31.998  26.474  26.335  1.00  0.00     0.117 C 
ENDROOT
BRANCH   1   2
ATOM      2  N   UNL A   1      31.589  25.327  27.113  1.00  0.00    -0.354 N 
ATOM      3  C   UNL A   1      31.454  24.059  26.661  1.00  0.00     0.242 C 
ATOM      4  O   UNL A   1      30.436  23.449  26.991  1.00  0.00    -0.273 OA
ATOM      5  H   UNL A   1      31.389  25.484  28.064  1.00  0.00     0.163 HD
BRANCH   3   6
ATOM      6  C   UNL A   1      32.460  23.481  25.671  1.00  0.00     0.174 C 
BRANCH   6   7
ATOM      7  C   UNL A   1      33.274  22.340  26.375  1.00  0.00     0.015 C 
ATOM      8  C   UNL A   1      33.386  22.566  27.886  1.00  0.00     0.010 C 
ATOM      9  C   UNL A   1      32.671  20.939  26.156  1.00  0.00     0.010 C 
ENDBRANCH   6   7
BRANCH   6  10
ATOM     10  N   UNL A   1      31.852  23.051  24.385  1.00  0.00    -0.339 N 
ATOM     11  C   UNL A   1      32.496  22.677  23.224  1.00  0.00     0.268 C 
ATOM     12  H   UNL A   1      30.867  23.031  24.359  1.00  0.00     0.164 HD
ATOM     13  O   UNL A   1      32.174  21.609  22.700  1.00  0.00    -0.268 OA
BRANCH  11  14
ATOM     14  C   UNL A   1      33.374  23.641  22.452  1.00  0.00     0.107 C 
ATOM     15  C   UNL A   1      34.672  23.891  22.741  1.00  0.00     0.043 C 
BRANCH  14  16
ATOM     16  N   UNL A   1      32.897  24.274  21.308  1.00  0.00    -0.317 N 
ATOM     17  C   UNL A   1      32.481  25.539  20.977  1.00  0.00     0.255 C 
ATOM     18  H   UNL A   1      32.846  23.658  20.541  1.00  0.00     0.170 HD
ATOM     19  O   UNL A   1      32.051  25.739  19.841  1.00  0.00    -0.269 OA
BRANCH  17  20
ATOM     20  C   UNL A   1      32.495  26.666  21.911  1.00  0.00     0.040 A 
ATOM     21  C   UNL A   1      31.273  27.151  22.385  1.00  0.00     0.014 A 
ATOM     22  C   UNL A   1      33.687  27.326  22.211  1.00  0.00     0.014 A 
ATOM     23  C   UNL A   1      31.258  28.256  23.235  1.00  0.00     0.001 A 
ATOM     24  C   UNL A   1      33.669  28.422  23.070  1.00  0.00     0.001 A 
ATOM     25  C   UNL A   1      32.457  28.879  23.589  1.00  0.00     0.000 A 
ENDBRANCH  17  20
ENDBRANCH  14  16
BRANCH  15  26
ATOM     26  C   UNL A   1      35.512  23.462  23.865  1.00  0.00     0.012 A 
ATOM     27  C   UNL A   1      36.175  22.228  23.737  1.00  0.00     0.011 A 
ATOM     28  C   UNL A   1      35.733  24.216  25.015  1.00  0.00     0.130 A 
ATOM     29  C   UNL A   1      37.150  21.846  24.662  1.00  0.00     0.001 A 
ATOM     30  C   UNL A   1      36.693  23.833  25.949  1.00  0.00     0.040 A 
ATOM     31  F   UNL A   1      35.048  25.347  25.229  1.00  0.00    -0.206 F 
ATOM     32  C   UNL A   1      37.430  22.665  25.751  1.00  0.00     0.003 A 
ENDBRANCH  15  26
ENDBRANCH  11  14
ENDBRANCH   6  10
ENDBRANCH   3   6
ENDBRANCH   1   2
BRANCH   1  33
ATOM     33  C   UNL A   1      32.318  27.610  27.289  1.00  0.00     0.042 C 
BRANCH  33  34
ATOM     34  C   UNL A   1      33.610  28.305  26.889  1.00  0.00     0.118 C 
BRANCH  34  35
ATOM     35  N   UNL A   1      33.531  29.742  27.110  1.00  0.00    -0.352 N 
ATOM     36  C   UNL A   1      34.432  30.539  27.773  1.00  0.00     0.251 C 
ATOM     37  H   UNL A   1      32.740  30.196  26.739  1.00  0.00     0.163 HD
ATOM     38  O   UNL A   1      34.126  31.663  28.141  1.00  0.00    -0.269 OA
BRANCH  36  39
ATOM     39  C   UNL A   1      35.769  29.984  28.047  1.00  0.00     0.039 A 
ATOM     40  C   UNL A   1      36.741  30.016  27.048  1.00  0.00     0.014 A 
ATOM     41  C   UNL A   1      36.069  29.508  29.327  1.00  0.00     0.014 A 
ATOM     42  C   UNL A   1      38.041  29.620  27.356  1.00  0.00     0.010 A 
ATOM     43  C   UNL A   1      37.384  29.225  29.659  1.00  0.00     0.010 A 
ATOM     44  C   UNL A   1      38.379  29.256  28.671  1.00  0.00    -0.014 A 
BRANCH  44  45
ATOM     45  C   UNL A   1      39.763  28.873  29.037  1.00  0.00     0.031 A 
ATOM     46  C   UNL A   1      40.654  29.877  29.718  1.00  0.00     0.074 A 
ATOM     47  C   UNL A   1      40.234  27.658  28.698  1.00  0.00     0.049 A 
ATOM     48  N   UNL A   1      41.911  29.764  30.060  1.00  0.00    -0.248 NA
ATOM     49  C   UNL A   1      40.066  31.193  30.026  1.00  0.00     0.031 C 
ATOM     50  C   UNL A   1      39.480  26.619  27.989  1.00  0.00     0.029 A 
ATOM     51  N   UNL A   1      41.465  27.089  28.904  1.00  0.00    -0.354 N 
ATOM     52  C   UNL A   1      42.265  30.995  30.600  1.00  0.00     0.074 A 
ATOM     53  C   UNL A   1      41.114  31.860  30.483  1.00  0.00     0.031 C 
ATOM     54  C   UNL A   1      40.254  25.529  27.854  1.00  0.00     0.029 A 
ATOM     55  C   UNL A   1      41.569  25.806  28.423  1.00  0.00     0.049 A 
ATOM     56  H   UNL A   1      42.206  27.557  29.355  1.00  0.00     0.167 HD
ATOM     57  C   UNL A   1      43.437  31.365  31.168  1.00  0.00     0.031 A 
ATOM     58  C   UNL A   1      42.608  24.948  28.435  1.00  0.00     0.031 A 
ATOM     59  C   UNL A   1      44.570  30.491  31.301  1.00  0.00     0.049 A 
ATOM     60  C   UNL A   1      43.900  25.382  29.074  1.00  0.00     0.074 A 
ATOM     61  C   UNL A   1      45.783  30.745  31.915  1.00  0.00     0.029 A 
ATOM     62  N   UNL A   1      44.628  29.193  30.817  1.00  0.00    -0.354 N 
ATOM     63  N   UNL A   1      44.194  26.527  29.640  1.00  0.00    -0.248 NA
ATOM     64  C   UNL A   1      44.994  24.402  29.086  1.00  0.00     0.031 C 
ATOM     65  C   UNL A   1      46.595  29.619  31.755  1.00  0.00     0.029 A 
ATOM     66  C   UNL A   1      45.866  28.641  31.097  1.00  0.00     0.049 A 
ATOM     67  H   UNL A   1      43.898  28.733  30.343  1.00  0.00     0.167 HD
ATOM     68  C   UNL A   1      45.500  26.396  30.101  1.00  0.00     0.074 A 
ATOM     69  C   UNL A   1      45.929  25.055  29.761  1.00  0.00     0.031 C 
ATOM     70  C   UNL A   1      46.273  27.303  30.749  1.00  0.00     0.031 A 
BRANCH  57  71
ATOM     71  C   UNL A   1      43.545  32.774  31.686  1.00  0.00    -0.014 A 
ATOM     72  C   UNL A   1      43.118  33.107  32.985  1.00  0.00     0.010 A 
ATOM     73  C   UNL A   1      44.113  33.775  30.877  1.00  0.00     0.010 A 
ATOM     74  C   UNL A   1      43.217  34.420  33.449  1.00  0.00     0.020 A 
ATOM     75  C   UNL A   1      44.243  35.084  31.349  1.00  0.00     0.020 A 
ATOM     76  C   UNL A   1      43.779  35.401  32.627  1.00  0.00     0.054 A 
BRANCH  76  77
ATOM     77  S   UNL A   1      43.921  37.093  33.267  1.00  0.00     0.124 S 
ATOM     78  O   UNL A   1      43.373  37.878  32.163  1.00  0.00    -0.237 OA
ATOM     79  O   UNL A   1      43.101  37.048  34.474  1.00  0.00    -0.237 OA
ATOM     80  O   UNL A   1      45.355  37.257  33.496  1.00  0.00    -0.744 OA
ENDBRANCH  76  77
ENDBRANCH  57  71
BRANCH  58  81
ATOM     81  C   UNL A   1      42.463  23.592  27.839  1.00  0.00    -0.014 A 
ATOM     82  C   UNL A   1      42.803  23.362  26.495  1.00  0.00     0.010 A 
ATOM     83  C   UNL A   1      41.996  22.518  28.618  1.00  0.00     0.010 A 
ATOM     84  C   UNL A   1      42.659  22.090  25.934  1.00  0.00     0.020 A 
ATOM     85  C   UNL A   1      41.878  21.238  28.069  1.00  0.00     0.020 A 
ATOM     86  C   UNL A   1      42.198  21.034  26.726  1.00  0.00     0.054 A 
BRANCH  86  87
ATOM     87  S   UNL A   1      42.065  19.381  25.990  1.00  0.00     0.124 S 
ATOM     88  O   UNL A   1      40.628  19.263  25.769  1.00  0.00    -0.237 OA
ATOM     89  O   UNL A   1      42.884  19.505  24.786  1.00  0.00    -0.237 OA
ATOM     90  O   UNL A   1      42.616  18.505  27.022  1.00  0.00    -0.744 OA
ENDBRANCH  86  87
ENDBRANCH  58  81
BRANCH  70  91
ATOM     91  C   UNL A   1      47.651  26.864  31.166  1.00  0.00    -0.014 A 
ATOM     92  C   UNL A   1      47.866  26.189  32.379  1.00  0.00     0.010 A 
ATOM     93  C   UNL A   1      48.737  27.078  30.297  1.00  0.00     0.010 A 
ATOM     94  C   UNL A   1      49.150  25.766  32.732  1.00  0.00     0.020 A 
ATOM     95  C   UNL A   1      50.015  26.629  30.632  1.00  0.00     0.020 A 
ATOM     96  C   UNL A   1      50.216  25.987  31.855  1.00  0.00     0.054 A 
BRANCH  96  97
ATOM     97  S   UNL A   1      51.864  25.386  32.316  1.00  0.00     0.124 S 
ATOM     98  O   UNL A   1      52.609  25.561  31.073  1.00  0.00    -0.237 OA
ATOM     99  O   UNL A   1      52.239  26.285  33.405  1.00  0.00    -0.237 OA
ATOM    100  O   UNL A   1      51.629  23.999  32.713  1.00  0.00    -0.744 OA
ENDBRANCH  96  97
ENDBRANCH  70  91
ENDBRANCH  44  45
ENDBRANCH  36  39
ENDBRANCH  34  35
ENDBRANCH  33  34
ENDBRANCH   1  33
TORSDOF 19
ENDMDL
MODEL 3
REMARK VINA RESULT:     -11.2      1.803      2.316
REMARK SMILES CC(C)[C@@H](NC(=O)/C(=C\c1ccccc1F)NC(=O)c1ccccc1)C(=O)NCCCNC(=O)c1ccc(-c2c3nc(c(-c4ccc(S(=O)(=O)[O-])cc4)c4ccc([nH]4)c(-c4ccc(S(=O)(=O)[O-])cc4)c4nc(c(-c5ccc(S(=O)(=O)[O-])cc5)c5ccc2[nH]5)C=C4)C=C3)cc1
REMARK SMILES IDX 29 1 28 2 26 3 27 4 4 6 2 7 1 8 3 9 5 10 6 11 7 13 8 14 9 15
REMARK SMILES IDX 17 16 18 17 19 19 20 20 21 21 25 22 22 23 24 24 23 25 10 26
REMARK SMILES IDX 11 27 15 28 12 29 14 30 16 31 13 32 30 33 31 34 32 35 33 36
REMARK SMILES IDX 34 38 35 39 36 40 94 41 37 42 93 43 38 44 39 45 40 46 87 47
REMARK SMILES IDX 41 48 92 49 86 50 88 51 42 52 91 53 85 54 84 55 43 57 73 58
REMARK SMILES IDX 54 59 72 60 55 61 58 62 71 63 89 64 56 65 57 66 70 68 90 69
REMARK SMILES IDX 59 70 44 71 45 72 53 73 46 74 52 75 47 76 48 77 49 78 50 79
REMARK SMILES IDX 51 80 74 81 75 82 83 83 76 84 82 85 77 86 78 87 79 88 80 89
REMARK SMILES IDX 81 90 60 91 61 92 69 93 62 94 68 95 63 96 64 97 65 98 66 99
REMARK SMILES IDX 67 100
REMARK H PARENT 28 5 5 12 17 18 32 37 88 56 58 67
REMARK Flexibility Score: inf
ROOT
ATOM      1  C   UNL A   1      35.226  23.912  24.341  1.00  0.00     0.117 C 
ENDROOT
BRANCH   1   2
ATOM      2  N   UNL A   1      34.558  23.447  23.147  1.00  0.00    -0.354 N 
ATOM      3  C   UNL A   1      33.256  23.640  22.831  1.00  0.00     0.242 C 
ATOM      4  O   UNL A   1      32.628  22.666  22.411  1.00  0.00    -0.273 OA
ATOM      5  H   UNL A   1      35.102  22.941  22.502  1.00  0.00     0.163 HD
BRANCH   3   6
ATOM      6  C   UNL A   1      32.579  24.974  23.125  1.00  0.00     0.174 C 
BRANCH   6   7
ATOM      7  C   UNL A   1      32.974  26.006  22.012  1.00  0.00     0.015 C 
ATOM      8  C   UNL A   1      32.061  25.901  20.785  1.00  0.00     0.010 C 
ATOM      9  C   UNL A   1      32.937  27.468  22.497  1.00  0.00     0.010 C 
ENDBRANCH   6   7
BRANCH   6  10
ATOM     10  N   UNL A   1      31.110  24.868  23.322  1.00  0.00    -0.339 N 
ATOM     11  C   UNL A   1      30.319  25.570  24.207  1.00  0.00     0.268 C 
ATOM     12  H   UNL A   1      30.644  24.215  22.750  1.00  0.00     0.164 HD
ATOM     13  O   UNL A   1      29.315  26.133  23.767  1.00  0.00    -0.268 OA
BRANCH  11  14
ATOM     14  C   UNL A   1      30.498  25.450  25.707  1.00  0.00     0.107 C 
ATOM     15  C   UNL A   1      31.193  26.329  26.466  1.00  0.00     0.043 C 
BRANCH  14  16
ATOM     16  N   UNL A   1      29.857  24.441  26.420  1.00  0.00    -0.317 N 
ATOM     17  C   UNL A   1      30.179  23.181  26.859  1.00  0.00     0.255 C 
ATOM     18  H   UNL A   1      28.941  24.695  26.675  1.00  0.00     0.170 HD
ATOM     19  O   UNL A   1      29.315  22.518  27.432  1.00  0.00    -0.269 OA
BRANCH  17  20
ATOM     20  C   UNL A   1      31.492  22.565  26.660  1.00  0.00     0.040 A 
ATOM     21  C   UNL A   1      31.640  21.634  25.629  1.00  0.00     0.014 A 
ATOM     22  C   UNL A   1      32.531  22.799  27.561  1.00  0.00     0.014 A 
ATOM     23  C   UNL A   1      32.867  20.996  25.452  1.00  0.00     0.001 A 
ATOM     24  C   UNL A   1      33.759  22.170  27.374  1.00  0.00     0.001 A 
ATOM     25  C   UNL A   1      33.929  21.277  26.315  1.00  0.00     0.000 A 
ENDBRANCH  17  20
ENDBRANCH  14  16
BRANCH  15  26
ATOM     26  C   UNL A   1      32.027  27.478  26.096  1.00  0.00     0.012 A 
ATOM     27  C   UNL A   1      31.367  28.692  25.830  1.00  0.00     0.011 A 
ATOM     28  C   UNL A   1      33.419  27.455  26.041  1.00  0.00     0.130 A 
ATOM     29  C   UNL A   1      32.093  29.876  25.677  1.00  0.00     0.001 A 
ATOM     30  C   UNL A   1      34.148  28.630  25.873  1.00  0.00     0.040 A 
ATOM     31  F   UNL A   1      34.086  26.303  26.185  1.00  0.00    -0.206 F 
ATOM     32  C   UNL A   1      33.484  29.848  25.729  1.00  0.00     0.003 A 
ENDBRANCH  15  26
ENDBRANCH  11  14
ENDBRANCH   6  10
ENDBRANCH   3   6
ENDBRANCH   1   2
BRANCH   1  33
ATOM     33  C   UNL A   1      36.587  23.246  24.417  1.00  0.00     0.042 C 
BRANCH  33  34
ATOM     34  C   UNL A   1      37.114  23.249  25.844  1.00  0.00     0.118 C 
BRANCH  34  35
ATOM     35  N   UNL A   1      38.132  22.228  26.038  1.00  0.00    -0.352 N 
ATOM     36  C   UNL A   1      39.457  22.414  26.350  1.00  0.00     0.251 C 
ATOM     37  H   UNL A   1      37.837  21.294  25.935  1.00  0.00     0.163 HD
ATOM     38  O   UNL A   1      40.270  21.513  26.206  1.00  0.00    -0.269 OA
BRANCH  36  39
ATOM     39  C   UNL A   1      39.868  23.742  26.839  1.00  0.00     0.039 A 
ATOM     40  C   UNL A   1      40.210  23.901  28.180  1.00  0.00     0.014 A 
ATOM     41  C   UNL A   1      39.988  24.802  25.934  1.00  0.00     0.014 A 
ATOM     42  C   UNL A   1      40.731  25.122  28.605  1.00  0.00     0.010 A 
ATOM     43  C   UNL A   1      40.612  25.972  26.336  1.00  0.00     0.010 A 
ATOM     44  C   UNL A   1      40.969  26.153  27.679  1.00  0.00    -0.014 A 
BRANCH  44  45
ATOM     45  C   UNL A   1      41.564  27.444  28.096  1.00  0.00     0.031 A 
ATOM     46  C   UNL A   1      43.054  27.636  28.007  1.00  0.00     0.074 A 
ATOM     47  C   UNL A   1      40.778  28.410  28.610  1.00  0.00     0.049 A 
ATOM     48  N   UNL A   1      43.776  28.661  28.381  1.00  0.00    -0.248 NA
ATOM     49  C   UNL A   1      43.842  26.518  27.458  1.00  0.00     0.031 C 
ATOM     50  C   UNL A   1      39.326  28.319  28.793  1.00  0.00     0.029 A 
ATOM     51  N   UNL A   1      41.091  29.661  29.077  1.00  0.00    -0.354 N 
ATOM     52  C   UNL A   1      45.095  28.301  28.132  1.00  0.00     0.074 A 
ATOM     53  C   UNL A   1      45.082  26.944  27.637  1.00  0.00     0.031 C 
ATOM     54  C   UNL A   1      38.874  29.478  29.298  1.00  0.00     0.029 A 
ATOM     55  C   UNL A   1      40.003  30.375  29.517  1.00  0.00     0.049 A 
ATOM     56  H   UNL A   1      42.011  30.014  29.096  1.00  0.00     0.167 HD
ATOM     57  C   UNL A   1      46.217  29.043  28.278  1.00  0.00     0.031 A 
ATOM     58  C   UNL A   1      39.924  31.614  30.042  1.00  0.00     0.031 A 
ATOM     59  C   UNL A   1      46.220  30.401  28.749  1.00  0.00     0.049 A 
ATOM     60  C   UNL A   1      41.185  32.421  30.192  1.00  0.00     0.074 A 
ATOM     61  C   UNL A   1      47.294  31.265  28.875  1.00  0.00     0.029 A 
ATOM     62  N   UNL A   1      45.094  31.095  29.168  1.00  0.00    -0.354 N 
ATOM     63  N   UNL A   1      42.416  32.088  29.888  1.00  0.00    -0.248 NA
ATOM     64  C   UNL A   1      41.043  33.775  30.744  1.00  0.00     0.031 C 
ATOM     65  C   UNL A   1      46.825  32.463  29.421  1.00  0.00     0.029 A 
ATOM     66  C   UNL A   1      45.451  32.368  29.575  1.00  0.00     0.049 A 
ATOM     67  H   UNL A   1      44.179  30.734  29.175  1.00  0.00     0.167 HD
ATOM     68  C   UNL A   1      43.193  33.203  30.186  1.00  0.00     0.074 A 
ATOM     69  C   UNL A   1      42.289  34.222  30.677  1.00  0.00     0.031 C 
ATOM     70  C   UNL A   1      44.534  33.368  30.062  1.00  0.00     0.031 A 
BRANCH  57  71
ATOM     71  C   UNL A   1      47.530  28.399  27.921  1.00  0.00    -0.014 A 
ATOM     72  C   UNL A   1      48.254  27.649  28.866  1.00  0.00     0.010 A 
ATOM     73  C   UNL A   1      48.032  28.514  26.612  1.00  0.00     0.010 A 
ATOM     74  C   UNL A   1      49.475  27.064  28.522  1.00  0.00     0.020 A 
ATOM     75  C   UNL A   1      49.238  27.903  26.255  1.00  0.00     0.020 A 
ATOM     76  C   UNL A   1      49.959  27.196  27.218  1.00  0.00     0.054 A 
BRANCH  76  77
ATOM     77  S   UNL A   1      51.533  26.401  26.792  1.00  0.00     0.124 S 
ATOM     78  O   UNL A   1      51.683  26.768  25.385  1.00  0.00    -0.237 OA
ATOM     79  O   UNL A   1      52.472  27.038  27.711  1.00  0.00    -0.237 OA
ATOM     80  O   UNL A   1      51.285  24.983  27.042  1.00  0.00    -0.744 OA
ENDBRANCH  76  77
ENDBRANCH  57  71
BRANCH  58  81
ATOM     81  C   UNL A   1      38.603  32.169  30.446  1.00  0.00    -0.014 A 
ATOM     82  C   UNL A   1      37.829  32.906  29.533  1.00  0.00     0.010 A 
ATOM     83  C   UNL A   1      38.105  31.953  31.743  1.00  0.00     0.010 A 
ATOM     84  C   UNL A   1      36.593  33.434  29.915  1.00  0.00     0.020 A 
ATOM     85  C   UNL A   1      36.857  32.454  32.120  1.00  0.00     0.020 A 
ATOM     86  C   UNL A   1      36.113  33.202  31.207  1.00  0.00     0.054 A 
BRANCH  86  87
ATOM     87  S   UNL A   1      34.483  33.856  31.666  1.00  0.00     0.124 S 
ATOM     88  O   UNL A   1      33.916  32.747  32.426  1.00  0.00    -0.237 OA
ATOM     89  O   UNL A   1      34.828  35.045  32.441  1.00  0.00    -0.237 OA
ATOM     90  O   UNL A   1      33.849  34.123  30.377  1.00  0.00    -0.744 OA
ENDBRANCH  86  87
ENDBRANCH  58  81
BRANCH  70  91
ATOM     91  C   UNL A   1      45.101  34.713  30.430  1.00  0.00    -0.014 A 
ATOM     92  C   UNL A   1      45.181  35.753  29.490  1.00  0.00     0.010 A 
ATOM     93  C   UNL A   1      45.503  34.953  31.758  1.00  0.00     0.010 A 
ATOM     94  C   UNL A   1      45.684  37.002  29.862  1.00  0.00     0.020 A 
ATOM     95  C   UNL A   1      45.977  36.209  32.140  1.00  0.00     0.020 A 
ATOM     96  C   UNL A   1      46.078  37.222  31.185  1.00  0.00     0.054 A 
BRANCH  96  97
ATOM     97  S   UNL A   1      46.684  38.866  31.654  1.00  0.00     0.124 S 
ATOM     98  O   UNL A   1      47.348  38.594  32.925  1.00  0.00    -0.237 OA
ATOM     99  O   UNL A   1      47.570  39.208  30.543  1.00  0.00    -0.237 OA
ATOM    100  O   UNL A   1      45.468  39.671  31.745  1.00  0.00    -0.744 OA
ENDBRANCH  96  97
ENDBRANCH  70  91
ENDBRANCH  44  45
ENDBRANCH  36  39
ENDBRANCH  34  35
ENDBRANCH  33  34
ENDBRANCH   1  33
TORSDOF 19
ENDMDL
