MODEL 1
REMARK VINA RESULT:     -12.2      0.000      0.000
REMARK SMILES Cn1c(=O)c(=O)n(C)c2cc(S(=O)(=O)N3CCC[C@H]3C(=O)NCCCNC(=O)c3ccc(-c4c5nc(c(-c6ccc(S(=O)(=O)[O-])cc6)c6ccc([nH]6)c(-c6ccc(S(=O)(=O)[O-])cc6)c6nc(c(-c7ccc(S(=O)(=O)[O-])cc7)c7ccc4[nH]7)C=C6)C=C5)cc3)ccc21
REMARK SMILES IDX 24 1 23 2 22 3 20 4 21 5 19 7 15 8 16 9 17 10 18 11 12 12
REMARK SMILES IDX 13 13 14 14 11 15 1 16 2 17 3 18 91 19 4 20 5 21 9 22 90 23
REMARK SMILES IDX 6 24 7 25 10 26 89 27 8 28 25 29 26 30 27 31 28 33 29 34
REMARK SMILES IDX 30 35 88 36 31 37 87 38 32 39 33 40 34 41 81 42 35 43 86 44
REMARK SMILES IDX 80 45 82 46 36 47 85 48 79 49 78 50 37 52 67 53 48 54 66 55
REMARK SMILES IDX 49 56 52 57 65 58 83 59 50 60 51 61 64 63 84 64 53 65 38 66
REMARK SMILES IDX 39 67 47 68 40 69 46 70 41 71 42 72 43 73 44 74 45 75 68 76
REMARK SMILES IDX 69 77 77 78 70 79 76 80 71 81 72 82 73 83 74 84 75 85 54 86
REMARK SMILES IDX 55 87 63 88 56 89 62 90 57 91 58 92 59 93 60 94 61 95
REMARK H PARENT 22 6 26 32 82 51 52 62
REMARK Flexibility Score: inf
ROOT
ATOM      1  C   UNL A   1      38.225  21.182  25.031  1.00  0.00     0.042 C 
ENDROOT
BRANCH   1   2
ATOM      2  C   UNL A   1      36.837  21.371  25.596  1.00  0.00     0.117 C 
BRANCH   2   3
ATOM      3  N   UNL A   1      35.942  20.330  25.143  1.00  0.00    -0.355 N 
ATOM      4  C   UNL A   1      34.602  20.366  24.937  1.00  0.00     0.238 C 
ATOM      5  O   UNL A   1      34.059  19.310  24.599  1.00  0.00    -0.273 OA
ATOM      6  H   UNL A   1      36.371  19.463  24.956  1.00  0.00     0.163 HD
BRANCH   4   7
ATOM      7  C   UNL A   1      33.811  21.662  25.003  1.00  0.00     0.162 C 
ATOM      8  N   UNL A   1      33.213  22.182  23.747  1.00  0.00    -0.185 NA
ATOM      9  C   UNL A   1      31.746  22.263  23.856  1.00  0.00     0.103 C 
ATOM     10  C   UNL A   1      31.450  22.245  25.346  1.00  0.00     0.019 C 
ATOM     11  C   UNL A   1      32.665  21.623  26.026  1.00  0.00     0.032 C 
BRANCH   8  12
ATOM     12  S   UNL A   1      34.006  23.434  22.914  1.00  0.00     0.243 S 
ATOM     13  O   UNL A   1      33.352  23.569  21.636  1.00  0.00    -0.207 OA
ATOM     14  O   UNL A   1      35.435  23.222  23.022  1.00  0.00    -0.207 OA
BRANCH  12  15
ATOM     15  C   UNL A   1      33.661  24.952  23.809  1.00  0.00     0.084 A 
ATOM     16  C   UNL A   1      33.425  28.723  27.259  1.00  0.00     0.154 C 
ATOM     17  N   UNL A   1      32.738  28.452  26.004  1.00  0.00    -0.305 N 
ATOM     18  C   UNL A   1      31.782  29.368  25.582  1.00  0.00     0.316 A 
ATOM     19  C   UNL A   1      33.056  27.309  25.232  1.00  0.00     0.068 A 
ATOM     20  O   UNL A   1      31.514  30.393  26.203  1.00  0.00    -0.263 OA
ATOM     21  C   UNL A   1      31.046  29.078  24.266  1.00  0.00     0.316 A 
ATOM     22  C   UNL A   1      32.320  26.979  24.076  1.00  0.00     0.069 A 
ATOM     23  C   UNL A   1      34.116  26.491  25.614  1.00  0.00     0.030 A 
ATOM     24  O   UNL A   1      30.246  29.915  23.856  1.00  0.00    -0.263 OA
ATOM     25  N   UNL A   1      31.325  27.879  23.607  1.00  0.00    -0.305 N 
ATOM     26  C   UNL A   1      32.610  25.776  23.390  1.00  0.00     0.050 A 
ATOM     27  C   UNL A   1      34.417  25.343  24.902  1.00  0.00     0.024 A 
ATOM     28  C   UNL A   1      30.614  27.606  22.367  1.00  0.00     0.154 C 
ENDBRANCH  12  15
ENDBRANCH   8  12
ENDBRANCH   4   7
ENDBRANCH   2   3
ENDBRANCH   1   2
BRANCH   1  29
ATOM     29  C   UNL A   1      39.282  21.245  26.117  1.00  0.00     0.118 C 
BRANCH  29  30
ATOM     30  N   UNL A   1      40.135  20.057  26.123  1.00  0.00    -0.352 N 
ATOM     31  C   UNL A   1      41.506  19.972  26.138  1.00  0.00     0.251 C 
ATOM     32  H   UNL A   1      39.659  19.196  26.117  1.00  0.00     0.163 HD
ATOM     33  O   UNL A   1      42.063  18.906  25.899  1.00  0.00    -0.269 OA
BRANCH  31  34
ATOM     34  C   UNL A   1      42.285  21.191  26.418  1.00  0.00     0.039 A 
ATOM     35  C   UNL A   1      42.624  21.499  27.736  1.00  0.00     0.014 A 
ATOM     36  C   UNL A   1      42.608  22.063  25.378  1.00  0.00     0.014 A 
ATOM     37  C   UNL A   1      43.072  22.772  28.041  1.00  0.00     0.010 A 
ATOM     38  C   UNL A   1      43.187  23.297  25.680  1.00  0.00     0.010 A 
ATOM     39  C   UNL A   1      43.368  23.684  27.016  1.00  0.00    -0.014 A 
BRANCH  39  40
ATOM     40  C   UNL A   1      43.863  25.036  27.374  1.00  0.00     0.031 A 
ATOM     41  C   UNL A   1      45.311  25.398  27.177  1.00  0.00     0.074 A 
ATOM     42  C   UNL A   1      42.983  25.953  27.821  1.00  0.00     0.049 A 
ATOM     43  N   UNL A   1      45.917  26.521  27.460  1.00  0.00    -0.248 NA
ATOM     44  C   UNL A   1      46.195  24.373  26.596  1.00  0.00     0.031 C 
ATOM     45  C   UNL A   1      41.547  25.720  28.005  1.00  0.00     0.029 A 
ATOM     46  N   UNL A   1      43.151  27.269  28.170  1.00  0.00    -0.354 N 
ATOM     47  C   UNL A   1      47.251  26.331  27.116  1.00  0.00     0.074 A 
ATOM     48  C   UNL A   1      47.376  24.975  26.631  1.00  0.00     0.031 C 
ATOM     49  C   UNL A   1      40.958  26.867  28.362  1.00  0.00     0.029 A 
ATOM     50  C   UNL A   1      41.980  27.893  28.532  1.00  0.00     0.049 A 
ATOM     51  H   UNL A   1      44.024  27.722  28.161  1.00  0.00     0.167 HD
ATOM     52  C   UNL A   1      48.271  27.218  27.186  1.00  0.00     0.031 A 
ATOM     53  C   UNL A   1      41.749  29.143  28.976  1.00  0.00     0.031 A 
ATOM     54  C   UNL A   1      48.120  28.575  27.646  1.00  0.00     0.049 A 
ATOM     55  C   UNL A   1      42.909  30.086  29.105  1.00  0.00     0.074 A 
ATOM     56  C   UNL A   1      49.091  29.555  27.743  1.00  0.00     0.029 A 
ATOM     57  N   UNL A   1      46.929  29.146  28.071  1.00  0.00    -0.354 N 
ATOM     58  N   UNL A   1      44.165  29.885  28.788  1.00  0.00    -0.248 NA
ATOM     59  C   UNL A   1      42.629  31.419  29.653  1.00  0.00     0.031 C 
ATOM     60  C   UNL A   1      48.505  30.694  28.295  1.00  0.00     0.029 A 
ATOM     61  C   UNL A   1      47.150  30.456  28.463  1.00  0.00     0.049 A 
ATOM     62  H   UNL A   1      46.059  28.688  28.092  1.00  0.00     0.167 HD
ATOM     63  C   UNL A   1      44.825  31.070  29.085  1.00  0.00     0.074 A 
ATOM     64  C   UNL A   1      43.824  31.991  29.587  1.00  0.00     0.031 C 
ATOM     65  C   UNL A   1      46.142  31.362  28.958  1.00  0.00     0.031 A 
BRANCH  52  66
ATOM     66  C   UNL A   1      49.649  26.771  26.764  1.00  0.00    -0.014 A 
ATOM     67  C   UNL A   1      50.023  26.854  25.410  1.00  0.00     0.010 A 
ATOM     68  C   UNL A   1      50.522  26.149  27.675  1.00  0.00     0.010 A 
ATOM     69  C   UNL A   1      51.223  26.292  24.965  1.00  0.00     0.020 A 
ATOM     70  C   UNL A   1      51.739  25.612  27.240  1.00  0.00     0.020 A 
ATOM     71  C   UNL A   1      52.068  25.664  25.882  1.00  0.00     0.054 A 
BRANCH  71  72
ATOM     72  S   UNL A   1      53.603  24.906  25.280  1.00  0.00     0.124 S 
ATOM     73  O   UNL A   1      54.549  25.241  26.339  1.00  0.00    -0.237 OA
ATOM     74  O   UNL A   1      53.242  23.495  25.178  1.00  0.00    -0.237 OA
ATOM     75  O   UNL A   1      53.834  25.573  24.000  1.00  0.00    -0.744 OA
ENDBRANCH  71  72
ENDBRANCH  52  66
BRANCH  53  76
ATOM     76  C   UNL A   1      40.355  29.544  29.314  1.00  0.00    -0.014 A 
ATOM     77  C   UNL A   1      39.444  29.883  28.294  1.00  0.00     0.010 A 
ATOM     78  C   UNL A   1      39.964  29.700  30.655  1.00  0.00     0.010 A 
ATOM     79  C   UNL A   1      38.201  30.438  28.604  1.00  0.00     0.020 A 
ATOM     80  C   UNL A   1      38.705  30.220  30.971  1.00  0.00     0.020 A 
ATOM     81  C   UNL A   1      37.846  30.619  29.942  1.00  0.00     0.054 A 
BRANCH  81  82
ATOM     82  S   UNL A   1      36.257  31.405  30.319  1.00  0.00     0.124 S 
ATOM     83  O   UNL A   1      36.640  32.810  30.442  1.00  0.00    -0.237 OA
ATOM     84  O   UNL A   1      35.451  31.074  29.147  1.00  0.00    -0.237 OA
ATOM     85  O   UNL A   1      35.841  30.760  31.561  1.00  0.00    -0.744 OA
ENDBRANCH  81  82
ENDBRANCH  53  76
BRANCH  65  86
ATOM     86  C   UNL A   1      46.608  32.736  29.364  1.00  0.00    -0.014 A 
ATOM     87  C   UNL A   1      46.943  32.988  30.708  1.00  0.00     0.010 A 
ATOM     88  C   UNL A   1      46.559  33.809  28.456  1.00  0.00     0.010 A 
ATOM     89  C   UNL A   1      47.167  34.294  31.149  1.00  0.00     0.020 A 
ATOM     90  C   UNL A   1      46.816  35.112  28.887  1.00  0.00     0.020 A 
ATOM     91  C   UNL A   1      47.086  35.350  30.238  1.00  0.00     0.054 A 
BRANCH  91  92
ATOM     92  S   UNL A   1      47.314  37.043  30.843  1.00  0.00     0.124 S 
ATOM     93  O   UNL A   1      46.571  37.824  29.857  1.00  0.00    -0.237 OA
ATOM     94  O   UNL A   1      46.724  36.988  32.178  1.00  0.00    -0.237 OA
ATOM     95  O   UNL A   1      48.764  37.224  30.819  1.00  0.00    -0.744 OA
ENDBRANCH  91  92
ENDBRANCH  65  86
ENDBRANCH  39  40
ENDBRANCH  31  34
ENDBRANCH  29  30
ENDBRANCH   1  29
TORSDOF 15
ENDMDL
MODEL 2
REMARK VINA RESULT:     -12.1      0.592      7.978
REMARK SMILES Cn1c(=O)c(=O)n(C)c2cc(S(=O)(=O)N3CCC[C@H]3C(=O)NCCCNC(=O)c3ccc(-c4c5nc(c(-c6ccc(S(=O)(=O)[O-])cc6)c6ccc([nH]6)c(-c6ccc(S(=O)(=O)[O-])cc6)c6nc(c(-c7ccc(S(=O)(=O)[O-])cc7)c7ccc4[nH]7)C=C6)C=C5)cc3)ccc21
REMARK SMILES IDX 24 1 23 2 22 3 20 4 21 5 19 7 15 8 16 9 17 10 18 11 12 12
REMARK SMILES IDX 13 13 14 14 11 15 1 16 2 17 3 18 91 19 4 20 5 21 9 22 90 23
REMARK SMILES IDX 6 24 7 25 10 26 89 27 8 28 25 29 26 30 27 31 28 33 29 34
REMARK SMILES IDX 30 35 88 36 31 37 87 38 32 39 33 40 34 41 81 42 35 43 86 44
REMARK SMILES IDX 80 45 82 46 36 47 85 48 79 49 78 50 37 52 67 53 48 54 66 55
REMARK SMILES IDX 49 56 52 57 65 58 83 59 50 60 51 61 64 63 84 64 53 65 38 66
REMARK SMILES IDX 39 67 47 68 40 69 46 70 41 71 42 72 43 73 44 74 45 75 68 76
REMARK SMILES IDX 69 77 77 78 70 79 76 80 71 81 72 82 73 83 74 84 75 85 54 86
REMARK SMILES IDX 55 87 63 88 56 89 62 90 57 91 58 92 59 93 60 94 61 95
REMARK H PARENT 22 6 26 32 82 51 52 62
REMARK Flexibility Score: inf
ROOT
ATOM      1  C   UNL A   1      38.093  21.056  25.008  1.00  0.00     0.042 C 
ENDROOT
BRANCH   1   2
ATOM      2  C   UNL A   1      36.704  21.355  25.520  1.00  0.00     0.117 C 
BRANCH   2   3
ATOM      3  N   UNL A   1      35.762  20.346  25.093  1.00  0.00    -0.355 N 
ATOM      4  C   UNL A   1      34.418  20.429  24.926  1.00  0.00     0.238 C 
ATOM      5  O   UNL A   1      33.829  19.393  24.603  1.00  0.00    -0.273 OA
ATOM      6  H   UNL A   1      36.155  19.466  24.893  1.00  0.00     0.163 HD
BRANCH   4   7
ATOM      7  C   UNL A   1      33.674  21.750  25.017  1.00  0.00     0.162 C 
ATOM      8  N   UNL A   1      33.082  22.307  23.773  1.00  0.00    -0.185 NA
ATOM      9  C   UNL A   1      31.619  22.438  23.899  1.00  0.00     0.103 C 
ATOM     10  C   UNL A   1      31.339  22.413  25.392  1.00  0.00     0.019 C 
ATOM     11  C   UNL A   1      32.538  21.739  26.052  1.00  0.00     0.032 C 
BRANCH   8  12
ATOM     12  S   UNL A   1      33.909  23.540  22.946  1.00  0.00     0.243 S 
ATOM     13  O   UNL A   1      33.270  23.689  21.662  1.00  0.00    -0.207 OA
ATOM     14  O   UNL A   1      35.333  23.296  23.067  1.00  0.00    -0.207 OA
BRANCH  12  15
ATOM     15  C   UNL A   1      33.591  25.066  23.837  1.00  0.00     0.084 A 
ATOM     16  C   UNL A   1      33.430  28.855  27.272  1.00  0.00     0.154 C 
ATOM     17  N   UNL A   1      32.730  28.587  26.024  1.00  0.00    -0.305 N 
ATOM     18  C   UNL A   1      31.781  29.513  25.606  1.00  0.00     0.316 A 
ATOM     19  C   UNL A   1      33.026  27.437  25.255  1.00  0.00     0.068 A 
ATOM     20  O   UNL A   1      31.531  30.544  26.225  1.00  0.00    -0.263 OA
ATOM     21  C   UNL A   1      31.031  29.226  24.298  1.00  0.00     0.316 A 
ATOM     22  C   UNL A   1      32.277  27.111  24.107  1.00  0.00     0.069 A 
ATOM     23  C   UNL A   1      34.080  26.607  25.631  1.00  0.00     0.030 A 
ATOM     24  O   UNL A   1      30.237  30.071  23.891  1.00  0.00    -0.263 OA
ATOM     25  N   UNL A   1      31.289  28.021  23.642  1.00  0.00    -0.305 N 
ATOM     26  C   UNL A   1      32.547  25.901  23.423  1.00  0.00     0.050 A 
ATOM     27  C   UNL A   1      34.361  25.453  24.922  1.00  0.00     0.024 A 
ATOM     28  C   UNL A   1      30.565  27.751  22.409  1.00  0.00     0.154 C 
ENDBRANCH  12  15
ENDBRANCH   8  12
ENDBRANCH   4   7
ENDBRANCH   2   3
ENDBRANCH   1   2
BRANCH   1  29
ATOM     29  C   UNL A   1      39.116  21.075  26.128  1.00  0.00     0.118 C 
BRANCH  29  30
ATOM     30  N   UNL A   1      39.937  19.865  26.142  1.00  0.00    -0.352 N 
ATOM     31  C   UNL A   1      41.305  19.742  26.126  1.00  0.00     0.251 C 
ATOM     32  H   UNL A   1      39.438  19.017  26.167  1.00  0.00     0.163 HD
ATOM     33  O   UNL A   1      41.827  18.656  25.900  1.00  0.00    -0.269 OA
BRANCH  31  34
ATOM     34  C   UNL A   1      42.123  20.945  26.358  1.00  0.00     0.039 A 
ATOM     35  C   UNL A   1      42.345  21.380  27.665  1.00  0.00     0.014 A 
ATOM     36  C   UNL A   1      42.601  21.679  25.273  1.00  0.00     0.014 A 
ATOM     37  C   UNL A   1      42.836  22.656  27.881  1.00  0.00     0.010 A 
ATOM     38  C   UNL A   1      43.220  22.910  25.503  1.00  0.00     0.010 A 
ATOM     39  C   UNL A   1      43.287  23.433  26.803  1.00  0.00    -0.014 A 
BRANCH  39  40
ATOM     40  C   UNL A   1      43.824  24.791  27.068  1.00  0.00     0.031 A 
ATOM     41  C   UNL A   1      42.947  25.858  27.667  1.00  0.00     0.074 A 
ATOM     42  C   UNL A   1      45.126  25.035  26.818  1.00  0.00     0.049 A 
ATOM     43  N   UNL A   1      43.245  27.102  27.938  1.00  0.00    -0.248 NA
ATOM     44  C   UNL A   1      41.560  25.490  28.000  1.00  0.00     0.031 C 
ATOM     45  C   UNL A   1      46.076  24.056  26.280  1.00  0.00     0.029 A 
ATOM     46  N   UNL A   1      45.885  26.160  27.012  1.00  0.00    -0.354 N 
ATOM     47  C   UNL A   1      42.082  27.669  28.449  1.00  0.00     0.074 A 
ATOM     48  C   UNL A   1      41.063  26.645  28.422  1.00  0.00     0.031 C 
ATOM     49  C   UNL A   1      47.299  24.599  26.254  1.00  0.00     0.029 A 
ATOM     50  C   UNL A   1      47.208  25.992  26.676  1.00  0.00     0.049 A 
ATOM     51  H   UNL A   1      45.519  27.005  27.359  1.00  0.00     0.167 HD
ATOM     52  C   UNL A   1      41.895  28.928  28.911  1.00  0.00     0.031 A 
ATOM     53  C   UNL A   1      48.235  26.863  26.679  1.00  0.00     0.031 A 
ATOM     54  C   UNL A   1      42.932  29.925  28.954  1.00  0.00     0.049 A 
ATOM     55  C   UNL A   1      47.984  28.270  27.136  1.00  0.00     0.074 A 
ATOM     56  C   UNL A   1      42.844  31.227  29.416  1.00  0.00     0.029 A 
ATOM     57  N   UNL A   1      44.241  29.735  28.537  1.00  0.00    -0.354 N 
ATOM     58  N   UNL A   1      46.875  28.792  27.602  1.00  0.00    -0.248 NA
ATOM     59  C   UNL A   1      49.112  29.207  27.066  1.00  0.00     0.031 C 
ATOM     60  C   UNL A   1      44.078  31.845  29.210  1.00  0.00     0.029 A 
ATOM     61  C   UNL A   1      44.962  30.907  28.700  1.00  0.00     0.049 A 
ATOM     62  H   UNL A   1      44.604  28.894  28.179  1.00  0.00     0.167 HD
ATOM     63  C   UNL A   1      47.174  30.117  27.893  1.00  0.00     0.074 A 
ATOM     64  C   UNL A   1      48.574  30.309  27.571  1.00  0.00     0.031 C 
ATOM     65  C   UNL A   1      46.357  31.083  28.378  1.00  0.00     0.031 A 
BRANCH  52  66
ATOM     66  C   UNL A   1      40.525  29.319  29.407  1.00  0.00    -0.014 A 
ATOM     67  C   UNL A   1      39.518  29.652  28.480  1.00  0.00     0.010 A 
ATOM     68  C   UNL A   1      40.268  29.484  30.780  1.00  0.00     0.010 A 
ATOM     69  C   UNL A   1      38.298  30.179  28.911  1.00  0.00     0.020 A 
ATOM     70  C   UNL A   1      39.035  29.982  31.218  1.00  0.00     0.020 A 
ATOM     71  C   UNL A   1      38.069  30.352  30.278  1.00  0.00     0.054 A 
BRANCH  71  72
ATOM     72  S   UNL A   1      36.494  31.073  30.817  1.00  0.00     0.124 S 
ATOM     73  O   UNL A   1      35.980  30.052  31.723  1.00  0.00    -0.237 OA
ATOM     74  O   UNL A   1      36.915  32.323  31.446  1.00  0.00    -0.237 OA
ATOM     75  O   UNL A   1      35.749  31.237  29.570  1.00  0.00    -0.744 OA
ENDBRANCH  71  72
ENDBRANCH  52  66
BRANCH  53  76
ATOM     76  C   UNL A   1      49.580  26.397  26.239  1.00  0.00    -0.014 A 
ATOM     77  C   UNL A   1      50.475  25.826  27.167  1.00  0.00     0.010 A 
ATOM     78  C   UNL A   1      50.016  26.622  24.923  1.00  0.00     0.010 A 
ATOM     79  C   UNL A   1      51.798  25.561  26.809  1.00  0.00     0.020 A 
ATOM     80  C   UNL A   1      51.330  26.321  24.550  1.00  0.00     0.020 A 
ATOM     81  C   UNL A   1      52.221  25.826  25.505  1.00  0.00     0.054 A 
BRANCH  81  82
ATOM     82  S   UNL A   1      53.961  25.538  25.083  1.00  0.00     0.124 S 
ATOM     83  O   UNL A   1      54.130  24.135  25.453  1.00  0.00    -0.237 OA
ATOM     84  O   UNL A   1      53.992  25.818  23.650  1.00  0.00    -0.237 OA
ATOM     85  O   UNL A   1      54.679  26.496  25.919  1.00  0.00    -0.744 OA
ENDBRANCH  81  82
ENDBRANCH  53  76
BRANCH  65  86
ATOM     86  C   UNL A   1      46.936  32.456  28.601  1.00  0.00    -0.014 A 
ATOM     87  C   UNL A   1      47.425  32.806  29.874  1.00  0.00     0.010 A 
ATOM     88  C   UNL A   1      46.847  33.444  27.604  1.00  0.00     0.010 A 
ATOM     89  C   UNL A   1      47.764  34.129  30.163  1.00  0.00     0.020 A 
ATOM     90  C   UNL A   1      47.217  34.762  27.880  1.00  0.00     0.020 A 
ATOM     91  C   UNL A   1      47.643  35.102  29.167  1.00  0.00     0.054 A 
BRANCH  91  92
ATOM     92  S   UNL A   1      48.024  36.826  29.582  1.00  0.00     0.124 S 
ATOM     93  O   UNL A   1      49.060  36.674  30.600  1.00  0.00    -0.237 OA
ATOM     94  O   UNL A   1      48.471  37.371  28.303  1.00  0.00    -0.237 OA
ATOM     95  O   UNL A   1      46.749  37.353  30.063  1.00  0.00    -0.744 OA
ENDBRANCH  91  92
ENDBRANCH  65  86
ENDBRANCH  39  40
ENDBRANCH  31  34
ENDBRANCH  29  30
ENDBRANCH   1  29
TORSDOF 15
ENDMDL
MODEL 3
REMARK VINA RESULT:     -12.1      1.844      8.772
REMARK SMILES Cn1c(=O)c(=O)n(C)c2cc(S(=O)(=O)N3CCC[C@H]3C(=O)NCCCNC(=O)c3ccc(-c4c5nc(c(-c6ccc(S(=O)(=O)[O-])cc6)c6ccc([nH]6)c(-c6ccc(S(=O)(=O)[O-])cc6)c6nc(c(-c7ccc(S(=O)(=O)[O-])cc7)c7ccc4[nH]7)C=C6)C=C5)cc3)ccc21
REMARK SMILES IDX 24 1 23 2 22 3 20 4 21 5 19 7 15 8 16 9 17 10 18 11 12 12
REMARK SMILES IDX 13 13 14 14 11 15 1 16 2 17 3 18 91 19 4 20 5 21 9 22 90 23
REMARK SMILES IDX 6 24 7 25 10 26 89 27 8 28 25 29 26 30 27 31 28 33 29 34
REMARK SMILES IDX 30 35 88 36 31 37 87 38 32 39 33 40 34 41 81 42 35 43 86 44
REMARK SMILES IDX 80 45 82 46 36 47 85 48 79 49 78 50 37 52 67 53 48 54 66 55
REMARK SMILES IDX 49 56 52 57 65 58 83 59 50 60 51 61 64 63 84 64 53 65 38 66
REMARK SMILES IDX 39 67 47 68 40 69 46 70 41 71 42 72 43 73 44 74 45 75 68 76
REMARK SMILES IDX 69 77 77 78 70 79 76 80 71 81 72 82 73 83 74 84 75 85 54 86
REMARK SMILES IDX 55 87 63 88 56 89 62 90 57 91 58 92 59 93 60 94 61 95
REMARK H PARENT 22 6 26 32 82 51 52 62
REMARK Flexibility Score: inf
ROOT
ATOM      1  C   UNL A   1      33.778  29.688  27.346  1.00  0.00     0.042 C 
ENDROOT
BRANCH   1   2
ATOM      2  C   UNL A   1      33.535  28.537  26.397  1.00  0.00     0.117 C 
BRANCH   2   3
ATOM      3  N   UNL A   1      32.361  28.769  25.586  1.00  0.00    -0.355 N 
ATOM      4  C   UNL A   1      31.845  28.027  24.575  1.00  0.00     0.238 C 
ATOM      5  O   UNL A   1      30.851  28.479  23.998  1.00  0.00    -0.273 OA
ATOM      6  H   UNL A   1      31.860  29.589  25.801  1.00  0.00     0.163 HD
BRANCH   4   7
ATOM      7  C   UNL A   1      32.382  26.648  24.231  1.00  0.00     0.162 C 
ATOM      8  N   UNL A   1      31.449  25.495  24.301  1.00  0.00    -0.185 NA
ATOM      9  C   UNL A   1      31.313  24.847  22.984  1.00  0.00     0.103 C 
ATOM     10  C   UNL A   1      32.525  25.294  22.187  1.00  0.00     0.019 C 
ATOM     11  C   UNL A   1      33.030  26.577  22.838  1.00  0.00     0.032 C 
BRANCH   8  12
ATOM     12  S   UNL A   1      31.485  24.486  25.669  1.00  0.00     0.243 S 
ATOM     13  O   UNL A   1      30.455  23.493  25.488  1.00  0.00    -0.207 OA
ATOM     14  O   UNL A   1      31.541  25.321  26.851  1.00  0.00    -0.207 OA
BRANCH  12  15
ATOM     15  C   UNL A   1      33.044  23.597  25.616  1.00  0.00     0.084 A 
ATOM     16  C   UNL A   1      37.981  22.254  25.558  1.00  0.00     0.154 C 
ATOM     17  N   UNL A   1      36.733  21.538  25.337  1.00  0.00    -0.305 N 
ATOM     18  C   UNL A   1      36.812  20.186  25.025  1.00  0.00     0.316 A 
ATOM     19  C   UNL A   1      35.485  22.194  25.462  1.00  0.00     0.068 A 
ATOM     20  O   UNL A   1      37.875  19.575  24.953  1.00  0.00    -0.263 OA
ATOM     21  C   UNL A   1      35.498  19.432  24.778  1.00  0.00     0.316 A 
ATOM     22  C   UNL A   1      34.279  21.540  25.141  1.00  0.00     0.069 A 
ATOM     23  C   UNL A   1      35.439  23.511  25.913  1.00  0.00     0.030 A 
ATOM     24  O   UNL A   1      35.558  18.224  24.564  1.00  0.00    -0.263 OA
ATOM     25  N   UNL A   1      34.307  20.159  24.807  1.00  0.00    -0.305 N 
ATOM     26  C   UNL A   1      33.064  22.264  25.188  1.00  0.00     0.050 A 
ATOM     27  C   UNL A   1      34.236  24.189  26.001  1.00  0.00     0.024 A 
ATOM     28  C   UNL A   1      33.067  19.439  24.559  1.00  0.00     0.154 C 
ENDBRANCH  12  15
ENDBRANCH   8  12
ENDBRANCH   4   7
ENDBRANCH   2   3
ENDBRANCH   1   2
BRANCH   1  29
ATOM     29  C   UNL A   1      35.230  29.757  27.776  1.00  0.00     0.118 C 
BRANCH  29  30
ATOM     30  N   UNL A   1      35.402  30.521  29.011  1.00  0.00    -0.352 N 
ATOM     31  C   UNL A   1      36.460  30.532  29.887  1.00  0.00     0.251 C 
ATOM     32  H   UNL A   1      34.652  31.113  29.248  1.00  0.00     0.163 HD
ATOM     33  O   UNL A   1      36.342  31.046  30.994  1.00  0.00    -0.269 OA
BRANCH  31  34
ATOM     34  C   UNL A   1      37.721  29.891  29.477  1.00  0.00     0.039 A 
ATOM     35  C   UNL A   1      38.539  29.307  30.444  1.00  0.00     0.014 A 
ATOM     36  C   UNL A   1      38.124  29.944  28.142  1.00  0.00     0.014 A 
ATOM     37  C   UNL A   1      39.847  28.987  30.124  1.00  0.00     0.010 A 
ATOM     38  C   UNL A   1      39.400  29.492  27.798  1.00  0.00     0.010 A 
ATOM     39  C   UNL A   1      40.291  29.068  28.796  1.00  0.00    -0.014 A 
BRANCH  39  40
ATOM     40  C   UNL A   1      41.694  28.701  28.480  1.00  0.00     0.031 A 
ATOM     41  C   UNL A   1      42.040  27.304  28.039  1.00  0.00     0.074 A 
ATOM     42  C   UNL A   1      42.643  29.656  28.538  1.00  0.00     0.049 A 
ATOM     43  N   UNL A   1      43.214  26.807  27.750  1.00  0.00    -0.248 NA
ATOM     44  C   UNL A   1      40.935  26.339  27.909  1.00  0.00     0.031 C 
ATOM     45  C   UNL A   1      42.407  31.054  28.911  1.00  0.00     0.029 A 
ATOM     46  N   UNL A   1      43.984  29.612  28.255  1.00  0.00    -0.354 N 
ATOM     47  C   UNL A   1      42.993  25.472  27.429  1.00  0.00     0.074 A 
ATOM     48  C   UNL A   1      41.579  25.225  27.588  1.00  0.00     0.031 C 
ATOM     49  C   UNL A   1      43.544  31.746  28.765  1.00  0.00     0.029 A 
ATOM     50  C   UNL A   1      44.612  30.828  28.388  1.00  0.00     0.049 A 
ATOM     51  H   UNL A   1      44.452  28.790  27.983  1.00  0.00     0.167 HD
ATOM     52  C   UNL A   1      43.894  24.545  27.025  1.00  0.00     0.031 A 
ATOM     53  C   UNL A   1      45.907  31.171  28.248  1.00  0.00     0.031 A 
ATOM     54  C   UNL A   1      45.296  24.819  26.846  1.00  0.00     0.049 A 
ATOM     55  C   UNL A   1      46.894  30.110  27.861  1.00  0.00     0.074 A 
ATOM     56  C   UNL A   1      46.288  23.950  26.428  1.00  0.00     0.029 A 
ATOM     57  N   UNL A   1      45.904  26.048  27.060  1.00  0.00    -0.354 N 
ATOM     58  N   UNL A   1      46.670  28.850  27.575  1.00  0.00    -0.248 NA
ATOM     59  C   UNL A   1      48.306  30.506  27.781  1.00  0.00     0.031 C 
ATOM     60  C   UNL A   1      47.505  24.632  26.460  1.00  0.00     0.029 A 
ATOM     61  C   UNL A   1      47.263  25.950  26.815  1.00  0.00     0.049 A 
ATOM     62  H   UNL A   1      45.438  26.867  27.345  1.00  0.00     0.167 HD
ATOM     63  C   UNL A   1      47.910  28.304  27.268  1.00  0.00     0.074 A 
ATOM     64  C   UNL A   1      48.877  29.378  27.382  1.00  0.00     0.031 C 
ATOM     65  C   UNL A   1      48.215  27.029  26.929  1.00  0.00     0.031 A 
BRANCH  52  66
ATOM     66  C   UNL A   1      43.412  23.143  26.746  1.00  0.00    -0.014 A 
ATOM     67  C   UNL A   1      42.894  22.364  27.797  1.00  0.00     0.010 A 
ATOM     68  C   UNL A   1      43.591  22.550  25.482  1.00  0.00     0.010 A 
ATOM     69  C   UNL A   1      42.601  21.011  27.604  1.00  0.00     0.020 A 
ATOM     70  C   UNL A   1      43.269  21.204  25.276  1.00  0.00     0.020 A 
ATOM     71  C   UNL A   1      42.801  20.437  26.347  1.00  0.00     0.054 A 
BRANCH  71  72
ATOM     72  S   UNL A   1      42.451  18.671  26.126  1.00  0.00     0.124 S 
ATOM     73  O   UNL A   1      43.388  18.299  25.071  1.00  0.00    -0.237 OA
ATOM     74  O   UNL A   1      42.738  18.121  27.449  1.00  0.00    -0.237 OA
ATOM     75  O   UNL A   1      41.039  18.646  25.747  1.00  0.00    -0.744 OA
ENDBRANCH  71  72
ENDBRANCH  52  66
BRANCH  53  76
ATOM     76  C   UNL A   1      46.308  32.587  28.474  1.00  0.00    -0.014 A 
ATOM     77  C   UNL A   1      46.349  33.497  27.398  1.00  0.00     0.010 A 
ATOM     78  C   UNL A   1      46.759  33.007  29.737  1.00  0.00     0.010 A 
ATOM     79  C   UNL A   1      46.900  34.769  27.561  1.00  0.00     0.020 A 
ATOM     80  C   UNL A   1      47.277  34.294  29.914  1.00  0.00     0.020 A 
ATOM     81  C   UNL A   1      47.377  35.153  28.816  1.00  0.00     0.054 A 
BRANCH  81  82
ATOM     82  S   UNL A   1      48.152  36.783  28.987  1.00  0.00     0.124 S 
ATOM     83  O   UNL A   1      47.176  37.494  29.810  1.00  0.00    -0.237 OA
ATOM     84  O   UNL A   1      49.417  36.468  29.645  1.00  0.00    -0.237 OA
ATOM     85  O   UNL A   1      48.269  37.253  27.610  1.00  0.00    -0.744 OA
ENDBRANCH  81  82
ENDBRANCH  53  76
BRANCH  65  86
ATOM     86  C   UNL A   1      49.656  26.693  26.649  1.00  0.00    -0.014 A 
ATOM     87  C   UNL A   1      50.118  26.665  25.319  1.00  0.00     0.010 A 
ATOM     88  C   UNL A   1      50.504  26.251  27.679  1.00  0.00     0.010 A 
ATOM     89  C   UNL A   1      51.381  26.150  25.018  1.00  0.00     0.020 A 
ATOM     90  C   UNL A   1      51.781  25.768  27.386  1.00  0.00     0.020 A 
ATOM     91  C   UNL A   1      52.199  25.691  26.054  1.00  0.00     0.054 A 
BRANCH  91  92
ATOM     92  S   UNL A   1      53.807  24.965  25.637  1.00  0.00     0.124 S 
ATOM     93  O   UNL A   1      54.255  25.822  24.543  1.00  0.00    -0.237 OA
ATOM     94  O   UNL A   1      54.552  25.097  26.886  1.00  0.00    -0.237 OA
ATOM     95  O   UNL A   1      53.477  23.592  25.260  1.00  0.00    -0.744 OA
ENDBRANCH  91  92
ENDBRANCH  65  86
ENDBRANCH  39  40
ENDBRANCH  31  34
ENDBRANCH  29  30
ENDBRANCH   1  29
TORSDOF 15
ENDMDL
