MODEL 1
REMARK VINA RESULT:     -10.2      0.000      0.000
REMARK SMILES C=CCN(CC(=O)NCCCNC(=O)c1ccc(-c2c3nc(c(-c4ccc(S(=O)(=O)[O-])cc4)c4ccc([nH]4)c(-c4ccc(S(=O)(=O)[O-])cc4)c4nc(c(-c5ccc(S(=O)(=O)[O-])cc5)c5ccc2[nH]5)C=C4)C=C3)cc1)S(=O)(=O)Cc1cc(C)on1
REMARK SMILES IDX 9 1 8 2 6 3 7 4 5 6 4 7 3 8 2 9 1 10 75 11 76 12 77 13 78 14
REMARK SMILES IDX 79 15 80 16 84 17 81 18 83 19 82 20 10 21 11 22 12 23 13 24
REMARK SMILES IDX 14 26 15 27 16 28 74 29 17 30 73 31 18 32 19 33 20 34 67 35
REMARK SMILES IDX 21 36 72 37 66 38 68 39 22 40 71 41 65 42 64 43 23 45 53 46
REMARK SMILES IDX 34 47 52 48 35 49 38 50 51 51 69 52 36 53 37 54 50 56 70 57
REMARK SMILES IDX 39 58 24 59 25 60 33 61 26 62 32 63 27 64 28 65 29 66 30 67
REMARK SMILES IDX 31 68 54 69 55 70 63 71 56 72 62 73 57 74 58 75 59 76 60 77
REMARK SMILES IDX 61 78 40 79 41 80 49 81 42 82 48 83 43 84 44 85 45 86 46 87
REMARK SMILES IDX 47 88
REMARK H PARENT 8 5 12 25 68 44 38 55
REMARK Flexibility Score: inf
ROOT
ATOM      1  C   UNL A   1      32.250  27.959  24.671  1.00  0.00     0.117 C 
ENDROOT
BRANCH   1   2
ATOM      2  N   UNL A   1      31.257  27.328  25.523  1.00  0.00    -0.355 N 
ATOM      3  C   UNL A   1      30.906  26.014  25.657  1.00  0.00     0.235 C 
ATOM      4  O   UNL A   1      30.081  25.720  26.528  1.00  0.00    -0.274 OA
ATOM      5  H   UNL A   1      30.756  27.949  26.101  1.00  0.00     0.163 HD
BRANCH   3   6
ATOM      6  C   UNL A   1      31.555  24.923  24.815  1.00  0.00     0.202 C 
BRANCH   6   7
ATOM      7  N   UNL A   1      32.575  24.023  25.442  1.00  0.00    -0.188 NA
BRANCH   7   8
ATOM      8  C   UNL A   1      33.808  23.938  24.637  1.00  0.00     0.129 C 
BRANCH   8   9
ATOM      9  C   UNL A   1      33.693  24.243  23.186  1.00  0.00    -0.018 C 
ATOM     10  C   UNL A   1      33.391  23.332  22.249  1.00  0.00     0.005 C 
ENDBRANCH   8   9
ENDBRANCH   7   8
BRANCH   7  11
ATOM     11  S   UNL A   1      31.982  22.730  26.379  1.00  0.00     0.220 S 
ATOM     12  O   UNL A   1      31.944  23.164  27.757  1.00  0.00    -0.212 OA
ATOM     13  O   UNL A   1      30.786  22.179  25.776  1.00  0.00    -0.212 OA
BRANCH  11  14
ATOM     14  C   UNL A   1      33.257  21.473  26.169  1.00  0.00     0.214 C 
BRANCH  14  15
ATOM     15  C   UNL A   1      32.852  20.344  25.276  1.00  0.00     0.100 A 
ATOM     16  C   UNL A   1      32.890  20.232  23.863  1.00  0.00     0.073 A 
ATOM     17  N   UNL A   1      32.368  19.213  25.819  1.00  0.00    -0.084 NA
ATOM     18  C   UNL A   1      32.461  18.960  23.595  1.00  0.00     0.133 A 
ATOM     19  O   UNL A   1      32.123  18.351  24.761  1.00  0.00    -0.361 OA
ATOM     20  C   UNL A   1      32.322  18.176  22.355  1.00  0.00     0.091 C 
ENDBRANCH  14  15
ENDBRANCH  11  14
ENDBRANCH   7  11
ENDBRANCH   6   7
ENDBRANCH   3   6
ENDBRANCH   1   2
BRANCH   1  21
ATOM     21  C   UNL A   1      33.621  28.029  25.340  1.00  0.00     0.042 C 
BRANCH  21  22
ATOM     22  C   UNL A   1      33.588  28.270  26.839  1.00  0.00     0.118 C 
BRANCH  22  23
ATOM     23  N   UNL A   1      33.509  29.683  27.175  1.00  0.00    -0.352 N 
ATOM     24  C   UNL A   1      34.396  30.502  27.834  1.00  0.00     0.251 C 
ATOM     25  H   UNL A   1      32.682  30.129  26.879  1.00  0.00     0.163 HD
ATOM     26  O   UNL A   1      34.020  31.622  28.173  1.00  0.00    -0.269 OA
BRANCH  24  27
ATOM     27  C   UNL A   1      35.775  30.057  28.161  1.00  0.00     0.039 A 
ATOM     28  C   UNL A   1      36.762  30.148  27.174  1.00  0.00     0.014 A 
ATOM     29  C   UNL A   1      36.100  29.507  29.403  1.00  0.00     0.014 A 
ATOM     30  C   UNL A   1      38.074  29.746  27.453  1.00  0.00     0.010 A 
ATOM     31  C   UNL A   1      37.427  29.207  29.714  1.00  0.00     0.010 A 
ATOM     32  C   UNL A   1      38.427  29.304  28.737  1.00  0.00    -0.014 A 
BRANCH  32  33
ATOM     33  C   UNL A   1      39.821  28.898  29.067  1.00  0.00     0.031 A 
ATOM     34  C   UNL A   1      40.745  29.870  29.759  1.00  0.00     0.074 A 
ATOM     35  C   UNL A   1      40.270  27.677  28.714  1.00  0.00     0.049 A 
ATOM     36  N   UNL A   1      42.008  29.727  30.072  1.00  0.00    -0.248 NA
ATOM     37  C   UNL A   1      40.183  31.180  30.131  1.00  0.00     0.031 C 
ATOM     38  C   UNL A   1      39.486  26.649  28.022  1.00  0.00     0.029 A 
ATOM     39  N   UNL A   1      41.499  27.089  28.888  1.00  0.00    -0.354 N 
ATOM     40  C   UNL A   1      42.389  30.925  30.668  1.00  0.00     0.074 A 
ATOM     41  C   UNL A   1      41.245  31.807  30.615  1.00  0.00     0.031 C 
ATOM     42  C   UNL A   1      40.241  25.550  27.864  1.00  0.00     0.029 A 
ATOM     43  C   UNL A   1      41.576  25.807  28.393  1.00  0.00     0.049 A 
ATOM     44  H   UNL A   1      42.255  27.542  29.326  1.00  0.00     0.167 HD
ATOM     45  C   UNL A   1      43.573  31.254  31.239  1.00  0.00     0.031 A 
ATOM     46  C   UNL A   1      42.608  24.940  28.358  1.00  0.00     0.031 A 
ATOM     47  C   UNL A   1      44.710  30.375  31.298  1.00  0.00     0.049 A 
ATOM     48  C   UNL A   1      43.932  25.355  28.946  1.00  0.00     0.074 A 
ATOM     49  C   UNL A   1      45.947  30.608  31.873  1.00  0.00     0.029 A 
ATOM     50  N   UNL A   1      44.748  29.093  30.772  1.00  0.00    -0.354 N 
ATOM     51  N   UNL A   1      44.255  26.475  29.545  1.00  0.00    -0.248 NA
ATOM     52  C   UNL A   1      45.029  24.379  28.863  1.00  0.00     0.031 C 
ATOM     53  C   UNL A   1      46.752  29.487  31.648  1.00  0.00     0.029 A 
ATOM     54  C   UNL A   1      45.993  28.530  30.993  1.00  0.00     0.049 A 
ATOM     55  H   UNL A   1      44.002  28.650  30.308  1.00  0.00     0.167 HD
ATOM     56  C   UNL A   1      45.578  26.323  29.945  1.00  0.00     0.074 A 
ATOM     57  C   UNL A   1      45.989  24.997  29.535  1.00  0.00     0.031 C 
ATOM     58  C   UNL A   1      46.381  27.200  30.596  1.00  0.00     0.031 A 
BRANCH  45  59
ATOM     59  C   UNL A   1      43.695  32.621  31.862  1.00  0.00    -0.014 A 
ATOM     60  C   UNL A   1      43.398  32.821  33.223  1.00  0.00     0.010 A 
ATOM     61  C   UNL A   1      44.168  33.705  31.100  1.00  0.00     0.010 A 
ATOM     62  C   UNL A   1      43.542  34.084  33.802  1.00  0.00     0.020 A 
ATOM     63  C   UNL A   1      44.345  34.964  31.684  1.00  0.00     0.020 A 
ATOM     64  C   UNL A   1      44.019  35.147  33.029  1.00  0.00     0.054 A 
BRANCH  64  65
ATOM     65  S   UNL A   1      44.238  36.763  33.824  1.00  0.00     0.124 S 
ATOM     66  O   UNL A   1      43.519  36.581  35.082  1.00  0.00    -0.237 OA
ATOM     67  O   UNL A   1      45.690  36.867  33.940  1.00  0.00    -0.237 OA
ATOM     68  O   UNL A   1      43.621  37.698  32.886  1.00  0.00    -0.744 OA
ENDBRANCH  64  65
ENDBRANCH  45  59
BRANCH  46  69
ATOM     69  C   UNL A   1      42.444  23.588  27.749  1.00  0.00    -0.014 A 
ATOM     70  C   UNL A   1      41.879  22.534  28.490  1.00  0.00     0.010 A 
ATOM     71  C   UNL A   1      42.887  23.336  26.438  1.00  0.00     0.010 A 
ATOM     72  C   UNL A   1      41.803  21.247  27.949  1.00  0.00     0.020 A 
ATOM     73  C   UNL A   1      42.780  22.059  25.881  1.00  0.00     0.020 A 
ATOM     74  C   UNL A   1      42.259  21.017  26.649  1.00  0.00     0.054 A 
BRANCH  74  75
ATOM     75  S   UNL A   1      42.148  19.340  25.966  1.00  0.00     0.124 S 
ATOM     76  O   UNL A   1      43.000  19.436  24.786  1.00  0.00    -0.237 OA
ATOM     77  O   UNL A   1      42.666  18.519  27.058  1.00  0.00    -0.237 OA
ATOM     78  O   UNL A   1      40.721  19.174  25.697  1.00  0.00    -0.744 OA
ENDBRANCH  74  75
ENDBRANCH  46  69
BRANCH  58  79
ATOM     79  C   UNL A   1      47.768  26.738  30.963  1.00  0.00    -0.014 A 
ATOM     80  C   UNL A   1      48.879  27.035  30.155  1.00  0.00     0.010 A 
ATOM     81  C   UNL A   1      47.965  26.047  32.174  1.00  0.00     0.010 A 
ATOM     82  C   UNL A   1      50.159  26.620  30.536  1.00  0.00     0.020 A 
ATOM     83  C   UNL A   1      49.246  25.660  32.574  1.00  0.00     0.020 A 
ATOM     84  C   UNL A   1      50.334  25.939  31.746  1.00  0.00     0.054 A 
BRANCH  84  85
ATOM     85  S   UNL A   1      52.012  25.460  32.240  1.00  0.00     0.124 S 
ATOM     86  O   UNL A   1      52.782  25.761  31.037  1.00  0.00    -0.237 OA
ATOM     87  O   UNL A   1      52.268  26.329  33.385  1.00  0.00    -0.237 OA
ATOM     88  O   UNL A   1      51.887  24.040  32.560  1.00  0.00    -0.744 OA
ENDBRANCH  84  85
ENDBRANCH  58  79
ENDBRANCH  32  33
ENDBRANCH  24  27
ENDBRANCH  22  23
ENDBRANCH  21  22
ENDBRANCH   1  21
TORSDOF 19
ENDMDL
MODEL 2
REMARK VINA RESULT:      -9.8      3.104      9.586
REMARK SMILES C=CCN(CC(=O)NCCCNC(=O)c1ccc(-c2c3nc(c(-c4ccc(S(=O)(=O)[O-])cc4)c4ccc([nH]4)c(-c4ccc(S(=O)(=O)[O-])cc4)c4nc(c(-c5ccc(S(=O)(=O)[O-])cc5)c5ccc2[nH]5)C=C4)C=C3)cc1)S(=O)(=O)Cc1cc(C)on1
REMARK SMILES IDX 9 1 8 2 6 3 7 4 5 6 4 7 3 8 2 9 1 10 75 11 76 12 77 13 78 14
REMARK SMILES IDX 79 15 80 16 84 17 81 18 83 19 82 20 10 21 11 22 12 23 13 24
REMARK SMILES IDX 14 26 15 27 16 28 74 29 17 30 73 31 18 32 19 33 20 34 67 35
REMARK SMILES IDX 21 36 72 37 66 38 68 39 22 40 71 41 65 42 64 43 23 45 53 46
REMARK SMILES IDX 34 47 52 48 35 49 38 50 51 51 69 52 36 53 37 54 50 56 70 57
REMARK SMILES IDX 39 58 24 59 25 60 33 61 26 62 32 63 27 64 28 65 29 66 30 67
REMARK SMILES IDX 31 68 54 69 55 70 63 71 56 72 62 73 57 74 58 75 59 76 60 77
REMARK SMILES IDX 61 78 40 79 41 80 49 81 42 82 48 83 43 84 44 85 45 86 46 87
REMARK SMILES IDX 47 88
REMARK H PARENT 8 5 12 25 68 44 38 55
REMARK Flexibility Score: inf
ROOT
ATOM      1  C   UNL A   1      34.515  23.079  24.342  1.00  0.00     0.117 C 
ENDROOT
BRANCH   1   2
ATOM      2  N   UNL A   1      34.196  23.365  22.955  1.00  0.00    -0.355 N 
ATOM      3  C   UNL A   1      33.234  24.169  22.411  1.00  0.00     0.235 C 
ATOM      4  O   UNL A   1      33.225  24.314  21.184  1.00  0.00    -0.274 OA
ATOM      5  H   UNL A   1      34.767  22.905  22.298  1.00  0.00     0.163 HD
BRANCH   3   6
ATOM      6  C   UNL A   1      32.240  24.928  23.281  1.00  0.00     0.202 C 
BRANCH   6   7
ATOM      7  N   UNL A   1      32.679  26.181  23.974  1.00  0.00    -0.188 NA
BRANCH   7   8
ATOM      8  C   UNL A   1      32.492  26.101  25.434  1.00  0.00     0.129 C 
BRANCH   8   9
ATOM      9  C   UNL A   1      31.096  25.984  25.934  1.00  0.00    -0.018 C 
ATOM     10  C   UNL A   1      30.448  24.820  26.084  1.00  0.00     0.005 C 
ENDBRANCH   8   9
ENDBRANCH   7   8
BRANCH   7  11
ATOM     11  S   UNL A   1      32.537  27.632  23.093  1.00  0.00     0.220 S 
ATOM     12  O   UNL A   1      32.508  28.724  24.040  1.00  0.00    -0.212 OA
ATOM     13  O   UNL A   1      33.499  27.659  22.010  1.00  0.00    -0.212 OA
BRANCH  11  14
ATOM     14  C   UNL A   1      30.923  27.461  22.307  1.00  0.00     0.214 C 
BRANCH  14  15
ATOM     15  C   UNL A   1      30.062  28.677  22.422  1.00  0.00     0.100 A 
ATOM     16  C   UNL A   1      28.990  28.963  23.306  1.00  0.00     0.073 A 
ATOM     17  N   UNL A   1      30.273  29.717  21.596  1.00  0.00    -0.084 NA
ATOM     18  C   UNL A   1      28.613  30.244  23.006  1.00  0.00     0.133 A 
ATOM     19  O   UNL A   1      29.361  30.694  21.965  1.00  0.00    -0.361 OA
ATOM     20  C   UNL A   1      27.619  31.169  23.577  1.00  0.00     0.091 C 
ENDBRANCH  14  15
ENDBRANCH  11  14
ENDBRANCH   7  11
ENDBRANCH   6   7
ENDBRANCH   3   6
ENDBRANCH   1   2
BRANCH   1  21
ATOM     21  C   UNL A   1      35.689  23.915  24.847  1.00  0.00     0.042 C 
BRANCH  21  22
ATOM     22  C   UNL A   1      36.247  23.483  26.192  1.00  0.00     0.118 C 
BRANCH  22  23
ATOM     23  N   UNL A   1      37.389  22.592  26.061  1.00  0.00    -0.352 N 
ATOM     24  C   UNL A   1      38.732  22.817  26.254  1.00  0.00     0.251 C 
ATOM     25  H   UNL A   1      37.163  21.673  25.789  1.00  0.00     0.163 HD
ATOM     26  O   UNL A   1      39.530  21.955  25.889  1.00  0.00    -0.269 OA
BRANCH  24  27
ATOM     27  C   UNL A   1      39.234  24.073  26.866  1.00  0.00     0.039 A 
ATOM     28  C   UNL A   1      39.912  24.991  26.056  1.00  0.00     0.014 A 
ATOM     29  C   UNL A   1      39.092  24.341  28.229  1.00  0.00     0.014 A 
ATOM     30  C   UNL A   1      40.390  26.190  26.600  1.00  0.00     0.010 A 
ATOM     31  C   UNL A   1      39.472  25.579  28.747  1.00  0.00     0.010 A 
ATOM     32  C   UNL A   1      40.144  26.511  27.944  1.00  0.00    -0.014 A 
BRANCH  32  33
ATOM     33  C   UNL A   1      40.615  27.791  28.539  1.00  0.00     0.031 A 
ATOM     34  C   UNL A   1      42.046  27.927  29.000  1.00  0.00     0.074 A 
ATOM     35  C   UNL A   1      39.755  28.818  28.702  1.00  0.00     0.049 A 
ATOM     36  N   UNL A   1      42.628  28.934  29.599  1.00  0.00    -0.248 NA
ATOM     37  C   UNL A   1      42.933  26.773  28.776  1.00  0.00     0.031 C 
ATOM     38  C   UNL A   1      38.341  28.811  28.318  1.00  0.00     0.029 A 
ATOM     39  N   UNL A   1      39.945  30.070  29.233  1.00  0.00    -0.354 N 
ATOM     40  C   UNL A   1      43.940  28.534  29.827  1.00  0.00     0.074 A 
ATOM     41  C   UNL A   1      44.053  27.170  29.362  1.00  0.00     0.031 C 
ATOM     42  C   UNL A   1      37.803  30.010  28.595  1.00  0.00     0.029 A 
ATOM     43  C   UNL A   1      38.814  30.855  29.222  1.00  0.00     0.049 A 
ATOM     44  H   UNL A   1      40.809  30.378  29.591  1.00  0.00     0.167 HD
ATOM     45  C   UNL A   1      44.971  29.244  30.346  1.00  0.00     0.031 A 
ATOM     46  C   UNL A   1      38.611  32.109  29.674  1.00  0.00     0.031 A 
ATOM     47  C   UNL A   1      44.861  30.604  30.802  1.00  0.00     0.049 A 
ATOM     48  C   UNL A   1      39.760  32.854  30.302  1.00  0.00     0.074 A 
ATOM     49  C   UNL A   1      45.852  31.417  31.324  1.00  0.00     0.029 A 
ATOM     50  N   UNL A   1      43.696  31.354  30.785  1.00  0.00    -0.354 N 
ATOM     51  N   UNL A   1      41.003  32.471  30.465  1.00  0.00    -0.248 NA
ATOM     52  C   UNL A   1      39.478  34.210  30.797  1.00  0.00     0.031 C 
ATOM     53  C   UNL A   1      45.274  32.641  31.673  1.00  0.00     0.029 A 
ATOM     54  C   UNL A   1      43.938  32.614  31.304  1.00  0.00     0.049 A 
ATOM     55  H   UNL A   1      42.824  31.037  30.455  1.00  0.00     0.167 HD
ATOM     56  C   UNL A   1      41.660  33.553  31.044  1.00  0.00     0.074 A 
ATOM     57  C   UNL A   1      40.680  34.609  31.187  1.00  0.00     0.031 C 
ATOM     58  C   UNL A   1      42.957  33.663  31.421  1.00  0.00     0.031 A 
BRANCH  45  59
ATOM     59  C   UNL A   1      46.315  28.568  30.433  1.00  0.00    -0.014 A 
ATOM     60  C   UNL A   1      46.664  27.801  31.560  1.00  0.00     0.010 A 
ATOM     61  C   UNL A   1      47.217  28.647  29.355  1.00  0.00     0.010 A 
ATOM     62  C   UNL A   1      47.899  27.152  31.622  1.00  0.00     0.020 A 
ATOM     63  C   UNL A   1      48.441  27.972  29.400  1.00  0.00     0.020 A 
ATOM     64  C   UNL A   1      48.779  27.239  30.539  1.00  0.00     0.054 A 
BRANCH  64  65
ATOM     65  S   UNL A   1      50.355  26.346  30.633  1.00  0.00     0.124 S 
ATOM     66  O   UNL A   1      51.245  27.363  31.188  1.00  0.00    -0.237 OA
ATOM     67  O   UNL A   1      50.039  25.234  31.526  1.00  0.00    -0.237 OA
ATOM     68  O   UNL A   1      50.626  25.973  29.246  1.00  0.00    -0.744 OA
ENDBRANCH  64  65
ENDBRANCH  45  59
BRANCH  46  69
ATOM     69  C   UNL A   1      37.270  32.751  29.554  1.00  0.00    -0.014 A 
ATOM     70  C   UNL A   1      36.886  33.385  28.358  1.00  0.00     0.010 A 
ATOM     71  C   UNL A   1      36.384  32.767  30.646  1.00  0.00     0.010 A 
ATOM     72  C   UNL A   1      35.665  34.061  28.273  1.00  0.00     0.020 A 
ATOM     73  C   UNL A   1      35.148  33.410  30.554  1.00  0.00     0.020 A 
ATOM     74  C   UNL A   1      34.806  34.073  29.374  1.00  0.00     0.054 A 
BRANCH  74  75
ATOM     75  S   UNL A   1      33.224  34.953  29.241  1.00  0.00     0.124 S 
ATOM     76  O   UNL A   1      32.726  34.890  30.611  1.00  0.00    -0.237 OA
ATOM     77  O   UNL A   1      33.637  36.275  28.775  1.00  0.00    -0.237 OA
ATOM     78  O   UNL A   1      32.475  34.164  28.266  1.00  0.00    -0.744 OA
ENDBRANCH  74  75
ENDBRANCH  46  69
BRANCH  58  79
ATOM     79  C   UNL A   1      43.415  34.990  31.969  1.00  0.00    -0.014 A 
ATOM     80  C   UNL A   1      43.957  35.982  31.136  1.00  0.00     0.010 A 
ATOM     81  C   UNL A   1      43.239  35.265  33.339  1.00  0.00     0.010 A 
ATOM     82  C   UNL A   1      44.345  37.216  31.668  1.00  0.00     0.020 A 
ATOM     83  C   UNL A   1      43.595  36.507  33.868  1.00  0.00     0.020 A 
ATOM     84  C   UNL A   1      44.157  37.471  33.031  1.00  0.00     0.054 A 
BRANCH  84  85
ATOM     85  S   UNL A   1      44.621  39.098  33.683  1.00  0.00     0.124 S 
ATOM     86  O   UNL A   1      44.766  39.887  32.462  1.00  0.00    -0.237 OA
ATOM     87  O   UNL A   1      43.477  39.444  34.522  1.00  0.00    -0.237 OA
ATOM     88  O   UNL A   1      45.862  38.841  34.409  1.00  0.00    -0.744 OA
ENDBRANCH  84  85
ENDBRANCH  58  79
ENDBRANCH  32  33
ENDBRANCH  24  27
ENDBRANCH  22  23
ENDBRANCH  21  22
ENDBRANCH   1  21
TORSDOF 19
ENDMDL
MODEL 3
REMARK VINA RESULT:      -9.6      3.538      9.405
REMARK SMILES C=CCN(CC(=O)NCCCNC(=O)c1ccc(-c2c3nc(c(-c4ccc(S(=O)(=O)[O-])cc4)c4ccc([nH]4)c(-c4ccc(S(=O)(=O)[O-])cc4)c4nc(c(-c5ccc(S(=O)(=O)[O-])cc5)c5ccc2[nH]5)C=C4)C=C3)cc1)S(=O)(=O)Cc1cc(C)on1
REMARK SMILES IDX 9 1 8 2 6 3 7 4 5 6 4 7 3 8 2 9 1 10 75 11 76 12 77 13 78 14
REMARK SMILES IDX 79 15 80 16 84 17 81 18 83 19 82 20 10 21 11 22 12 23 13 24
REMARK SMILES IDX 14 26 15 27 16 28 74 29 17 30 73 31 18 32 19 33 20 34 67 35
REMARK SMILES IDX 21 36 72 37 66 38 68 39 22 40 71 41 65 42 64 43 23 45 53 46
REMARK SMILES IDX 34 47 52 48 35 49 38 50 51 51 69 52 36 53 37 54 50 56 70 57
REMARK SMILES IDX 39 58 24 59 25 60 33 61 26 62 32 63 27 64 28 65 29 66 30 67
REMARK SMILES IDX 31 68 54 69 55 70 63 71 56 72 62 73 57 74 58 75 59 76 60 77
REMARK SMILES IDX 61 78 40 79 41 80 49 81 42 82 48 83 43 84 44 85 45 86 46 87
REMARK SMILES IDX 47 88
REMARK H PARENT 8 5 12 25 68 44 38 55
REMARK Flexibility Score: inf
ROOT
ATOM      1  C   UNL A   1      34.815  23.025  24.523  1.00  0.00     0.117 C 
ENDROOT
BRANCH   1   2
ATOM      2  N   UNL A   1      34.508  22.908  23.108  1.00  0.00    -0.355 N 
ATOM      3  C   UNL A   1      33.433  23.354  22.392  1.00  0.00     0.235 C 
ATOM      4  O   UNL A   1      33.450  23.203  21.166  1.00  0.00    -0.274 OA
ATOM      5  H   UNL A   1      35.187  22.431  22.577  1.00  0.00     0.163 HD
BRANCH   3   6
ATOM      6  C   UNL A   1      32.273  24.081  23.060  1.00  0.00     0.202 C 
BRANCH   6   7
ATOM      7  N   UNL A   1      32.412  25.535  23.392  1.00  0.00    -0.188 NA
BRANCH   7   8
ATOM      8  C   UNL A   1      31.805  25.866  24.694  1.00  0.00     0.129 C 
BRANCH   8   9
ATOM      9  C   UNL A   1      32.731  26.100  25.834  1.00  0.00    -0.018 C 
ATOM     10  C   UNL A   1      33.965  26.609  25.706  1.00  0.00     0.005 C 
ENDBRANCH   8   9
ENDBRANCH   7   8
BRANCH   7  11
ATOM     11  S   UNL A   1      32.452  26.619  22.079  1.00  0.00     0.220 S 
ATOM     12  O   UNL A   1      33.817  26.698  21.611  1.00  0.00    -0.212 OA
ATOM     13  O   UNL A   1      31.397  26.306  21.136  1.00  0.00    -0.212 OA
BRANCH  11  14
ATOM     14  C   UNL A   1      31.975  28.181  22.842  1.00  0.00     0.214 C 
BRANCH  14  15
ATOM     15  C   UNL A   1      30.531  28.525  22.666  1.00  0.00     0.100 A 
ATOM     16  C   UNL A   1      29.393  28.115  23.407  1.00  0.00     0.073 A 
ATOM     17  N   UNL A   1      30.165  29.353  21.672  1.00  0.00    -0.084 NA
ATOM     18  C   UNL A   1      28.341  28.786  22.844  1.00  0.00     0.133 A 
ATOM     19  O   UNL A   1      28.792  29.511  21.787  1.00  0.00    -0.361 OA
ATOM     20  C   UNL A   1      26.905  28.870  23.162  1.00  0.00     0.091 C 
ENDBRANCH  14  15
ENDBRANCH  11  14
ENDBRANCH   7  11
ENDBRANCH   6   7
ENDBRANCH   3   6
ENDBRANCH   1   2
BRANCH   1  21
ATOM     21  C   UNL A   1      36.196  23.632  24.764  1.00  0.00     0.042 C 
BRANCH  21  22
ATOM     22  C   UNL A   1      36.746  23.427  26.164  1.00  0.00     0.118 C 
BRANCH  22  23
ATOM     23  N   UNL A   1      37.730  22.357  26.225  1.00  0.00    -0.352 N 
ATOM     24  C   UNL A   1      39.089  22.395  26.435  1.00  0.00     0.251 C 
ATOM     25  H   UNL A   1      37.361  21.453  26.093  1.00  0.00     0.163 HD
ATOM     26  O   UNL A   1      39.741  21.370  26.246  1.00  0.00    -0.269 OA
BRANCH  24  27
ATOM     27  C   UNL A   1      39.779  23.639  26.861  1.00  0.00     0.039 A 
ATOM     28  C   UNL A   1      39.906  24.685  25.940  1.00  0.00     0.014 A 
ATOM     29  C   UNL A   1      40.344  23.775  28.130  1.00  0.00     0.014 A 
ATOM     30  C   UNL A   1      40.543  25.875  26.311  1.00  0.00     0.010 A 
ATOM     31  C   UNL A   1      40.882  24.997  28.533  1.00  0.00     0.010 A 
ATOM     32  C   UNL A   1      41.007  26.056  27.624  1.00  0.00    -0.014 A 
BRANCH  32  33
ATOM     33  C   UNL A   1      41.661  27.322  28.052  1.00  0.00     0.031 A 
ATOM     34  C   UNL A   1      43.157  27.477  27.932  1.00  0.00     0.074 A 
ATOM     35  C   UNL A   1      40.922  28.318  28.584  1.00  0.00     0.049 A 
ATOM     36  N   UNL A   1      43.918  28.473  28.309  1.00  0.00    -0.248 NA
ATOM     37  C   UNL A   1      43.899  26.357  27.328  1.00  0.00     0.031 C 
ATOM     38  C   UNL A   1      39.470  28.290  28.775  1.00  0.00     0.029 A 
ATOM     39  N   UNL A   1      41.292  29.552  29.061  1.00  0.00    -0.354 N 
ATOM     40  C   UNL A   1      45.219  28.098  27.993  1.00  0.00     0.074 A 
ATOM     41  C   UNL A   1      45.155  26.758  27.456  1.00  0.00     0.031 C 
ATOM     42  C   UNL A   1      39.070  29.462  29.295  1.00  0.00     0.029 A 
ATOM     43  C   UNL A   1      40.238  30.306  29.524  1.00  0.00     0.049 A 
ATOM     44  H   UNL A   1      42.225  29.867  29.073  1.00  0.00     0.167 HD
ATOM     45  C   UNL A   1      46.364  28.813  28.109  1.00  0.00     0.031 A 
ATOM     46  C   UNL A   1      40.215  31.535  30.080  1.00  0.00     0.031 A 
ATOM     47  C   UNL A   1      46.429  30.150  28.637  1.00  0.00     0.049 A 
ATOM     48  C   UNL A   1      41.511  32.284  30.253  1.00  0.00     0.074 A 
ATOM     49  C   UNL A   1      47.537  30.966  28.776  1.00  0.00     0.029 A 
ATOM     50  N   UNL A   1      45.340  30.868  29.107  1.00  0.00    -0.354 N 
ATOM     51  N   UNL A   1      42.724  31.927  29.905  1.00  0.00    -0.248 NA
ATOM     52  C   UNL A   1      41.432  33.609  30.883  1.00  0.00     0.031 C 
ATOM     53  C   UNL A   1      47.129  32.159  29.380  1.00  0.00     0.029 A 
ATOM     54  C   UNL A   1      45.754  32.112  29.553  1.00  0.00     0.049 A 
ATOM     55  H   UNL A   1      44.412  30.542  29.124  1.00  0.00     0.167 HD
ATOM     56  C   UNL A   1      43.545  33.000  30.237  1.00  0.00     0.074 A 
ATOM     57  C   UNL A   1      42.688  34.024  30.798  1.00  0.00     0.031 C 
ATOM     58  C   UNL A   1      44.886  33.129  30.090  1.00  0.00     0.031 A 
BRANCH  45  59
ATOM     59  C   UNL A   1      47.643  28.170  27.638  1.00  0.00    -0.014 A 
ATOM     60  C   UNL A   1      48.052  28.277  26.295  1.00  0.00     0.010 A 
ATOM     61  C   UNL A   1      48.478  27.504  28.554  1.00  0.00     0.010 A 
ATOM     62  C   UNL A   1      49.253  27.704  25.872  1.00  0.00     0.020 A 
ATOM     63  C   UNL A   1      49.698  26.958  28.140  1.00  0.00     0.020 A 
ATOM     64  C   UNL A   1      50.071  27.051  26.799  1.00  0.00     0.054 A 
BRANCH  64  65
ATOM     65  S   UNL A   1      51.647  26.359  26.224  1.00  0.00     0.124 S 
ATOM     66  O   UNL A   1      51.608  26.666  24.797  1.00  0.00    -0.237 OA
ATOM     67  O   UNL A   1      52.628  27.113  27.002  1.00  0.00    -0.237 OA
ATOM     68  O   UNL A   1      51.546  24.941  26.559  1.00  0.00    -0.744 OA
ENDBRANCH  64  65
ENDBRANCH  45  59
BRANCH  46  69
ATOM     69  C   UNL A   1      38.927  32.146  30.517  1.00  0.00    -0.014 A 
ATOM     70  C   UNL A   1      38.496  32.026  31.851  1.00  0.00     0.010 A 
ATOM     71  C   UNL A   1      38.104  32.816  29.595  1.00  0.00     0.010 A 
ATOM     72  C   UNL A   1      37.249  32.524  32.242  1.00  0.00     0.020 A 
ATOM     73  C   UNL A   1      36.873  33.347  29.989  1.00  0.00     0.020 A 
ATOM     74  C   UNL A   1      36.443  33.177  31.306  1.00  0.00     0.054 A 
BRANCH  74  75
ATOM     75  S   UNL A   1      34.831  33.818  31.836  1.00  0.00     0.124 S 
ATOM     76  O   UNL A   1      34.038  32.597  31.937  1.00  0.00    -0.237 OA
ATOM     77  O   UNL A   1      35.151  34.473  33.101  1.00  0.00    -0.237 OA
ATOM     78  O   UNL A   1      34.450  34.724  30.754  1.00  0.00    -0.744 OA
ENDBRANCH  74  75
ENDBRANCH  46  69
BRANCH  58  79
ATOM     79  C   UNL A   1      45.509  34.443  30.483  1.00  0.00    -0.014 A 
ATOM     80  C   UNL A   1      46.024  34.656  31.773  1.00  0.00     0.010 A 
ATOM     81  C   UNL A   1      45.634  35.461  29.518  1.00  0.00     0.010 A 
ATOM     82  C   UNL A   1      46.625  35.875  32.101  1.00  0.00     0.020 A 
ATOM     83  C   UNL A   1      46.263  36.668  29.832  1.00  0.00     0.020 A 
ATOM     84  C   UNL A   1      46.744  36.872  31.126  1.00  0.00     0.054 A 
BRANCH  84  85
ATOM     85  S   UNL A   1      47.575  38.423  31.564  1.00  0.00     0.124 S 
ATOM     86  O   UNL A   1      47.441  38.441  33.018  1.00  0.00    -0.237 OA
ATOM     87  O   UNL A   1      48.929  38.214  31.059  1.00  0.00    -0.237 OA
ATOM     88  O   UNL A   1      46.803  39.442  30.856  1.00  0.00    -0.744 OA
ENDBRANCH  84  85
ENDBRANCH  58  79
ENDBRANCH  32  33
ENDBRANCH  24  27
ENDBRANCH  22  23
ENDBRANCH  21  22
ENDBRANCH   1  21
TORSDOF 19
ENDMDL
