MODEL 1
REMARK VINA RESULT:     -10.2      0.000      0.000
REMARK SMILES CCC[C@H](C)C[C@@H](C(=O)NCCCNC(=O)c1ccc(-c2c3nc(c(-c4ccc(S(=O)(=O)[O-])cc4)c4ccc([nH]4)c(-c4ccc(S(=O)(=O)[O-])cc4)c4nc(c(-c5ccc(S(=O)(=O)[O-])cc5)c5ccc2[nH]5)C=C4)C=C3)cc1)c1ccccc1F
REMARK SMILES IDX 11 1 10 2 8 3 9 4 7 6 6 7 4 8 5 9 3 10 2 11 1 12 77 13 78 14
REMARK SMILES IDX 82 15 79 16 81 17 83 18 80 19 12 20 13 21 14 22 15 23 16 25
REMARK SMILES IDX 17 26 18 27 76 28 19 29 75 30 20 31 21 32 22 33 69 34 23 35
REMARK SMILES IDX 74 36 68 37 70 38 24 39 73 40 67 41 66 42 25 44 55 45 36 46
REMARK SMILES IDX 54 47 37 48 40 49 53 50 71 51 38 52 39 53 52 55 72 56 41 57
REMARK SMILES IDX 26 58 27 59 35 60 28 61 34 62 29 63 30 64 31 65 32 66 33 67
REMARK SMILES IDX 56 68 57 69 65 70 58 71 64 72 59 73 60 74 61 75 62 76 63 77
REMARK SMILES IDX 42 78 43 79 51 80 44 81 50 82 45 83 46 84 47 85 48 86 49 87
REMARK H PARENT 10 5 14 24 70 43 40 54
REMARK Flexibility Score: inf
ROOT
ATOM      1  C   UNL A   1      32.868  26.787  25.060  1.00  0.00     0.117 C 
ENDROOT
BRANCH   1   2
ATOM      2  N   UNL A   1      33.120  26.678  23.637  1.00  0.00    -0.356 N 
ATOM      3  C   UNL A   1      33.589  25.653  22.875  1.00  0.00     0.227 C 
ATOM      4  O   UNL A   1      33.947  25.989  21.741  1.00  0.00    -0.274 OA
ATOM      5  H   UNL A   1      32.913  27.495  23.128  1.00  0.00     0.163 HD
BRANCH   3   6
ATOM      6  C   UNL A   1      33.616  24.179  23.374  1.00  0.00     0.112 C 
BRANCH   6   7
ATOM      7  C   UNL A   1      32.399  23.775  24.252  1.00  0.00     0.021 C 
BRANCH   7   8
ATOM      8  C   UNL A   1      31.897  22.316  24.124  1.00  0.00    -0.013 C 
ATOM      9  C   UNL A   1      32.045  21.747  22.709  1.00  0.00     0.007 C 
BRANCH   8  10
ATOM     10  C   UNL A   1      32.590  21.390  25.154  1.00  0.00     0.003 C 
BRANCH  10  11
ATOM     11  C   UNL A   1      33.482  20.317  24.509  1.00  0.00    -0.003 C 
ATOM     12  C   UNL A   1      34.885  20.233  25.095  1.00  0.00     0.004 C 
ENDBRANCH  10  11
ENDBRANCH   8  10
ENDBRANCH   7   8
ENDBRANCH   6   7
BRANCH   6  13
ATOM     13  C   UNL A   1      34.898  23.899  24.181  1.00  0.00     0.000 A 
ATOM     14  C   UNL A   1      34.993  24.187  25.555  1.00  0.00     0.007 A 
ATOM     15  C   UNL A   1      36.006  23.305  23.569  1.00  0.00     0.127 A 
ATOM     16  C   UNL A   1      36.176  23.958  26.264  1.00  0.00     0.001 A 
ATOM     17  C   UNL A   1      37.182  23.049  24.276  1.00  0.00     0.039 A 
ATOM     18  F   UNL A   1      35.951  22.956  22.275  1.00  0.00    -0.207 F 
ATOM     19  C   UNL A   1      37.274  23.391  25.623  1.00  0.00     0.003 A 
ENDBRANCH   6  13
ENDBRANCH   3   6
ENDBRANCH   1   2
BRANCH   1  20
ATOM     20  C   UNL A   1      33.731  27.901  25.659  1.00  0.00     0.042 C 
BRANCH  20  21
ATOM     21  C   UNL A   1      33.396  28.240  27.105  1.00  0.00     0.118 C 
BRANCH  21  22
ATOM     22  N   UNL A   1      33.427  29.673  27.342  1.00  0.00    -0.352 N 
ATOM     23  C   UNL A   1      34.378  30.474  27.926  1.00  0.00     0.251 C 
ATOM     24  H   UNL A   1      32.626  30.154  27.028  1.00  0.00     0.163 HD
ATOM     25  O   UNL A   1      34.049  31.613  28.254  1.00  0.00    -0.269 OA
BRANCH  23  26
ATOM     26  C   UNL A   1      35.770  30.015  28.176  1.00  0.00     0.039 A 
ATOM     27  C   UNL A   1      36.103  29.565  29.462  1.00  0.00     0.014 A 
ATOM     28  C   UNL A   1      36.780  30.111  27.218  1.00  0.00     0.014 A 
ATOM     29  C   UNL A   1      37.417  29.193  29.768  1.00  0.00     0.010 A 
ATOM     30  C   UNL A   1      38.067  29.644  27.492  1.00  0.00     0.010 A 
ATOM     31  C   UNL A   1      38.412  29.208  28.779  1.00  0.00    -0.014 A 
BRANCH  31  32
ATOM     32  C   UNL A   1      39.823  28.835  29.079  1.00  0.00     0.031 A 
ATOM     33  C   UNL A   1      40.742  29.824  29.756  1.00  0.00     0.074 A 
ATOM     34  C   UNL A   1      40.302  27.630  28.706  1.00  0.00     0.049 A 
ATOM     35  N   UNL A   1      42.021  29.722  30.019  1.00  0.00    -0.248 NA
ATOM     36  C   UNL A   1      40.148  31.106  30.168  1.00  0.00     0.031 C 
ATOM     37  C   UNL A   1      39.534  26.583  28.030  1.00  0.00     0.029 A 
ATOM     38  N   UNL A   1      41.555  27.085  28.844  1.00  0.00    -0.354 N 
ATOM     39  C   UNL A   1      42.390  30.935  30.593  1.00  0.00     0.074 A 
ATOM     40  C   UNL A   1      41.210  31.773  30.596  1.00  0.00     0.031 C 
ATOM     41  C   UNL A   1      40.321  25.510  27.847  1.00  0.00     0.029 A 
ATOM     42  C   UNL A   1      41.658  25.807  28.348  1.00  0.00     0.049 A 
ATOM     43  H   UNL A   1      42.308  27.564  29.259  1.00  0.00     0.167 HD
ATOM     44  C   UNL A   1      43.591  31.315  31.093  1.00  0.00     0.031 A 
ATOM     45  C   UNL A   1      42.711  24.967  28.298  1.00  0.00     0.031 A 
ATOM     46  C   UNL A   1      44.759  30.475  31.118  1.00  0.00     0.049 A 
ATOM     47  C   UNL A   1      44.038  25.411  28.850  1.00  0.00     0.074 A 
ATOM     48  C   UNL A   1      46.009  30.753  31.642  1.00  0.00     0.029 A 
ATOM     49  N   UNL A   1      44.816  29.189  30.603  1.00  0.00    -0.354 N 
ATOM     50  N   UNL A   1      44.357  26.552  29.411  1.00  0.00    -0.248 NA
ATOM     51  C   UNL A   1      45.145  24.448  28.766  1.00  0.00     0.031 C 
ATOM     52  C   UNL A   1      46.835  29.646  31.411  1.00  0.00     0.029 A 
ATOM     53  C   UNL A   1      46.085  28.663  30.786  1.00  0.00     0.049 A 
ATOM     54  H   UNL A   1      44.067  28.719  30.172  1.00  0.00     0.167 HD
ATOM     55  C   UNL A   1      45.694  26.434  29.773  1.00  0.00     0.074 A 
ATOM     56  C   UNL A   1      46.121  25.108  29.375  1.00  0.00     0.031 C 
ATOM     57  C   UNL A   1      46.494  27.341  30.385  1.00  0.00     0.031 A 
BRANCH  44  58
ATOM     58  C   UNL A   1      43.693  32.712  31.651  1.00  0.00    -0.014 A 
ATOM     59  C   UNL A   1      44.101  33.789  30.842  1.00  0.00     0.010 A 
ATOM     60  C   UNL A   1      43.377  32.952  33.000  1.00  0.00     0.010 A 
ATOM     61  C   UNL A   1      44.256  35.066  31.389  1.00  0.00     0.020 A 
ATOM     62  C   UNL A   1      43.501  34.236  33.543  1.00  0.00     0.020 A 
ATOM     63  C   UNL A   1      43.966  35.279  32.739  1.00  0.00     0.054 A 
BRANCH  63  64
ATOM     64  S   UNL A   1      44.192  36.941  33.431  1.00  0.00     0.124 S 
ATOM     65  O   UNL A   1      42.828  37.287  33.827  1.00  0.00    -0.237 OA
ATOM     66  O   UNL A   1      45.123  36.707  34.535  1.00  0.00    -0.237 OA
ATOM     67  O   UNL A   1      44.733  37.711  32.317  1.00  0.00    -0.744 OA
ENDBRANCH  63  64
ENDBRANCH  44  58
BRANCH  45  68
ATOM     68  C   UNL A   1      42.542  23.602  27.729  1.00  0.00    -0.014 A 
ATOM     69  C   UNL A   1      43.018  23.312  26.438  1.00  0.00     0.010 A 
ATOM     70  C   UNL A   1      41.932  22.581  28.480  1.00  0.00     0.010 A 
ATOM     71  C   UNL A   1      42.878  22.028  25.904  1.00  0.00     0.020 A 
ATOM     72  C   UNL A   1      41.813  21.289  27.958  1.00  0.00     0.020 A 
ATOM     73  C   UNL A   1      42.280  21.023  26.669  1.00  0.00     0.054 A 
BRANCH  73  74
ATOM     74  S   UNL A   1      42.171  19.348  25.980  1.00  0.00     0.124 S 
ATOM     75  O   UNL A   1      42.680  18.534  27.078  1.00  0.00    -0.237 OA
ATOM     76  O   UNL A   1      40.743  19.214  25.701  1.00  0.00    -0.237 OA
ATOM     77  O   UNL A   1      43.024  19.411  24.795  1.00  0.00    -0.744 OA
ENDBRANCH  73  74
ENDBRANCH  45  68
BRANCH  57  78
ATOM     78  C   UNL A   1      47.905  26.920  30.696  1.00  0.00    -0.014 A 
ATOM     79  C   UNL A   1      48.976  27.288  29.864  1.00  0.00     0.010 A 
ATOM     80  C   UNL A   1      48.166  26.187  31.868  1.00  0.00     0.010 A 
ATOM     81  C   UNL A   1      50.282  26.905  30.183  1.00  0.00     0.020 A 
ATOM     82  C   UNL A   1      49.473  25.824  32.204  1.00  0.00     0.020 A 
ATOM     83  C   UNL A   1      50.523  26.174  31.351  1.00  0.00     0.054 A 
BRANCH  83  84
ATOM     84  S   UNL A   1      52.230  25.727  31.769  1.00  0.00     0.124 S 
ATOM     85  O   UNL A   1      52.902  25.859  30.480  1.00  0.00    -0.237 OA
ATOM     86  O   UNL A   1      52.589  26.729  32.770  1.00  0.00    -0.237 OA
ATOM     87  O   UNL A   1      52.116  24.362  32.277  1.00  0.00    -0.744 OA
ENDBRANCH  83  84
ENDBRANCH  57  78
ENDBRANCH  31  32
ENDBRANCH  23  26
ENDBRANCH  21  22
ENDBRANCH  20  21
ENDBRANCH   1  20
TORSDOF 18
ENDMDL
MODEL 2
REMARK VINA RESULT:     -10.1      0.894      1.988
REMARK SMILES CCC[C@H](C)C[C@@H](C(=O)NCCCNC(=O)c1ccc(-c2c3nc(c(-c4ccc(S(=O)(=O)[O-])cc4)c4ccc([nH]4)c(-c4ccc(S(=O)(=O)[O-])cc4)c4nc(c(-c5ccc(S(=O)(=O)[O-])cc5)c5ccc2[nH]5)C=C4)C=C3)cc1)c1ccccc1F
REMARK SMILES IDX 11 1 10 2 8 3 9 4 7 6 6 7 4 8 5 9 3 10 2 11 1 12 77 13 78 14
REMARK SMILES IDX 82 15 79 16 81 17 83 18 80 19 12 20 13 21 14 22 15 23 16 25
REMARK SMILES IDX 17 26 18 27 76 28 19 29 75 30 20 31 21 32 22 33 69 34 23 35
REMARK SMILES IDX 74 36 68 37 70 38 24 39 73 40 67 41 66 42 25 44 55 45 36 46
REMARK SMILES IDX 54 47 37 48 40 49 53 50 71 51 38 52 39 53 52 55 72 56 41 57
REMARK SMILES IDX 26 58 27 59 35 60 28 61 34 62 29 63 30 64 31 65 32 66 33 67
REMARK SMILES IDX 56 68 57 69 65 70 58 71 64 72 59 73 60 74 61 75 62 76 63 77
REMARK SMILES IDX 42 78 43 79 51 80 44 81 50 82 45 83 46 84 47 85 48 86 49 87
REMARK H PARENT 10 5 14 24 70 43 40 54
REMARK Flexibility Score: inf
ROOT
ATOM      1  C   UNL A   1      34.128  27.661  23.861  1.00  0.00     0.117 C 
ENDROOT
BRANCH   1   2
ATOM      2  N   UNL A   1      33.526  26.811  22.855  1.00  0.00    -0.356 N 
ATOM      3  C   UNL A   1      33.600  25.469  22.640  1.00  0.00     0.227 C 
ATOM      4  O   UNL A   1      33.192  25.112  21.529  1.00  0.00    -0.274 OA
ATOM      5  H   UNL A   1      32.960  27.291  22.209  1.00  0.00     0.163 HD
BRANCH   3   6
ATOM      6  C   UNL A   1      34.102  24.470  23.724  1.00  0.00     0.112 C 
BRANCH   6   7
ATOM      7  C   UNL A   1      34.676  23.143  23.158  1.00  0.00     0.021 C 
BRANCH   7   8
ATOM      8  C   UNL A   1      35.942  22.577  23.845  1.00  0.00    -0.013 C 
ATOM      9  C   UNL A   1      36.729  23.634  24.627  1.00  0.00     0.007 C 
BRANCH   8  10
ATOM     10  C   UNL A   1      35.597  21.375  24.759  1.00  0.00     0.003 C 
BRANCH  10  11
ATOM     11  C   UNL A   1      34.190  20.807  24.518  1.00  0.00    -0.003 C 
ATOM     12  C   UNL A   1      33.390  20.551  25.788  1.00  0.00     0.004 C 
ENDBRANCH  10  11
ENDBRANCH   8  10
ENDBRANCH   7   8
ENDBRANCH   6   7
BRANCH   6  13
ATOM     13  C   UNL A   1      32.971  24.119  24.709  1.00  0.00     0.000 A 
ATOM     14  C   UNL A   1      31.721  23.643  24.271  1.00  0.00     0.007 A 
ATOM     15  C   UNL A   1      33.172  24.227  26.088  1.00  0.00     0.127 A 
ATOM     16  C   UNL A   1      30.694  23.362  25.176  1.00  0.00     0.001 A 
ATOM     17  C   UNL A   1      32.160  23.923  27.000  1.00  0.00     0.039 A 
ATOM     18  F   UNL A   1      34.363  24.620  26.564  1.00  0.00    -0.207 F 
ATOM     19  C   UNL A   1      30.912  23.505  26.544  1.00  0.00     0.003 A 
ENDBRANCH   6  13
ENDBRANCH   3   6
ENDBRANCH   1   2
BRANCH   1  20
ATOM     20  C   UNL A   1      33.214  27.751  25.086  1.00  0.00     0.042 C 
BRANCH  20  21
ATOM     21  C   UNL A   1      33.944  28.040  26.390  1.00  0.00     0.118 C 
BRANCH  21  22
ATOM     22  N   UNL A   1      33.701  29.395  26.853  1.00  0.00    -0.352 N 
ATOM     23  C   UNL A   1      34.420  30.207  27.696  1.00  0.00     0.251 C 
ATOM     24  H   UNL A   1      32.876  29.803  26.500  1.00  0.00     0.163 HD
ATOM     25  O   UNL A   1      33.862  31.208  28.147  1.00  0.00    -0.269 OA
BRANCH  23  26
ATOM     26  C   UNL A   1      35.826  29.919  28.082  1.00  0.00     0.039 A 
ATOM     27  C   UNL A   1      36.826  30.056  27.109  1.00  0.00     0.014 A 
ATOM     28  C   UNL A   1      36.177  29.419  29.338  1.00  0.00     0.014 A 
ATOM     29  C   UNL A   1      38.155  29.724  27.402  1.00  0.00     0.010 A 
ATOM     30  C   UNL A   1      37.515  29.186  29.662  1.00  0.00     0.010 A 
ATOM     31  C   UNL A   1      38.519  29.305  28.690  1.00  0.00    -0.014 A 
BRANCH  31  32
ATOM     32  C   UNL A   1      39.921  28.929  29.027  1.00  0.00     0.031 A 
ATOM     33  C   UNL A   1      40.826  29.920  29.719  1.00  0.00     0.074 A 
ATOM     34  C   UNL A   1      40.404  27.720  28.675  1.00  0.00     0.049 A 
ATOM     35  N   UNL A   1      42.098  29.816  30.014  1.00  0.00    -0.248 NA
ATOM     36  C   UNL A   1      40.227  31.208  30.106  1.00  0.00     0.031 C 
ATOM     37  C   UNL A   1      39.649  26.670  27.989  1.00  0.00     0.029 A 
ATOM     38  N   UNL A   1      41.651  27.171  28.849  1.00  0.00    -0.354 N 
ATOM     39  C   UNL A   1      42.457  31.032  30.587  1.00  0.00     0.074 A 
ATOM     40  C   UNL A   1      41.281  31.875  30.555  1.00  0.00     0.031 C 
ATOM     41  C   UNL A   1      40.436  25.593  27.834  1.00  0.00     0.029 A 
ATOM     42  C   UNL A   1      41.762  25.889  28.365  1.00  0.00     0.049 A 
ATOM     43  H   UNL A   1      42.396  27.652  29.278  1.00  0.00     0.167 HD
ATOM     44  C   UNL A   1      43.646  31.412  31.114  1.00  0.00     0.031 A 
ATOM     45  C   UNL A   1      42.813  25.046  28.348  1.00  0.00     0.031 A 
ATOM     46  C   UNL A   1      44.810  30.569  31.175  1.00  0.00     0.049 A 
ATOM     47  C   UNL A   1      44.127  25.489  28.929  1.00  0.00     0.074 A 
ATOM     48  C   UNL A   1      46.048  30.846  31.727  1.00  0.00     0.029 A 
ATOM     49  N   UNL A   1      44.876  29.279  30.671  1.00  0.00    -0.354 N 
ATOM     50  N   UNL A   1      44.436  26.634  29.489  1.00  0.00    -0.248 NA
ATOM     51  C   UNL A   1      45.232  24.522  28.880  1.00  0.00     0.031 C 
ATOM     52  C   UNL A   1      46.875  29.735  31.524  1.00  0.00     0.029 A 
ATOM     53  C   UNL A   1      46.138  28.750  30.890  1.00  0.00     0.049 A 
ATOM     54  H   UNL A   1      44.136  28.808  30.225  1.00  0.00     0.167 HD
ATOM     55  C   UNL A   1      45.764  26.514  29.885  1.00  0.00     0.074 A 
ATOM     56  C   UNL A   1      46.195  25.183  29.508  1.00  0.00     0.031 C 
ATOM     57  C   UNL A   1      46.552  27.424  30.509  1.00  0.00     0.031 A 
BRANCH  44  58
ATOM     58  C   UNL A   1      43.740  32.814  31.663  1.00  0.00    -0.014 A 
ATOM     59  C   UNL A   1      43.408  33.094  33.001  1.00  0.00     0.010 A 
ATOM     60  C   UNL A   1      44.164  33.865  30.830  1.00  0.00     0.010 A 
ATOM     61  C   UNL A   1      43.435  34.408  33.478  1.00  0.00     0.020 A 
ATOM     62  C   UNL A   1      44.222  35.177  31.312  1.00  0.00     0.020 A 
ATOM     63  C   UNL A   1      43.831  35.443  32.626  1.00  0.00     0.054 A 
BRANCH  63  64
ATOM     64  S   UNL A   1      43.840  37.142  33.260  1.00  0.00     0.124 S 
ATOM     65  O   UNL A   1      42.621  37.167  34.067  1.00  0.00    -0.237 OA
ATOM     66  O   UNL A   1      45.091  37.198  34.017  1.00  0.00    -0.237 OA
ATOM     67  O   UNL A   1      43.808  37.963  32.056  1.00  0.00    -0.744 OA
ENDBRANCH  63  64
ENDBRANCH  44  58
BRANCH  45  68
ATOM     68  C   UNL A   1      42.653  23.677  27.786  1.00  0.00    -0.014 A 
ATOM     69  C   UNL A   1      42.180  22.632  28.598  1.00  0.00     0.010 A 
ATOM     70  C   UNL A   1      42.945  23.416  26.435  1.00  0.00     0.010 A 
ATOM     71  C   UNL A   1      42.010  21.348  28.074  1.00  0.00     0.020 A 
ATOM     72  C   UNL A   1      42.752  22.138  25.900  1.00  0.00     0.020 A 
ATOM     73  C   UNL A   1      42.294  21.109  26.727  1.00  0.00     0.054 A 
BRANCH  73  74
ATOM     74  S   UNL A   1      42.002  19.450  26.052  1.00  0.00     0.124 S 
ATOM     75  O   UNL A   1      42.828  19.462  24.849  1.00  0.00    -0.237 OA
ATOM     76  O   UNL A   1      42.466  18.584  27.132  1.00  0.00    -0.237 OA
ATOM     77  O   UNL A   1      40.559  19.425  25.823  1.00  0.00    -0.744 OA
ENDBRANCH  73  74
ENDBRANCH  45  68
BRANCH  57  78
ATOM     78  C   UNL A   1      47.953  27.000  30.858  1.00  0.00    -0.014 A 
ATOM     79  C   UNL A   1      49.028  27.249  29.988  1.00  0.00     0.010 A 
ATOM     80  C   UNL A   1      48.203  26.389  32.101  1.00  0.00     0.010 A 
ATOM     81  C   UNL A   1      50.325  26.867  30.341  1.00  0.00     0.020 A 
ATOM     82  C   UNL A   1      49.501  26.029  32.468  1.00  0.00     0.020 A 
ATOM     83  C   UNL A   1      50.554  26.258  31.579  1.00  0.00     0.054 A 
BRANCH  83  84
ATOM     84  S   UNL A   1      52.252  25.812  32.037  1.00  0.00     0.124 S 
ATOM     85  O   UNL A   1      52.971  26.034  30.785  1.00  0.00    -0.237 OA
ATOM     86  O   UNL A   1      52.554  26.755  33.110  1.00  0.00    -0.237 OA
ATOM     87  O   UNL A   1      52.143  24.417  32.455  1.00  0.00    -0.744 OA
ENDBRANCH  83  84
ENDBRANCH  57  78
ENDBRANCH  31  32
ENDBRANCH  23  26
ENDBRANCH  21  22
ENDBRANCH  20  21
ENDBRANCH   1  20
TORSDOF 18
ENDMDL
MODEL 3
REMARK VINA RESULT:      -9.6      2.967      4.220
REMARK SMILES CCC[C@H](C)C[C@@H](C(=O)NCCCNC(=O)c1ccc(-c2c3nc(c(-c4ccc(S(=O)(=O)[O-])cc4)c4ccc([nH]4)c(-c4ccc(S(=O)(=O)[O-])cc4)c4nc(c(-c5ccc(S(=O)(=O)[O-])cc5)c5ccc2[nH]5)C=C4)C=C3)cc1)c1ccccc1F
REMARK SMILES IDX 11 1 10 2 8 3 9 4 7 6 6 7 4 8 5 9 3 10 2 11 1 12 77 13 78 14
REMARK SMILES IDX 82 15 79 16 81 17 83 18 80 19 12 20 13 21 14 22 15 23 16 25
REMARK SMILES IDX 17 26 18 27 76 28 19 29 75 30 20 31 21 32 22 33 69 34 23 35
REMARK SMILES IDX 74 36 68 37 70 38 24 39 73 40 67 41 66 42 25 44 55 45 36 46
REMARK SMILES IDX 54 47 37 48 40 49 53 50 71 51 38 52 39 53 52 55 72 56 41 57
REMARK SMILES IDX 26 58 27 59 35 60 28 61 34 62 29 63 30 64 31 65 32 66 33 67
REMARK SMILES IDX 56 68 57 69 65 70 58 71 64 72 59 73 60 74 61 75 62 76 63 77
REMARK SMILES IDX 42 78 43 79 51 80 44 81 50 82 45 83 46 84 47 85 48 86 49 87
REMARK H PARENT 10 5 14 24 70 43 40 54
REMARK Flexibility Score: inf
ROOT
ATOM      1  C   UNL A   1      34.262  29.529  27.110  1.00  0.00     0.117 C 
ENDROOT
BRANCH   1   2
ATOM      2  N   UNL A   1      33.148  28.853  27.743  1.00  0.00    -0.356 N 
ATOM      3  C   UNL A   1      32.100  28.154  27.227  1.00  0.00     0.227 C 
ATOM      4  O   UNL A   1      31.182  27.953  28.031  1.00  0.00    -0.274 OA
ATOM      5  H   UNL A   1      33.149  28.910  28.725  1.00  0.00     0.163 HD
BRANCH   3   6
ATOM      6  C   UNL A   1      32.089  27.610  25.769  1.00  0.00     0.112 C 
BRANCH   6   7
ATOM      7  C   UNL A   1      30.672  27.436  25.158  1.00  0.00     0.021 C 
BRANCH   7   8
ATOM      8  C   UNL A   1      30.595  26.908  23.704  1.00  0.00    -0.013 C 
ATOM      9  C   UNL A   1      29.866  25.567  23.586  1.00  0.00     0.007 C 
BRANCH   8  10
ATOM     10  C   UNL A   1      29.958  27.956  22.758  1.00  0.00     0.003 C 
BRANCH  10  11
ATOM     11  C   UNL A   1      30.215  29.408  23.191  1.00  0.00    -0.003 C 
ATOM     12  C   UNL A   1      28.958  30.258  23.310  1.00  0.00     0.004 C 
ENDBRANCH  10  11
ENDBRANCH   8  10
ENDBRANCH   7   8
ENDBRANCH   6   7
BRANCH   6  13
ATOM     13  C   UNL A   1      32.813  26.252  25.687  1.00  0.00     0.000 A 
ATOM     14  C   UNL A   1      32.383  25.132  26.424  1.00  0.00     0.007 A 
ATOM     15  C   UNL A   1      33.909  26.082  24.836  1.00  0.00     0.127 A 
ATOM     16  C   UNL A   1      33.072  23.918  26.364  1.00  0.00     0.001 A 
ATOM     17  C   UNL A   1      34.586  24.864  24.751  1.00  0.00     0.039 A 
ATOM     18  F   UNL A   1      34.326  27.099  24.067  1.00  0.00    -0.207 F 
ATOM     19  C   UNL A   1      34.178  23.783  25.529  1.00  0.00     0.003 A 
ENDBRANCH   6  13
ENDBRANCH   3   6
ENDBRANCH   1   2
BRANCH   1  20
ATOM     20  C   UNL A   1      34.311  30.991  27.559  1.00  0.00     0.042 C 
BRANCH  20  21
ATOM     21  C   UNL A   1      35.605  31.387  28.256  1.00  0.00     0.118 C 
BRANCH  21  22
ATOM     22  N   UNL A   1      35.527  31.178  29.692  1.00  0.00    -0.352 N 
ATOM     23  C   UNL A   1      36.382  30.546  30.562  1.00  0.00     0.251 C 
ATOM     24  H   UNL A   1      34.721  31.555  30.114  1.00  0.00     0.163 HD
ATOM     25  O   UNL A   1      35.958  30.264  31.683  1.00  0.00    -0.269 OA
BRANCH  23  26
ATOM     26  C   UNL A   1      37.779  30.192  30.199  1.00  0.00     0.039 A 
ATOM     27  C   UNL A   1      38.167  30.299  28.856  1.00  0.00     0.014 A 
ATOM     28  C   UNL A   1      38.686  29.661  31.119  1.00  0.00     0.014 A 
ATOM     29  C   UNL A   1      39.449  29.906  28.452  1.00  0.00     0.010 A 
ATOM     30  C   UNL A   1      39.996  29.366  30.736  1.00  0.00     0.010 A 
ATOM     31  C   UNL A   1      40.387  29.455  29.392  1.00  0.00    -0.014 A 
BRANCH  31  32
ATOM     32  C   UNL A   1      41.753  29.014  28.990  1.00  0.00     0.031 A 
ATOM     33  C   UNL A   1      42.904  29.990  29.023  1.00  0.00     0.074 A 
ATOM     34  C   UNL A   1      41.959  27.756  28.550  1.00  0.00     0.049 A 
ATOM     35  N   UNL A   1      44.143  29.826  28.627  1.00  0.00    -0.248 NA
ATOM     36  C   UNL A   1      42.619  31.336  29.545  1.00  0.00     0.031 C 
ATOM     37  C   UNL A   1      40.938  26.713  28.449  1.00  0.00     0.029 A 
ATOM     38  N   UNL A   1      43.104  27.142  28.104  1.00  0.00    -0.354 N 
ATOM     39  C   UNL A   1      44.770  31.052  28.821  1.00  0.00     0.074 A 
ATOM     40  C   UNL A   1      43.765  31.963  29.324  1.00  0.00     0.031 C 
ATOM     41  C   UNL A   1      41.508  25.580  28.008  1.00  0.00     0.029 A 
ATOM     42  C   UNL A   1      42.923  25.826  27.750  1.00  0.00     0.049 A 
ATOM     43  H   UNL A   1      43.973  27.602  28.042  1.00  0.00     0.167 HD
ATOM     44  C   UNL A   1      46.068  31.390  28.623  1.00  0.00     0.031 A 
ATOM     45  C   UNL A   1      43.796  24.918  27.269  1.00  0.00     0.031 A 
ATOM     46  C   UNL A   1      47.077  30.481  28.150  1.00  0.00     0.049 A 
ATOM     47  C   UNL A   1      45.229  25.315  27.047  1.00  0.00     0.074 A 
ATOM     48  C   UNL A   1      48.427  30.716  27.957  1.00  0.00     0.029 A 
ATOM     49  N   UNL A   1      46.847  29.158  27.804  1.00  0.00    -0.354 N 
ATOM     50  N   UNL A   1      45.806  26.473  27.261  1.00  0.00    -0.248 NA
ATOM     51  C   UNL A   1      46.129  24.279  26.522  1.00  0.00     0.031 C 
ATOM     52  C   UNL A   1      49.007  29.543  27.458  1.00  0.00     0.029 A 
ATOM     53  C   UNL A   1      48.028  28.566  27.386  1.00  0.00     0.049 A 
ATOM     54  H   UNL A   1      45.974  28.706  27.848  1.00  0.00     0.167 HD
ATOM     55  C   UNL A   1      47.143  26.297  26.925  1.00  0.00     0.074 A 
ATOM     56  C   UNL A   1      47.290  24.919  26.501  1.00  0.00     0.031 C 
ATOM     57  C   UNL A   1      48.159  27.194  26.968  1.00  0.00     0.031 A 
BRANCH  44  58
ATOM     58  C   UNL A   1      46.460  32.817  28.916  1.00  0.00    -0.014 A 
ATOM     59  C   UNL A   1      46.501  33.784  27.894  1.00  0.00     0.010 A 
ATOM     60  C   UNL A   1      46.793  33.196  30.229  1.00  0.00     0.010 A 
ATOM     61  C   UNL A   1      46.930  35.085  28.168  1.00  0.00     0.020 A 
ATOM     62  C   UNL A   1      47.194  34.506  30.512  1.00  0.00     0.020 A 
ATOM     63  C   UNL A   1      47.286  35.435  29.473  1.00  0.00     0.054 A 
BRANCH  63  64
ATOM     64  S   UNL A   1      47.858  37.125  29.801  1.00  0.00     0.124 S 
ATOM     65  O   UNL A   1      46.816  37.623  30.698  1.00  0.00    -0.237 OA
ATOM     66  O   UNL A   1      49.165  36.908  30.421  1.00  0.00    -0.237 OA
ATOM     67  O   UNL A   1      47.892  37.743  28.482  1.00  0.00    -0.744 OA
ENDBRANCH  63  64
ENDBRANCH  44  58
BRANCH  45  68
ATOM     68  C   UNL A   1      43.340  23.528  26.996  1.00  0.00    -0.014 A 
ATOM     69  C   UNL A   1      43.141  23.098  25.673  1.00  0.00     0.010 A 
ATOM     70  C   UNL A   1      43.130  22.620  28.051  1.00  0.00     0.010 A 
ATOM     71  C   UNL A   1      42.730  21.789  25.407  1.00  0.00     0.020 A 
ATOM     72  C   UNL A   1      42.744  21.303  27.787  1.00  0.00     0.020 A 
ATOM     73  C   UNL A   1      42.538  20.897  26.466  1.00  0.00     0.054 A 
BRANCH  73  74
ATOM     74  S   UNL A   1      42.070  19.184  26.094  1.00  0.00     0.124 S 
ATOM     75  O   UNL A   1      40.628  19.297  25.906  1.00  0.00    -0.237 OA
ATOM     76  O   UNL A   1      42.846  18.900  24.888  1.00  0.00    -0.237 OA
ATOM     77  O   UNL A   1      42.494  18.449  27.283  1.00  0.00    -0.744 OA
ENDBRANCH  73  74
ENDBRANCH  45  68
BRANCH  57  78
ATOM     78  C   UNL A   1      49.529  26.707  26.581  1.00  0.00    -0.014 A 
ATOM     79  C   UNL A   1      49.990  26.804  25.257  1.00  0.00     0.010 A 
ATOM     80  C   UNL A   1      50.385  26.190  27.570  1.00  0.00     0.010 A 
ATOM     81  C   UNL A   1      51.275  26.366  24.923  1.00  0.00     0.020 A 
ATOM     82  C   UNL A   1      51.679  25.774  27.245  1.00  0.00     0.020 A 
ATOM     83  C   UNL A   1      52.111  25.852  25.919  1.00  0.00     0.054 A 
BRANCH  83  84
ATOM     84  S   UNL A   1      53.790  25.332  25.472  1.00  0.00     0.124 S 
ATOM     85  O   UNL A   1      54.359  26.568  24.941  1.00  0.00    -0.237 OA
ATOM     86  O   UNL A   1      54.340  24.886  26.749  1.00  0.00    -0.237 OA
ATOM     87  O   UNL A   1      53.575  24.272  24.490  1.00  0.00    -0.744 OA
ENDBRANCH  83  84
ENDBRANCH  57  78
ENDBRANCH  31  32
ENDBRANCH  23  26
ENDBRANCH  21  22
ENDBRANCH  20  21
ENDBRANCH   1  20
TORSDOF 18
ENDMDL
