MODEL 1
REMARK VINA RESULT:     -11.1      0.000      0.000
REMARK SMILES CC(C)N1C(=O)C[C@@H](C(=O)NCCCNC(=O)c2ccc(-c3c4nc(c(-c5ccc(S(=O)(=O)[O-])cc5)c5ccc([nH]5)c(-c5ccc(S(=O)(=O)[O-])cc5)c5nc(c(-c6ccc(S(=O)(=O)[O-])cc6)c6ccc3[nH]6)C=C5)C=C4)cc2)[C@H]1c1ccccc1
REMARK SMILES IDX 14 1 13 2 12 3 11 4 9 5 10 6 8 8 4 9 5 10 78 11 6 12 7 13
REMARK SMILES IDX 2 14 1 15 3 16 79 17 80 18 84 19 81 20 83 21 82 22 15 23
REMARK SMILES IDX 16 24 17 26 18 27 19 28 77 29 20 30 76 31 21 32 22 33 23 34
REMARK SMILES IDX 70 35 24 36 75 37 69 38 71 39 25 40 74 41 68 42 67 43 26 45
REMARK SMILES IDX 56 46 37 47 55 48 38 49 41 50 54 51 72 52 39 53 40 54 53 56
REMARK SMILES IDX 73 57 42 58 27 59 28 60 36 61 29 62 35 63 30 64 31 65 32 66
REMARK SMILES IDX 33 67 34 68 57 69 58 70 66 71 59 72 65 73 60 74 61 75 62 76
REMARK SMILES IDX 63 77 64 78 43 79 44 80 52 81 45 82 51 83 46 84 47 85 48 86
REMARK SMILES IDX 49 87 50 88
REMARK H PARENT 11 7 15 25 71 44 41 55
REMARK Flexibility Score: inf
ROOT
ATOM      1  C   UNL A   1      33.615  28.388  27.259  1.00  0.00     0.118 C 
ENDROOT
BRANCH   1   2
ATOM      2  C   UNL A   1      32.231  27.806  26.971  1.00  0.00     0.042 C 
BRANCH   2   3
ATOM      3  C   UNL A   1      31.479  28.494  25.830  1.00  0.00     0.117 C 
BRANCH   3   4
ATOM      4  N   UNL A   1      30.836  27.515  24.975  1.00  0.00    -0.356 N 
ATOM      5  C   UNL A   1      31.313  26.964  23.824  1.00  0.00     0.226 C 
ATOM      6  O   UNL A   1      30.493  26.712  22.943  1.00  0.00    -0.275 OA
ATOM      7  H   UNL A   1      29.946  27.210  25.262  1.00  0.00     0.163 HD
BRANCH   5   8
ATOM      8  C   UNL A   1      32.809  26.765  23.662  1.00  0.00     0.115 C 
ATOM      9  N   UNL A   1      33.299  24.726  22.558  1.00  0.00    -0.332 N 
ATOM     10  C   UNL A   1      33.143  25.685  21.563  1.00  0.00     0.224 C 
ATOM     11  C   UNL A   1      33.344  25.338  23.874  1.00  0.00     0.128 C 
ATOM     12  O   UNL A   1      33.118  25.498  20.355  1.00  0.00    -0.275 OA
ATOM     13  C   UNL A   1      33.150  27.053  22.204  1.00  0.00     0.116 C 
BRANCH   9  14
ATOM     14  C   UNL A   1      33.623  23.314  22.313  1.00  0.00     0.079 C 
ATOM     15  C   UNL A   1      34.843  22.865  23.112  1.00  0.00     0.031 C 
ATOM     16  C   UNL A   1      32.438  22.380  22.591  1.00  0.00     0.031 C 
ENDBRANCH   9  14
BRANCH  11  17
ATOM     17  C   UNL A   1      32.761  24.546  25.031  1.00  0.00    -0.025 A 
ATOM     18  C   UNL A   1      33.530  24.136  26.130  1.00  0.00     0.006 A 
ATOM     19  C   UNL A   1      31.403  24.187  25.020  1.00  0.00     0.006 A 
ATOM     20  C   UNL A   1      32.985  23.362  27.157  1.00  0.00     0.000 A 
ATOM     21  C   UNL A   1      30.848  23.433  26.060  1.00  0.00     0.000 A 
ATOM     22  C   UNL A   1      31.643  23.011  27.122  1.00  0.00     0.000 A 
ENDBRANCH  11  17
ENDBRANCH   5   8
ENDBRANCH   3   4
ENDBRANCH   2   3
ENDBRANCH   1   2
BRANCH   1  23
ATOM     23  N   UNL A   1      33.572  29.808  27.574  1.00  0.00    -0.352 N 
ATOM     24  C   UNL A   1      34.507  30.616  28.170  1.00  0.00     0.251 C 
ATOM     25  H   UNL A   1      32.738  30.263  27.317  1.00  0.00     0.163 HD
ATOM     26  O   UNL A   1      34.179  31.751  28.511  1.00  0.00    -0.269 OA
BRANCH  24  27
ATOM     27  C   UNL A   1      35.882  30.136  28.425  1.00  0.00     0.039 A 
ATOM     28  C   UNL A   1      36.811  30.198  27.384  1.00  0.00     0.014 A 
ATOM     29  C   UNL A   1      36.259  29.594  29.658  1.00  0.00     0.014 A 
ATOM     30  C   UNL A   1      38.125  29.777  27.596  1.00  0.00     0.010 A 
ATOM     31  C   UNL A   1      37.591  29.247  29.893  1.00  0.00     0.010 A 
ATOM     32  C   UNL A   1      38.540  29.335  28.865  1.00  0.00    -0.014 A 
BRANCH  32  33
ATOM     33  C   UNL A   1      39.969  29.010  29.116  1.00  0.00     0.031 A 
ATOM     34  C   UNL A   1      40.899  30.013  29.745  1.00  0.00     0.074 A 
ATOM     35  C   UNL A   1      40.436  27.798  28.753  1.00  0.00     0.049 A 
ATOM     36  N   UNL A   1      42.157  29.871  30.080  1.00  0.00    -0.248 NA
ATOM     37  C   UNL A   1      40.356  31.353  30.017  1.00  0.00     0.031 C 
ATOM     38  C   UNL A   1      39.651  26.756  28.083  1.00  0.00     0.029 A 
ATOM     39  N   UNL A   1      41.677  27.231  28.903  1.00  0.00    -0.354 N 
ATOM     40  C   UNL A   1      42.557  31.098  30.598  1.00  0.00     0.074 A 
ATOM     41  C   UNL A   1      41.423  31.989  30.482  1.00  0.00     0.031 C 
ATOM     42  C   UNL A   1      40.413  25.663  27.927  1.00  0.00     0.029 A 
ATOM     43  C   UNL A   1      41.750  25.936  28.442  1.00  0.00     0.049 A 
ATOM     44  H   UNL A   1      42.441  27.705  29.303  1.00  0.00     0.167 HD
ATOM     45  C   UNL A   1      43.750  31.445  31.137  1.00  0.00     0.031 A 
ATOM     46  C   UNL A   1      42.776  25.063  28.435  1.00  0.00     0.031 A 
ATOM     47  C   UNL A   1      44.880  30.558  31.242  1.00  0.00     0.049 A 
ATOM     48  C   UNL A   1      44.092  25.476  29.033  1.00  0.00     0.074 A 
ATOM     49  C   UNL A   1      46.115  30.801  31.819  1.00  0.00     0.029 A 
ATOM     50  N   UNL A   1      44.921  29.260  30.752  1.00  0.00    -0.354 N 
ATOM     51  N   UNL A   1      44.422  26.617  29.592  1.00  0.00    -0.248 NA
ATOM     52  C   UNL A   1      45.166  24.476  29.016  1.00  0.00     0.031 C 
ATOM     53  C   UNL A   1      46.922  29.674  31.620  1.00  0.00     0.029 A 
ATOM     54  C   UNL A   1      46.168  28.702  30.984  1.00  0.00     0.049 A 
ATOM     55  H   UNL A   1      44.172  28.803  30.304  1.00  0.00     0.167 HD
ATOM     56  C   UNL A   1      45.739  26.463  30.010  1.00  0.00     0.074 A 
ATOM     57  C   UNL A   1      46.129  25.110  29.670  1.00  0.00     0.031 C 
ATOM     58  C   UNL A   1      46.555  27.362  30.619  1.00  0.00     0.031 A 
BRANCH  45  59
ATOM     59  C   UNL A   1      43.901  32.857  31.649  1.00  0.00    -0.014 A 
ATOM     60  C   UNL A   1      44.316  33.901  30.801  1.00  0.00     0.010 A 
ATOM     61  C   UNL A   1      43.573  33.157  32.984  1.00  0.00     0.010 A 
ATOM     62  C   UNL A   1      44.440  35.205  31.288  1.00  0.00     0.020 A 
ATOM     63  C   UNL A   1      43.665  34.466  33.467  1.00  0.00     0.020 A 
ATOM     64  C   UNL A   1      44.113  35.480  32.619  1.00  0.00     0.054 A 
BRANCH  64  65
ATOM     65  S   UNL A   1      44.256  37.188  33.214  1.00  0.00     0.124 S 
ATOM     66  O   UNL A   1      44.527  37.917  31.977  1.00  0.00    -0.237 OA
ATOM     67  O   UNL A   1      42.944  37.429  33.810  1.00  0.00    -0.237 OA
ATOM     68  O   UNL A   1      45.368  37.135  34.160  1.00  0.00    -0.744 OA
ENDBRANCH  64  65
ENDBRANCH  45  59
BRANCH  46  69
ATOM     69  C   UNL A   1      42.590  23.703  27.857  1.00  0.00    -0.014 A 
ATOM     70  C   UNL A   1      42.121  22.642  28.651  1.00  0.00     0.010 A 
ATOM     71  C   UNL A   1      42.874  23.465  26.499  1.00  0.00     0.010 A 
ATOM     72  C   UNL A   1      41.960  21.365  28.106  1.00  0.00     0.020 A 
ATOM     73  C   UNL A   1      42.681  22.199  25.941  1.00  0.00     0.020 A 
ATOM     74  C   UNL A   1      42.237  21.153  26.752  1.00  0.00     0.054 A 
BRANCH  74  75
ATOM     75  S   UNL A   1      41.969  19.500  26.053  1.00  0.00     0.124 S 
ATOM     76  O   UNL A   1      42.456  18.635  27.122  1.00  0.00    -0.237 OA
ATOM     77  O   UNL A   1      40.525  19.483  25.831  1.00  0.00    -0.237 OA
ATOM     78  O   UNL A   1      42.778  19.509  24.836  1.00  0.00    -0.744 OA
ENDBRANCH  74  75
ENDBRANCH  46  69
BRANCH  58  79
ATOM     79  C   UNL A   1      47.944  26.893  30.973  1.00  0.00    -0.014 A 
ATOM     80  C   UNL A   1      48.222  26.301  32.219  1.00  0.00     0.010 A 
ATOM     81  C   UNL A   1      48.989  27.053  30.045  1.00  0.00     0.010 A 
ATOM     82  C   UNL A   1      49.531  25.942  32.555  1.00  0.00     0.020 A 
ATOM     83  C   UNL A   1      50.292  26.659  30.362  1.00  0.00     0.020 A 
ATOM     84  C   UNL A   1      50.559  26.131  31.627  1.00  0.00     0.054 A 
BRANCH  84  85
ATOM     85  S   UNL A   1      52.250  25.668  32.090  1.00  0.00     0.124 S 
ATOM     86  O   UNL A   1      52.123  24.230  32.304  1.00  0.00    -0.237 OA
ATOM     87  O   UNL A   1      53.024  26.064  30.916  1.00  0.00    -0.237 OA
ATOM     88  O   UNL A   1      52.508  26.456  33.293  1.00  0.00    -0.744 OA
ENDBRANCH  84  85
ENDBRANCH  58  79
ENDBRANCH  32  33
ENDBRANCH  24  27
ENDBRANCH   1  23
TORSDOF 15
ENDMDL
MODEL 2
REMARK VINA RESULT:     -11.0      4.390      5.800
REMARK SMILES CC(C)N1C(=O)C[C@@H](C(=O)NCCCNC(=O)c2ccc(-c3c4nc(c(-c5ccc(S(=O)(=O)[O-])cc5)c5ccc([nH]5)c(-c5ccc(S(=O)(=O)[O-])cc5)c5nc(c(-c6ccc(S(=O)(=O)[O-])cc6)c6ccc3[nH]6)C=C5)C=C4)cc2)[C@H]1c1ccccc1
REMARK SMILES IDX 14 1 13 2 12 3 11 4 9 5 10 6 8 8 4 9 5 10 78 11 6 12 7 13
REMARK SMILES IDX 2 14 1 15 3 16 79 17 80 18 84 19 81 20 83 21 82 22 15 23
REMARK SMILES IDX 16 24 17 26 18 27 19 28 77 29 20 30 76 31 21 32 22 33 23 34
REMARK SMILES IDX 70 35 24 36 75 37 69 38 71 39 25 40 74 41 68 42 67 43 26 45
REMARK SMILES IDX 56 46 37 47 55 48 38 49 41 50 54 51 72 52 39 53 40 54 53 56
REMARK SMILES IDX 73 57 42 58 27 59 28 60 36 61 29 62 35 63 30 64 31 65 32 66
REMARK SMILES IDX 33 67 34 68 57 69 58 70 66 71 59 72 65 73 60 74 61 75 62 76
REMARK SMILES IDX 63 77 64 78 43 79 44 80 52 81 45 82 51 83 46 84 47 85 48 86
REMARK SMILES IDX 49 87 50 88
REMARK H PARENT 11 7 15 25 71 44 41 55
REMARK Flexibility Score: inf
ROOT
ATOM      1  C   UNL A   1      32.846  32.857  27.339  1.00  0.00     0.118 C 
ENDROOT
BRANCH   1   2
ATOM      2  C   UNL A   1      31.484  32.348  26.867  1.00  0.00     0.042 C 
BRANCH   2   3
ATOM      3  C   UNL A   1      31.409  30.834  26.660  1.00  0.00     0.117 C 
BRANCH   3   4
ATOM      4  N   UNL A   1      32.025  30.458  25.402  1.00  0.00    -0.356 N 
ATOM      5  C   UNL A   1      32.412  29.217  24.995  1.00  0.00     0.226 C 
ATOM      6  O   UNL A   1      33.420  29.146  24.296  1.00  0.00    -0.275 OA
ATOM      7  H   UNL A   1      32.182  31.189  24.762  1.00  0.00     0.163 HD
BRANCH   5   8
ATOM      8  C   UNL A   1      31.638  28.003  25.479  1.00  0.00     0.115 C 
ATOM      9  N   UNL A   1      31.596  26.289  23.844  1.00  0.00    -0.332 N 
ATOM     10  C   UNL A   1      32.741  26.080  24.605  1.00  0.00     0.224 C 
ATOM     11  C   UNL A   1      30.742  27.296  24.447  1.00  0.00     0.128 C 
ATOM     12  O   UNL A   1      33.630  25.267  24.393  1.00  0.00    -0.275 OA
ATOM     13  C   UNL A   1      32.658  26.932  25.849  1.00  0.00     0.116 C 
BRANCH   9  14
ATOM     14  C   UNL A   1      31.176  25.444  22.718  1.00  0.00     0.079 C 
ATOM     15  C   UNL A   1      32.155  25.526  21.551  1.00  0.00     0.031 C 
ATOM     16  C   UNL A   1      30.962  23.981  23.126  1.00  0.00     0.031 C 
ENDBRANCH   9  14
BRANCH  11  17
ATOM     17  C   UNL A   1      29.937  28.180  23.511  1.00  0.00    -0.025 A 
ATOM     18  C   UNL A   1      30.539  29.021  22.562  1.00  0.00     0.006 A 
ATOM     19  C   UNL A   1      28.535  28.185  23.583  1.00  0.00     0.006 A 
ATOM     20  C   UNL A   1      29.782  29.866  21.748  1.00  0.00     0.000 A 
ATOM     21  C   UNL A   1      27.772  29.012  22.751  1.00  0.00     0.000 A 
ATOM     22  C   UNL A   1      28.397  29.861  21.842  1.00  0.00     0.000 A 
ENDBRANCH  11  17
ENDBRANCH   5   8
ENDBRANCH   3   4
ENDBRANCH   2   3
ENDBRANCH   1   2
BRANCH   1  23
ATOM     23  N   UNL A   1      32.783  34.204  27.887  1.00  0.00    -0.352 N 
ATOM     24  C   UNL A   1      33.465  34.772  28.933  1.00  0.00     0.251 C 
ATOM     25  H   UNL A   1      32.149  34.804  27.433  1.00  0.00     0.163 HD
ATOM     26  O   UNL A   1      33.111  35.875  29.343  1.00  0.00    -0.269 OA
BRANCH  24  27
ATOM     27  C   UNL A   1      34.596  34.071  29.580  1.00  0.00     0.039 A 
ATOM     28  C   UNL A   1      35.895  34.395  29.180  1.00  0.00     0.014 A 
ATOM     29  C   UNL A   1      34.395  33.078  30.544  1.00  0.00     0.014 A 
ATOM     30  C   UNL A   1      36.986  33.771  29.787  1.00  0.00     0.010 A 
ATOM     31  C   UNL A   1      35.487  32.513  31.206  1.00  0.00     0.010 A 
ATOM     32  C   UNL A   1      36.795  32.853  30.835  1.00  0.00    -0.014 A 
BRANCH  32  33
ATOM     33  C   UNL A   1      37.964  32.291  31.562  1.00  0.00     0.031 A 
ATOM     34  C   UNL A   1      38.388  32.835  32.900  1.00  0.00     0.074 A 
ATOM     35  C   UNL A   1      38.663  31.287  30.995  1.00  0.00     0.049 A 
ATOM     36  N   UNL A   1      39.349  32.424  33.688  1.00  0.00    -0.248 NA
ATOM     37  C   UNL A   1      37.652  34.002  33.413  1.00  0.00     0.031 C 
ATOM     38  C   UNL A   1      38.390  30.706  29.677  1.00  0.00     0.029 A 
ATOM     39  N   UNL A   1      39.738  30.568  31.455  1.00  0.00    -0.354 N 
ATOM     40  C   UNL A   1      39.337  33.279  34.785  1.00  0.00     0.074 A 
ATOM     41  C   UNL A   1      38.309  34.266  34.535  1.00  0.00     0.031 C 
ATOM     42  C   UNL A   1      39.240  29.691  29.458  1.00  0.00     0.029 A 
ATOM     43  C   UNL A   1      40.145  29.574  30.595  1.00  0.00     0.049 A 
ATOM     44  H   UNL A   1      40.175  30.745  32.319  1.00  0.00     0.167 HD
ATOM     45  C   UNL A   1      40.099  33.236  35.905  1.00  0.00     0.031 A 
ATOM     46  C   UNL A   1      41.135  28.667  30.706  1.00  0.00     0.031 A 
ATOM     47  C   UNL A   1      41.129  32.258  36.147  1.00  0.00     0.049 A 
ATOM     48  C   UNL A   1      41.970  28.645  31.957  1.00  0.00     0.074 A 
ATOM     49  C   UNL A   1      41.919  32.100  37.273  1.00  0.00     0.029 A 
ATOM     50  N   UNL A   1      41.521  31.277  35.247  1.00  0.00    -0.354 N 
ATOM     51  N   UNL A   1      41.887  29.413  33.018  1.00  0.00    -0.248 NA
ATOM     52  C   UNL A   1      43.019  27.621  32.030  1.00  0.00     0.031 C 
ATOM     53  C   UNL A   1      42.832  31.068  37.028  1.00  0.00     0.029 A 
ATOM     54  C   UNL A   1      42.562  30.533  35.779  1.00  0.00     0.049 A 
ATOM     55  H   UNL A   1      41.119  31.133  34.360  1.00  0.00     0.167 HD
ATOM     56  C   UNL A   1      42.862  28.951  33.894  1.00  0.00     0.074 A 
ATOM     57  C   UNL A   1      43.496  27.817  33.251  1.00  0.00     0.031 C 
ATOM     58  C   UNL A   1      43.204  29.422  35.120  1.00  0.00     0.031 A 
BRANCH  45  59
ATOM     59  C   UNL A   1      39.853  34.289  36.958  1.00  0.00    -0.014 A 
ATOM     60  C   UNL A   1      38.969  34.057  38.029  1.00  0.00     0.010 A 
ATOM     61  C   UNL A   1      40.552  35.509  36.907  1.00  0.00     0.010 A 
ATOM     62  C   UNL A   1      38.760  35.038  39.003  1.00  0.00     0.020 A 
ATOM     63  C   UNL A   1      40.370  36.481  37.896  1.00  0.00     0.020 A 
ATOM     64  C   UNL A   1      39.462  36.245  38.930  1.00  0.00     0.054 A 
BRANCH  64  65
ATOM     65  S   UNL A   1      39.191  37.487  40.224  1.00  0.00     0.124 S 
ATOM     66  O   UNL A   1      38.155  38.325  39.625  1.00  0.00    -0.237 OA
ATOM     67  O   UNL A   1      38.762  36.676  41.361  1.00  0.00    -0.237 OA
ATOM     68  O   UNL A   1      40.496  38.125  40.374  1.00  0.00    -0.744 OA
ENDBRANCH  64  65
ENDBRANCH  45  59
BRANCH  46  69
ATOM     69  C   UNL A   1      41.376  27.692  29.607  1.00  0.00    -0.014 A 
ATOM     70  C   UNL A   1      40.512  26.600  29.411  1.00  0.00     0.010 A 
ATOM     71  C   UNL A   1      42.472  27.857  28.740  1.00  0.00     0.010 A 
ATOM     72  C   UNL A   1      40.751  25.681  28.385  1.00  0.00     0.020 A 
ATOM     73  C   UNL A   1      42.694  26.961  27.691  1.00  0.00     0.020 A 
ATOM     74  C   UNL A   1      41.838  25.871  27.528  1.00  0.00     0.054 A 
BRANCH  74  75
ATOM     75  S   UNL A   1      42.097  24.696  26.170  1.00  0.00     0.124 S 
ATOM     76  O   UNL A   1      41.965  25.554  24.997  1.00  0.00    -0.237 OA
ATOM     77  O   UNL A   1      43.442  24.194  26.441  1.00  0.00    -0.237 OA
ATOM     78  O   UNL A   1      41.027  23.719  26.356  1.00  0.00    -0.744 OA
ENDBRANCH  74  75
ENDBRANCH  46  69
BRANCH  58  79
ATOM     79  C   UNL A   1      44.304  28.693  35.850  1.00  0.00    -0.014 A 
ATOM     80  C   UNL A   1      45.651  29.083  35.726  1.00  0.00     0.010 A 
ATOM     81  C   UNL A   1      43.986  27.594  36.668  1.00  0.00     0.010 A 
ATOM     82  C   UNL A   1      46.661  28.347  36.351  1.00  0.00     0.020 A 
ATOM     83  C   UNL A   1      44.990  26.878  37.327  1.00  0.00     0.020 A 
ATOM     84  C   UNL A   1      46.325  27.245  37.141  1.00  0.00     0.054 A 
BRANCH  84  85
ATOM     85  S   UNL A   1      47.654  26.299  37.932  1.00  0.00     0.124 S 
ATOM     86  O   UNL A   1      48.667  26.261  36.881  1.00  0.00    -0.237 OA
ATOM     87  O   UNL A   1      47.985  27.120  39.094  1.00  0.00    -0.237 OA
ATOM     88  O   UNL A   1      47.030  25.015  38.242  1.00  0.00    -0.744 OA
ENDBRANCH  84  85
ENDBRANCH  58  79
ENDBRANCH  32  33
ENDBRANCH  24  27
ENDBRANCH   1  23
TORSDOF 15
ENDMDL
MODEL 3
REMARK VINA RESULT:     -11.0      2.681      9.217
REMARK SMILES CC(C)N1C(=O)C[C@@H](C(=O)NCCCNC(=O)c2ccc(-c3c4nc(c(-c5ccc(S(=O)(=O)[O-])cc5)c5ccc([nH]5)c(-c5ccc(S(=O)(=O)[O-])cc5)c5nc(c(-c6ccc(S(=O)(=O)[O-])cc6)c6ccc3[nH]6)C=C5)C=C4)cc2)[C@H]1c1ccccc1
REMARK SMILES IDX 14 1 13 2 12 3 11 4 9 5 10 6 8 8 4 9 5 10 78 11 6 12 7 13
REMARK SMILES IDX 2 14 1 15 3 16 79 17 80 18 84 19 81 20 83 21 82 22 15 23
REMARK SMILES IDX 16 24 17 26 18 27 19 28 77 29 20 30 76 31 21 32 22 33 23 34
REMARK SMILES IDX 70 35 24 36 75 37 69 38 71 39 25 40 74 41 68 42 67 43 26 45
REMARK SMILES IDX 56 46 37 47 55 48 38 49 41 50 54 51 72 52 39 53 40 54 53 56
REMARK SMILES IDX 73 57 42 58 27 59 28 60 36 61 29 62 35 63 30 64 31 65 32 66
REMARK SMILES IDX 33 67 34 68 57 69 58 70 66 71 59 72 65 73 60 74 61 75 62 76
REMARK SMILES IDX 63 77 64 78 43 79 44 80 52 81 45 82 51 83 46 84 47 85 48 86
REMARK SMILES IDX 49 87 50 88
REMARK H PARENT 11 7 15 25 71 44 41 55
REMARK Flexibility Score: inf
ROOT
ATOM      1  C   UNL A   1      36.954  23.747  24.992  1.00  0.00     0.118 C 
ENDROOT
BRANCH   1   2
ATOM      2  C   UNL A   1      36.056  23.197  23.884  1.00  0.00     0.042 C 
BRANCH   2   3
ATOM      3  C   UNL A   1      35.346  21.889  24.235  1.00  0.00     0.117 C 
BRANCH   3   4
ATOM      4  N   UNL A   1      33.940  21.957  23.882  1.00  0.00    -0.356 N 
ATOM      5  C   UNL A   1      32.885  22.254  24.691  1.00  0.00     0.226 C 
ATOM      6  O   UNL A   1      31.827  21.671  24.466  1.00  0.00    -0.275 OA
ATOM      7  H   UNL A   1      33.722  21.766  22.942  1.00  0.00     0.163 HD
BRANCH   5   8
ATOM      8  C   UNL A   1      33.088  23.211  25.852  1.00  0.00     0.115 C 
ATOM      9  N   UNL A   1      31.235  24.666  26.111  1.00  0.00    -0.332 N 
ATOM     10  C   UNL A   1      30.955  23.533  26.867  1.00  0.00     0.224 C 
ATOM     11  C   UNL A   1      32.610  24.660  25.645  1.00  0.00     0.128 C 
ATOM     12  O   UNL A   1      29.907  23.267  27.438  1.00  0.00    -0.275 OA
ATOM     13  C   UNL A   1      32.220  22.718  27.004  1.00  0.00     0.116 C 
BRANCH   9  14
ATOM     14  C   UNL A   1      30.350  25.833  25.996  1.00  0.00     0.079 C 
ATOM     15  C   UNL A   1      31.069  27.128  26.359  1.00  0.00     0.031 C 
ATOM     16  C   UNL A   1      29.713  25.956  24.606  1.00  0.00     0.031 C 
ENDBRANCH   9  14
BRANCH  11  17
ATOM     17  C   UNL A   1      32.892  25.294  24.295  1.00  0.00    -0.025 A 
ATOM     18  C   UNL A   1      33.736  26.405  24.143  1.00  0.00     0.006 A 
ATOM     19  C   UNL A   1      32.288  24.776  23.137  1.00  0.00     0.006 A 
ATOM     20  C   UNL A   1      33.938  27.006  22.899  1.00  0.00     0.000 A 
ATOM     21  C   UNL A   1      32.509  25.361  21.885  1.00  0.00     0.000 A 
ATOM     22  C   UNL A   1      33.324  26.483  21.769  1.00  0.00     0.000 A 
ENDBRANCH  11  17
ENDBRANCH   5   8
ENDBRANCH   3   4
ENDBRANCH   2   3
ENDBRANCH   1   2
BRANCH   1  23
ATOM     23  N   UNL A   1      37.912  22.764  25.477  1.00  0.00    -0.352 N 
ATOM     24  C   UNL A   1      39.061  22.927  26.209  1.00  0.00     0.251 C 
ATOM     25  H   UNL A   1      37.700  21.832  25.243  1.00  0.00     0.163 HD
ATOM     26  O   UNL A   1      39.820  21.969  26.343  1.00  0.00    -0.269 OA
BRANCH  24  27
ATOM     27  C   UNL A   1      39.406  24.233  26.812  1.00  0.00     0.039 A 
ATOM     28  C   UNL A   1      38.983  24.494  28.117  1.00  0.00     0.014 A 
ATOM     29  C   UNL A   1      40.104  25.214  26.101  1.00  0.00     0.014 A 
ATOM     30  C   UNL A   1      39.312  25.706  28.727  1.00  0.00     0.010 A 
ATOM     31  C   UNL A   1      40.500  26.392  26.738  1.00  0.00     0.010 A 
ATOM     32  C   UNL A   1      40.109  26.651  28.058  1.00  0.00    -0.014 A 
BRANCH  32  33
ATOM     33  C   UNL A   1      40.561  27.882  28.760  1.00  0.00     0.031 A 
ATOM     34  C   UNL A   1      41.953  27.993  29.323  1.00  0.00     0.074 A 
ATOM     35  C   UNL A   1      39.695  28.905  28.906  1.00  0.00     0.049 A 
ATOM     36  N   UNL A   1      42.522  29.013  29.915  1.00  0.00    -0.248 NA
ATOM     37  C   UNL A   1      42.813  26.802  29.228  1.00  0.00     0.031 C 
ATOM     38  C   UNL A   1      38.300  28.902  28.455  1.00  0.00     0.029 A 
ATOM     39  N   UNL A   1      39.859  30.148  29.464  1.00  0.00    -0.354 N 
ATOM     40  C   UNL A   1      43.799  28.590  30.265  1.00  0.00     0.074 A 
ATOM     41  C   UNL A   1      43.903  27.202  29.868  1.00  0.00     0.031 C 
ATOM     42  C   UNL A   1      37.754  30.101  28.708  1.00  0.00     0.029 A 
ATOM     43  C   UNL A   1      38.739  30.943  29.377  1.00  0.00     0.049 A 
ATOM     44  H   UNL A   1      40.698  30.444  29.884  1.00  0.00     0.167 HD
ATOM     45  C   UNL A   1      44.800  29.295  30.846  1.00  0.00     0.031 A 
ATOM     46  C   UNL A   1      38.525  32.208  29.787  1.00  0.00     0.031 A 
ATOM     47  C   UNL A   1      44.690  30.674  31.249  1.00  0.00     0.049 A 
ATOM     48  C   UNL A   1      39.650  32.966  30.435  1.00  0.00     0.074 A 
ATOM     49  C   UNL A   1      45.664  31.490  31.798  1.00  0.00     0.029 A 
ATOM     50  N   UNL A   1      43.536  31.440  31.158  1.00  0.00    -0.354 N 
ATOM     51  N   UNL A   1      40.877  32.571  30.682  1.00  0.00    -0.248 NA
ATOM     52  C   UNL A   1      39.365  34.348  30.842  1.00  0.00     0.031 C 
ATOM     53  C   UNL A   1      45.082  32.728  32.099  1.00  0.00     0.029 A 
ATOM     54  C   UNL A   1      43.765  32.707  31.669  1.00  0.00     0.049 A 
ATOM     55  H   UNL A   1      42.681  31.127  30.785  1.00  0.00     0.167 HD
ATOM     56  C   UNL A   1      41.516  33.665  31.256  1.00  0.00     0.074 A 
ATOM     57  C   UNL A   1      40.549  34.743  31.287  1.00  0.00     0.031 C 
ATOM     58  C   UNL A   1      42.788  33.767  31.719  1.00  0.00     0.031 A 
BRANCH  45  59
ATOM     59  C   UNL A   1      46.107  28.581  31.091  1.00  0.00    -0.014 A 
ATOM     60  C   UNL A   1      47.136  28.593  30.131  1.00  0.00     0.010 A 
ATOM     61  C   UNL A   1      46.332  27.932  32.319  1.00  0.00     0.010 A 
ATOM     62  C   UNL A   1      48.346  27.937  30.377  1.00  0.00     0.020 A 
ATOM     63  C   UNL A   1      47.552  27.301  32.583  1.00  0.00     0.020 A 
ATOM     64  C   UNL A   1      48.546  27.295  31.602  1.00  0.00     0.054 A 
BRANCH  64  65
ATOM     65  S   UNL A   1      50.136  26.475  31.904  1.00  0.00     0.124 S 
ATOM     66  O   UNL A   1      50.166  26.402  33.363  1.00  0.00    -0.237 OA
ATOM     67  O   UNL A   1      49.972  25.197  31.215  1.00  0.00    -0.237 OA
ATOM     68  O   UNL A   1      51.114  27.381  31.307  1.00  0.00    -0.744 OA
ENDBRANCH  64  65
ENDBRANCH  45  59
BRANCH  46  69
ATOM     69  C   UNL A   1      37.194  32.842  29.578  1.00  0.00    -0.014 A 
ATOM     70  C   UNL A   1      36.245  32.881  30.615  1.00  0.00     0.010 A 
ATOM     71  C   UNL A   1      36.871  33.420  28.337  1.00  0.00     0.010 A 
ATOM     72  C   UNL A   1      34.992  33.466  30.409  1.00  0.00     0.020 A 
ATOM     73  C   UNL A   1      35.633  34.038  28.137  1.00  0.00     0.020 A 
ATOM     74  C   UNL A   1      34.696  34.045  29.171  1.00  0.00     0.054 A 
BRANCH  74  75
ATOM     75  S   UNL A   1      33.084  34.847  28.944  1.00  0.00     0.124 S 
ATOM     76  O   UNL A   1      33.469  36.178  28.487  1.00  0.00    -0.237 OA
ATOM     77  O   UNL A   1      32.447  33.992  27.944  1.00  0.00    -0.237 OA
ATOM     78  O   UNL A   1      32.484  34.789  30.274  1.00  0.00    -0.744 OA
ENDBRANCH  74  75
ENDBRANCH  46  69
BRANCH  58  79
ATOM     79  C   UNL A   1      43.206  35.104  32.278  1.00  0.00    -0.014 A 
ATOM     80  C   UNL A   1      43.000  35.428  33.632  1.00  0.00     0.010 A 
ATOM     81  C   UNL A   1      43.809  36.053  31.433  1.00  0.00     0.010 A 
ATOM     82  C   UNL A   1      43.327  36.700  34.112  1.00  0.00     0.020 A 
ATOM     83  C   UNL A   1      44.172  37.313  31.919  1.00  0.00     0.020 A 
ATOM     84  C   UNL A   1      43.904  37.636  33.250  1.00  0.00     0.054 A 
BRANCH  84  85
ATOM     85  S   UNL A   1      44.307  39.283  33.893  1.00  0.00     0.124 S 
ATOM     86  O   UNL A   1      45.271  39.766  32.909  1.00  0.00    -0.237 OA
ATOM     87  O   UNL A   1      43.011  39.957  33.886  1.00  0.00    -0.237 OA
ATOM     88  O   UNL A   1      44.854  39.013  35.221  1.00  0.00    -0.744 OA
ENDBRANCH  84  85
ENDBRANCH  58  79
ENDBRANCH  32  33
ENDBRANCH  24  27
ENDBRANCH   1  23
TORSDOF 15
ENDMDL
