MODEL 1
REMARK VINA RESULT:      -9.5      0.000      0.000
REMARK SMILES Cc1ccc(S(=O)(=O)n2cc(C(=O)C(=O)NCC(=O)N[C@@H](Cc3c[nH]c4ccccc34)C(=O)NCCCNC(=O)c3ccc(-c4c5nc(c(-c6ccc(S(=O)(=O)[O-])cc6)c6ccc([nH]6)c(-c6ccc(S(=O)(=O)[O-])cc6)c6nc(c(-c7ccc(S(=O)(=O)[O-])cc7)c7ccc4[nH]7)C=C6)C=C5)cc3)c3ccccc32)cc1
REMARK SMILES IDX 32 1 33 2 34 3 21 5 20 6 18 7 19 8 17 10 16 11 14 12 15 13
REMARK SMILES IDX 12 15 13 16 11 17 9 18 10 19 106 20 101 21 105 22 102 23
REMARK SMILES IDX 104 24 103 25 6 26 7 27 8 28 5 29 1 30 2 31 3 32 108 33 4 34
REMARK SMILES IDX 107 35 22 36 23 37 24 38 31 39 25 40 26 41 30 42 27 44 29 45
REMARK SMILES IDX 28 46 35 47 36 48 37 49 38 50 39 51 40 53 41 54 42 55 100 56
REMARK SMILES IDX 43 57 99 58 44 59 45 60 46 61 93 62 47 63 98 64 92 65 94 66
REMARK SMILES IDX 48 67 97 68 91 69 90 70 49 72 79 73 60 74 78 75 61 76 64 77
REMARK SMILES IDX 77 78 95 79 62 80 63 81 76 83 96 84 65 85 50 86 51 87 59 88
REMARK SMILES IDX 52 89 58 90 53 91 54 92 55 93 56 94 57 95 80 96 81 97 89 98
REMARK SMILES IDX 82 99 88 100 83 101 84 102 85 103 86 104 87 105 66 106
REMARK SMILES IDX 67 107 75 108 68 109 74 110 69 111 70 112 71 113 72 114
REMARK SMILES IDX 73 115
REMARK H PARENT 34 4 20 9 16 14 25 43 38 52 94 71 64 82
REMARK Flexibility Score: inf
ROOT
ATOM      1  C   UNL A   1      48.733  26.667  30.211  1.00  0.00     0.242 C 
ATOM      2  O   UNL A   1      49.107  27.734  30.711  1.00  0.00    -0.273 OA
ATOM      3  N   UNL A   1      49.074  26.410  28.916  1.00  0.00    -0.354 N 
ATOM      4  H   UNL A   1      49.322  27.198  28.381  1.00  0.00     0.163 HD
ENDROOT
BRANCH   1   5
ATOM      5  C   UNL A   1      47.941  25.670  31.085  1.00  0.00     0.175 C 
BRANCH   5   6
ATOM      6  N   UNL A   1      48.303  25.755  32.507  1.00  0.00    -0.342 N 
ATOM      7  C   UNL A   1      49.423  25.242  33.107  1.00  0.00     0.240 C 
ATOM      8  O   UNL A   1      49.767  25.684  34.205  1.00  0.00    -0.273 OA
ATOM      9  H   UNL A   1      47.672  26.233  33.094  1.00  0.00     0.164 HD
BRANCH   7  10
ATOM     10  C   UNL A   1      50.245  24.158  32.383  1.00  0.00     0.216 C 
BRANCH  10  11
ATOM     11  N   UNL A   1      51.622  24.143  32.889  1.00  0.00    -0.340 N 
ATOM     12  C   UNL A   1      52.358  23.063  33.340  1.00  0.00     0.292 C 
ATOM     13  O   UNL A   1      53.464  23.214  33.843  1.00  0.00    -0.265 OA
ATOM     14  H   UNL A   1      52.081  25.015  32.911  1.00  0.00     0.164 HD
BRANCH  12  15
ATOM     15  C   UNL A   1      51.773  21.657  33.187  1.00  0.00     0.252 C 
ATOM     16  O   UNL A   1      52.189  21.000  32.232  1.00  0.00    -0.283 OA
BRANCH  15  17
ATOM     17  C   UNL A   1      50.680  21.185  34.044  1.00  0.00     0.054 A 
ATOM     18  N   UNL A   1      48.821  20.232  34.910  1.00  0.00    -0.240 N 
ATOM     19  C   UNL A   1      49.556  20.410  33.738  1.00  0.00     0.117 A 
ATOM     20  C   UNL A   1      49.606  20.688  35.976  1.00  0.00     0.065 A 
ATOM     21  C   UNL A   1      50.552  21.545  35.421  1.00  0.00     0.012 A 
ATOM     22  C   UNL A   1      49.398  20.623  37.367  1.00  0.00     0.028 A 
ATOM     23  C   UNL A   1      51.177  22.492  36.259  1.00  0.00     0.011 A 
ATOM     24  C   UNL A   1      49.985  21.603  38.165  1.00  0.00     0.002 A 
ATOM     25  C   UNL A   1      50.831  22.554  37.613  1.00  0.00     0.001 A 
BRANCH  18  26
ATOM     26  S   UNL A   1      47.141  20.665  35.112  1.00  0.00     0.268 S 
ATOM     27  O   UNL A   1      46.596  19.558  35.878  1.00  0.00    -0.201 OA
ATOM     28  O   UNL A   1      46.700  20.933  33.751  1.00  0.00    -0.201 OA
BRANCH  26  29
ATOM     29  C   UNL A   1      46.593  22.112  35.950  1.00  0.00     0.088 A 
ATOM     30  C   UNL A   1      45.945  26.098  37.477  1.00  0.00     0.044 C 
ATOM     31  C   UNL A   1      46.115  24.703  36.949  1.00  0.00    -0.051 A 
ATOM     32  C   UNL A   1      46.888  24.542  35.808  1.00  0.00     0.005 A 
ATOM     33  C   UNL A   1      45.579  23.557  37.579  1.00  0.00     0.005 A 
ATOM     34  C   UNL A   1      47.110  23.269  35.317  1.00  0.00     0.022 A 
ATOM     35  C   UNL A   1      45.816  22.248  37.086  1.00  0.00     0.022 A 
ENDBRANCH  26  29
ENDBRANCH  18  26
ENDBRANCH  15  17
ENDBRANCH  12  15
ENDBRANCH  10  11
ENDBRANCH   7  10
ENDBRANCH   5   6
BRANCH   5  36
ATOM     36  C   UNL A   1      46.431  25.553  30.800  1.00  0.00     0.072 C 
BRANCH  36  37
ATOM     37  C   UNL A   1      45.494  25.883  31.918  1.00  0.00    -0.020 A 
ATOM     38  C   UNL A   1      45.214  27.156  32.382  1.00  0.00     0.087 A 
ATOM     39  C   UNL A   1      44.720  24.980  32.719  1.00  0.00     0.003 A 
ATOM     40  N   UNL A   1      44.470  27.050  33.532  1.00  0.00    -0.361 N 
ATOM     41  C   UNL A   1      44.127  25.733  33.736  1.00  0.00     0.046 A 
ATOM     42  C   UNL A   1      44.491  23.587  32.705  1.00  0.00     0.010 A 
ATOM     43  H   UNL A   1      44.221  27.800  34.119  1.00  0.00     0.166 HD
ATOM     44  C   UNL A   1      43.355  25.165  34.755  1.00  0.00     0.026 A 
ATOM     45  C   UNL A   1      43.684  23.008  33.692  1.00  0.00     0.001 A 
ATOM     46  C   UNL A   1      43.134  23.787  34.709  1.00  0.00     0.002 A 
ENDBRANCH  36  37
ENDBRANCH   5  36
ENDBRANCH   1   5
BRANCH   3  47
ATOM     47  C   UNL A   1      49.123  25.137  28.212  1.00  0.00     0.117 C 
BRANCH  47  48
ATOM     48  C   UNL A   1      49.809  25.209  26.863  1.00  0.00     0.042 C 
BRANCH  48  49
ATOM     49  C   UNL A   1      49.096  26.181  25.942  1.00  0.00     0.118 C 
BRANCH  49  50
ATOM     50  N   UNL A   1      48.022  25.594  25.143  1.00  0.00    -0.352 N 
ATOM     51  C   UNL A   1      46.646  25.774  25.285  1.00  0.00     0.251 C 
ATOM     52  H   UNL A   1      48.306  24.997  24.413  1.00  0.00     0.163 HD
ATOM     53  O   UNL A   1      45.846  25.100  24.688  1.00  0.00    -0.269 OA
BRANCH  51  54
ATOM     54  C   UNL A   1      46.211  26.893  26.158  1.00  0.00     0.039 A 
ATOM     55  C   UNL A   1      45.825  26.596  27.468  1.00  0.00     0.014 A 
ATOM     56  C   UNL A   1      45.894  28.115  25.579  1.00  0.00     0.014 A 
ATOM     57  C   UNL A   1      44.925  27.439  28.119  1.00  0.00     0.010 A 
ATOM     58  C   UNL A   1      44.887  28.857  26.153  1.00  0.00     0.010 A 
ATOM     59  C   UNL A   1      44.375  28.505  27.409  1.00  0.00    -0.014 A 
BRANCH  59  60
ATOM     60  C   UNL A   1      43.245  29.307  27.864  1.00  0.00     0.031 A 
ATOM     61  C   UNL A   1      43.511  30.566  28.605  1.00  0.00     0.074 A 
ATOM     62  C   UNL A   1      41.981  28.991  27.498  1.00  0.00     0.049 A 
ATOM     63  N   UNL A   1      42.656  31.171  29.359  1.00  0.00    -0.248 NA
ATOM     64  C   UNL A   1      44.811  31.235  28.574  1.00  0.00     0.031 C 
ATOM     65  C   UNL A   1      40.806  29.857  27.595  1.00  0.00     0.029 A 
ATOM     66  N   UNL A   1      41.443  27.751  27.141  1.00  0.00    -0.354 N 
ATOM     67  C   UNL A   1      43.160  32.426  29.626  1.00  0.00     0.074 A 
ATOM     68  C   UNL A   1      44.530  32.390  29.177  1.00  0.00     0.031 C 
ATOM     69  C   UNL A   1      39.705  29.089  27.623  1.00  0.00     0.029 A 
ATOM     70  C   UNL A   1      40.155  27.710  27.703  1.00  0.00     0.049 A 
ATOM     71  H   UNL A   1      41.879  27.049  26.604  1.00  0.00     0.167 HD
ATOM     72  C   UNL A   1      42.328  33.415  30.057  1.00  0.00     0.031 A 
ATOM     73  C   UNL A   1      39.773  26.822  28.669  1.00  0.00     0.031 A 
ATOM     74  C   UNL A   1      40.975  32.918  30.288  1.00  0.00     0.049 A 
ATOM     75  C   UNL A   1      39.303  27.494  29.946  1.00  0.00     0.074 A 
ATOM     76  C   UNL A   1      39.803  32.984  29.552  1.00  0.00     0.029 A 
ATOM     77  N   UNL A   1      40.768  31.958  31.272  1.00  0.00    -0.354 N 
ATOM     78  N   UNL A   1      39.504  28.753  30.225  1.00  0.00    -0.248 NA
ATOM     79  C   UNL A   1      38.605  26.798  31.024  1.00  0.00     0.031 C 
ATOM     80  C   UNL A   1      38.917  31.992  30.052  1.00  0.00     0.029 A 
ATOM     81  C   UNL A   1      39.539  31.348  31.106  1.00  0.00     0.049 A 
ATOM     82  H   UNL A   1      41.408  31.742  31.988  1.00  0.00     0.167 HD
ATOM     83  C   UNL A   1      39.005  29.044  31.468  1.00  0.00     0.074 A 
ATOM     84  C   UNL A   1      38.435  27.788  31.921  1.00  0.00     0.031 C 
ATOM     85  C   UNL A   1      39.117  30.291  32.019  1.00  0.00     0.031 A 
BRANCH  72  86
ATOM     86  C   UNL A   1      42.696  34.881  29.969  1.00  0.00    -0.014 A 
ATOM     87  C   UNL A   1      42.291  35.637  28.851  1.00  0.00     0.010 A 
ATOM     88  C   UNL A   1      43.490  35.554  30.918  1.00  0.00     0.010 A 
ATOM     89  C   UNL A   1      42.740  36.949  28.635  1.00  0.00     0.020 A 
ATOM     90  C   UNL A   1      43.986  36.849  30.696  1.00  0.00     0.020 A 
ATOM     91  C   UNL A   1      43.614  37.537  29.547  1.00  0.00     0.054 A 
BRANCH  91  92
ATOM     92  S   UNL A   1      44.262  39.196  29.209  1.00  0.00     0.124 S 
ATOM     93  O   UNL A   1      43.044  39.995  29.086  1.00  0.00    -0.237 OA
ATOM     94  O   UNL A   1      45.072  39.461  30.394  1.00  0.00    -0.237 OA
ATOM     95  O   UNL A   1      45.013  39.028  27.967  1.00  0.00    -0.744 OA
ENDBRANCH  91  92
ENDBRANCH  72  86
BRANCH  73  96
ATOM     96  C   UNL A   1      40.446  25.497  28.587  1.00  0.00    -0.014 A 
ATOM     97  C   UNL A   1      39.883  24.546  27.710  1.00  0.00     0.010 A 
ATOM     98  C   UNL A   1      41.792  25.354  28.969  1.00  0.00     0.010 A 
ATOM     99  C   UNL A   1      40.688  23.596  27.078  1.00  0.00     0.020 A 
ATOM    100  C   UNL A   1      42.603  24.400  28.335  1.00  0.00     0.020 A 
ATOM    101  C   UNL A   1      42.057  23.578  27.344  1.00  0.00     0.054 A 
BRANCH 101 102
ATOM    102  S   UNL A   1      43.124  22.639  26.208  1.00  0.00     0.124 S 
ATOM    103  O   UNL A   1      42.935  23.340  24.943  1.00  0.00    -0.237 OA
ATOM    104  O   UNL A   1      44.449  22.816  26.808  1.00  0.00    -0.237 OA
ATOM    105  O   UNL A   1      42.584  21.288  26.273  1.00  0.00    -0.744 OA
ENDBRANCH 101 102
ENDBRANCH  73  96
BRANCH  85 106
ATOM    106  C   UNL A   1      38.789  30.680  33.446  1.00  0.00    -0.014 A 
ATOM    107  C   UNL A   1      39.520  30.274  34.571  1.00  0.00     0.010 A 
ATOM    108  C   UNL A   1      37.746  31.616  33.671  1.00  0.00     0.010 A 
ATOM    109  C   UNL A   1      39.194  30.730  35.859  1.00  0.00     0.020 A 
ATOM    110  C   UNL A   1      37.444  32.114  34.942  1.00  0.00     0.020 A 
ATOM    111  C   UNL A   1      38.156  31.646  36.036  1.00  0.00     0.054 A 
BRANCH 111 112
ATOM    112  S   UNL A   1      37.789  32.279  37.692  1.00  0.00     0.124 S 
ATOM    113  O   UNL A   1      37.238  33.599  37.395  1.00  0.00    -0.237 OA
ATOM    114  O   UNL A   1      36.831  31.304  38.211  1.00  0.00    -0.237 OA
ATOM    115  O   UNL A   1      39.089  32.276  38.357  1.00  0.00    -0.744 OA
ENDBRANCH 111 112
ENDBRANCH  85 106
ENDBRANCH  59  60
ENDBRANCH  51  54
ENDBRANCH  49  50
ENDBRANCH  48  49
ENDBRANCH  47  48
ENDBRANCH   3  47
TORSDOF 22
ENDMDL
MODEL 2
REMARK VINA RESULT:      -9.3      4.371     11.180
REMARK SMILES Cc1ccc(S(=O)(=O)n2cc(C(=O)C(=O)NCC(=O)N[C@@H](Cc3c[nH]c4ccccc34)C(=O)NCCCNC(=O)c3ccc(-c4c5nc(c(-c6ccc(S(=O)(=O)[O-])cc6)c6ccc([nH]6)c(-c6ccc(S(=O)(=O)[O-])cc6)c6nc(c(-c7ccc(S(=O)(=O)[O-])cc7)c7ccc4[nH]7)C=C6)C=C5)cc3)c3ccccc32)cc1
REMARK SMILES IDX 32 1 33 2 34 3 21 5 20 6 18 7 19 8 17 10 16 11 14 12 15 13
REMARK SMILES IDX 12 15 13 16 11 17 9 18 10 19 106 20 101 21 105 22 102 23
REMARK SMILES IDX 104 24 103 25 6 26 7 27 8 28 5 29 1 30 2 31 3 32 108 33 4 34
REMARK SMILES IDX 107 35 22 36 23 37 24 38 31 39 25 40 26 41 30 42 27 44 29 45
REMARK SMILES IDX 28 46 35 47 36 48 37 49 38 50 39 51 40 53 41 54 42 55 100 56
REMARK SMILES IDX 43 57 99 58 44 59 45 60 46 61 93 62 47 63 98 64 92 65 94 66
REMARK SMILES IDX 48 67 97 68 91 69 90 70 49 72 79 73 60 74 78 75 61 76 64 77
REMARK SMILES IDX 77 78 95 79 62 80 63 81 76 83 96 84 65 85 50 86 51 87 59 88
REMARK SMILES IDX 52 89 58 90 53 91 54 92 55 93 56 94 57 95 80 96 81 97 89 98
REMARK SMILES IDX 82 99 88 100 83 101 84 102 85 103 86 104 87 105 66 106
REMARK SMILES IDX 67 107 75 108 68 109 74 110 69 111 70 112 71 113 72 114
REMARK SMILES IDX 73 115
REMARK H PARENT 34 4 20 9 16 14 25 43 38 52 94 71 64 82
REMARK Flexibility Score: inf
ROOT
ATOM      1  C   UNL A   1      44.611  30.186  27.207  1.00  0.00     0.242 C 
ATOM      2  O   UNL A   1      43.794  31.081  27.449  1.00  0.00    -0.273 OA
ATOM      3  N   UNL A   1      44.172  29.077  26.547  1.00  0.00    -0.354 N 
ATOM      4  H   UNL A   1      43.199  28.926  26.577  1.00  0.00     0.163 HD
ENDROOT
BRANCH   1   5
ATOM      5  C   UNL A   1      46.084  30.386  27.625  1.00  0.00     0.175 C 
BRANCH   5   6
ATOM      6  N   UNL A   1      46.843  31.187  26.653  1.00  0.00    -0.342 N 
ATOM      7  C   UNL A   1      46.848  32.552  26.532  1.00  0.00     0.240 C 
ATOM      8  O   UNL A   1      47.777  33.093  25.930  1.00  0.00    -0.273 OA
ATOM      9  H   UNL A   1      47.409  30.689  26.021  1.00  0.00     0.164 HD
BRANCH   7  10
ATOM     10  C   UNL A   1      45.719  33.377  27.179  1.00  0.00     0.216 C 
BRANCH  10  11
ATOM     11  N   UNL A   1      44.710  33.731  26.176  1.00  0.00    -0.340 N 
ATOM     12  C   UNL A   1      43.708  34.681  26.265  1.00  0.00     0.292 C 
ATOM     13  O   UNL A   1      42.859  34.792  25.389  1.00  0.00    -0.265 OA
ATOM     14  H   UNL A   1      44.749  33.227  25.331  1.00  0.00     0.164 HD
BRANCH  12  15
ATOM     15  C   UNL A   1      43.681  35.612  27.479  1.00  0.00     0.252 C 
ATOM     16  O   UNL A   1      43.119  35.175  28.483  1.00  0.00    -0.283 OA
BRANCH  15  17
ATOM     17  C   UNL A   1      44.170  36.994  27.395  1.00  0.00     0.054 A 
ATOM     18  N   UNL A   1      45.382  38.902  27.437  1.00  0.00    -0.240 N 
ATOM     19  C   UNL A   1      45.429  37.531  27.687  1.00  0.00     0.117 A 
ATOM     20  C   UNL A   1      44.180  39.171  26.770  1.00  0.00     0.065 A 
ATOM     21  C   UNL A   1      43.335  38.100  27.048  1.00  0.00     0.012 A 
ATOM     22  C   UNL A   1      43.698  40.356  26.183  1.00  0.00     0.028 A 
ATOM     23  C   UNL A   1      41.944  38.286  26.906  1.00  0.00     0.011 A 
ATOM     24  C   UNL A   1      42.318  40.535  26.103  1.00  0.00     0.002 A 
ATOM     25  C   UNL A   1      41.449  39.529  26.500  1.00  0.00     0.001 A 
BRANCH  18  26
ATOM     26  S   UNL A   1      45.766  40.144  28.604  1.00  0.00     0.268 S 
ATOM     27  O   UNL A   1      46.425  41.165  27.806  1.00  0.00    -0.201 OA
ATOM     28  O   UNL A   1      46.480  39.417  29.642  1.00  0.00    -0.201 OA
BRANCH  26  29
ATOM     29  C   UNL A   1      44.562  41.012  29.547  1.00  0.00     0.088 A 
ATOM     30  C   UNL A   1      42.387  43.579  32.254  1.00  0.00     0.044 C 
ATOM     31  C   UNL A   1      43.101  42.693  31.275  1.00  0.00    -0.051 A 
ATOM     32  C   UNL A   1      44.444  42.954  31.040  1.00  0.00     0.005 A 
ATOM     33  C   UNL A   1      42.497  41.589  30.633  1.00  0.00     0.005 A 
ATOM     34  C   UNL A   1      45.152  42.132  30.182  1.00  0.00     0.022 A 
ATOM     35  C   UNL A   1      43.223  40.735  29.764  1.00  0.00     0.022 A 
ENDBRANCH  26  29
ENDBRANCH  18  26
ENDBRANCH  15  17
ENDBRANCH  12  15
ENDBRANCH  10  11
ENDBRANCH   7  10
ENDBRANCH   5   6
BRANCH   5  36
ATOM     36  C   UNL A   1      46.339  30.740  29.104  1.00  0.00     0.072 C 
BRANCH  36  37
ATOM     37  C   UNL A   1      47.047  29.723  29.941  1.00  0.00    -0.020 A 
ATOM     38  C   UNL A   1      47.373  29.869  31.277  1.00  0.00     0.087 A 
ATOM     39  C   UNL A   1      47.523  28.429  29.546  1.00  0.00     0.003 A 
ATOM     40  N   UNL A   1      48.182  28.822  31.649  1.00  0.00    -0.361 N 
ATOM     41  C   UNL A   1      48.257  27.914  30.617  1.00  0.00     0.046 A 
ATOM     42  C   UNL A   1      47.436  27.656  28.368  1.00  0.00     0.010 A 
ATOM     43  H   UNL A   1      48.636  28.736  32.518  1.00  0.00     0.166 HD
ATOM     44  C   UNL A   1      48.937  26.692  30.560  1.00  0.00     0.026 A 
ATOM     45  C   UNL A   1      48.074  26.410  28.309  1.00  0.00     0.001 A 
ATOM     46  C   UNL A   1      48.822  25.942  29.388  1.00  0.00     0.002 A 
ENDBRANCH  36  37
ENDBRANCH   5  36
ENDBRANCH   1   5
BRANCH   3  47
ATOM     47  C   UNL A   1      44.935  28.084  25.805  1.00  0.00     0.117 C 
BRANCH  47  48
ATOM     48  C   UNL A   1      44.183  26.792  25.559  1.00  0.00     0.042 C 
BRANCH  48  49
ATOM     49  C   UNL A   1      42.820  26.821  26.224  1.00  0.00     0.118 C 
BRANCH  49  50
ATOM     50  N   UNL A   1      41.999  25.634  25.995  1.00  0.00    -0.352 N 
ATOM     51  C   UNL A   1      40.764  25.319  26.561  1.00  0.00     0.251 C 
ATOM     52  H   UNL A   1      42.364  24.974  25.362  1.00  0.00     0.163 HD
ATOM     53  O   UNL A   1      40.261  24.232  26.441  1.00  0.00    -0.269 OA
BRANCH  51  54
ATOM     54  C   UNL A   1      40.056  26.420  27.263  1.00  0.00     0.039 A 
ATOM     55  C   UNL A   1      40.419  27.736  26.959  1.00  0.00     0.014 A 
ATOM     56  C   UNL A   1      39.311  26.128  28.397  1.00  0.00     0.014 A 
ATOM     57  C   UNL A   1      40.227  28.731  27.916  1.00  0.00     0.010 A 
ATOM     58  C   UNL A   1      39.268  27.070  29.399  1.00  0.00     0.010 A 
ATOM     59  C   UNL A   1      39.755  28.365  29.176  1.00  0.00    -0.014 A 
BRANCH  59  60
ATOM     60  C   UNL A   1      39.747  29.240  30.343  1.00  0.00     0.031 A 
ATOM     61  C   UNL A   1      38.971  30.504  30.287  1.00  0.00     0.074 A 
ATOM     62  C   UNL A   1      40.315  28.845  31.507  1.00  0.00     0.049 A 
ATOM     63  N   UNL A   1      39.152  31.515  31.068  1.00  0.00    -0.248 NA
ATOM     64  C   UNL A   1      37.923  30.738  29.293  1.00  0.00     0.031 C 
ATOM     65  C   UNL A   1      40.110  29.449  32.823  1.00  0.00     0.029 A 
ATOM     66  N   UNL A   1      41.355  27.937  31.724  1.00  0.00    -0.354 N 
ATOM     67  C   UNL A   1      38.072  32.356  30.908  1.00  0.00     0.074 A 
ATOM     68  C   UNL A   1      37.375  31.866  29.745  1.00  0.00     0.031 C 
ATOM     69  C   UNL A   1      41.159  29.150  33.604  1.00  0.00     0.029 A 
ATOM     70  C   UNL A   1      42.134  28.479  32.761  1.00  0.00     0.049 A 
ATOM     71  H   UNL A   1      41.510  27.088  31.247  1.00  0.00     0.167 HD
ATOM     72  C   UNL A   1      37.789  33.288  31.861  1.00  0.00     0.031 A 
ATOM     73  C   UNL A   1      43.434  28.872  32.612  1.00  0.00     0.031 A 
ATOM     74  C   UNL A   1      38.809  33.316  32.906  1.00  0.00     0.049 A 
ATOM     75  C   UNL A   1      43.654  30.340  32.928  1.00  0.00     0.074 A 
ATOM     76  C   UNL A   1      38.866  32.797  34.188  1.00  0.00     0.029 A 
ATOM     77  N   UNL A   1      40.109  33.677  32.569  1.00  0.00    -0.354 N 
ATOM     78  N   UNL A   1      42.692  31.214  33.046  1.00  0.00    -0.248 NA
ATOM     79  C   UNL A   1      44.971  30.949  33.098  1.00  0.00     0.031 C 
ATOM     80  C   UNL A   1      40.229  32.771  34.589  1.00  0.00     0.029 A 
ATOM     81  C   UNL A   1      40.991  33.301  33.563  1.00  0.00     0.049 A 
ATOM     82  H   UNL A   1      40.365  34.137  31.737  1.00  0.00     0.167 HD
ATOM     83  C   UNL A   1      43.214  32.459  33.284  1.00  0.00     0.074 A 
ATOM     84  C   UNL A   1      44.648  32.236  33.326  1.00  0.00     0.031 C 
ATOM     85  C   UNL A   1      42.419  33.564  33.413  1.00  0.00     0.031 A 
BRANCH  72  86
ATOM     86  C   UNL A   1      36.429  33.943  31.978  1.00  0.00    -0.014 A 
ATOM     87  C   UNL A   1      35.493  33.801  30.934  1.00  0.00     0.010 A 
ATOM     88  C   UNL A   1      36.038  34.763  33.054  1.00  0.00     0.010 A 
ATOM     89  C   UNL A   1      34.287  34.518  30.912  1.00  0.00     0.020 A 
ATOM     90  C   UNL A   1      34.857  35.523  33.026  1.00  0.00     0.020 A 
ATOM     91  C   UNL A   1      33.990  35.402  31.947  1.00  0.00     0.054 A 
BRANCH  91  92
ATOM     92  S   UNL A   1      32.475  36.392  31.859  1.00  0.00     0.124 S 
ATOM     93  O   UNL A   1      32.796  37.542  32.702  1.00  0.00    -0.237 OA
ATOM     94  O   UNL A   1      32.365  36.668  30.430  1.00  0.00    -0.237 OA
ATOM     95  O   UNL A   1      31.449  35.503  32.401  1.00  0.00    -0.744 OA
ENDBRANCH  91  92
ENDBRANCH  72  86
BRANCH  73  96
ATOM     96  C   UNL A   1      44.207  28.077  31.619  1.00  0.00    -0.014 A 
ATOM     97  C   UNL A   1      44.948  26.983  32.113  1.00  0.00     0.010 A 
ATOM     98  C   UNL A   1      43.858  28.101  30.257  1.00  0.00     0.010 A 
ATOM     99  C   UNL A   1      45.164  25.854  31.319  1.00  0.00     0.020 A 
ATOM    100  C   UNL A   1      44.076  26.968  29.457  1.00  0.00     0.020 A 
ATOM    101  C   UNL A   1      44.663  25.829  30.018  1.00  0.00     0.054 A 
BRANCH 101 102
ATOM    102  S   UNL A   1      44.583  24.219  29.176  1.00  0.00     0.124 S 
ATOM    103  O   UNL A   1      44.586  23.278  30.291  1.00  0.00    -0.237 OA
ATOM    104  O   UNL A   1      43.309  24.306  28.458  1.00  0.00    -0.237 OA
ATOM    105  O   UNL A   1      45.774  24.215  28.337  1.00  0.00    -0.744 OA
ENDBRANCH 101 102
ENDBRANCH  73  96
BRANCH  85 106
ATOM    106  C   UNL A   1      42.881  35.006  33.478  1.00  0.00    -0.014 A 
ATOM    107  C   UNL A   1      43.317  35.753  32.375  1.00  0.00     0.010 A 
ATOM    108  C   UNL A   1      42.759  35.703  34.708  1.00  0.00     0.010 A 
ATOM    109  C   UNL A   1      43.668  37.108  32.502  1.00  0.00     0.020 A 
ATOM    110  C   UNL A   1      43.058  37.062  34.835  1.00  0.00     0.020 A 
ATOM    111  C   UNL A   1      43.538  37.753  33.732  1.00  0.00     0.054 A 
BRANCH 111 112
ATOM    112  S   UNL A   1      43.928  39.516  33.868  1.00  0.00     0.124 S 
ATOM    113  O   UNL A   1      44.939  39.682  32.826  1.00  0.00    -0.237 OA
ATOM    114  O   UNL A   1      42.643  40.159  33.601  1.00  0.00    -0.237 OA
ATOM    115  O   UNL A   1      44.411  39.655  35.239  1.00  0.00    -0.744 OA
ENDBRANCH 111 112
ENDBRANCH  85 106
ENDBRANCH  59  60
ENDBRANCH  51  54
ENDBRANCH  49  50
ENDBRANCH  48  49
ENDBRANCH  47  48
ENDBRANCH   3  47
TORSDOF 22
ENDMDL
MODEL 3
REMARK VINA RESULT:      -9.2      3.337     10.725
REMARK SMILES Cc1ccc(S(=O)(=O)n2cc(C(=O)C(=O)NCC(=O)N[C@@H](Cc3c[nH]c4ccccc34)C(=O)NCCCNC(=O)c3ccc(-c4c5nc(c(-c6ccc(S(=O)(=O)[O-])cc6)c6ccc([nH]6)c(-c6ccc(S(=O)(=O)[O-])cc6)c6nc(c(-c7ccc(S(=O)(=O)[O-])cc7)c7ccc4[nH]7)C=C6)C=C5)cc3)c3ccccc32)cc1
REMARK SMILES IDX 32 1 33 2 34 3 21 5 20 6 18 7 19 8 17 10 16 11 14 12 15 13
REMARK SMILES IDX 12 15 13 16 11 17 9 18 10 19 106 20 101 21 105 22 102 23
REMARK SMILES IDX 104 24 103 25 6 26 7 27 8 28 5 29 1 30 2 31 3 32 108 33 4 34
REMARK SMILES IDX 107 35 22 36 23 37 24 38 31 39 25 40 26 41 30 42 27 44 29 45
REMARK SMILES IDX 28 46 35 47 36 48 37 49 38 50 39 51 40 53 41 54 42 55 100 56
REMARK SMILES IDX 43 57 99 58 44 59 45 60 46 61 93 62 47 63 98 64 92 65 94 66
REMARK SMILES IDX 48 67 97 68 91 69 90 70 49 72 79 73 60 74 78 75 61 76 64 77
REMARK SMILES IDX 77 78 95 79 62 80 63 81 76 83 96 84 65 85 50 86 51 87 59 88
REMARK SMILES IDX 52 89 58 90 53 91 54 92 55 93 56 94 57 95 80 96 81 97 89 98
REMARK SMILES IDX 82 99 88 100 83 101 84 102 85 103 86 104 87 105 66 106
REMARK SMILES IDX 67 107 75 108 68 109 74 110 69 111 70 112 71 113 72 114
REMARK SMILES IDX 73 115
REMARK H PARENT 34 4 20 9 16 14 25 43 38 52 94 71 64 82
REMARK Flexibility Score: inf
ROOT
ATOM      1  C   UNL A   1      46.974  31.476  27.032  1.00  0.00     0.242 C 
ATOM      2  O   UNL A   1      47.717  31.952  26.167  1.00  0.00    -0.273 OA
ATOM      3  N   UNL A   1      47.537  31.062  28.204  1.00  0.00    -0.354 N 
ATOM      4  H   UNL A   1      48.505  30.888  28.168  1.00  0.00     0.163 HD
ENDROOT
BRANCH   1   5
ATOM      5  C   UNL A   1      45.456  31.412  26.761  1.00  0.00     0.175 C 
BRANCH   5   6
ATOM      6  N   UNL A   1      45.086  32.022  25.475  1.00  0.00    -0.342 N 
ATOM      7  C   UNL A   1      44.472  33.232  25.281  1.00  0.00     0.240 C 
ATOM      8  O   UNL A   1      44.545  33.765  24.172  1.00  0.00    -0.273 OA
ATOM      9  H   UNL A   1      45.302  31.505  24.665  1.00  0.00     0.164 HD
BRANCH   7  10
ATOM     10  C   UNL A   1      43.743  33.912  26.455  1.00  0.00     0.216 C 
BRANCH  10  11
ATOM     11  N   UNL A   1      44.422  35.160  26.819  1.00  0.00    -0.340 N 
ATOM     12  C   UNL A   1      43.913  36.242  27.514  1.00  0.00     0.292 C 
ATOM     13  O   UNL A   1      44.562  37.272  27.650  1.00  0.00    -0.265 OA
ATOM     14  H   UNL A   1      45.361  35.237  26.532  1.00  0.00     0.164 HD
BRANCH  12  15
ATOM     15  C   UNL A   1      42.516  36.132  28.130  1.00  0.00     0.252 C 
ATOM     16  O   UNL A   1      41.664  36.896  27.678  1.00  0.00    -0.283 OA
BRANCH  15  17
ATOM     17  C   UNL A   1      42.256  35.268  29.288  1.00  0.00     0.054 A 
ATOM     18  N   UNL A   1      42.392  33.917  31.096  1.00  0.00    -0.240 N 
ATOM     19  C   UNL A   1      43.143  34.612  30.149  1.00  0.00     0.117 A 
ATOM     20  C   UNL A   1      41.060  34.331  30.968  1.00  0.00     0.065 A 
ATOM     21  C   UNL A   1      40.944  34.872  29.691  1.00  0.00     0.012 A 
ATOM     22  C   UNL A   1      39.927  34.043  31.751  1.00  0.00     0.028 A 
ATOM     23  C   UNL A   1      39.662  34.955  29.109  1.00  0.00     0.011 A 
ATOM     24  C   UNL A   1      38.677  34.082  31.136  1.00  0.00     0.002 A 
ATOM     25  C   UNL A   1      38.548  34.491  29.817  1.00  0.00     0.001 A 
BRANCH  18  26
ATOM     26  S   UNL A   1      42.509  32.201  31.400  1.00  0.00     0.268 S 
ATOM     27  O   UNL A   1      42.199  32.087  32.816  1.00  0.00    -0.201 OA
ATOM     28  O   UNL A   1      43.827  31.860  30.884  1.00  0.00    -0.201 OA
BRANCH  26  29
ATOM     29  C   UNL A   1      41.501  30.993  30.615  1.00  0.00     0.088 A 
ATOM     30  C   UNL A   1      39.780  27.957  28.072  1.00  0.00     0.044 C 
ATOM     31  C   UNL A   1      40.353  28.988  29.001  1.00  0.00    -0.051 A 
ATOM     32  C   UNL A   1      41.710  29.259  28.894  1.00  0.00     0.005 A 
ATOM     33  C   UNL A   1      39.580  29.723  29.927  1.00  0.00     0.005 A 
ATOM     34  C   UNL A   1      42.269  30.236  29.697  1.00  0.00     0.022 A 
ATOM     35  C   UNL A   1      40.147  30.737  30.742  1.00  0.00     0.022 A 
ENDBRANCH  26  29
ENDBRANCH  18  26
ENDBRANCH  15  17
ENDBRANCH  12  15
ENDBRANCH  10  11
ENDBRANCH   7  10
ENDBRANCH   5   6
BRANCH   5  36
ATOM     36  C   UNL A   1      44.754  30.076  27.077  1.00  0.00     0.072 C 
BRANCH  36  37
ATOM     37  C   UNL A   1      45.242  28.858  26.359  1.00  0.00    -0.020 A 
ATOM     38  C   UNL A   1      46.405  28.777  25.614  1.00  0.00     0.087 A 
ATOM     39  C   UNL A   1      44.626  27.565  26.290  1.00  0.00     0.003 A 
ATOM     40  N   UNL A   1      46.419  27.574  24.951  1.00  0.00    -0.361 N 
ATOM     41  C   UNL A   1      45.360  26.805  25.378  1.00  0.00     0.046 A 
ATOM     42  C   UNL A   1      43.491  26.975  26.886  1.00  0.00     0.010 A 
ATOM     43  H   UNL A   1      47.084  27.304  24.277  1.00  0.00     0.166 HD
ATOM     44  C   UNL A   1      45.000  25.506  25.002  1.00  0.00     0.026 A 
ATOM     45  C   UNL A   1      43.142  25.659  26.555  1.00  0.00     0.001 A 
ATOM     46  C   UNL A   1      43.881  24.940  25.617  1.00  0.00     0.002 A 
ENDBRANCH  36  37
ENDBRANCH   5  36
ENDBRANCH   1   5
BRANCH   3  47
ATOM     47  C   UNL A   1      46.910  30.842  29.498  1.00  0.00     0.117 C 
BRANCH  47  48
ATOM     48  C   UNL A   1      46.675  29.381  29.825  1.00  0.00     0.042 C 
BRANCH  48  49
ATOM     49  C   UNL A   1      47.960  28.584  29.700  1.00  0.00     0.118 C 
BRANCH  49  50
ATOM     50  N   UNL A   1      48.126  27.881  28.429  1.00  0.00    -0.352 N 
ATOM     51  C   UNL A   1      47.948  26.523  28.166  1.00  0.00     0.251 C 
ATOM     52  H   UNL A   1      48.397  28.437  27.662  1.00  0.00     0.163 HD
ATOM     53  O   UNL A   1      48.288  26.021  27.125  1.00  0.00    -0.269 OA
BRANCH  51  54
ATOM     54  C   UNL A   1      47.248  25.732  29.209  1.00  0.00     0.039 A 
ATOM     55  C   UNL A   1      45.910  25.391  28.990  1.00  0.00     0.014 A 
ATOM     56  C   UNL A   1      47.813  25.635  30.474  1.00  0.00     0.014 A 
ATOM     57  C   UNL A   1      45.078  25.167  30.086  1.00  0.00     0.010 A 
ATOM     58  C   UNL A   1      46.963  25.575  31.554  1.00  0.00     0.010 A 
ATOM     59  C   UNL A   1      45.589  25.374  31.367  1.00  0.00    -0.014 A 
BRANCH  59  60
ATOM     60  C   UNL A   1      44.783  25.430  32.581  1.00  0.00     0.031 A 
ATOM     61  C   UNL A   1      44.278  26.746  33.046  1.00  0.00     0.074 A 
ATOM     62  C   UNL A   1      44.379  24.293  33.196  1.00  0.00     0.049 A 
ATOM     63  N   UNL A   1      43.877  26.999  34.247  1.00  0.00    -0.248 NA
ATOM     64  C   UNL A   1      44.217  27.917  32.171  1.00  0.00     0.031 C 
ATOM     65  C   UNL A   1      43.324  24.178  34.202  1.00  0.00     0.029 A 
ATOM     66  N   UNL A   1      44.966  23.025  33.192  1.00  0.00    -0.354 N 
ATOM     67  C   UNL A   1      43.220  28.210  34.214  1.00  0.00     0.074 A 
ATOM     68  C   UNL A   1      43.522  28.773  32.921  1.00  0.00     0.031 C 
ATOM     69  C   UNL A   1      43.533  23.064  34.921  1.00  0.00     0.029 A 
ATOM     70  C   UNL A   1      44.813  22.522  34.496  1.00  0.00     0.049 A 
ATOM     71  H   UNL A   1      45.399  22.575  32.430  1.00  0.00     0.167 HD
ATOM     72  C   UNL A   1      42.365  28.547  35.220  1.00  0.00     0.031 A 
ATOM     73  C   UNL A   1      45.856  22.244  35.333  1.00  0.00     0.031 A 
ATOM     74  C   UNL A   1      42.374  27.554  36.289  1.00  0.00     0.049 A 
ATOM     75  C   UNL A   1      45.811  23.036  36.626  1.00  0.00     0.074 A 
ATOM     76  C   UNL A   1      41.519  26.518  36.628  1.00  0.00     0.029 A 
ATOM     77  N   UNL A   1      43.547  27.344  37.006  1.00  0.00    -0.354 N 
ATOM     78  N   UNL A   1      45.047  24.076  36.820  1.00  0.00    -0.248 NA
ATOM     79  C   UNL A   1      46.647  22.747  37.789  1.00  0.00     0.031 C 
ATOM     80  C   UNL A   1      42.221  25.635  37.492  1.00  0.00     0.029 A 
ATOM     81  C   UNL A   1      43.488  26.152  37.700  1.00  0.00     0.049 A 
ATOM     82  H   UNL A   1      44.315  27.961  37.017  1.00  0.00     0.167 HD
ATOM     83  C   UNL A   1      45.271  24.598  38.067  1.00  0.00     0.074 A 
ATOM     84  C   UNL A   1      46.271  23.717  38.643  1.00  0.00     0.031 C 
ATOM     85  C   UNL A   1      44.622  25.718  38.510  1.00  0.00     0.031 A 
BRANCH  72  86
ATOM     86  C   UNL A   1      41.314  29.625  35.065  1.00  0.00    -0.014 A 
ATOM     87  C   UNL A   1      41.375  30.782  35.868  1.00  0.00     0.010 A 
ATOM     88  C   UNL A   1      40.208  29.530  34.197  1.00  0.00     0.010 A 
ATOM     89  C   UNL A   1      40.342  31.732  35.886  1.00  0.00     0.020 A 
ATOM     90  C   UNL A   1      39.145  30.446  34.236  1.00  0.00     0.020 A 
ATOM     91  C   UNL A   1      39.214  31.540  35.090  1.00  0.00     0.054 A 
BRANCH  91  92
ATOM     92  S   UNL A   1      37.846  32.725  35.193  1.00  0.00     0.124 S 
ATOM     93  O   UNL A   1      38.541  34.008  35.270  1.00  0.00    -0.237 OA
ATOM     94  O   UNL A   1      37.123  32.474  33.951  1.00  0.00    -0.237 OA
ATOM     95  O   UNL A   1      37.142  32.335  36.412  1.00  0.00    -0.744 OA
ENDBRANCH  91  92
ENDBRANCH  72  86
BRANCH  73  96
ATOM     96  C   UNL A   1      47.093  21.785  34.643  1.00  0.00    -0.014 A 
ATOM     97  C   UNL A   1      48.145  22.718  34.529  1.00  0.00     0.010 A 
ATOM     98  C   UNL A   1      47.387  20.414  34.538  1.00  0.00     0.010 A 
ATOM     99  C   UNL A   1      49.474  22.291  34.509  1.00  0.00     0.020 A 
ATOM    100  C   UNL A   1      48.723  19.983  34.518  1.00  0.00     0.020 A 
ATOM    101  C   UNL A   1      49.754  20.927  34.576  1.00  0.00     0.054 A 
BRANCH 101 102
ATOM    102  S   UNL A   1      51.458  20.433  34.978  1.00  0.00     0.124 S 
ATOM    103  O   UNL A   1      51.552  20.747  36.400  1.00  0.00    -0.237 OA
ATOM    104  O   UNL A   1      51.447  19.000  34.672  1.00  0.00    -0.237 OA
ATOM    105  O   UNL A   1      52.268  21.256  34.091  1.00  0.00    -0.744 OA
ENDBRANCH 101 102
ENDBRANCH  73  96
BRANCH  85 106
ATOM    106  C   UNL A   1      44.925  26.497  39.773  1.00  0.00    -0.014 A 
ATOM    107  C   UNL A   1      44.149  26.458  40.940  1.00  0.00     0.010 A 
ATOM    108  C   UNL A   1      46.138  27.231  39.843  1.00  0.00     0.010 A 
ATOM    109  C   UNL A   1      44.530  27.158  42.097  1.00  0.00     0.020 A 
ATOM    110  C   UNL A   1      46.553  27.891  41.004  1.00  0.00     0.020 A 
ATOM    111  C   UNL A   1      45.729  27.872  42.120  1.00  0.00     0.054 A 
BRANCH 111 112
ATOM    112  S   UNL A   1      46.244  28.715  43.638  1.00  0.00     0.124 S 
ATOM    113  O   UNL A   1      45.713  27.828  44.670  1.00  0.00    -0.237 OA
ATOM    114  O   UNL A   1      47.701  28.738  43.523  1.00  0.00    -0.237 OA
ATOM    115  O   UNL A   1      45.599  30.021  43.540  1.00  0.00    -0.744 OA
ENDBRANCH 111 112
ENDBRANCH  85 106
ENDBRANCH  59  60
ENDBRANCH  51  54
ENDBRANCH  49  50
ENDBRANCH  48  49
ENDBRANCH  47  48
ENDBRANCH   3  47
TORSDOF 22
ENDMDL
