MODEL 1
REMARK VINA RESULT:     -11.7      0.000      0.000
REMARK SMILES C[C@@H]1[C@H](C(=O)NCCCNC(=O)c2ccc(-c3c4nc(c(-c5ccc(S(=O)(=O)[O-])cc5)c5ccc([nH]5)c(-c5ccc(S(=O)(=O)[O-])cc5)c5nc(c(-c6ccc(S(=O)(=O)[O-])cc6)c6ccc3[nH]6)C=C5)C=C4)cc2)CCN1C(=O)c1ccc([N+](=O)[O-])c(F)c1
REMARK SMILES IDX 8 1 7 2 6 3 4 4 5 5 3 7 1 8 2 9 75 10 73 11 74 12 76 13
REMARK SMILES IDX 77 14 78 15 79 16 87 17 80 18 85 19 81 20 86 21 82 22 83 23
REMARK SMILES IDX 84 24 9 25 10 26 11 27 12 29 13 30 14 31 72 32 15 33 71 34
REMARK SMILES IDX 16 35 17 36 18 37 65 38 19 39 70 40 64 41 66 42 20 43 69 44
REMARK SMILES IDX 63 45 62 46 21 48 51 49 32 50 50 51 33 52 36 53 49 54 67 55
REMARK SMILES IDX 34 56 35 57 48 59 68 60 37 61 22 62 23 63 31 64 24 65 30 66
REMARK SMILES IDX 25 67 26 68 27 69 28 70 29 71 52 72 53 73 61 74 54 75 60 76
REMARK SMILES IDX 55 77 56 78 57 79 58 80 59 81 38 82 39 83 47 84 40 85 46 86
REMARK SMILES IDX 41 87 42 88 43 89 44 90 45 91
REMARK H PARENT 6 6 10 28 66 47 36 58
REMARK Flexibility Score: inf
ROOT
ATOM      1  C   UNL A   1      33.936  28.058  25.352  1.00  0.00     0.042 C 
ENDROOT
BRANCH   1   2
ATOM      2  C   UNL A   1      32.853  27.262  24.625  1.00  0.00     0.117 C 
BRANCH   2   3
ATOM      3  N   UNL A   1      33.177  26.988  23.231  1.00  0.00    -0.356 N 
ATOM      4  C   UNL A   1      33.123  25.871  22.463  1.00  0.00     0.225 C 
ATOM      5  O   UNL A   1      33.505  25.989  21.293  1.00  0.00    -0.275 OA
ATOM      6  H   UNL A   1      33.504  27.779  22.745  1.00  0.00     0.163 HD
BRANCH   4   7
ATOM      7  C   UNL A   1      32.647  24.510  22.951  1.00  0.00     0.102 C 
ATOM      8  C   UNL A   1      34.896  24.311  24.248  1.00  0.00     0.032 C 
ATOM      9  C   UNL A   1      33.635  23.627  23.745  1.00  0.00     0.094 C 
ATOM     10  N   UNL A   1      32.808  22.996  24.792  1.00  0.00    -0.335 N 
ATOM     11  C   UNL A   1      31.332  24.521  23.726  1.00  0.00     0.037 C 
ATOM     12  C   UNL A   1      31.401  23.289  24.603  1.00  0.00     0.121 C 
BRANCH  10  13
ATOM     13  C   UNL A   1      33.134  21.984  25.687  1.00  0.00     0.254 C 
ATOM     14  O   UNL A   1      33.249  22.161  26.897  1.00  0.00    -0.269 OA
BRANCH  13  15
ATOM     15  C   UNL A   1      33.344  20.616  25.191  1.00  0.00     0.043 A 
ATOM     16  C   UNL A   1      32.237  19.841  24.826  1.00  0.00     0.021 A 
ATOM     17  C   UNL A   1      34.638  20.084  25.155  1.00  0.00     0.060 A 
ATOM     18  C   UNL A   1      32.433  18.543  24.347  1.00  0.00     0.090 A 
ATOM     19  C   UNL A   1      34.832  18.799  24.656  1.00  0.00     0.201 A 
ATOM     20  C   UNL A   1      33.739  18.041  24.242  1.00  0.00     0.304 A 
ATOM     21  F   UNL A   1      36.084  18.330  24.587  1.00  0.00    -0.199 F 
BRANCH  20  22
ATOM     22  N   UNL A   1      33.947  16.725  23.665  1.00  0.00     0.065 N 
ATOM     23  O   UNL A   1      34.140  16.673  22.442  1.00  0.00    -0.258 OA
ATOM     24  O   UNL A   1      33.999  15.758  24.436  1.00  0.00    -0.258 OA
ENDBRANCH  20  22
ENDBRANCH  13  15
ENDBRANCH  10  13
ENDBRANCH   4   7
ENDBRANCH   2   3
ENDBRANCH   1   2
BRANCH   1  25
ATOM     25  C   UNL A   1      33.720  28.240  26.848  1.00  0.00     0.118 C 
BRANCH  25  26
ATOM     26  N   UNL A   1      33.556  29.632  27.227  1.00  0.00    -0.352 N 
ATOM     27  C   UNL A   1      34.391  30.464  27.937  1.00  0.00     0.251 C 
ATOM     28  H   UNL A   1      32.715  30.046  26.928  1.00  0.00     0.163 HD
ATOM     29  O   UNL A   1      33.961  31.553  28.310  1.00  0.00    -0.269 OA
BRANCH  27  30
ATOM     30  C   UNL A   1      35.781  30.067  28.279  1.00  0.00     0.039 A 
ATOM     31  C   UNL A   1      36.759  30.124  27.279  1.00  0.00     0.014 A 
ATOM     32  C   UNL A   1      36.125  29.583  29.543  1.00  0.00     0.014 A 
ATOM     33  C   UNL A   1      38.079  29.751  27.563  1.00  0.00     0.010 A 
ATOM     34  C   UNL A   1      37.456  29.297  29.850  1.00  0.00     0.010 A 
ATOM     35  C   UNL A   1      38.446  29.361  28.859  1.00  0.00    -0.014 A 
BRANCH  35  36
ATOM     36  C   UNL A   1      39.848  28.985  29.191  1.00  0.00     0.031 A 
ATOM     37  C   UNL A   1      40.760  29.977  29.868  1.00  0.00     0.074 A 
ATOM     38  C   UNL A   1      40.326  27.773  28.841  1.00  0.00     0.049 A 
ATOM     39  N   UNL A   1      42.029  29.861  30.173  1.00  0.00    -0.248 NA
ATOM     40  C   UNL A   1      40.177  31.281  30.228  1.00  0.00     0.031 C 
ATOM     41  C   UNL A   1      39.565  26.729  28.152  1.00  0.00     0.029 A 
ATOM     42  N   UNL A   1      41.570  27.217  29.012  1.00  0.00    -0.354 N 
ATOM     43  C   UNL A   1      42.399  31.079  30.732  1.00  0.00     0.074 A 
ATOM     44  C   UNL A   1      41.234  31.935  30.686  1.00  0.00     0.031 C 
ATOM     45  C   UNL A   1      40.349  25.652  27.984  1.00  0.00     0.029 A 
ATOM     46  C   UNL A   1      41.678  25.938  28.517  1.00  0.00     0.049 A 
ATOM     47  H   UNL A   1      42.315  27.690  29.448  1.00  0.00     0.167 HD
ATOM     48  C   UNL A   1      43.593  31.450  31.255  1.00  0.00     0.031 A 
ATOM     49  C   UNL A   1      42.726  25.093  28.489  1.00  0.00     0.031 A 
ATOM     50  C   UNL A   1      44.746  30.595  31.328  1.00  0.00     0.049 A 
ATOM     51  C   UNL A   1      44.039  25.521  29.084  1.00  0.00     0.074 A 
ATOM     52  C   UNL A   1      45.984  30.863  31.889  1.00  0.00     0.029 A 
ATOM     53  N   UNL A   1      44.805  29.301  30.832  1.00  0.00    -0.354 N 
ATOM     54  N   UNL A   1      44.351  26.662  29.651  1.00  0.00    -0.248 NA
ATOM     55  C   UNL A   1      45.136  24.544  29.045  1.00  0.00     0.031 C 
ATOM     56  C   UNL A   1      46.802  29.744  31.699  1.00  0.00     0.029 A 
ATOM     57  C   UNL A   1      46.059  28.763  31.061  1.00  0.00     0.049 A 
ATOM     58  H   UNL A   1      44.064  28.835  30.381  1.00  0.00     0.167 HD
ATOM     59  C   UNL A   1      45.675  26.531  30.058  1.00  0.00     0.074 A 
ATOM     60  C   UNL A   1      46.099  25.196  29.683  1.00  0.00     0.031 C 
ATOM     61  C   UNL A   1      46.468  27.433  30.686  1.00  0.00     0.031 A 
BRANCH  48  62
ATOM     62  C   UNL A   1      43.708  32.853  31.793  1.00  0.00    -0.014 A 
ATOM     63  C   UNL A   1      43.546  33.119  33.164  1.00  0.00     0.010 A 
ATOM     64  C   UNL A   1      44.011  33.915  30.920  1.00  0.00     0.010 A 
ATOM     65  C   UNL A   1      43.636  34.427  33.647  1.00  0.00     0.020 A 
ATOM     66  C   UNL A   1      44.129  35.220  31.404  1.00  0.00     0.020 A 
ATOM     67  C   UNL A   1      43.920  35.471  32.762  1.00  0.00     0.054 A 
BRANCH  67  68
ATOM     68  S   UNL A   1      44.041  37.159  33.415  1.00  0.00     0.124 S 
ATOM     69  O   UNL A   1      44.251  37.938  32.197  1.00  0.00    -0.237 OA
ATOM     70  O   UNL A   1      42.747  37.347  34.065  1.00  0.00    -0.237 OA
ATOM     71  O   UNL A   1      45.186  37.098  34.321  1.00  0.00    -0.744 OA
ENDBRANCH  67  68
ENDBRANCH  48  62
BRANCH  49  72
ATOM     72  C   UNL A   1      42.568  23.737  27.897  1.00  0.00    -0.014 A 
ATOM     73  C   UNL A   1      42.157  22.657  28.698  1.00  0.00     0.010 A 
ATOM     74  C   UNL A   1      42.811  23.520  26.528  1.00  0.00     0.010 A 
ATOM     75  C   UNL A   1      42.003  21.382  28.145  1.00  0.00     0.020 A 
ATOM     76  C   UNL A   1      42.635  22.252  25.967  1.00  0.00     0.020 A 
ATOM     77  C   UNL A   1      42.242  21.189  26.781  1.00  0.00     0.054 A 
BRANCH  77  78
ATOM     78  S   UNL A   1      41.975  19.539  26.072  1.00  0.00     0.124 S 
ATOM     79  O   UNL A   1      42.806  19.586  24.873  1.00  0.00    -0.237 OA
ATOM     80  O   UNL A   1      42.446  18.655  27.135  1.00  0.00    -0.237 OA
ATOM     81  O   UNL A   1      40.533  19.500  25.835  1.00  0.00    -0.744 OA
ENDBRANCH  77  78
ENDBRANCH  49  72
BRANCH  61  82
ATOM     82  C   UNL A   1      47.863  27.001  31.042  1.00  0.00    -0.014 A 
ATOM     83  C   UNL A   1      48.149  26.422  32.291  1.00  0.00     0.010 A 
ATOM     84  C   UNL A   1      48.892  27.126  30.091  1.00  0.00     0.010 A 
ATOM     85  C   UNL A   1      49.446  26.000  32.593  1.00  0.00     0.020 A 
ATOM     86  C   UNL A   1      50.185  26.684  30.380  1.00  0.00     0.020 A 
ATOM     87  C   UNL A   1      50.458  26.135  31.636  1.00  0.00     0.054 A 
BRANCH  87  88
ATOM     88  S   UNL A   1      52.124  25.538  32.031  1.00  0.00     0.124 S 
ATOM     89  O   UNL A   1      52.400  26.221  33.292  1.00  0.00    -0.237 OA
ATOM     90  O   UNL A   1      51.934  24.092  32.129  1.00  0.00    -0.237 OA
ATOM     91  O   UNL A   1      52.928  25.978  30.894  1.00  0.00    -0.744 OA
ENDBRANCH  87  88
ENDBRANCH  61  82
ENDBRANCH  35  36
ENDBRANCH  27  30
ENDBRANCH  25  26
ENDBRANCH   1  25
TORSDOF 16
ENDMDL
MODEL 2
REMARK VINA RESULT:     -11.5      2.039      2.608
REMARK SMILES C[C@@H]1[C@H](C(=O)NCCCNC(=O)c2ccc(-c3c4nc(c(-c5ccc(S(=O)(=O)[O-])cc5)c5ccc([nH]5)c(-c5ccc(S(=O)(=O)[O-])cc5)c5nc(c(-c6ccc(S(=O)(=O)[O-])cc6)c6ccc3[nH]6)C=C5)C=C4)cc2)CCN1C(=O)c1ccc([N+](=O)[O-])c(F)c1
REMARK SMILES IDX 8 1 7 2 6 3 4 4 5 5 3 7 1 8 2 9 75 10 73 11 74 12 76 13
REMARK SMILES IDX 77 14 78 15 79 16 87 17 80 18 85 19 81 20 86 21 82 22 83 23
REMARK SMILES IDX 84 24 9 25 10 26 11 27 12 29 13 30 14 31 72 32 15 33 71 34
REMARK SMILES IDX 16 35 17 36 18 37 65 38 19 39 70 40 64 41 66 42 20 43 69 44
REMARK SMILES IDX 63 45 62 46 21 48 51 49 32 50 50 51 33 52 36 53 49 54 67 55
REMARK SMILES IDX 34 56 35 57 48 59 68 60 37 61 22 62 23 63 31 64 24 65 30 66
REMARK SMILES IDX 25 67 26 68 27 69 28 70 29 71 52 72 53 73 61 74 54 75 60 76
REMARK SMILES IDX 55 77 56 78 57 79 58 80 59 81 38 82 39 83 47 84 40 85 46 86
REMARK SMILES IDX 41 87 42 88 43 89 44 90 45 91
REMARK H PARENT 6 6 10 28 66 47 36 58
REMARK Flexibility Score: inf
ROOT
ATOM      1  C   UNL A   1      33.265  28.360  24.853  1.00  0.00     0.042 C 
ENDROOT
BRANCH   1   2
ATOM      2  C   UNL A   1      31.899  29.042  24.919  1.00  0.00     0.117 C 
BRANCH   2   3
ATOM      3  N   UNL A   1      31.295  29.250  23.610  1.00  0.00    -0.356 N 
ATOM      4  C   UNL A   1      30.656  28.432  22.737  1.00  0.00     0.225 C 
ATOM      5  O   UNL A   1      30.280  28.945  21.677  1.00  0.00    -0.275 OA
ATOM      6  H   UNL A   1      31.365  30.179  23.292  1.00  0.00     0.163 HD
BRANCH   4   7
ATOM      7  C   UNL A   1      30.398  26.951  22.972  1.00  0.00     0.102 C 
ATOM      8  C   UNL A   1      32.770  26.494  22.000  1.00  0.00     0.032 C 
ATOM      9  C   UNL A   1      31.428  25.930  22.438  1.00  0.00     0.094 C 
ATOM     10  N   UNL A   1      31.501  24.895  23.488  1.00  0.00    -0.335 N 
ATOM     11  C   UNL A   1      30.094  26.566  24.418  1.00  0.00     0.037 C 
ATOM     12  C   UNL A   1      30.503  25.112  24.516  1.00  0.00     0.121 C 
BRANCH  10  13
ATOM     13  C   UNL A   1      32.140  23.661  23.470  1.00  0.00     0.254 C 
ATOM     14  O   UNL A   1      31.629  22.640  23.016  1.00  0.00    -0.269 OA
BRANCH  13  15
ATOM     15  C   UNL A   1      33.505  23.541  24.004  1.00  0.00     0.043 A 
ATOM     16  C   UNL A   1      33.723  23.721  25.374  1.00  0.00     0.021 A 
ATOM     17  C   UNL A   1      34.573  23.319  23.129  1.00  0.00     0.060 A 
ATOM     18  C   UNL A   1      35.017  23.602  25.887  1.00  0.00     0.090 A 
ATOM     19  C   UNL A   1      35.859  23.178  23.645  1.00  0.00     0.201 A 
ATOM     20  C   UNL A   1      36.076  23.304  25.014  1.00  0.00     0.304 A 
ATOM     21  F   UNL A   1      36.857  22.917  22.791  1.00  0.00    -0.199 F 
BRANCH  20  22
ATOM     22  N   UNL A   1      37.405  23.096  25.559  1.00  0.00     0.065 N 
ATOM     23  O   UNL A   1      37.794  21.923  25.657  1.00  0.00    -0.258 OA
ATOM     24  O   UNL A   1      38.089  24.096  25.812  1.00  0.00    -0.258 OA
ENDBRANCH  20  22
ENDBRANCH  13  15
ENDBRANCH  10  13
ENDBRANCH   4   7
ENDBRANCH   2   3
ENDBRANCH   1   2
BRANCH   1  25
ATOM     25  C   UNL A   1      34.147  28.541  26.081  1.00  0.00     0.118 C 
BRANCH  25  26
ATOM     26  N   UNL A   1      33.844  29.756  26.816  1.00  0.00    -0.352 N 
ATOM     27  C   UNL A   1      34.567  30.413  27.786  1.00  0.00     0.251 C 
ATOM     28  H   UNL A   1      32.986  30.177  26.583  1.00  0.00     0.163 HD
ATOM     29  O   UNL A   1      34.025  31.320  28.413  1.00  0.00    -0.269 OA
BRANCH  27  30
ATOM     30  C   UNL A   1      35.967  30.034  28.104  1.00  0.00     0.039 A 
ATOM     31  C   UNL A   1      36.265  29.593  29.398  1.00  0.00     0.014 A 
ATOM     32  C   UNL A   1      37.001  30.164  27.172  1.00  0.00     0.014 A 
ATOM     33  C   UNL A   1      37.575  29.233  29.736  1.00  0.00     0.010 A 
ATOM     34  C   UNL A   1      38.288  29.722  27.483  1.00  0.00     0.010 A 
ATOM     35  C   UNL A   1      38.595  29.267  28.773  1.00  0.00    -0.014 A 
BRANCH  35  36
ATOM     36  C   UNL A   1      39.990  28.866  29.102  1.00  0.00     0.031 A 
ATOM     37  C   UNL A   1      40.921  29.842  29.779  1.00  0.00     0.074 A 
ATOM     38  C   UNL A   1      40.445  27.645  28.752  1.00  0.00     0.049 A 
ATOM     39  N   UNL A   1      42.188  29.703  30.081  1.00  0.00    -0.248 NA
ATOM     40  C   UNL A   1      40.361  31.155  30.140  1.00  0.00     0.031 C 
ATOM     41  C   UNL A   1      39.665  26.615  28.064  1.00  0.00     0.029 A 
ATOM     42  N   UNL A   1      41.680  27.067  28.921  1.00  0.00    -0.354 N 
ATOM     43  C   UNL A   1      42.580  30.914  30.640  1.00  0.00     0.074 A 
ATOM     44  C   UNL A   1      41.430  31.791  30.596  1.00  0.00     0.031 C 
ATOM     45  C   UNL A   1      40.430  25.524  27.895  1.00  0.00     0.029 A 
ATOM     46  C   UNL A   1      41.764  25.787  28.426  1.00  0.00     0.049 A 
ATOM     47  H   UNL A   1      42.434  27.527  29.357  1.00  0.00     0.167 HD
ATOM     48  C   UNL A   1      43.781  31.264  31.162  1.00  0.00     0.031 A 
ATOM     49  C   UNL A   1      42.797  24.923  28.397  1.00  0.00     0.031 A 
ATOM     50  C   UNL A   1      44.919  30.388  31.233  1.00  0.00     0.049 A 
ATOM     51  C   UNL A   1      44.118  25.328  28.990  1.00  0.00     0.074 A 
ATOM     52  C   UNL A   1      46.162  30.634  31.793  1.00  0.00     0.029 A 
ATOM     53  N   UNL A   1      44.954  29.094  30.737  1.00  0.00    -0.354 N 
ATOM     54  N   UNL A   1      44.452  26.462  29.557  1.00  0.00    -0.248 NA
ATOM     55  C   UNL A   1      45.198  24.331  28.950  1.00  0.00     0.031 C 
ATOM     56  C   UNL A   1      46.959  29.500  31.602  1.00  0.00     0.029 A 
ATOM     57  C   UNL A   1      46.199  28.533  30.964  1.00  0.00     0.049 A 
ATOM     58  H   UNL A   1      44.204  28.640  30.287  1.00  0.00     0.167 HD
ATOM     59  C   UNL A   1      45.774  26.308  29.962  1.00  0.00     0.074 A 
ATOM     60  C   UNL A   1      46.173  24.966  29.587  1.00  0.00     0.031 C 
ATOM     61  C   UNL A   1      46.583  27.196  30.589  1.00  0.00     0.031 A 
BRANCH  48  62
ATOM     62  C   UNL A   1      43.922  32.664  31.699  1.00  0.00    -0.014 A 
ATOM     63  C   UNL A   1      43.628  32.958  33.043  1.00  0.00     0.010 A 
ATOM     64  C   UNL A   1      44.382  33.694  30.858  1.00  0.00     0.010 A 
ATOM     65  C   UNL A   1      43.744  34.265  33.524  1.00  0.00     0.020 A 
ATOM     66  C   UNL A   1      44.526  34.997  31.342  1.00  0.00     0.020 A 
ATOM     67  C   UNL A   1      44.186  35.277  32.668  1.00  0.00     0.054 A 
BRANCH  67  68
ATOM     68  S   UNL A   1      44.338  36.964  33.319  1.00  0.00     0.124 S 
ATOM     69  O   UNL A   1      45.522  36.852  34.168  1.00  0.00    -0.237 OA
ATOM     70  O   UNL A   1      44.507  37.764  32.108  1.00  0.00    -0.237 OA
ATOM     71  O   UNL A   1      43.079  37.175  34.030  1.00  0.00    -0.744 OA
ENDBRANCH  67  68
ENDBRANCH  48  62
BRANCH  49  72
ATOM     72  C   UNL A   1      42.614  23.570  27.805  1.00  0.00    -0.014 A 
ATOM     73  C   UNL A   1      42.991  23.321  26.474  1.00  0.00     0.010 A 
ATOM     74  C   UNL A   1      42.078  22.519  28.572  1.00  0.00     0.010 A 
ATOM     75  C   UNL A   1      42.825  22.051  25.915  1.00  0.00     0.020 A 
ATOM     76  C   UNL A   1      41.932  21.241  28.024  1.00  0.00     0.020 A 
ATOM     77  C   UNL A   1      42.297  21.018  26.696  1.00  0.00     0.054 A 
BRANCH  77  78
ATOM     78  S   UNL A   1      42.148  19.361  25.970  1.00  0.00     0.124 S 
ATOM     79  O   UNL A   1      42.982  19.475  24.778  1.00  0.00    -0.237 OA
ATOM     80  O   UNL A   1      42.672  18.501  27.029  1.00  0.00    -0.237 OA
ATOM     81  O   UNL A   1      40.714  19.225  25.723  1.00  0.00    -0.744 OA
ENDBRANCH  77  78
ENDBRANCH  49  72
BRANCH  61  82
ATOM     82  C   UNL A   1      47.971  26.739  30.943  1.00  0.00    -0.014 A 
ATOM     83  C   UNL A   1      49.045  26.917  30.053  1.00  0.00     0.010 A 
ATOM     84  C   UNL A   1      48.214  26.175  32.208  1.00  0.00     0.010 A 
ATOM     85  C   UNL A   1      50.333  26.513  30.411  1.00  0.00     0.020 A 
ATOM     86  C   UNL A   1      49.505  25.790  32.580  1.00  0.00     0.020 A 
ATOM     87  C   UNL A   1      50.555  25.950  31.673  1.00  0.00     0.054 A 
BRANCH  87  88
ATOM     88  S   UNL A   1      52.244  25.476  32.136  1.00  0.00     0.124 S 
ATOM     89  O   UNL A   1      53.005  25.879  30.957  1.00  0.00    -0.237 OA
ATOM     90  O   UNL A   1      52.483  26.269  33.340  1.00  0.00    -0.237 OA
ATOM     91  O   UNL A   1      52.150  24.035  32.356  1.00  0.00    -0.744 OA
ENDBRANCH  87  88
ENDBRANCH  61  82
ENDBRANCH  35  36
ENDBRANCH  27  30
ENDBRANCH  25  26
ENDBRANCH   1  25
TORSDOF 16
ENDMDL
MODEL 3
REMARK VINA RESULT:     -11.5      3.441      9.898
REMARK SMILES C[C@@H]1[C@H](C(=O)NCCCNC(=O)c2ccc(-c3c4nc(c(-c5ccc(S(=O)(=O)[O-])cc5)c5ccc([nH]5)c(-c5ccc(S(=O)(=O)[O-])cc5)c5nc(c(-c6ccc(S(=O)(=O)[O-])cc6)c6ccc3[nH]6)C=C5)C=C4)cc2)CCN1C(=O)c1ccc([N+](=O)[O-])c(F)c1
REMARK SMILES IDX 8 1 7 2 6 3 4 4 5 5 3 7 1 8 2 9 75 10 73 11 74 12 76 13
REMARK SMILES IDX 77 14 78 15 79 16 87 17 80 18 85 19 81 20 86 21 82 22 83 23
REMARK SMILES IDX 84 24 9 25 10 26 11 27 12 29 13 30 14 31 72 32 15 33 71 34
REMARK SMILES IDX 16 35 17 36 18 37 65 38 19 39 70 40 64 41 66 42 20 43 69 44
REMARK SMILES IDX 63 45 62 46 21 48 51 49 32 50 50 51 33 52 36 53 49 54 67 55
REMARK SMILES IDX 34 56 35 57 48 59 68 60 37 61 22 62 23 63 31 64 24 65 30 66
REMARK SMILES IDX 25 67 26 68 27 69 28 70 29 71 52 72 53 73 61 74 54 75 60 76
REMARK SMILES IDX 55 77 56 78 57 79 58 80 59 81 38 82 39 83 47 84 40 85 46 86
REMARK SMILES IDX 41 87 42 88 43 89 44 90 45 91
REMARK H PARENT 6 6 10 28 66 47 36 58
REMARK Flexibility Score: inf
ROOT
ATOM      1  C   UNL A   1      35.060  23.152  26.503  1.00  0.00     0.042 C 
ENDROOT
BRANCH   1   2
ATOM      2  C   UNL A   1      33.770  23.230  25.688  1.00  0.00     0.117 C 
BRANCH   2   3
ATOM      3  N   UNL A   1      32.567  23.232  26.509  1.00  0.00    -0.356 N 
ATOM      4  C   UNL A   1      31.343  23.802  26.371  1.00  0.00     0.225 C 
ATOM      5  O   UNL A   1      30.542  23.614  27.293  1.00  0.00    -0.275 OA
ATOM      6  H   UNL A   1      32.662  22.711  27.339  1.00  0.00     0.163 HD
BRANCH   4   7
ATOM      7  C   UNL A   1      30.917  24.652  25.184  1.00  0.00     0.102 C 
ATOM      8  C   UNL A   1      32.279  26.607  26.233  1.00  0.00     0.032 C 
ATOM      9  C   UNL A   1      31.265  26.157  25.193  1.00  0.00     0.094 C 
ATOM     10  N   UNL A   1      31.631  26.461  23.796  1.00  0.00    -0.335 N 
ATOM     11  C   UNL A   1      31.319  24.107  23.816  1.00  0.00     0.037 C 
ATOM     12  C   UNL A   1      31.380  25.329  22.925  1.00  0.00     0.121 C 
BRANCH  10  13
ATOM     13  C   UNL A   1      31.872  27.689  23.191  1.00  0.00     0.254 C 
ATOM     14  O   UNL A   1      32.914  27.959  22.600  1.00  0.00    -0.269 OA
BRANCH  13  15
ATOM     15  C   UNL A   1      30.839  28.734  23.233  1.00  0.00     0.043 A 
ATOM     16  C   UNL A   1      30.889  29.708  24.236  1.00  0.00     0.021 A 
ATOM     17  C   UNL A   1      29.783  28.701  22.315  1.00  0.00     0.060 A 
ATOM     18  C   UNL A   1      29.914  30.708  24.275  1.00  0.00     0.090 A 
ATOM     19  C   UNL A   1      28.825  29.711  22.341  1.00  0.00     0.201 A 
ATOM     20  C   UNL A   1      28.899  30.714  23.305  1.00  0.00     0.304 A 
ATOM     21  F   UNL A   1      27.853  29.684  21.422  1.00  0.00    -0.199 F 
BRANCH  20  22
ATOM     22  N   UNL A   1      27.936  31.801  23.295  1.00  0.00     0.065 N 
ATOM     23  O   UNL A   1      28.235  32.809  22.640  1.00  0.00    -0.258 OA
ATOM     24  O   UNL A   1      26.854  31.619  23.868  1.00  0.00    -0.258 OA
ENDBRANCH  20  22
ENDBRANCH  13  15
ENDBRANCH  10  13
ENDBRANCH   4   7
ENDBRANCH   2   3
ENDBRANCH   1   2
BRANCH   1  25
ATOM     25  C   UNL A   1      36.308  23.674  25.805  1.00  0.00     0.118 C 
BRANCH  25  26
ATOM     26  N   UNL A   1      37.406  22.724  25.834  1.00  0.00    -0.352 N 
ATOM     27  C   UNL A   1      38.717  22.892  26.219  1.00  0.00     0.251 C 
ATOM     28  H   UNL A   1      37.177  21.817  25.530  1.00  0.00     0.163 HD
ATOM     29  O   UNL A   1      39.523  21.997  25.974  1.00  0.00    -0.269 OA
BRANCH  27  30
ATOM     30  C   UNL A   1      39.177  24.131  26.897  1.00  0.00     0.039 A 
ATOM     31  C   UNL A   1      39.947  25.045  26.170  1.00  0.00     0.014 A 
ATOM     32  C   UNL A   1      38.918  24.378  28.248  1.00  0.00     0.014 A 
ATOM     33  C   UNL A   1      40.404  26.222  26.777  1.00  0.00     0.010 A 
ATOM     34  C   UNL A   1      39.298  25.589  28.827  1.00  0.00     0.010 A 
ATOM     35  C   UNL A   1      40.059  26.519  28.105  1.00  0.00    -0.014 A 
BRANCH  35  36
ATOM     36  C   UNL A   1      40.513  27.775  28.764  1.00  0.00     0.031 A 
ATOM     37  C   UNL A   1      41.903  27.869  29.341  1.00  0.00     0.074 A 
ATOM     38  C   UNL A   1      39.666  28.816  28.893  1.00  0.00     0.049 A 
ATOM     39  N   UNL A   1      42.455  28.849  30.014  1.00  0.00    -0.248 NA
ATOM     40  C   UNL A   1      42.780  26.699  29.162  1.00  0.00     0.031 C 
ATOM     41  C   UNL A   1      38.283  28.850  28.412  1.00  0.00     0.029 A 
ATOM     42  N   UNL A   1      39.843  30.047  29.477  1.00  0.00    -0.354 N 
ATOM     43  C   UNL A   1      43.726  28.404  30.359  1.00  0.00     0.074 A 
ATOM     44  C   UNL A   1      43.850  27.051  29.860  1.00  0.00     0.031 C 
ATOM     45  C   UNL A   1      37.749  30.049  28.695  1.00  0.00     0.029 A 
ATOM     46  C   UNL A   1      38.732  30.856  29.410  1.00  0.00     0.049 A 
ATOM     47  H   UNL A   1      40.686  30.324  29.903  1.00  0.00     0.167 HD
ATOM     48  C   UNL A   1      44.713  29.064  31.014  1.00  0.00     0.031 A 
ATOM     49  C   UNL A   1      38.525  32.103  29.875  1.00  0.00     0.031 A 
ATOM     50  C   UNL A   1      44.605  30.417  31.488  1.00  0.00     0.049 A 
ATOM     51  C   UNL A   1      39.636  32.821  30.590  1.00  0.00     0.074 A 
ATOM     52  C   UNL A   1      45.569  31.189  32.114  1.00  0.00     0.029 A 
ATOM     53  N   UNL A   1      43.469  31.205  31.382  1.00  0.00    -0.354 N 
ATOM     54  N   UNL A   1      40.847  32.398  30.862  1.00  0.00    -0.248 NA
ATOM     55  C   UNL A   1      39.356  34.188  31.051  1.00  0.00     0.031 C 
ATOM     56  C   UNL A   1      45.003  32.432  32.420  1.00  0.00     0.029 A 
ATOM     57  C   UNL A   1      43.702  32.449  31.943  1.00  0.00     0.049 A 
ATOM     58  H   UNL A   1      42.621  30.921  30.970  1.00  0.00     0.167 HD
ATOM     59  C   UNL A   1      41.481  33.456  31.506  1.00  0.00     0.074 A 
ATOM     60  C   UNL A   1      40.524  34.542  31.570  1.00  0.00     0.031 C 
ATOM     61  C   UNL A   1      42.742  33.522  31.997  1.00  0.00     0.031 A 
BRANCH  48  62
ATOM     62  C   UNL A   1      46.001  28.322  31.256  1.00  0.00    -0.014 A 
ATOM     63  C   UNL A   1      46.174  27.524  32.401  1.00  0.00     0.010 A 
ATOM     64  C   UNL A   1      47.042  28.399  30.312  1.00  0.00     0.010 A 
ATOM     65  C   UNL A   1      47.381  26.856  32.623  1.00  0.00     0.020 A 
ATOM     66  C   UNL A   1      48.240  27.711  30.517  1.00  0.00     0.020 A 
ATOM     67  C   UNL A   1      48.410  26.960  31.682  1.00  0.00     0.054 A 
BRANCH  67  68
ATOM     68  S   UNL A   1      49.964  26.075  31.989  1.00  0.00     0.124 S 
ATOM     69  O   UNL A   1      50.921  27.174  32.085  1.00  0.00    -0.237 OA
ATOM     70  O   UNL A   1      49.692  25.369  33.239  1.00  0.00    -0.237 OA
ATOM     71  O   UNL A   1      50.112  25.219  30.814  1.00  0.00    -0.744 OA
ENDBRANCH  67  68
ENDBRANCH  48  62
BRANCH  49  72
ATOM     72  C   UNL A   1      37.213  32.768  29.652  1.00  0.00    -0.014 A 
ATOM     73  C   UNL A   1      36.182  32.638  30.600  1.00  0.00     0.010 A 
ATOM     74  C   UNL A   1      36.990  33.547  28.502  1.00  0.00     0.010 A 
ATOM     75  C   UNL A   1      34.949  33.264  30.397  1.00  0.00     0.020 A 
ATOM     76  C   UNL A   1      35.766  34.194  28.307  1.00  0.00     0.020 A 
ATOM     77  C   UNL A   1      34.750  34.040  29.251  1.00  0.00     0.054 A 
BRANCH  77  78
ATOM     78  S   UNL A   1      33.163  34.895  29.038  1.00  0.00     0.124 S 
ATOM     79  O   UNL A   1      33.584  36.192  28.519  1.00  0.00    -0.237 OA
ATOM     80  O   UNL A   1      32.460  34.031  28.092  1.00  0.00    -0.237 OA
ATOM     81  O   UNL A   1      32.601  34.911  30.388  1.00  0.00    -0.744 OA
ENDBRANCH  77  78
ENDBRANCH  49  72
BRANCH  61  82
ATOM     82  C   UNL A   1      43.177  34.821  32.618  1.00  0.00    -0.014 A 
ATOM     83  C   UNL A   1      42.984  35.074  33.987  1.00  0.00     0.010 A 
ATOM     84  C   UNL A   1      43.840  35.779  31.829  1.00  0.00     0.010 A 
ATOM     85  C   UNL A   1      43.421  36.274  34.551  1.00  0.00     0.020 A 
ATOM     86  C   UNL A   1      44.300  36.971  32.394  1.00  0.00     0.020 A 
ATOM     87  C   UNL A   1      44.075  37.217  33.751  1.00  0.00     0.054 A 
BRANCH  87  88
ATOM     88  S   UNL A   1      44.677  38.749  34.514  1.00  0.00     0.124 S 
ATOM     89  O   UNL A   1      43.556  39.658  34.293  1.00  0.00    -0.237 OA
ATOM     90  O   UNL A   1      44.901  38.352  35.902  1.00  0.00    -0.237 OA
ATOM     91  O   UNL A   1      45.889  39.058  33.759  1.00  0.00    -0.744 OA
ENDBRANCH  87  88
ENDBRANCH  61  82
ENDBRANCH  35  36
ENDBRANCH  27  30
ENDBRANCH  25  26
ENDBRANCH   1  25
TORSDOF 16
ENDMDL
