MODEL 1
REMARK VINA RESULT:     -11.9      0.000      0.000
REMARK SMILES O=C(/C=C/N[C@@H](Cc1c[nH]c2ccccc12)C(=O)NCCCNC(=O)c1ccc(-c2c3nc(c(-c4ccc(S(=O)(=O)[O-])cc4)c4ccc([nH]4)c(-c4ccc(S(=O)(=O)[O-])cc4)c4nc(c(-c5ccc(S(=O)(=O)[O-])cc5)c5ccc2[nH]5)C=C4)C=C3)cc1)c1ccccc1
REMARK SMILES IDX 20 1 19 2 17 3 18 4 6 6 5 7 4 9 3 10 2 11 1 12 86 13 87 14
REMARK SMILES IDX 91 15 88 16 90 17 89 18 7 19 8 20 9 21 16 22 10 23 11 24
REMARK SMILES IDX 15 25 12 27 14 28 13 29 21 30 22 31 23 32 24 33 25 35 26 36
REMARK SMILES IDX 27 37 85 38 28 39 84 40 29 41 30 42 31 43 78 44 32 45 83 46
REMARK SMILES IDX 77 47 79 48 33 49 82 50 76 51 75 52 34 54 64 55 45 56 63 57
REMARK SMILES IDX 46 58 49 59 62 60 80 61 47 62 48 63 61 65 81 66 50 67 35 68
REMARK SMILES IDX 36 69 44 70 37 71 43 72 38 73 39 74 40 75 41 76 42 77 65 78
REMARK SMILES IDX 66 79 74 80 67 81 73 82 68 83 69 84 70 85 71 86 72 87 51 88
REMARK SMILES IDX 52 89 60 90 53 91 59 92 54 93 55 94 56 95 57 96 58 97
REMARK H PARENT 19 5 5 8 10 26 23 34 79 53 49 64
REMARK Flexibility Score: inf
ROOT
ATOM      1  C   UNL A   1      34.512  24.491  24.466  1.00  0.00     0.117 C 
ENDROOT
BRANCH   1   2
ATOM      2  N   UNL A   1      34.370  25.270  23.252  1.00  0.00    -0.354 N 
ATOM      3  C   UNL A   1      33.320  25.694  22.509  1.00  0.00     0.242 C 
ATOM      4  O   UNL A   1      33.649  26.329  21.491  1.00  0.00    -0.273 OA
ATOM      5  H   UNL A   1      35.236  25.560  22.884  1.00  0.00     0.163 HD
BRANCH   3   6
ATOM      6  C   UNL A   1      31.810  25.457  22.780  1.00  0.00     0.173 C 
BRANCH   6   7
ATOM      7  N   UNL A   1      31.378  24.085  22.544  1.00  0.00    -0.379 N 
ATOM      8  H   UNL A   1      31.091  23.882  21.624  1.00  0.00     0.160 HD
BRANCH   7   9
ATOM      9  C   UNL A   1      31.316  23.039  23.429  1.00  0.00     0.082 C 
ATOM     10  C   UNL A   1      32.082  21.944  23.333  1.00  0.00     0.070 C 
BRANCH  10  11
ATOM     11  C   UNL A   1      32.230  20.836  24.313  1.00  0.00     0.187 C 
ATOM     12  O   UNL A   1      31.727  20.936  25.427  1.00  0.00    -0.289 OA
BRANCH  11  13
ATOM     13  C   UNL A   1      32.839  19.560  23.901  1.00  0.00     0.022 A 
ATOM     14  C   UNL A   1      32.338  18.819  22.826  1.00  0.00     0.012 A 
ATOM     15  C   UNL A   1      33.936  19.093  24.633  1.00  0.00     0.012 A 
ATOM     16  C   UNL A   1      32.884  17.569  22.541  1.00  0.00     0.001 A 
ATOM     17  C   UNL A   1      34.490  17.850  24.332  1.00  0.00     0.001 A 
ATOM     18  C   UNL A   1      33.950  17.082  23.298  1.00  0.00     0.000 A 
ENDBRANCH  11  13
ENDBRANCH  10  11
ENDBRANCH   7   9
ENDBRANCH   6   7
BRANCH   6  19
ATOM     19  C   UNL A   1      31.100  26.052  23.996  1.00  0.00     0.072 C 
BRANCH  19  20
ATOM     20  C   UNL A   1      31.326  27.462  24.514  1.00  0.00    -0.020 A 
ATOM     21  C   UNL A   1      30.632  28.508  23.917  1.00  0.00     0.087 A 
ATOM     22  C   UNL A   1      32.145  28.077  25.553  1.00  0.00     0.003 A 
ATOM     23  N   UNL A   1      31.082  29.690  24.417  1.00  0.00    -0.361 N 
ATOM     24  C   UNL A   1      32.052  29.463  25.357  1.00  0.00     0.046 A 
ATOM     25  C   UNL A   1      33.031  27.673  26.590  1.00  0.00     0.010 A 
ATOM     26  H   UNL A   1      30.757  30.578  24.144  1.00  0.00     0.166 HD
ATOM     27  C   UNL A   1      32.848  30.404  26.028  1.00  0.00     0.026 A 
ATOM     28  C   UNL A   1      33.826  28.602  27.281  1.00  0.00     0.001 A 
ATOM     29  C   UNL A   1      33.756  29.949  26.980  1.00  0.00     0.002 A 
ENDBRANCH  19  20
ENDBRANCH   6  19
ENDBRANCH   3   6
ENDBRANCH   1   2
BRANCH   1  30
ATOM     30  C   UNL A   1      35.877  23.822  24.556  1.00  0.00     0.042 C 
BRANCH  30  31
ATOM     31  C   UNL A   1      36.313  23.449  25.966  1.00  0.00     0.118 C 
BRANCH  31  32
ATOM     32  N   UNL A   1      37.521  22.634  26.003  1.00  0.00    -0.352 N 
ATOM     33  C   UNL A   1      38.828  22.910  26.334  1.00  0.00     0.251 C 
ATOM     34  H   UNL A   1      37.373  21.698  25.737  1.00  0.00     0.163 HD
ATOM     35  O   UNL A   1      39.665  22.030  26.125  1.00  0.00    -0.269 OA
BRANCH  33  36
ATOM     36  C   UNL A   1      39.274  24.210  26.912  1.00  0.00     0.039 A 
ATOM     37  C   UNL A   1      38.957  24.486  28.250  1.00  0.00     0.014 A 
ATOM     38  C   UNL A   1      39.932  25.192  26.173  1.00  0.00     0.014 A 
ATOM     39  C   UNL A   1      39.345  25.695  28.846  1.00  0.00     0.010 A 
ATOM     40  C   UNL A   1      40.419  26.345  26.794  1.00  0.00     0.010 A 
ATOM     41  C   UNL A   1      40.115  26.625  28.134  1.00  0.00    -0.014 A 
BRANCH  41  42
ATOM     42  C   UNL A   1      40.578  27.906  28.740  1.00  0.00     0.031 A 
ATOM     43  C   UNL A   1      41.976  28.016  29.306  1.00  0.00     0.074 A 
ATOM     44  C   UNL A   1      39.733  28.951  28.853  1.00  0.00     0.049 A 
ATOM     45  N   UNL A   1      42.524  29.001  29.973  1.00  0.00    -0.248 NA
ATOM     46  C   UNL A   1      42.862  26.854  29.124  1.00  0.00     0.031 C 
ATOM     47  C   UNL A   1      38.348  28.980  28.377  1.00  0.00     0.029 A 
ATOM     48  N   UNL A   1      39.912  30.192  29.418  1.00  0.00    -0.354 N 
ATOM     49  C   UNL A   1      43.802  28.566  30.313  1.00  0.00     0.074 A 
ATOM     50  C   UNL A   1      43.927  27.210  29.826  1.00  0.00     0.031 C 
ATOM     51  C   UNL A   1      37.813  30.182  28.648  1.00  0.00     0.029 A 
ATOM     52  C   UNL A   1      38.794  30.993  29.361  1.00  0.00     0.049 A 
ATOM     53  H   UNL A   1      40.761  30.481  29.824  1.00  0.00     0.167 HD
ATOM     54  C   UNL A   1      44.789  29.234  30.955  1.00  0.00     0.031 A 
ATOM     55  C   UNL A   1      38.574  32.233  29.841  1.00  0.00     0.031 A 
ATOM     56  C   UNL A   1      44.675  30.592  31.421  1.00  0.00     0.049 A 
ATOM     57  C   UNL A   1      39.680  32.952  30.567  1.00  0.00     0.074 A 
ATOM     58  C   UNL A   1      45.641  31.376  32.028  1.00  0.00     0.029 A 
ATOM     59  N   UNL A   1      43.530  31.367  31.332  1.00  0.00    -0.354 N 
ATOM     60  N   UNL A   1      40.899  32.542  30.829  1.00  0.00    -0.248 NA
ATOM     61  C   UNL A   1      39.384  34.307  31.055  1.00  0.00     0.031 C 
ATOM     62  C   UNL A   1      45.062  32.604  32.360  1.00  0.00     0.029 A 
ATOM     63  C   UNL A   1      43.757  32.612  31.897  1.00  0.00     0.049 A 
ATOM     64  H   UNL A   1      42.680  31.077  30.927  1.00  0.00     0.167 HD
ATOM     65  C   UNL A   1      41.523  33.599  31.482  1.00  0.00     0.074 A 
ATOM     66  C   UNL A   1      40.554  34.672  31.562  1.00  0.00     0.031 C 
ATOM     67  C   UNL A   1      42.786  33.675  31.968  1.00  0.00     0.031 A 
BRANCH  54  68
ATOM     68  C   UNL A   1      46.087  28.505  31.198  1.00  0.00    -0.014 A 
ATOM     69  C   UNL A   1      47.166  28.616  30.300  1.00  0.00     0.010 A 
ATOM     70  C   UNL A   1      46.249  27.736  32.366  1.00  0.00     0.010 A 
ATOM     71  C   UNL A   1      48.362  27.935  30.542  1.00  0.00     0.020 A 
ATOM     72  C   UNL A   1      47.456  27.080  32.627  1.00  0.00     0.020 A 
ATOM     73  C   UNL A   1      48.499  27.169  31.704  1.00  0.00     0.054 A 
BRANCH  73  74
ATOM     74  S   UNL A   1      50.073  26.317  31.999  1.00  0.00     0.124 S 
ATOM     75  O   UNL A   1      50.949  26.958  31.022  1.00  0.00    -0.237 OA
ATOM     76  O   UNL A   1      50.351  26.632  33.396  1.00  0.00    -0.237 OA
ATOM     77  O   UNL A   1      49.763  24.913  31.727  1.00  0.00    -0.744 OA
ENDBRANCH  73  74
ENDBRANCH  54  68
BRANCH  55  78
ATOM     78  C   UNL A   1      37.247  32.884  29.645  1.00  0.00    -0.014 A 
ATOM     79  C   UNL A   1      36.373  33.063  30.733  1.00  0.00     0.010 A 
ATOM     80  C   UNL A   1      36.850  33.330  28.370  1.00  0.00     0.010 A 
ATOM     81  C   UNL A   1      35.121  33.657  30.546  1.00  0.00     0.020 A 
ATOM     82  C   UNL A   1      35.612  33.952  28.186  1.00  0.00     0.020 A 
ATOM     83  C   UNL A   1      34.750  34.100  29.273  1.00  0.00     0.054 A 
BRANCH  83  84
ATOM     84  S   UNL A   1      33.138  34.908  29.068  1.00  0.00     0.124 S 
ATOM     85  O   UNL A   1      32.581  34.823  30.412  1.00  0.00    -0.237 OA
ATOM     86  O   UNL A   1      33.513  36.247  28.619  1.00  0.00    -0.237 OA
ATOM     87  O   UNL A   1      32.470  34.087  28.058  1.00  0.00    -0.744 OA
ENDBRANCH  83  84
ENDBRANCH  55  78
BRANCH  67  88
ATOM     88  C   UNL A   1      43.217  34.976  32.595  1.00  0.00    -0.014 A 
ATOM     89  C   UNL A   1      43.812  35.997  31.833  1.00  0.00     0.010 A 
ATOM     90  C   UNL A   1      42.966  35.201  33.962  1.00  0.00     0.010 A 
ATOM     91  C   UNL A   1      44.176  37.205  32.432  1.00  0.00     0.020 A 
ATOM     92  C   UNL A   1      43.300  36.419  34.558  1.00  0.00     0.020 A 
ATOM     93  C   UNL A   1      43.916  37.410  33.792  1.00  0.00     0.054 A 
BRANCH  93  94
ATOM     94  S   UNL A   1      44.357  39.005  34.535  1.00  0.00     0.124 S 
ATOM     95  O   UNL A   1      44.039  38.784  35.943  1.00  0.00    -0.237 OA
ATOM     96  O   UNL A   1      45.779  39.122  34.221  1.00  0.00    -0.237 OA
ATOM     97  O   UNL A   1      43.493  39.960  33.843  1.00  0.00    -0.744 OA
ENDBRANCH  93  94
ENDBRANCH  67  88
ENDBRANCH  41  42
ENDBRANCH  33  36
ENDBRANCH  31  32
ENDBRANCH  30  31
ENDBRANCH   1  30
TORSDOF 19
ENDMDL
MODEL 2
REMARK VINA RESULT:     -11.9      2.720      9.653
REMARK SMILES O=C(/C=C/N[C@@H](Cc1c[nH]c2ccccc12)C(=O)NCCCNC(=O)c1ccc(-c2c3nc(c(-c4ccc(S(=O)(=O)[O-])cc4)c4ccc([nH]4)c(-c4ccc(S(=O)(=O)[O-])cc4)c4nc(c(-c5ccc(S(=O)(=O)[O-])cc5)c5ccc2[nH]5)C=C4)C=C3)cc1)c1ccccc1
REMARK SMILES IDX 20 1 19 2 17 3 18 4 6 6 5 7 4 9 3 10 2 11 1 12 86 13 87 14
REMARK SMILES IDX 91 15 88 16 90 17 89 18 7 19 8 20 9 21 16 22 10 23 11 24
REMARK SMILES IDX 15 25 12 27 14 28 13 29 21 30 22 31 23 32 24 33 25 35 26 36
REMARK SMILES IDX 27 37 85 38 28 39 84 40 29 41 30 42 31 43 78 44 32 45 83 46
REMARK SMILES IDX 77 47 79 48 33 49 82 50 76 51 75 52 34 54 64 55 45 56 63 57
REMARK SMILES IDX 46 58 49 59 62 60 80 61 47 62 48 63 61 65 81 66 50 67 35 68
REMARK SMILES IDX 36 69 44 70 37 71 43 72 38 73 39 74 40 75 41 76 42 77 65 78
REMARK SMILES IDX 66 79 74 80 67 81 73 82 68 83 69 84 70 85 71 86 72 87 51 88
REMARK SMILES IDX 52 89 60 90 53 91 59 92 54 93 55 94 56 95 57 96 58 97
REMARK H PARENT 19 5 5 8 10 26 23 34 79 53 49 64
REMARK Flexibility Score: inf
ROOT
ATOM      1  C   UNL A   1      33.602  26.189  25.360  1.00  0.00     0.117 C 
ENDROOT
BRANCH   1   2
ATOM      2  N   UNL A   1      32.755  25.520  26.328  1.00  0.00    -0.354 N 
ATOM      3  C   UNL A   1      31.684  24.695  26.248  1.00  0.00     0.242 C 
ATOM      4  O   UNL A   1      31.220  24.365  27.354  1.00  0.00    -0.273 OA
ATOM      5  H   UNL A   1      33.021  25.708  27.257  1.00  0.00     0.163 HD
BRANCH   3   6
ATOM      6  C   UNL A   1      30.994  24.159  24.965  1.00  0.00     0.173 C 
BRANCH   6   7
ATOM      7  N   UNL A   1      30.075  25.109  24.350  1.00  0.00    -0.379 N 
ATOM      8  H   UNL A   1      29.267  24.718  23.946  1.00  0.00     0.160 HD
BRANCH   7   9
ATOM      9  C   UNL A   1      30.184  26.473  24.257  1.00  0.00     0.082 C 
ATOM     10  C   UNL A   1      30.843  27.097  23.272  1.00  0.00     0.070 C 
BRANCH  10  11
ATOM     11  C   UNL A   1      30.884  28.552  22.970  1.00  0.00     0.187 C 
ATOM     12  O   UNL A   1      31.869  29.032  22.417  1.00  0.00    -0.289 OA
BRANCH  11  13
ATOM     13  C   UNL A   1      29.691  29.388  23.186  1.00  0.00     0.022 A 
ATOM     14  C   UNL A   1      28.418  28.968  22.792  1.00  0.00     0.012 A 
ATOM     15  C   UNL A   1      29.870  30.637  23.789  1.00  0.00     0.012 A 
ATOM     16  C   UNL A   1      27.337  29.837  22.924  1.00  0.00     0.001 A 
ATOM     17  C   UNL A   1      28.782  31.496  23.936  1.00  0.00     0.001 A 
ATOM     18  C   UNL A   1      27.521  31.102  23.486  1.00  0.00     0.000 A 
ENDBRANCH  11  13
ENDBRANCH  10  11
ENDBRANCH   7   9
ENDBRANCH   6   7
BRANCH   6  19
ATOM     19  C   UNL A   1      31.757  23.369  23.902  1.00  0.00     0.072 C 
BRANCH  19  20
ATOM     20  C   UNL A   1      32.882  22.395  24.202  1.00  0.00    -0.020 A 
ATOM     21  C   UNL A   1      32.574  21.201  24.844  1.00  0.00     0.087 A 
ATOM     22  C   UNL A   1      34.326  22.363  23.990  1.00  0.00     0.003 A 
ATOM     23  N   UNL A   1      33.724  20.545  25.153  1.00  0.00    -0.361 N 
ATOM     24  C   UNL A   1      34.806  21.262  24.714  1.00  0.00     0.046 A 
ATOM     25  C   UNL A   1      35.328  23.154  23.361  1.00  0.00     0.010 A 
ATOM     26  H   UNL A   1      33.772  19.682  25.623  1.00  0.00     0.166 HD
ATOM     27  C   UNL A   1      36.167  20.998  24.927  1.00  0.00     0.026 A 
ATOM     28  C   UNL A   1      36.695  22.897  23.552  1.00  0.00     0.001 A 
ATOM     29  C   UNL A   1      37.107  21.848  24.353  1.00  0.00     0.002 A 
ENDBRANCH  19  20
ENDBRANCH   6  19
ENDBRANCH   3   6
ENDBRANCH   1   2
BRANCH   1  30
ATOM     30  C   UNL A   1      33.681  27.687  25.613  1.00  0.00     0.042 C 
BRANCH  30  31
ATOM     31  C   UNL A   1      33.564  28.095  27.076  1.00  0.00     0.118 C 
BRANCH  31  32
ATOM     32  N   UNL A   1      33.609  29.537  27.282  1.00  0.00    -0.352 N 
ATOM     33  C   UNL A   1      34.559  30.378  27.814  1.00  0.00     0.251 C 
ATOM     34  H   UNL A   1      32.796  30.003  26.981  1.00  0.00     0.163 HD
ATOM     35  O   UNL A   1      34.242  31.556  27.988  1.00  0.00    -0.269 OA
BRANCH  33  36
ATOM     36  C   UNL A   1      35.929  29.933  28.199  1.00  0.00     0.039 A 
ATOM     37  C   UNL A   1      36.938  29.970  27.224  1.00  0.00     0.014 A 
ATOM     38  C   UNL A   1      36.245  29.422  29.457  1.00  0.00     0.014 A 
ATOM     39  C   UNL A   1      38.244  29.559  27.526  1.00  0.00     0.010 A 
ATOM     40  C   UNL A   1      37.568  29.122  29.792  1.00  0.00     0.010 A 
ATOM     41  C   UNL A   1      38.584  29.164  28.827  1.00  0.00    -0.014 A 
BRANCH  41  42
ATOM     42  C   UNL A   1      39.969  28.753  29.199  1.00  0.00     0.031 A 
ATOM     43  C   UNL A   1      40.891  29.733  29.887  1.00  0.00     0.074 A 
ATOM     44  C   UNL A   1      40.430  27.532  28.861  1.00  0.00     0.049 A 
ATOM     45  N   UNL A   1      42.160  29.605  30.187  1.00  0.00    -0.248 NA
ATOM     46  C   UNL A   1      40.320  31.038  30.260  1.00  0.00     0.031 C 
ATOM     47  C   UNL A   1      39.663  26.493  28.170  1.00  0.00     0.029 A 
ATOM     48  N   UNL A   1      41.667  26.961  29.041  1.00  0.00    -0.354 N 
ATOM     49  C   UNL A   1      42.542  30.818  30.753  1.00  0.00     0.074 A 
ATOM     50  C   UNL A   1      41.386  31.686  30.706  1.00  0.00     0.031 C 
ATOM     51  C   UNL A   1      40.436  25.407  28.007  1.00  0.00     0.029 A 
ATOM     52  C   UNL A   1      41.768  25.685  28.533  1.00  0.00     0.049 A 
ATOM     53  H   UNL A   1      42.412  27.419  29.492  1.00  0.00     0.167 HD
ATOM     54  C   UNL A   1      43.736  31.176  31.282  1.00  0.00     0.031 A 
ATOM     55  C   UNL A   1      42.816  24.839  28.479  1.00  0.00     0.031 A 
ATOM     56  C   UNL A   1      44.882  30.307  31.351  1.00  0.00     0.049 A 
ATOM     57  C   UNL A   1      44.140  25.263  29.057  1.00  0.00     0.074 A 
ATOM     58  C   UNL A   1      46.118  30.558  31.922  1.00  0.00     0.029 A 
ATOM     59  N   UNL A   1      44.934  29.022  30.834  1.00  0.00    -0.354 N 
ATOM     60  N   UNL A   1      44.463  26.395  29.637  1.00  0.00    -0.248 NA
ATOM     61  C   UNL A   1      45.241  24.292  28.981  1.00  0.00     0.031 C 
ATOM     62  C   UNL A   1      46.936  29.447  31.699  1.00  0.00     0.029 A 
ATOM     63  C   UNL A   1      46.190  28.477  31.050  1.00  0.00     0.049 A 
ATOM     64  H   UNL A   1      44.190  28.564  30.381  1.00  0.00     0.167 HD
ATOM     65  C   UNL A   1      45.792  26.258  30.023  1.00  0.00     0.074 A 
ATOM     66  C   UNL A   1      46.208  24.929  29.625  1.00  0.00     0.031 C 
ATOM     67  C   UNL A   1      46.594  27.151  30.653  1.00  0.00     0.031 A 
BRANCH  54  68
ATOM     68  C   UNL A   1      43.871  32.576  31.827  1.00  0.00    -0.014 A 
ATOM     69  C   UNL A   1      44.165  33.663  30.982  1.00  0.00     0.010 A 
ATOM     70  C   UNL A   1      43.655  32.817  33.197  1.00  0.00     0.010 A 
ATOM     71  C   UNL A   1      44.285  34.954  31.503  1.00  0.00     0.020 A 
ATOM     72  C   UNL A   1      43.742  34.113  33.716  1.00  0.00     0.020 A 
ATOM     73  C   UNL A   1      44.074  35.171  32.868  1.00  0.00     0.054 A 
BRANCH  73  74
ATOM     74  S   UNL A   1      44.214  36.862  33.508  1.00  0.00     0.124 S 
ATOM     75  O   UNL A   1      43.153  37.548  32.777  1.00  0.00    -0.237 OA
ATOM     76  O   UNL A   1      43.981  36.684  34.937  1.00  0.00    -0.237 OA
ATOM     77  O   UNL A   1      45.575  37.259  33.144  1.00  0.00    -0.744 OA
ENDBRANCH  73  74
ENDBRANCH  54  68
BRANCH  55  78
ATOM     78  C   UNL A   1      42.656  23.492  27.858  1.00  0.00    -0.014 A 
ATOM     79  C   UNL A   1      43.061  23.267  26.531  1.00  0.00     0.010 A 
ATOM     80  C   UNL A   1      42.098  22.428  28.592  1.00  0.00     0.010 A 
ATOM     81  C   UNL A   1      42.894  22.009  25.942  1.00  0.00     0.020 A 
ATOM     82  C   UNL A   1      41.958  21.162  28.017  1.00  0.00     0.020 A 
ATOM     83  C   UNL A   1      42.346  20.964  26.690  1.00  0.00     0.054 A 
BRANCH  83  84
ATOM     84  S   UNL A   1      42.182  19.331  25.917  1.00  0.00     0.124 S 
ATOM     85  O   UNL A   1      40.744  19.242  25.694  1.00  0.00    -0.237 OA
ATOM     86  O   UNL A   1      43.002  19.468  24.716  1.00  0.00    -0.237 OA
ATOM     87  O   UNL A   1      42.719  18.419  26.926  1.00  0.00    -0.744 OA
ENDBRANCH  83  84
ENDBRANCH  55  78
BRANCH  67  88
ATOM     88  C   UNL A   1      47.994  26.714  30.995  1.00  0.00    -0.014 A 
ATOM     89  C   UNL A   1      49.056  26.873  30.087  1.00  0.00     0.010 A 
ATOM     90  C   UNL A   1      48.261  26.188  32.274  1.00  0.00     0.010 A 
ATOM     91  C   UNL A   1      50.352  26.486  30.440  1.00  0.00     0.020 A 
ATOM     92  C   UNL A   1      49.560  25.828  32.641  1.00  0.00     0.020 A 
ATOM     93  C   UNL A   1      50.596  25.968  31.716  1.00  0.00     0.054 A 
BRANCH  93  94
ATOM     94  S   UNL A   1      52.295  25.516  32.164  1.00  0.00     0.124 S 
ATOM     95  O   UNL A   1      53.051  25.984  31.006  1.00  0.00    -0.237 OA
ATOM     96  O   UNL A   1      52.510  26.265  33.401  1.00  0.00    -0.237 OA
ATOM     97  O   UNL A   1      52.237  24.064  32.326  1.00  0.00    -0.744 OA
ENDBRANCH  93  94
ENDBRANCH  67  88
ENDBRANCH  41  42
ENDBRANCH  33  36
ENDBRANCH  31  32
ENDBRANCH  30  31
ENDBRANCH   1  30
TORSDOF 19
ENDMDL
MODEL 3
REMARK VINA RESULT:     -11.8      3.436      8.893
REMARK SMILES O=C(/C=C/N[C@@H](Cc1c[nH]c2ccccc12)C(=O)NCCCNC(=O)c1ccc(-c2c3nc(c(-c4ccc(S(=O)(=O)[O-])cc4)c4ccc([nH]4)c(-c4ccc(S(=O)(=O)[O-])cc4)c4nc(c(-c5ccc(S(=O)(=O)[O-])cc5)c5ccc2[nH]5)C=C4)C=C3)cc1)c1ccccc1
REMARK SMILES IDX 20 1 19 2 17 3 18 4 6 6 5 7 4 9 3 10 2 11 1 12 86 13 87 14
REMARK SMILES IDX 91 15 88 16 90 17 89 18 7 19 8 20 9 21 16 22 10 23 11 24
REMARK SMILES IDX 15 25 12 27 14 28 13 29 21 30 22 31 23 32 24 33 25 35 26 36
REMARK SMILES IDX 27 37 85 38 28 39 84 40 29 41 30 42 31 43 78 44 32 45 83 46
REMARK SMILES IDX 77 47 79 48 33 49 82 50 76 51 75 52 34 54 64 55 45 56 63 57
REMARK SMILES IDX 46 58 49 59 62 60 80 61 47 62 48 63 61 65 81 66 50 67 35 68
REMARK SMILES IDX 36 69 44 70 37 71 43 72 38 73 39 74 40 75 41 76 42 77 65 78
REMARK SMILES IDX 66 79 74 80 67 81 73 82 68 83 69 84 70 85 71 86 72 87 51 88
REMARK SMILES IDX 52 89 60 90 53 91 59 92 54 93 55 94 56 95 57 96 58 97
REMARK H PARENT 19 5 5 8 10 26 23 34 79 53 49 64
REMARK Flexibility Score: inf
ROOT
ATOM      1  C   UNL A   1      31.856  27.793  26.519  1.00  0.00     0.117 C 
ENDROOT
BRANCH   1   2
ATOM      2  N   UNL A   1      31.014  26.643  26.785  1.00  0.00    -0.354 N 
ATOM      3  C   UNL A   1      30.250  25.824  26.023  1.00  0.00     0.242 C 
ATOM      4  O   UNL A   1      29.644  24.954  26.673  1.00  0.00    -0.273 OA
ATOM      5  H   UNL A   1      30.994  26.401  27.739  1.00  0.00     0.163 HD
BRANCH   3   6
ATOM      6  C   UNL A   1      30.050  25.876  24.484  1.00  0.00     0.173 C 
BRANCH   6   7
ATOM      7  N   UNL A   1      30.068  24.567  23.844  1.00  0.00    -0.379 N 
ATOM      8  H   UNL A   1      29.190  24.137  23.730  1.00  0.00     0.160 HD
BRANCH   7   9
ATOM      9  C   UNL A   1      31.142  23.853  23.377  1.00  0.00     0.082 C 
ATOM     10  C   UNL A   1      32.254  24.422  22.892  1.00  0.00     0.070 C 
BRANCH  10  11
ATOM     11  C   UNL A   1      33.537  23.768  22.523  1.00  0.00     0.187 C 
ATOM     12  O   UNL A   1      33.734  23.424  21.361  1.00  0.00    -0.289 OA
BRANCH  11  13
ATOM     13  C   UNL A   1      34.630  23.675  23.505  1.00  0.00     0.022 A 
ATOM     14  C   UNL A   1      34.517  24.221  24.786  1.00  0.00     0.012 A 
ATOM     15  C   UNL A   1      35.807  23.029  23.112  1.00  0.00     0.012 A 
ATOM     16  C   UNL A   1      35.616  24.197  25.643  1.00  0.00     0.001 A 
ATOM     17  C   UNL A   1      36.898  22.991  23.979  1.00  0.00     0.001 A 
ATOM     18  C   UNL A   1      36.806  23.592  25.236  1.00  0.00     0.000 A 
ENDBRANCH  11  13
ENDBRANCH  10  11
ENDBRANCH   7   9
ENDBRANCH   6   7
BRANCH   6  19
ATOM     19  C   UNL A   1      29.013  26.790  23.831  1.00  0.00     0.072 C 
BRANCH  19  20
ATOM     20  C   UNL A   1      29.343  28.102  23.142  1.00  0.00    -0.020 A 
ATOM     21  C   UNL A   1      30.516  28.188  22.400  1.00  0.00     0.087 A 
ATOM     22  C   UNL A   1      28.717  29.417  23.037  1.00  0.00     0.003 A 
ATOM     23  N   UNL A   1      30.700  29.472  21.995  1.00  0.00    -0.361 N 
ATOM     24  C   UNL A   1      29.664  30.255  22.429  1.00  0.00     0.046 A 
ATOM     25  C   UNL A   1      27.515  30.060  23.443  1.00  0.00     0.010 A 
ATOM     26  H   UNL A   1      31.466  29.793  21.467  1.00  0.00     0.166 HD
ATOM     27  C   UNL A   1      29.523  31.647  22.325  1.00  0.00     0.026 A 
ATOM     28  C   UNL A   1      27.351  31.450  23.333  1.00  0.00     0.001 A 
ATOM     29  C   UNL A   1      28.359  32.237  22.808  1.00  0.00     0.002 A 
ENDBRANCH  19  20
ENDBRANCH   6  19
ENDBRANCH   3   6
ENDBRANCH   1   2
BRANCH   1  30
ATOM     30  C   UNL A   1      33.220  27.386  25.981  1.00  0.00     0.042 C 
BRANCH  30  31
ATOM     31  C   UNL A   1      34.130  28.548  25.604  1.00  0.00     0.118 C 
BRANCH  31  32
ATOM     32  N   UNL A   1      33.748  29.810  26.226  1.00  0.00    -0.352 N 
ATOM     33  C   UNL A   1      34.271  30.536  27.270  1.00  0.00     0.251 C 
ATOM     34  H   UNL A   1      32.955  30.226  25.816  1.00  0.00     0.163 HD
ATOM     35  O   UNL A   1      33.628  31.512  27.662  1.00  0.00    -0.269 OA
BRANCH  33  36
ATOM     36  C   UNL A   1      35.552  30.193  27.951  1.00  0.00     0.039 A 
ATOM     37  C   UNL A   1      35.496  29.682  29.256  1.00  0.00     0.014 A 
ATOM     38  C   UNL A   1      36.806  30.416  27.383  1.00  0.00     0.014 A 
ATOM     39  C   UNL A   1      36.668  29.348  29.949  1.00  0.00     0.010 A 
ATOM     40  C   UNL A   1      37.967  29.977  28.025  1.00  0.00     0.010 A 
ATOM     41  C   UNL A   1      37.919  29.457  29.326  1.00  0.00    -0.014 A 
BRANCH  41  42
ATOM     42  C   UNL A   1      39.187  29.079  30.015  1.00  0.00     0.031 A 
ATOM     43  C   UNL A   1      39.644  29.844  31.235  1.00  0.00     0.074 A 
ATOM     44  C   UNL A   1      39.968  28.101  29.513  1.00  0.00     0.049 A 
ATOM     45  N   UNL A   1      40.766  29.743  31.903  1.00  0.00    -0.248 NA
ATOM     46  C   UNL A   1      38.732  30.878  31.755  1.00  0.00     0.031 C 
ATOM     47  C   UNL A   1      39.669  27.297  28.326  1.00  0.00     0.029 A 
ATOM     48  N   UNL A   1      41.188  27.625  29.932  1.00  0.00    -0.354 N 
ATOM     49  C   UNL A   1      40.707  30.717  32.897  1.00  0.00     0.074 A 
ATOM     50  C   UNL A   1      39.463  31.430  32.712  1.00  0.00     0.031 C 
ATOM     51  C   UNL A   1      40.662  26.415  28.128  1.00  0.00     0.029 A 
ATOM     52  C   UNL A   1      41.694  26.621  29.138  1.00  0.00     0.049 A 
ATOM     53  H   UNL A   1      41.656  27.970  30.727  1.00  0.00     0.167 HD
ATOM     54  C   UNL A   1      41.593  30.983  33.886  1.00  0.00     0.031 A 
ATOM     55  C   UNL A   1      42.862  25.952  29.203  1.00  0.00     0.031 A 
ATOM     56  C   UNL A   1      42.821  30.260  34.086  1.00  0.00     0.049 A 
ATOM     57  C   UNL A   1      43.841  26.276  30.299  1.00  0.00     0.074 A 
ATOM     58  C   UNL A   1      43.755  30.416  35.096  1.00  0.00     0.029 A 
ATOM     59  N   UNL A   1      43.287  29.244  33.265  1.00  0.00    -0.354 N 
ATOM     60  N   UNL A   1      43.739  27.162  31.262  1.00  0.00    -0.248 NA
ATOM     61  C   UNL A   1      45.091  25.502  30.325  1.00  0.00     0.031 C 
ATOM     62  C   UNL A   1      44.814  29.535  34.852  1.00  0.00     0.029 A 
ATOM     63  C   UNL A   1      44.507  28.783  33.731  1.00  0.00     0.049 A 
ATOM     64  H   UNL A   1      42.819  28.902  32.469  1.00  0.00     0.167 HD
ATOM     65  C   UNL A   1      44.894  27.029  32.024  1.00  0.00     0.074 A 
ATOM     66  C   UNL A   1      45.674  25.968  31.421  1.00  0.00     0.031 C 
ATOM     67  C   UNL A   1      45.274  27.722  33.126  1.00  0.00     0.031 A 
BRANCH  54  68
ATOM     68  C   UNL A   1      41.271  32.114  34.831  1.00  0.00    -0.014 A 
ATOM     69  C   UNL A   1      41.462  33.457  34.454  1.00  0.00     0.010 A 
ATOM     70  C   UNL A   1      40.724  31.833  36.097  1.00  0.00     0.010 A 
ATOM     71  C   UNL A   1      41.157  34.493  35.341  1.00  0.00     0.020 A 
ATOM     72  C   UNL A   1      40.387  32.868  36.975  1.00  0.00     0.020 A 
ATOM     73  C   UNL A   1      40.622  34.191  36.598  1.00  0.00     0.054 A 
BRANCH  73  74
ATOM     74  S   UNL A   1      40.215  35.560  37.716  1.00  0.00     0.124 S 
ATOM     75  O   UNL A   1      41.336  35.527  38.651  1.00  0.00    -0.237 OA
ATOM     76  O   UNL A   1      40.177  36.708  36.817  1.00  0.00    -0.237 OA
ATOM     77  O   UNL A   1      38.923  35.171  38.283  1.00  0.00    -0.744 OA
ENDBRANCH  73  74
ENDBRANCH  54  68
BRANCH  55  78
ATOM     78  C   UNL A   1      43.172  24.895  28.197  1.00  0.00    -0.014 A 
ATOM     79  C   UNL A   1      43.856  25.217  27.011  1.00  0.00     0.010 A 
ATOM     80  C   UNL A   1      42.786  23.559  28.421  1.00  0.00     0.010 A 
ATOM     81  C   UNL A   1      44.130  24.230  26.059  1.00  0.00     0.020 A 
ATOM     82  C   UNL A   1      43.087  22.564  27.486  1.00  0.00     0.020 A 
ATOM     83  C   UNL A   1      43.746  22.909  26.305  1.00  0.00     0.054 A 
BRANCH  83  84
ATOM     84  S   UNL A   1      44.155  21.640  25.074  1.00  0.00     0.124 S 
ATOM     85  O   UNL A   1      43.102  20.654  25.292  1.00  0.00    -0.237 OA
ATOM     86  O   UNL A   1      44.078  22.383  23.819  1.00  0.00    -0.237 OA
ATOM     87  O   UNL A   1      45.502  21.215  25.455  1.00  0.00    -0.744 OA
ENDBRANCH  83  84
ENDBRANCH  55  78
BRANCH  67  88
ATOM     88  C   UNL A   1      46.571  27.331  33.785  1.00  0.00    -0.014 A 
ATOM     89  C   UNL A   1      46.604  26.431  34.866  1.00  0.00     0.010 A 
ATOM     90  C   UNL A   1      47.784  27.829  33.274  1.00  0.00     0.010 A 
ATOM     91  C   UNL A   1      47.822  26.062  35.441  1.00  0.00     0.020 A 
ATOM     92  C   UNL A   1      49.006  27.439  33.826  1.00  0.00     0.020 A 
ATOM     93  C   UNL A   1      49.017  26.567  34.916  1.00  0.00     0.054 A 
BRANCH  93  94
ATOM     94  S   UNL A   1      50.587  26.036  35.653  1.00  0.00     0.124 S 
ATOM     95  O   UNL A   1      51.565  26.741  34.828  1.00  0.00    -0.237 OA
ATOM     96  O   UNL A   1      50.470  26.507  37.031  1.00  0.00    -0.237 OA
ATOM     97  O   UNL A   1      50.570  24.583  35.495  1.00  0.00    -0.744 OA
ENDBRANCH  93  94
ENDBRANCH  67  88
ENDBRANCH  41  42
ENDBRANCH  33  36
ENDBRANCH  31  32
ENDBRANCH  30  31
ENDBRANCH   1  30
TORSDOF 19
ENDMDL
