MODEL 1
REMARK VINA RESULT:      -9.6      0.000      0.000
REMARK SMILES [NH3+]CC[C@@H](C(=O)NCCCNC(=O)c1ccc(-c2c3nc(c(-c4ccc(S(=O)(=O)[O-])cc4)c4ccc([nH]4)c(-c4ccc(S(=O)(=O)[O-])cc4)c4nc(c(-c5ccc(S(=O)(=O)[O-])cc5)c5ccc2[nH]5)C=C4)C=C3)cc1)c1ccc(F)cc1
REMARK SMILES IDX 9 1 8 2 7 3 5 4 6 5 4 7 3 8 2 9 1 10 74 14 75 15 80 16 76 17
REMARK SMILES IDX 79 18 77 19 78 20 10 21 11 22 12 23 13 25 14 26 15 27 73 28
REMARK SMILES IDX 16 29 72 30 17 31 18 32 19 33 66 34 20 35 71 36 65 37 67 38
REMARK SMILES IDX 21 39 70 40 64 41 63 42 22 44 52 45 33 46 51 47 34 48 37 49
REMARK SMILES IDX 50 50 68 51 35 52 36 53 49 55 69 56 38 57 23 58 24 59 32 60
REMARK SMILES IDX 25 61 31 62 26 63 27 64 28 65 29 66 30 67 53 68 54 69 62 70
REMARK SMILES IDX 55 71 61 72 56 73 57 74 58 75 59 76 60 77 39 78 40 79 48 80
REMARK SMILES IDX 41 81 47 82 42 83 43 84 44 85 45 86 46 87
REMARK H PARENT 7 6 1 11 1 12 1 13 11 24 67 43 37 54
REMARK Flexibility Score: inf
ROOT
ATOM      1  C   UNL A   1      35.125  23.432  25.750  1.00  0.00     0.042 C 
ENDROOT
BRANCH   1   2
ATOM      2  C   UNL A   1      34.109  23.539  24.612  1.00  0.00     0.117 C 
BRANCH   2   3
ATOM      3  N   UNL A   1      34.099  24.880  24.059  1.00  0.00    -0.356 N 
ATOM      4  C   UNL A   1      33.487  26.023  24.479  1.00  0.00     0.227 C 
ATOM      5  O   UNL A   1      33.467  26.952  23.665  1.00  0.00    -0.274 OA
ATOM      6  H   UNL A   1      34.629  24.983  23.236  1.00  0.00     0.163 HD
BRANCH   4   7
ATOM      7  C   UNL A   1      32.898  26.157  25.902  1.00  0.00     0.114 C 
BRANCH   7   8
ATOM      8  C   UNL A   1      31.395  25.790  25.985  1.00  0.00     0.079 C 
BRANCH   8   9
ATOM      9  C   UNL A   1      30.712  25.267  24.723  1.00  0.00     0.259 C 
BRANCH   9  10
ATOM     10  N   UNL A   1      30.414  23.844  24.727  1.00  0.00    -0.358 N 
ATOM     11  H   UNL A   1      29.446  23.699  24.439  1.00  0.00     0.344 HD
ATOM     12  H   UNL A   1      30.548  23.471  25.666  1.00  0.00     0.344 HD
ATOM     13  H   UNL A   1      31.037  23.364  24.077  1.00  0.00     0.344 HD
ENDBRANCH   9  10
ENDBRANCH   8   9
ENDBRANCH   7   8
BRANCH   7  14
ATOM     14  C   UNL A   1      33.071  27.606  26.404  1.00  0.00    -0.035 A 
ATOM     15  C   UNL A   1      34.349  28.138  26.636  1.00  0.00     0.007 A 
ATOM     16  C   UNL A   1      31.947  28.426  26.636  1.00  0.00     0.007 A 
ATOM     17  C   UNL A   1      34.491  29.444  27.116  1.00  0.00     0.039 A 
ATOM     18  C   UNL A   1      32.092  29.725  27.121  1.00  0.00     0.039 A 
ATOM     19  C   UNL A   1      33.364  30.221  27.360  1.00  0.00     0.123 A 
ATOM     20  F   UNL A   1      33.509  31.467  27.830  1.00  0.00    -0.207 F 
ENDBRANCH   7  14
ENDBRANCH   4   7
ENDBRANCH   2   3
ENDBRANCH   1   2
BRANCH   1  21
ATOM     21  C   UNL A   1      36.528  23.906  25.397  1.00  0.00     0.118 C 
BRANCH  21  22
ATOM     22  N   UNL A   1      37.544  22.906  25.672  1.00  0.00    -0.352 N 
ATOM     23  C   UNL A   1      38.786  23.034  26.250  1.00  0.00     0.251 C 
ATOM     24  H   UNL A   1      37.306  21.989  25.402  1.00  0.00     0.163 HD
ATOM     25  O   UNL A   1      39.546  22.070  26.226  1.00  0.00    -0.269 OA
BRANCH  23  26
ATOM     26  C   UNL A   1      39.230  24.307  26.875  1.00  0.00     0.039 A 
ATOM     27  C   UNL A   1      38.850  24.565  28.196  1.00  0.00     0.014 A 
ATOM     28  C   UNL A   1      39.964  25.271  26.175  1.00  0.00     0.014 A 
ATOM     29  C   UNL A   1      39.240  25.753  28.822  1.00  0.00     0.010 A 
ATOM     30  C   UNL A   1      40.428  26.415  26.828  1.00  0.00     0.010 A 
ATOM     31  C   UNL A   1      40.058  26.680  28.154  1.00  0.00    -0.014 A 
BRANCH  31  32
ATOM     32  C   UNL A   1      40.510  27.925  28.833  1.00  0.00     0.031 A 
ATOM     33  C   UNL A   1      41.915  28.044  29.368  1.00  0.00     0.074 A 
ATOM     34  C   UNL A   1      39.647  28.948  28.992  1.00  0.00     0.049 A 
ATOM     35  N   UNL A   1      42.489  29.060  29.961  1.00  0.00    -0.248 NA
ATOM     36  C   UNL A   1      42.781  26.860  29.244  1.00  0.00     0.031 C 
ATOM     37  C   UNL A   1      38.242  28.945  28.576  1.00  0.00     0.029 A 
ATOM     38  N   UNL A   1      39.825  30.195  29.539  1.00  0.00    -0.354 N 
ATOM     39  C   UNL A   1      43.771  28.636  30.293  1.00  0.00     0.074 A 
ATOM     40  C   UNL A   1      43.874  27.252  29.884  1.00  0.00     0.031 C 
ATOM     41  C   UNL A   1      37.700  30.143  28.844  1.00  0.00     0.029 A 
ATOM     42  C   UNL A   1      38.705  30.991  29.474  1.00  0.00     0.049 A 
ATOM     43  H   UNL A   1      40.674  30.491  29.941  1.00  0.00     0.167 HD
ATOM     44  C   UNL A   1      44.780  29.335  30.867  1.00  0.00     0.031 A 
ATOM     45  C   UNL A   1      38.511  32.266  29.865  1.00  0.00     0.031 A 
ATOM     46  C   UNL A   1      44.686  30.717  31.259  1.00  0.00     0.049 A 
ATOM     47  C   UNL A   1      39.658  33.036  30.461  1.00  0.00     0.074 A 
ATOM     48  C   UNL A   1      45.670  31.530  31.794  1.00  0.00     0.029 A 
ATOM     49  N   UNL A   1      43.543  31.494  31.152  1.00  0.00    -0.354 N 
ATOM     50  N   UNL A   1      40.881  32.634  30.704  1.00  0.00    -0.248 NA
ATOM     51  C   UNL A   1      39.399  34.439  30.811  1.00  0.00     0.031 C 
ATOM     52  C   UNL A   1      45.111  32.788  32.048  1.00  0.00     0.029 A 
ATOM     53  C   UNL A   1      43.793  32.773  31.622  1.00  0.00     0.049 A 
ATOM     54  H   UNL A   1      42.681  31.183  30.794  1.00  0.00     0.167 HD
ATOM     55  C   UNL A   1      41.548  33.741  31.215  1.00  0.00     0.074 A 
ATOM     56  C   UNL A   1      40.595  34.834  31.226  1.00  0.00     0.031 C 
ATOM     57  C   UNL A   1      42.833  33.846  31.636  1.00  0.00     0.031 A 
BRANCH  44  58
ATOM     58  C   UNL A   1      46.081  28.611  31.101  1.00  0.00    -0.014 A 
ATOM     59  C   UNL A   1      46.308  27.893  32.291  1.00  0.00     0.010 A 
ATOM     60  C   UNL A   1      47.078  28.619  30.109  1.00  0.00     0.010 A 
ATOM     61  C   UNL A   1      47.524  27.239  32.503  1.00  0.00     0.020 A 
ATOM     62  C   UNL A   1      48.286  27.942  30.306  1.00  0.00     0.020 A 
ATOM     63  C   UNL A   1      48.509  27.272  31.511  1.00  0.00     0.054 A 
BRANCH  63  64
ATOM     64  S   UNL A   1      50.072  26.402  31.807  1.00  0.00     0.124 S 
ATOM     65  O   UNL A   1      50.304  26.674  33.224  1.00  0.00    -0.237 OA
ATOM     66  O   UNL A   1      49.739  25.019  31.480  1.00  0.00    -0.237 OA
ATOM     67  O   UNL A   1      51.007  27.049  30.889  1.00  0.00    -0.744 OA
ENDBRANCH  63  64
ENDBRANCH  44  58
BRANCH  45  68
ATOM     68  C   UNL A   1      37.184  32.908  29.663  1.00  0.00    -0.014 A 
ATOM     69  C   UNL A   1      36.265  32.993  30.724  1.00  0.00     0.010 A 
ATOM     70  C   UNL A   1      36.840  33.455  28.413  1.00  0.00     0.010 A 
ATOM     71  C   UNL A   1      35.019  33.599  30.535  1.00  0.00     0.020 A 
ATOM     72  C   UNL A   1      35.604  34.082  28.228  1.00  0.00     0.020 A 
ATOM     73  C   UNL A   1      34.697  34.142  29.288  1.00  0.00     0.054 A 
BRANCH  73  74
ATOM     74  S   UNL A   1      33.099  34.976  29.080  1.00  0.00     0.124 S 
ATOM     75  O   UNL A   1      32.450  34.141  28.076  1.00  0.00    -0.237 OA
ATOM     76  O   UNL A   1      32.530  34.910  30.424  1.00  0.00    -0.237 OA
ATOM     77  O   UNL A   1      33.473  36.318  28.636  1.00  0.00    -0.744 OA
ENDBRANCH  73  74
ENDBRANCH  45  68
BRANCH  57  78
ATOM     78  C   UNL A   1      43.287  35.198  32.117  1.00  0.00    -0.014 A 
ATOM     79  C   UNL A   1      43.170  35.570  33.468  1.00  0.00     0.010 A 
ATOM     80  C   UNL A   1      43.849  36.106  31.201  1.00  0.00     0.010 A 
ATOM     81  C   UNL A   1      43.558  36.846  33.885  1.00  0.00     0.020 A 
ATOM     82  C   UNL A   1      44.264  37.374  31.620  1.00  0.00     0.020 A 
ATOM     83  C   UNL A   1      44.094  37.743  32.956  1.00  0.00     0.054 A 
BRANCH  83  84
ATOM     84  S   UNL A   1      44.595  39.394  33.517  1.00  0.00     0.124 S 
ATOM     85  O   UNL A   1      45.512  39.076  34.609  1.00  0.00    -0.237 OA
ATOM     86  O   UNL A   1      45.212  39.968  32.324  1.00  0.00    -0.237 OA
ATOM     87  O   UNL A   1      43.336  40.016  33.921  1.00  0.00    -0.744 OA
ENDBRANCH  83  84
ENDBRANCH  57  78
ENDBRANCH  31  32
ENDBRANCH  23  26
ENDBRANCH  21  22
ENDBRANCH   1  21
TORSDOF 17
ENDMDL
MODEL 2
REMARK VINA RESULT:      -9.5      4.157      9.621
REMARK SMILES [NH3+]CC[C@@H](C(=O)NCCCNC(=O)c1ccc(-c2c3nc(c(-c4ccc(S(=O)(=O)[O-])cc4)c4ccc([nH]4)c(-c4ccc(S(=O)(=O)[O-])cc4)c4nc(c(-c5ccc(S(=O)(=O)[O-])cc5)c5ccc2[nH]5)C=C4)C=C3)cc1)c1ccc(F)cc1
REMARK SMILES IDX 9 1 8 2 7 3 5 4 6 5 4 7 3 8 2 9 1 10 74 14 75 15 80 16 76 17
REMARK SMILES IDX 79 18 77 19 78 20 10 21 11 22 12 23 13 25 14 26 15 27 73 28
REMARK SMILES IDX 16 29 72 30 17 31 18 32 19 33 66 34 20 35 71 36 65 37 67 38
REMARK SMILES IDX 21 39 70 40 64 41 63 42 22 44 52 45 33 46 51 47 34 48 37 49
REMARK SMILES IDX 50 50 68 51 35 52 36 53 49 55 69 56 38 57 23 58 24 59 32 60
REMARK SMILES IDX 25 61 31 62 26 63 27 64 28 65 29 66 30 67 53 68 54 69 62 70
REMARK SMILES IDX 55 71 61 72 56 73 57 74 58 75 59 76 60 77 39 78 40 79 48 80
REMARK SMILES IDX 41 81 47 82 42 83 43 84 44 85 45 86 46 87
REMARK H PARENT 7 6 1 11 1 12 1 13 11 24 67 43 37 54
REMARK Flexibility Score: inf
ROOT
ATOM      1  C   UNL A   1      32.790  28.155  26.829  1.00  0.00     0.042 C 
ENDROOT
BRANCH   1   2
ATOM      2  C   UNL A   1      31.778  27.805  25.738  1.00  0.00     0.117 C 
BRANCH   2   3
ATOM      3  N   UNL A   1      32.072  28.530  24.516  1.00  0.00    -0.356 N 
ATOM      4  C   UNL A   1      31.272  28.911  23.481  1.00  0.00     0.227 C 
ATOM      5  O   UNL A   1      31.857  29.304  22.466  1.00  0.00    -0.274 OA
ATOM      6  H   UNL A   1      33.014  28.793  24.418  1.00  0.00     0.163 HD
BRANCH   4   7
ATOM      7  C   UNL A   1      29.730  28.895  23.592  1.00  0.00     0.114 C 
BRANCH   7   8
ATOM      8  C   UNL A   1      29.081  27.623  22.991  1.00  0.00     0.079 C 
BRANCH   8   9
ATOM      9  C   UNL A   1      28.715  26.485  23.942  1.00  0.00     0.259 C 
BRANCH   9  10
ATOM     10  N   UNL A   1      27.293  26.329  24.199  1.00  0.00    -0.358 N 
ATOM     11  H   UNL A   1      27.157  25.936  25.131  1.00  0.00     0.344 HD
ATOM     12  H   UNL A   1      26.888  25.703  23.504  1.00  0.00     0.344 HD
ATOM     13  H   UNL A   1      26.836  27.239  24.144  1.00  0.00     0.344 HD
ENDBRANCH   9  10
ENDBRANCH   8   9
ENDBRANCH   7   8
BRANCH   7  14
ATOM     14  C   UNL A   1      29.142  30.126  22.870  1.00  0.00    -0.035 A 
ATOM     15  C   UNL A   1      28.604  30.011  21.579  1.00  0.00     0.007 A 
ATOM     16  C   UNL A   1      29.131  31.391  23.495  1.00  0.00     0.007 A 
ATOM     17  C   UNL A   1      28.098  31.139  20.924  1.00  0.00     0.039 A 
ATOM     18  C   UNL A   1      28.632  32.514  22.838  1.00  0.00     0.039 A 
ATOM     19  C   UNL A   1      28.123  32.378  21.555  1.00  0.00     0.123 A 
ATOM     20  F   UNL A   1      27.647  33.455  20.918  1.00  0.00    -0.207 F 
ENDBRANCH   7  14
ENDBRANCH   4   7
ENDBRANCH   2   3
ENDBRANCH   1   2
BRANCH   1  21
ATOM     21  C   UNL A   1      33.935  29.049  26.372  1.00  0.00     0.118 C 
BRANCH  21  22
ATOM     22  N   UNL A   1      33.727  30.444  26.712  1.00  0.00    -0.352 N 
ATOM     23  C   UNL A   1      34.381  31.246  27.619  1.00  0.00     0.251 C 
ATOM     24  H   UNL A   1      33.003  30.888  26.214  1.00  0.00     0.163 HD
ATOM     25  O   UNL A   1      33.917  32.358  27.860  1.00  0.00    -0.269 OA
BRANCH  23  26
ATOM     26  C   UNL A   1      35.608  30.791  28.324  1.00  0.00     0.039 A 
ATOM     27  C   UNL A   1      36.803  31.477  28.084  1.00  0.00     0.014 A 
ATOM     28  C   UNL A   1      35.619  29.677  29.170  1.00  0.00     0.014 A 
ATOM     29  C   UNL A   1      37.983  31.080  28.720  1.00  0.00     0.010 A 
ATOM     30  C   UNL A   1      36.777  29.336  29.873  1.00  0.00     0.010 A 
ATOM     31  C   UNL A   1      37.978  30.022  29.644  1.00  0.00    -0.014 A 
BRANCH  31  32
ATOM     32  C   UNL A   1      39.224  29.625  30.354  1.00  0.00     0.031 A 
ATOM     33  C   UNL A   1      39.634  30.312  31.633  1.00  0.00     0.074 A 
ATOM     34  C   UNL A   1      40.007  28.657  29.837  1.00  0.00     0.049 A 
ATOM     35  N   UNL A   1      40.669  30.078  32.400  1.00  0.00    -0.248 NA
ATOM     36  C   UNL A   1      38.786  31.421  32.099  1.00  0.00     0.031 C 
ATOM     37  C   UNL A   1      39.761  27.951  28.576  1.00  0.00     0.029 A 
ATOM     38  N   UNL A   1      41.165  28.092  30.310  1.00  0.00    -0.354 N 
ATOM     39  C   UNL A   1      40.606  31.016  33.425  1.00  0.00     0.074 A 
ATOM     40  C   UNL A   1      39.460  31.857  33.153  1.00  0.00     0.031 C 
ATOM     41  C   UNL A   1      40.713  27.022  28.399  1.00  0.00     0.029 A 
ATOM     42  C   UNL A   1      41.652  27.081  29.513  1.00  0.00     0.049 A 
ATOM     43  H   UNL A   1      41.608  28.383  31.140  1.00  0.00     0.167 HD
ATOM     44  C   UNL A   1      41.412  31.156  34.506  1.00  0.00     0.031 A 
ATOM     45  C   UNL A   1      42.725  26.280  29.668  1.00  0.00     0.031 A 
ATOM     46  C   UNL A   1      42.541  30.310  34.787  1.00  0.00     0.049 A 
ATOM     47  C   UNL A   1      43.580  26.426  30.896  1.00  0.00     0.074 A 
ATOM     48  C   UNL A   1      43.385  30.334  35.885  1.00  0.00     0.029 A 
ATOM     49  N   UNL A   1      42.984  29.281  33.969  1.00  0.00    -0.354 N 
ATOM     50  N   UNL A   1      43.462  27.278  31.886  1.00  0.00    -0.248 NA
ATOM     51  C   UNL A   1      44.699  25.486  31.036  1.00  0.00     0.031 C 
ATOM     52  C   UNL A   1      44.360  29.346  35.711  1.00  0.00     0.029 A 
ATOM     53  C   UNL A   1      44.094  28.673  34.530  1.00  0.00     0.049 A 
ATOM     54  H   UNL A   1      42.569  29.023  33.115  1.00  0.00     0.167 HD
ATOM     55  C   UNL A   1      44.478  26.961  32.780  1.00  0.00     0.074 A 
ATOM     56  C   UNL A   1      45.187  25.826  32.221  1.00  0.00     0.031 C 
ATOM     57  C   UNL A   1      44.795  27.552  33.959  1.00  0.00     0.031 A 
BRANCH  44  58
ATOM     58  C   UNL A   1      41.093  32.271  35.469  1.00  0.00    -0.014 A 
ATOM     59  C   UNL A   1      41.622  33.561  35.286  1.00  0.00     0.010 A 
ATOM     60  C   UNL A   1      40.229  32.034  36.554  1.00  0.00     0.010 A 
ATOM     61  C   UNL A   1      41.332  34.582  36.195  1.00  0.00     0.020 A 
ATOM     62  C   UNL A   1      39.914  33.061  37.451  1.00  0.00     0.020 A 
ATOM     63  C   UNL A   1      40.484  34.324  37.276  1.00  0.00     0.054 A 
BRANCH  63  64
ATOM     64  S   UNL A   1      40.113  35.671  38.433  1.00  0.00     0.124 S 
ATOM     65  O   UNL A   1      41.329  35.716  39.242  1.00  0.00    -0.237 OA
ATOM     66  O   UNL A   1      39.907  36.811  37.545  1.00  0.00    -0.237 OA
ATOM     67  O   UNL A   1      38.917  35.206  39.133  1.00  0.00    -0.744 OA
ENDBRANCH  63  64
ENDBRANCH  44  58
BRANCH  45  68
ATOM     68  C   UNL A   1      43.023  25.238  28.649  1.00  0.00    -0.014 A 
ATOM     69  C   UNL A   1      42.486  23.945  28.774  1.00  0.00     0.010 A 
ATOM     70  C   UNL A   1      43.831  25.539  27.537  1.00  0.00     0.010 A 
ATOM     71  C   UNL A   1      42.764  22.966  27.816  1.00  0.00     0.020 A 
ATOM     72  C   UNL A   1      44.091  24.569  26.565  1.00  0.00     0.020 A 
ATOM     73  C   UNL A   1      43.564  23.285  26.715  1.00  0.00     0.054 A 
BRANCH  73  74
ATOM     74  S   UNL A   1      43.864  22.018  25.451  1.00  0.00     0.124 S 
ATOM     75  O   UNL A   1      45.306  21.821  25.556  1.00  0.00    -0.237 OA
ATOM     76  O   UNL A   1      43.037  20.906  25.915  1.00  0.00    -0.237 OA
ATOM     77  O   UNL A   1      43.404  22.653  24.218  1.00  0.00    -0.744 OA
ENDBRANCH  73  74
ENDBRANCH  45  68
BRANCH  57  78
ATOM     78  C   UNL A   1      45.943  26.963  34.732  1.00  0.00    -0.014 A 
ATOM     79  C   UNL A   1      45.729  26.004  35.739  1.00  0.00     0.010 A 
ATOM     80  C   UNL A   1      47.257  27.368  34.438  1.00  0.00     0.010 A 
ATOM     81  C   UNL A   1      46.806  25.501  36.474  1.00  0.00     0.020 A 
ATOM     82  C   UNL A   1      48.339  26.847  35.153  1.00  0.00     0.020 A 
ATOM     83  C   UNL A   1      48.104  25.933  36.182  1.00  0.00     0.054 A 
BRANCH  83  84
ATOM     84  S   UNL A   1      49.488  25.266  37.146  1.00  0.00     0.124 S 
ATOM     85  O   UNL A   1      50.630  25.578  36.291  1.00  0.00    -0.237 OA
ATOM     86  O   UNL A   1      49.409  26.024  38.392  1.00  0.00    -0.237 OA
ATOM     87  O   UNL A   1      49.170  23.844  37.267  1.00  0.00    -0.744 OA
ENDBRANCH  83  84
ENDBRANCH  57  78
ENDBRANCH  31  32
ENDBRANCH  23  26
ENDBRANCH  21  22
ENDBRANCH   1  21
TORSDOF 17
ENDMDL
MODEL 3
REMARK VINA RESULT:      -9.5      2.995      9.488
REMARK SMILES [NH3+]CC[C@@H](C(=O)NCCCNC(=O)c1ccc(-c2c3nc(c(-c4ccc(S(=O)(=O)[O-])cc4)c4ccc([nH]4)c(-c4ccc(S(=O)(=O)[O-])cc4)c4nc(c(-c5ccc(S(=O)(=O)[O-])cc5)c5ccc2[nH]5)C=C4)C=C3)cc1)c1ccc(F)cc1
REMARK SMILES IDX 9 1 8 2 7 3 5 4 6 5 4 7 3 8 2 9 1 10 74 14 75 15 80 16 76 17
REMARK SMILES IDX 79 18 77 19 78 20 10 21 11 22 12 23 13 25 14 26 15 27 73 28
REMARK SMILES IDX 16 29 72 30 17 31 18 32 19 33 66 34 20 35 71 36 65 37 67 38
REMARK SMILES IDX 21 39 70 40 64 41 63 42 22 44 52 45 33 46 51 47 34 48 37 49
REMARK SMILES IDX 50 50 68 51 35 52 36 53 49 55 69 56 38 57 23 58 24 59 32 60
REMARK SMILES IDX 25 61 31 62 26 63 27 64 28 65 29 66 30 67 53 68 54 69 62 70
REMARK SMILES IDX 55 71 61 72 56 73 57 74 58 75 59 76 60 77 39 78 40 79 48 80
REMARK SMILES IDX 41 81 47 82 42 83 43 84 44 85 45 86 46 87
REMARK H PARENT 7 6 1 11 1 12 1 13 11 24 67 43 37 54
REMARK Flexibility Score: inf
ROOT
ATOM      1  C   UNL A   1      33.328  27.820  25.262  1.00  0.00     0.042 C 
ENDROOT
BRANCH   1   2
ATOM      2  C   UNL A   1      32.183  26.808  25.218  1.00  0.00     0.117 C 
BRANCH   2   3
ATOM      3  N   UNL A   1      32.547  25.594  25.925  1.00  0.00    -0.356 N 
ATOM      4  C   UNL A   1      33.420  24.596  25.612  1.00  0.00     0.227 C 
ATOM      5  O   UNL A   1      33.335  23.572  26.297  1.00  0.00    -0.274 OA
ATOM      6  H   UNL A   1      32.081  25.470  26.783  1.00  0.00     0.163 HD
BRANCH   4   7
ATOM      7  C   UNL A   1      34.480  24.760  24.498  1.00  0.00     0.114 C 
BRANCH   7   8
ATOM      8  C   UNL A   1      33.958  24.381  23.089  1.00  0.00     0.079 C 
BRANCH   8   9
ATOM      9  C   UNL A   1      32.613  23.663  22.989  1.00  0.00     0.259 C 
BRANCH   9  10
ATOM     10  N   UNL A   1      32.560  22.586  22.014  1.00  0.00    -0.358 N 
ATOM     11  H   UNL A   1      31.895  21.878  22.325  1.00  0.00     0.344 HD
ATOM     12  H   UNL A   1      33.484  22.166  21.921  1.00  0.00     0.344 HD
ATOM     13  H   UNL A   1      32.263  22.959  21.112  1.00  0.00     0.344 HD
ENDBRANCH   9  10
ENDBRANCH   8   9
ENDBRANCH   7   8
BRANCH   7  14
ATOM     14  C   UNL A   1      35.707  23.880  24.813  1.00  0.00    -0.035 A 
ATOM     15  C   UNL A   1      36.618  24.249  25.815  1.00  0.00     0.007 A 
ATOM     16  C   UNL A   1      35.938  22.684  24.101  1.00  0.00     0.007 A 
ATOM     17  C   UNL A   1      37.741  23.456  26.073  1.00  0.00     0.039 A 
ATOM     18  C   UNL A   1      37.062  21.900  24.355  1.00  0.00     0.039 A 
ATOM     19  C   UNL A   1      37.956  22.296  25.338  1.00  0.00     0.123 A 
ATOM     20  F   UNL A   1      39.040  21.548  25.583  1.00  0.00    -0.207 F 
ENDBRANCH   7  14
ENDBRANCH   4   7
ENDBRANCH   2   3
ENDBRANCH   1   2
BRANCH   1  21
ATOM     21  C   UNL A   1      33.891  28.085  26.651  1.00  0.00     0.118 C 
BRANCH  21  22
ATOM     22  N   UNL A   1      33.665  29.447  27.099  1.00  0.00    -0.352 N 
ATOM     23  C   UNL A   1      34.480  30.297  27.811  1.00  0.00     0.251 C 
ATOM     24  H   UNL A   1      32.789  29.823  26.853  1.00  0.00     0.163 HD
ATOM     25  O   UNL A   1      34.008  31.352  28.225  1.00  0.00    -0.269 OA
BRANCH  23  26
ATOM     26  C   UNL A   1      35.897  29.957  28.106  1.00  0.00     0.039 A 
ATOM     27  C   UNL A   1      36.212  29.483  29.384  1.00  0.00     0.014 A 
ATOM     28  C   UNL A   1      36.923  30.145  27.175  1.00  0.00     0.014 A 
ATOM     29  C   UNL A   1      37.533  29.157  29.708  1.00  0.00     0.010 A 
ATOM     30  C   UNL A   1      38.226  29.736  27.470  1.00  0.00     0.010 A 
ATOM     31  C   UNL A   1      38.551  29.253  28.746  1.00  0.00    -0.014 A 
BRANCH  31  32
ATOM     32  C   UNL A   1      39.950  28.866  29.076  1.00  0.00     0.031 A 
ATOM     33  C   UNL A   1      40.863  29.823  29.800  1.00  0.00     0.074 A 
ATOM     34  C   UNL A   1      40.412  27.655  28.702  1.00  0.00     0.049 A 
ATOM     35  N   UNL A   1      42.100  29.645  30.192  1.00  0.00    -0.248 NA
ATOM     36  C   UNL A   1      40.329  31.161  30.100  1.00  0.00     0.031 C 
ATOM     37  C   UNL A   1      39.654  26.656  27.945  1.00  0.00     0.029 A 
ATOM     38  N   UNL A   1      41.628  27.055  28.916  1.00  0.00    -0.354 N 
ATOM     39  C   UNL A   1      42.495  30.847  30.769  1.00  0.00     0.074 A 
ATOM     40  C   UNL A   1      41.385  31.765  30.628  1.00  0.00     0.031 C 
ATOM     41  C   UNL A   1      40.406  25.554  27.794  1.00  0.00     0.029 A 
ATOM     42  C   UNL A   1      41.706  25.775  28.418  1.00  0.00     0.049 A 
ATOM     43  H   UNL A   1      42.374  27.499  29.380  1.00  0.00     0.167 HD
ATOM     44  C   UNL A   1      43.664  31.158  31.380  1.00  0.00     0.031 A 
ATOM     45  C   UNL A   1      42.706  24.873  28.468  1.00  0.00     0.031 A 
ATOM     46  C   UNL A   1      44.763  30.242  31.538  1.00  0.00     0.049 A 
ATOM     47  C   UNL A   1      43.979  25.226  29.188  1.00  0.00     0.074 A 
ATOM     48  C   UNL A   1      45.966  30.444  32.192  1.00  0.00     0.029 A 
ATOM     49  N   UNL A   1      44.792  28.947  31.042  1.00  0.00    -0.354 N 
ATOM     50  N   UNL A   1      44.305  26.347  29.784  1.00  0.00    -0.248 NA
ATOM     51  C   UNL A   1      45.008  24.180  29.259  1.00  0.00     0.031 C 
ATOM     52  C   UNL A   1      46.739  29.284  32.058  1.00  0.00     0.029 A 
ATOM     53  C   UNL A   1      45.995  28.343  31.364  1.00  0.00     0.049 A 
ATOM     54  H   UNL A   1      44.063  28.521  30.536  1.00  0.00     0.167 HD
ATOM     55  C   UNL A   1      45.568  26.134  30.324  1.00  0.00     0.074 A 
ATOM     56  C   UNL A   1      45.936  24.771  29.999  1.00  0.00     0.031 C 
ATOM     57  C   UNL A   1      46.352  26.989  31.026  1.00  0.00     0.031 A 
BRANCH  44  58
ATOM     58  C   UNL A   1      43.810  32.555  31.929  1.00  0.00    -0.014 A 
ATOM     59  C   UNL A   1      44.279  33.606  31.120  1.00  0.00     0.010 A 
ATOM     60  C   UNL A   1      43.447  32.827  33.260  1.00  0.00     0.010 A 
ATOM     61  C   UNL A   1      44.426  34.893  31.645  1.00  0.00     0.020 A 
ATOM     62  C   UNL A   1      43.566  34.120  33.781  1.00  0.00     0.020 A 
ATOM     63  C   UNL A   1      44.073  35.141  32.975  1.00  0.00     0.054 A 
BRANCH  63  64
ATOM     64  S   UNL A   1      44.260  36.823  33.626  1.00  0.00     0.124 S 
ATOM     65  O   UNL A   1      42.875  37.288  33.660  1.00  0.00    -0.237 OA
ATOM     66  O   UNL A   1      44.879  36.598  34.930  1.00  0.00    -0.237 OA
ATOM     67  O   UNL A   1      45.114  37.483  32.641  1.00  0.00    -0.744 OA
ENDBRANCH  63  64
ENDBRANCH  44  58
BRANCH  45  68
ATOM     68  C   UNL A   1      42.524  23.531  27.853  1.00  0.00    -0.014 A 
ATOM     69  C   UNL A   1      42.978  23.279  26.547  1.00  0.00     0.010 A 
ATOM     70  C   UNL A   1      41.912  22.492  28.577  1.00  0.00     0.010 A 
ATOM     71  C   UNL A   1      42.809  22.016  25.969  1.00  0.00     0.020 A 
ATOM     72  C   UNL A   1      41.764  21.222  28.012  1.00  0.00     0.020 A 
ATOM     73  C   UNL A   1      42.205  20.996  26.706  1.00  0.00     0.054 A 
BRANCH  73  74
ATOM     74  S   UNL A   1      42.049  19.348  25.961  1.00  0.00     0.124 S 
ATOM     75  O   UNL A   1      42.882  19.474  24.770  1.00  0.00    -0.237 OA
ATOM     76  O   UNL A   1      42.570  18.475  27.010  1.00  0.00    -0.237 OA
ATOM     77  O   UNL A   1      40.614  19.222  25.713  1.00  0.00    -0.744 OA
ENDBRANCH  73  74
ENDBRANCH  45  68
BRANCH  57  78
ATOM     78  C   UNL A   1      47.674  26.460  31.513  1.00  0.00    -0.014 A 
ATOM     79  C   UNL A   1      47.783  25.788  32.744  1.00  0.00     0.010 A 
ATOM     80  C   UNL A   1      48.823  26.631  30.720  1.00  0.00     0.010 A 
ATOM     81  C   UNL A   1      49.028  25.342  33.196  1.00  0.00     0.020 A 
ATOM     82  C   UNL A   1      50.065  26.162  31.157  1.00  0.00     0.020 A 
ATOM     83  C   UNL A   1      50.163  25.541  32.404  1.00  0.00     0.054 A 
BRANCH  83  84
ATOM     84  S   UNL A   1      51.769  24.952  33.007  1.00  0.00     0.124 S 
ATOM     85  O   UNL A   1      52.625  25.164  31.844  1.00  0.00    -0.237 OA
ATOM     86  O   UNL A   1      52.027  25.830  34.146  1.00  0.00    -0.237 OA
ATOM     87  O   UNL A   1      51.517  23.555  33.351  1.00  0.00    -0.744 OA
ENDBRANCH  83  84
ENDBRANCH  57  78
ENDBRANCH  31  32
ENDBRANCH  23  26
ENDBRANCH  21  22
ENDBRANCH   1  21
TORSDOF 17
ENDMDL
