MODEL 1
REMARK VINA RESULT:     -11.7      0.000      0.000
REMARK SMILES O=C(NCCCNC(=O)c1csc([C@H]2CCCc3cccnc32)c1)c1ccc(-c2c3nc(c(-c4ccc(S(=O)(=O)[O-])cc4)c4ccc([nH]4)c(-c4ccc(S(=O)(=O)[O-])cc4)c4nc(c(-c5ccc(S(=O)(=O)[O-])cc5)c5ccc2[nH]5)C=C4)C=C3)cc1
REMARK SMILES IDX 4 1 3 2 1 3 2 4 25 6 26 7 84 8 27 9 83 10 28 11 29 12 30 13
REMARK SMILES IDX 77 14 31 15 82 16 76 17 78 18 32 19 81 20 75 21 74 22 33 24
REMARK SMILES IDX 63 25 44 26 62 27 45 28 48 29 61 30 79 31 46 32 47 33 60 35
REMARK SMILES IDX 80 36 49 37 34 38 35 39 43 40 36 41 42 42 37 43 38 44 39 45
REMARK SMILES IDX 40 46 41 47 64 48 65 49 73 50 66 51 72 52 67 53 68 54 69 55
REMARK SMILES IDX 70 56 71 57 50 58 51 59 59 60 52 61 58 62 53 63 54 64 55 65
REMARK SMILES IDX 56 66 57 67 5 68 6 69 7 70 8 71 9 73 10 74 11 75 24 76 12 77
REMARK SMILES IDX 13 78 14 79 15 80 23 81 16 82 18 83 22 84 17 85 19 86 21 87
REMARK SMILES IDX 20 88
REMARK H PARENT 3 5 78 23 48 34 7 72
REMARK Flexibility Score: inf
ROOT
ATOM      1  C   UNL A   1      33.876  28.530  25.773  1.00  0.00     0.118 C 
ENDROOT
BRANCH   1   2
ATOM      2  N   UNL A   1      33.698  29.844  26.372  1.00  0.00    -0.352 N 
ATOM      3  O   UNL A   1      33.943  31.507  27.852  1.00  0.00    -0.269 OA
ATOM      4  C   UNL A   1      34.422  30.501  27.333  1.00  0.00     0.251 C 
ATOM      5  H   UNL A   1      32.925  30.348  26.030  1.00  0.00     0.163 HD
BRANCH   4   6
ATOM      6  C   UNL A   1      35.758  30.023  27.757  1.00  0.00     0.039 A 
ATOM      7  C   UNL A   1      36.872  30.119  26.919  1.00  0.00     0.014 A 
ATOM      8  C   UNL A   1      35.913  29.551  29.065  1.00  0.00     0.014 A 
ATOM      9  C   UNL A   1      38.113  29.649  27.347  1.00  0.00     0.010 A 
ATOM     10  C   UNL A   1      37.168  29.136  29.515  1.00  0.00     0.010 A 
ATOM     11  C   UNL A   1      38.275  29.161  28.653  1.00  0.00    -0.014 A 
BRANCH  11  12
ATOM     12  C   UNL A   1      39.609  28.721  29.131  1.00  0.00     0.031 A 
ATOM     13  C   UNL A   1      40.471  29.642  29.947  1.00  0.00     0.074 A 
ATOM     14  C   UNL A   1      40.058  27.495  28.804  1.00  0.00     0.049 A 
ATOM     15  N   UNL A   1      41.684  29.451  30.397  1.00  0.00    -0.248 NA
ATOM     16  C   UNL A   1      39.899  30.953  30.294  1.00  0.00     0.031 C 
ATOM     17  C   UNL A   1      39.321  26.511  28.008  1.00  0.00     0.029 A 
ATOM     18  N   UNL A   1      41.245  26.871  29.090  1.00  0.00    -0.354 N 
ATOM     19  C   UNL A   1      42.034  30.623  31.056  1.00  0.00     0.074 A 
ATOM     20  C   UNL A   1      40.907  31.525  30.936  1.00  0.00     0.031 C 
ATOM     21  C   UNL A   1      40.066  25.404  27.881  1.00  0.00     0.029 A 
ATOM     22  C   UNL A   1      41.350  25.615  28.546  1.00  0.00     0.049 A 
ATOM     23  H   UNL A   1      41.954  27.284  29.635  1.00  0.00     0.167 HD
ATOM     24  C   UNL A   1      43.188  30.922  31.700  1.00  0.00     0.031 A 
ATOM     25  C   UNL A   1      42.369  24.734  28.556  1.00  0.00     0.031 A 
ATOM     26  C   UNL A   1      44.305  30.025  31.821  1.00  0.00     0.049 A 
ATOM     27  C   UNL A   1      43.640  25.085  29.269  1.00  0.00     0.074 A 
ATOM     28  C   UNL A   1      45.504  30.227  32.484  1.00  0.00     0.029 A 
ATOM     29  N   UNL A   1      44.366  28.757  31.264  1.00  0.00    -0.354 N 
ATOM     30  N   UNL A   1      43.940  26.186  29.915  1.00  0.00    -0.248 NA
ATOM     31  C   UNL A   1      44.709  24.078  29.260  1.00  0.00     0.031 C 
ATOM     32  C   UNL A   1      46.302  29.092  32.299  1.00  0.00     0.029 A 
ATOM     33  C   UNL A   1      45.586  28.170  31.551  1.00  0.00     0.049 A 
ATOM     34  H   UNL A   1      43.646  28.336  30.740  1.00  0.00     0.167 HD
ATOM     35  C   UNL A   1      45.228  26.002  30.399  1.00  0.00     0.074 A 
ATOM     36  C   UNL A   1      45.649  24.680  29.980  1.00  0.00     0.031 C 
ATOM     37  C   UNL A   1      45.990  26.854  31.127  1.00  0.00     0.031 A 
BRANCH  24  38
ATOM     38  C   UNL A   1      43.303  32.300  32.291  1.00  0.00    -0.014 A 
ATOM     39  C   UNL A   1      42.927  32.553  33.623  1.00  0.00     0.010 A 
ATOM     40  C   UNL A   1      43.788  33.356  31.501  1.00  0.00     0.010 A 
ATOM     41  C   UNL A   1      42.982  33.852  34.135  1.00  0.00     0.020 A 
ATOM     42  C   UNL A   1      43.863  34.653  32.017  1.00  0.00     0.020 A 
ATOM     43  C   UNL A   1      43.434  34.896  33.323  1.00  0.00     0.054 A 
BRANCH  43  44
ATOM     44  S   UNL A   1      43.475  36.581  33.998  1.00  0.00     0.124 S 
ATOM     45  O   UNL A   1      43.768  37.371  32.804  1.00  0.00    -0.237 OA
ATOM     46  O   UNL A   1      42.131  36.747  34.545  1.00  0.00    -0.237 OA
ATOM     47  O   UNL A   1      44.545  36.528  34.990  1.00  0.00    -0.744 OA
ENDBRANCH  43  44
ENDBRANCH  24  38
BRANCH  25  48
ATOM     48  C   UNL A   1      42.204  23.437  27.851  1.00  0.00    -0.014 A 
ATOM     49  C   UNL A   1      42.898  23.182  26.658  1.00  0.00     0.010 A 
ATOM     50  C   UNL A   1      41.424  22.416  28.426  1.00  0.00     0.010 A 
ATOM     51  C   UNL A   1      42.832  21.922  26.058  1.00  0.00     0.020 A 
ATOM     52  C   UNL A   1      41.370  21.149  27.839  1.00  0.00     0.020 A 
ATOM     53  C   UNL A   1      42.075  20.910  26.658  1.00  0.00     0.054 A 
BRANCH  53  54
ATOM     54  S   UNL A   1      42.096  19.246  25.933  1.00  0.00     0.124 S 
ATOM     55  O   UNL A   1      42.664  18.450  27.017  1.00  0.00    -0.237 OA
ATOM     56  O   UNL A   1      40.684  19.005  25.644  1.00  0.00    -0.237 OA
ATOM     57  O   UNL A   1      42.945  19.401  24.754  1.00  0.00    -0.744 OA
ENDBRANCH  53  54
ENDBRANCH  25  48
BRANCH  37  58
ATOM     58  C   UNL A   1      47.355  26.380  31.541  1.00  0.00    -0.014 A 
ATOM     59  C   UNL A   1      47.552  25.737  32.775  1.00  0.00     0.010 A 
ATOM     60  C   UNL A   1      48.435  26.505  30.648  1.00  0.00     0.010 A 
ATOM     61  C   UNL A   1      48.810  25.232  33.113  1.00  0.00     0.020 A 
ATOM     62  C   UNL A   1      49.690  25.989  30.977  1.00  0.00     0.020 A 
ATOM     63  C   UNL A   1      49.872  25.361  32.212  1.00  0.00     0.054 A 
BRANCH  63  64
ATOM     64  S   UNL A   1      51.479  24.635  32.637  1.00  0.00     0.124 S 
ATOM     65  O   UNL A   1      51.322  23.258  32.176  1.00  0.00    -0.237 OA
ATOM     66  O   UNL A   1      52.417  25.450  31.870  1.00  0.00    -0.237 OA
ATOM     67  O   UNL A   1      51.560  24.803  34.086  1.00  0.00    -0.744 OA
ENDBRANCH  63  64
ENDBRANCH  37  58
ENDBRANCH  11  12
ENDBRANCH   4   6
ENDBRANCH   1   2
BRANCH   1  68
ATOM     68  C   UNL A   1      34.073  28.599  24.260  1.00  0.00     0.042 C 
BRANCH  68  69
ATOM     69  C   UNL A   1      32.782  28.516  23.451  1.00  0.00     0.118 C 
BRANCH  69  70
ATOM     70  N   UNL A   1      32.941  27.752  22.223  1.00  0.00    -0.352 N 
ATOM     71  C   UNL A   1      32.977  26.398  22.025  1.00  0.00     0.252 C 
ATOM     72  H   UNL A   1      33.039  28.294  21.407  1.00  0.00     0.163 HD
ATOM     73  O   UNL A   1      33.384  25.974  20.939  1.00  0.00    -0.269 OA
BRANCH  71  74
ATOM     74  C   UNL A   1      32.554  25.493  23.082  1.00  0.00     0.050 A 
ATOM     75  C   UNL A   1      31.247  25.126  23.339  1.00  0.00     0.079 A 
ATOM     76  C   UNL A   1      33.447  24.768  23.937  1.00  0.00     0.030 A 
ATOM     77  S   UNL A   1      31.101  24.077  24.675  1.00  0.00    -0.147 S 
ATOM     78  C   UNL A   1      32.806  23.945  24.849  1.00  0.00     0.014 A 
BRANCH  78  79
ATOM     79  C   UNL A   1      33.403  23.030  25.917  1.00  0.00     0.079 C 
ATOM     80  C   UNL A   1      32.665  21.679  26.004  1.00  0.00     0.016 C 
ATOM     81  C   UNL A   1      34.894  22.788  25.710  1.00  0.00     0.052 A 
ATOM     82  C   UNL A   1      32.958  20.820  24.777  1.00  0.00     0.006 C 
ATOM     83  C   UNL A   1      35.358  21.631  25.066  1.00  0.00    -0.026 A 
ATOM     84  N   UNL A   1      35.731  23.777  26.122  1.00  0.00    -0.260 NA
ATOM     85  C   UNL A   1      34.447  20.497  24.681  1.00  0.00     0.037 C 
ATOM     86  C   UNL A   1      36.733  21.513  24.842  1.00  0.00     0.007 A 
ATOM     87  C   UNL A   1      37.051  23.626  25.885  1.00  0.00     0.111 A 
ATOM     88  C   UNL A   1      37.594  22.525  25.248  1.00  0.00     0.020 A 
ENDBRANCH  78  79
ENDBRANCH  71  74
ENDBRANCH  69  70
ENDBRANCH  68  69
ENDBRANCH   1  68
TORSDOF 14
ENDMDL
MODEL 2
REMARK VINA RESULT:     -11.4      0.986      1.617
REMARK SMILES O=C(NCCCNC(=O)c1csc([C@H]2CCCc3cccnc32)c1)c1ccc(-c2c3nc(c(-c4ccc(S(=O)(=O)[O-])cc4)c4ccc([nH]4)c(-c4ccc(S(=O)(=O)[O-])cc4)c4nc(c(-c5ccc(S(=O)(=O)[O-])cc5)c5ccc2[nH]5)C=C4)C=C3)cc1
REMARK SMILES IDX 4 1 3 2 1 3 2 4 25 6 26 7 84 8 27 9 83 10 28 11 29 12 30 13
REMARK SMILES IDX 77 14 31 15 82 16 76 17 78 18 32 19 81 20 75 21 74 22 33 24
REMARK SMILES IDX 63 25 44 26 62 27 45 28 48 29 61 30 79 31 46 32 47 33 60 35
REMARK SMILES IDX 80 36 49 37 34 38 35 39 43 40 36 41 42 42 37 43 38 44 39 45
REMARK SMILES IDX 40 46 41 47 64 48 65 49 73 50 66 51 72 52 67 53 68 54 69 55
REMARK SMILES IDX 70 56 71 57 50 58 51 59 59 60 52 61 58 62 53 63 54 64 55 65
REMARK SMILES IDX 56 66 57 67 5 68 6 69 7 70 8 71 9 73 10 74 11 75 24 76 12 77
REMARK SMILES IDX 13 78 14 79 15 80 23 81 16 82 18 83 22 84 17 85 19 86 21 87
REMARK SMILES IDX 20 88
REMARK H PARENT 3 5 78 23 48 34 7 72
REMARK Flexibility Score: inf
ROOT
ATOM      1  C   UNL A   1      33.613  28.432  26.586  1.00  0.00     0.118 C 
ENDROOT
BRANCH   1   2
ATOM      2  N   UNL A   1      33.555  29.835  26.967  1.00  0.00    -0.352 N 
ATOM      3  O   UNL A   1      34.023  31.702  28.111  1.00  0.00    -0.269 OA
ATOM      4  C   UNL A   1      34.403  30.598  27.727  1.00  0.00     0.251 C 
ATOM      5  H   UNL A   1      32.771  30.320  26.621  1.00  0.00     0.163 HD
BRANCH   4   6
ATOM      6  C   UNL A   1      35.755  30.118  28.094  1.00  0.00     0.039 A 
ATOM      7  C   UNL A   1      36.829  30.197  27.203  1.00  0.00     0.014 A 
ATOM      8  C   UNL A   1      35.969  29.665  29.400  1.00  0.00     0.014 A 
ATOM      9  C   UNL A   1      38.087  29.727  27.579  1.00  0.00     0.010 A 
ATOM     10  C   UNL A   1      37.243  29.249  29.797  1.00  0.00     0.010 A 
ATOM     11  C   UNL A   1      38.308  29.256  28.883  1.00  0.00    -0.014 A 
BRANCH  11  12
ATOM     12  C   UNL A   1      39.660  28.816  29.304  1.00  0.00     0.031 A 
ATOM     13  C   UNL A   1      40.558  29.738  30.080  1.00  0.00     0.074 A 
ATOM     14  C   UNL A   1      40.095  27.589  28.960  1.00  0.00     0.049 A 
ATOM     15  N   UNL A   1      41.789  29.546  30.478  1.00  0.00    -0.248 NA
ATOM     16  C   UNL A   1      40.003  31.050  30.448  1.00  0.00     0.031 C 
ATOM     17  C   UNL A   1      39.323  26.604  28.199  1.00  0.00     0.029 A 
ATOM     18  N   UNL A   1      41.292  26.964  29.197  1.00  0.00    -0.354 N 
ATOM     19  C   UNL A   1      42.169  30.719  31.118  1.00  0.00     0.074 A 
ATOM     20  C   UNL A   1      41.039  31.623  31.045  1.00  0.00     0.031 C 
ATOM     21  C   UNL A   1      40.061  25.495  28.043  1.00  0.00     0.029 A 
ATOM     22  C   UNL A   1      41.372  25.707  28.651  1.00  0.00     0.049 A 
ATOM     23  H   UNL A   1      42.024  27.377  29.709  1.00  0.00     0.167 HD
ATOM     24  C   UNL A   1      43.350  31.019  31.710  1.00  0.00     0.031 A 
ATOM     25  C   UNL A   1      42.389  24.825  28.619  1.00  0.00     0.031 A 
ATOM     26  C   UNL A   1      44.470  30.121  31.785  1.00  0.00     0.049 A 
ATOM     27  C   UNL A   1      43.691  25.176  29.276  1.00  0.00     0.074 A 
ATOM     28  C   UNL A   1      45.697  30.323  32.395  1.00  0.00     0.029 A 
ATOM     29  N   UNL A   1      44.505  28.852  31.229  1.00  0.00    -0.354 N 
ATOM     30  N   UNL A   1      44.019  26.279  29.905  1.00  0.00    -0.248 NA
ATOM     31  C   UNL A   1      44.758  24.168  29.223  1.00  0.00     0.031 C 
ATOM     32  C   UNL A   1      46.485  29.187  32.179  1.00  0.00     0.029 A 
ATOM     33  C   UNL A   1      45.736  28.264  31.465  1.00  0.00     0.049 A 
ATOM     34  H   UNL A   1      43.763  28.430  30.738  1.00  0.00     0.167 HD
ATOM     35  C   UNL A   1      45.327  26.094  30.333  1.00  0.00     0.074 A 
ATOM     36  C   UNL A   1      45.728  24.771  29.899  1.00  0.00     0.031 C 
ATOM     37  C   UNL A   1      46.121  26.947  31.026  1.00  0.00     0.031 A 
BRANCH  24  38
ATOM     38  C   UNL A   1      43.491  32.398  32.293  1.00  0.00    -0.014 A 
ATOM     39  C   UNL A   1      43.107  32.670  33.619  1.00  0.00     0.010 A 
ATOM     40  C   UNL A   1      44.010  33.436  31.501  1.00  0.00     0.010 A 
ATOM     41  C   UNL A   1      43.187  33.971  34.123  1.00  0.00     0.020 A 
ATOM     42  C   UNL A   1      44.111  34.735  32.008  1.00  0.00     0.020 A 
ATOM     43  C   UNL A   1      43.673  34.998  33.309  1.00  0.00     0.054 A 
BRANCH  43  44
ATOM     44  S   UNL A   1      43.747  36.686  33.971  1.00  0.00     0.124 S 
ATOM     45  O   UNL A   1      43.949  37.473  32.757  1.00  0.00    -0.237 OA
ATOM     46  O   UNL A   1      42.444  36.843  34.611  1.00  0.00    -0.237 OA
ATOM     47  O   UNL A   1      44.886  36.647  34.886  1.00  0.00    -0.744 OA
ENDBRANCH  43  44
ENDBRANCH  24  38
BRANCH  25  48
ATOM     48  C   UNL A   1      42.193  23.526  27.924  1.00  0.00    -0.014 A 
ATOM     49  C   UNL A   1      42.633  23.353  26.603  1.00  0.00     0.010 A 
ATOM     50  C   UNL A   1      41.651  22.429  28.620  1.00  0.00     0.010 A 
ATOM     51  C   UNL A   1      42.552  22.099  25.991  1.00  0.00     0.020 A 
ATOM     52  C   UNL A   1      41.585  21.170  28.019  1.00  0.00     0.020 A 
ATOM     53  C   UNL A   1      42.037  21.012  26.707  1.00  0.00     0.054 A 
BRANCH  53  54
ATOM     54  S   UNL A   1      42.050  19.367  25.941  1.00  0.00     0.124 S 
ATOM     55  O   UNL A   1      42.588  18.538  27.015  1.00  0.00    -0.237 OA
ATOM     56  O   UNL A   1      40.640  19.151  25.622  1.00  0.00    -0.237 OA
ATOM     57  O   UNL A   1      42.921  19.540  24.781  1.00  0.00    -0.744 OA
ENDBRANCH  53  54
ENDBRANCH  25  48
BRANCH  37  58
ATOM     58  C   UNL A   1      47.502  26.472  31.382  1.00  0.00    -0.014 A 
ATOM     59  C   UNL A   1      47.759  25.867  32.624  1.00  0.00     0.010 A 
ATOM     60  C   UNL A   1      48.533  26.557  30.429  1.00  0.00     0.010 A 
ATOM     61  C   UNL A   1      49.029  25.361  32.911  1.00  0.00     0.020 A 
ATOM     62  C   UNL A   1      49.799  26.040  30.707  1.00  0.00     0.020 A 
ATOM     63  C   UNL A   1      50.042  25.450  31.950  1.00  0.00     0.054 A 
BRANCH  63  64
ATOM     64  S   UNL A   1      51.664  24.722  32.312  1.00  0.00     0.124 S 
ATOM     65  O   UNL A   1      52.527  25.411  31.355  1.00  0.00    -0.237 OA
ATOM     66  O   UNL A   1      51.874  25.074  33.713  1.00  0.00    -0.237 OA
ATOM     67  O   UNL A   1      51.465  23.296  32.059  1.00  0.00    -0.744 OA
ENDBRANCH  63  64
ENDBRANCH  37  58
ENDBRANCH  11  12
ENDBRANCH   4   6
ENDBRANCH   1   2
BRANCH   1  68
ATOM     68  C   UNL A   1      32.228  27.800  26.466  1.00  0.00     0.042 C 
BRANCH  68  69
ATOM     69  C   UNL A   1      31.711  27.680  25.035  1.00  0.00     0.118 C 
BRANCH  69  70
ATOM     70  N   UNL A   1      32.561  28.369  24.076  1.00  0.00    -0.352 N 
ATOM     71  C   UNL A   1      33.453  27.866  23.167  1.00  0.00     0.252 C 
ATOM     72  H   UNL A   1      32.484  29.350  24.082  1.00  0.00     0.163 HD
ATOM     73  O   UNL A   1      34.256  28.643  22.641  1.00  0.00    -0.269 OA
BRANCH  71  74
ATOM     74  C   UNL A   1      33.452  26.447  22.848  1.00  0.00     0.050 A 
ATOM     75  C   UNL A   1      32.974  25.896  21.675  1.00  0.00     0.079 A 
ATOM     76  C   UNL A   1      34.048  25.430  23.664  1.00  0.00     0.030 A 
ATOM     77  S   UNL A   1      33.090  24.195  21.643  1.00  0.00    -0.147 S 
ATOM     78  C   UNL A   1      33.943  24.154  23.135  1.00  0.00     0.014 A 
BRANCH  78  79
ATOM     79  C   UNL A   1      34.441  22.825  23.701  1.00  0.00     0.079 C 
ATOM     80  C   UNL A   1      35.969  22.671  23.563  1.00  0.00     0.016 C 
ATOM     81  C   UNL A   1      34.035  22.623  25.157  1.00  0.00     0.052 A 
ATOM     82  C   UNL A   1      36.699  23.614  24.516  1.00  0.00     0.006 C 
ATOM     83  C   UNL A   1      34.921  22.915  26.204  1.00  0.00    -0.026 A 
ATOM     84  N   UNL A   1      32.758  22.212  25.378  1.00  0.00    -0.260 NA
ATOM     85  C   UNL A   1      36.359  23.292  25.968  1.00  0.00     0.037 C 
ATOM     86  C   UNL A   1      34.454  22.779  27.515  1.00  0.00     0.007 A 
ATOM     87  C   UNL A   1      32.345  22.096  26.657  1.00  0.00     0.111 A 
ATOM     88  C   UNL A   1      33.146  22.372  27.749  1.00  0.00     0.020 A 
ENDBRANCH  78  79
ENDBRANCH  71  74
ENDBRANCH  69  70
ENDBRANCH  68  69
ENDBRANCH   1  68
TORSDOF 14
ENDMDL
MODEL 3
REMARK VINA RESULT:     -11.2      2.672      9.422
REMARK SMILES O=C(NCCCNC(=O)c1csc([C@H]2CCCc3cccnc32)c1)c1ccc(-c2c3nc(c(-c4ccc(S(=O)(=O)[O-])cc4)c4ccc([nH]4)c(-c4ccc(S(=O)(=O)[O-])cc4)c4nc(c(-c5ccc(S(=O)(=O)[O-])cc5)c5ccc2[nH]5)C=C4)C=C3)cc1
REMARK SMILES IDX 4 1 3 2 1 3 2 4 25 6 26 7 84 8 27 9 83 10 28 11 29 12 30 13
REMARK SMILES IDX 77 14 31 15 82 16 76 17 78 18 32 19 81 20 75 21 74 22 33 24
REMARK SMILES IDX 63 25 44 26 62 27 45 28 48 29 61 30 79 31 46 32 47 33 60 35
REMARK SMILES IDX 80 36 49 37 34 38 35 39 43 40 36 41 42 42 37 43 38 44 39 45
REMARK SMILES IDX 40 46 41 47 64 48 65 49 73 50 66 51 72 52 67 53 68 54 69 55
REMARK SMILES IDX 70 56 71 57 50 58 51 59 59 60 52 61 58 62 53 63 54 64 55 65
REMARK SMILES IDX 56 66 57 67 5 68 6 69 7 70 8 71 9 73 10 74 11 75 24 76 12 77
REMARK SMILES IDX 13 78 14 79 15 80 23 81 16 82 18 83 22 84 17 85 19 86 21 87
REMARK SMILES IDX 20 88
REMARK H PARENT 3 5 78 23 48 34 7 72
REMARK Flexibility Score: inf
ROOT
ATOM      1  C   UNL A   1      36.816  23.693  24.985  1.00  0.00     0.118 C 
ENDROOT
BRANCH   1   2
ATOM      2  N   UNL A   1      37.770  22.700  25.456  1.00  0.00    -0.352 N 
ATOM      3  O   UNL A   1      39.706  21.872  26.217  1.00  0.00    -0.269 OA
ATOM      4  C   UNL A   1      38.953  22.840  26.135  1.00  0.00     0.251 C 
ATOM      5  H   UNL A   1      37.525  21.769  25.252  1.00  0.00     0.163 HD
BRANCH   4   6
ATOM      6  C   UNL A   1      39.338  24.125  26.761  1.00  0.00     0.039 A 
ATOM      7  C   UNL A   1      39.025  24.416  28.092  1.00  0.00     0.014 A 
ATOM      8  C   UNL A   1      40.116  25.021  26.020  1.00  0.00     0.014 A 
ATOM      9  C   UNL A   1      39.395  25.641  28.647  1.00  0.00     0.010 A 
ATOM     10  C   UNL A   1      40.538  26.223  26.594  1.00  0.00     0.010 A 
ATOM     11  C   UNL A   1      40.163  26.553  27.906  1.00  0.00    -0.014 A 
BRANCH  11  12
ATOM     12  C   UNL A   1      40.613  27.827  28.517  1.00  0.00     0.031 A 
ATOM     13  C   UNL A   1      42.014  27.974  29.037  1.00  0.00     0.074 A 
ATOM     14  C   UNL A   1      39.744  28.850  28.630  1.00  0.00     0.049 A 
ATOM     15  N   UNL A   1      42.561  28.989  29.655  1.00  0.00    -0.248 NA
ATOM     16  C   UNL A   1      42.915  26.827  28.849  1.00  0.00     0.031 C 
ATOM     17  C   UNL A   1      38.353  28.829  28.173  1.00  0.00     0.029 A 
ATOM     18  N   UNL A   1      39.898  30.100  29.171  1.00  0.00    -0.354 N 
ATOM     19  C   UNL A   1      43.860  28.597  29.954  1.00  0.00     0.074 A 
ATOM     20  C   UNL A   1      44.015  27.245  29.460  1.00  0.00     0.031 C 
ATOM     21  C   UNL A   1      37.786  30.014  28.441  1.00  0.00     0.029 A 
ATOM     22  C   UNL A   1      38.756  30.861  29.129  1.00  0.00     0.049 A 
ATOM     23  H   UNL A   1      40.747  30.421  29.554  1.00  0.00     0.167 HD
ATOM     24  C   UNL A   1      44.833  29.298  30.584  1.00  0.00     0.031 A 
ATOM     25  C   UNL A   1      38.503  32.094  29.608  1.00  0.00     0.031 A 
ATOM     26  C   UNL A   1      44.680  30.642  31.072  1.00  0.00     0.049 A 
ATOM     27  C   UNL A   1      39.592  32.852  30.308  1.00  0.00     0.074 A 
ATOM     28  C   UNL A   1      45.621  31.445  31.693  1.00  0.00     0.029 A 
ATOM     29  N   UNL A   1      43.509  31.380  30.999  1.00  0.00    -0.354 N 
ATOM     30  N   UNL A   1      40.824  32.476  30.552  1.00  0.00    -0.248 NA
ATOM     31  C   UNL A   1      39.261  34.198  30.793  1.00  0.00     0.031 C 
ATOM     32  C   UNL A   1      45.008  32.659  32.025  1.00  0.00     0.029 A 
ATOM     33  C   UNL A   1      43.696  32.624  31.578  1.00  0.00     0.049 A 
ATOM     34  H   UNL A   1      42.668  31.067  30.594  1.00  0.00     0.167 HD
ATOM     35  C   UNL A   1      41.422  33.543  31.211  1.00  0.00     0.074 A 
ATOM     36  C   UNL A   1      40.418  34.583  31.319  1.00  0.00     0.031 C 
ATOM     37  C   UNL A   1      42.689  33.648  31.679  1.00  0.00     0.031 A 
BRANCH  24  38
ATOM     38  C   UNL A   1      46.143  28.594  30.809  1.00  0.00    -0.014 A 
ATOM     39  C   UNL A   1      46.364  27.821  31.963  1.00  0.00     0.010 A 
ATOM     40  C   UNL A   1      47.168  28.713  29.854  1.00  0.00     0.010 A 
ATOM     41  C   UNL A   1      47.609  27.225  32.184  1.00  0.00     0.020 A 
ATOM     42  C   UNL A   1      48.407  28.101  30.063  1.00  0.00     0.020 A 
ATOM     43  C   UNL A   1      48.628  27.383  31.240  1.00  0.00     0.054 A 
BRANCH  43  44
ATOM     44  S   UNL A   1      50.246  26.624  31.556  1.00  0.00     0.124 S 
ATOM     45  O   UNL A   1      49.864  25.284  31.996  1.00  0.00    -0.237 OA
ATOM     46  O   UNL A   1      50.899  26.692  30.251  1.00  0.00    -0.237 OA
ATOM     47  O   UNL A   1      50.831  27.477  32.587  1.00  0.00    -0.744 OA
ENDBRANCH  43  44
ENDBRANCH  24  38
BRANCH  25  48
ATOM     48  C   UNL A   1      37.144  32.667  29.435  1.00  0.00    -0.014 A 
ATOM     49  C   UNL A   1      36.265  32.758  30.526  1.00  0.00     0.010 A 
ATOM     50  C   UNL A   1      36.762  33.213  28.194  1.00  0.00     0.010 A 
ATOM     51  C   UNL A   1      35.032  33.401  30.387  1.00  0.00     0.020 A 
ATOM     52  C   UNL A   1      35.538  33.872  28.057  1.00  0.00     0.020 A 
ATOM     53  C   UNL A   1      34.680  33.962  29.155  1.00  0.00     0.054 A 
BRANCH  53  54
ATOM     54  S   UNL A   1      33.130  34.898  29.023  1.00  0.00     0.124 S 
ATOM     55  O   UNL A   1      32.604  34.804  30.382  1.00  0.00    -0.237 OA
ATOM     56  O   UNL A   1      33.589  36.223  28.613  1.00  0.00    -0.237 OA
ATOM     57  O   UNL A   1      32.379  34.167  28.005  1.00  0.00    -0.744 OA
ENDBRANCH  53  54
ENDBRANCH  25  48
BRANCH  37  58
ATOM     58  C   UNL A   1      43.077  34.942  32.338  1.00  0.00    -0.014 A 
ATOM     59  C   UNL A   1      43.702  35.965  31.605  1.00  0.00     0.010 A 
ATOM     60  C   UNL A   1      42.737  35.166  33.684  1.00  0.00     0.010 A 
ATOM     61  C   UNL A   1      43.987  37.192  32.210  1.00  0.00     0.020 A 
ATOM     62  C   UNL A   1      43.009  36.396  34.288  1.00  0.00     0.020 A 
ATOM     63  C   UNL A   1      43.639  37.400  33.549  1.00  0.00     0.054 A 
BRANCH  63  64
ATOM     64  S   UNL A   1      43.951  39.023  34.297  1.00  0.00     0.124 S 
ATOM     65  O   UNL A   1      43.970  38.702  35.722  1.00  0.00    -0.237 OA
ATOM     66  O   UNL A   1      45.238  39.404  33.722  1.00  0.00    -0.237 OA
ATOM     67  O   UNL A   1      42.816  39.829  33.854  1.00  0.00    -0.744 OA
ENDBRANCH  63  64
ENDBRANCH  37  58
ENDBRANCH  11  12
ENDBRANCH   4   6
ENDBRANCH   1   2
BRANCH   1  68
ATOM     68  C   UNL A   1      35.455  23.565  25.666  1.00  0.00     0.042 C 
BRANCH  68  69
ATOM     69  C   UNL A   1      34.817  22.183  25.547  1.00  0.00     0.118 C 
BRANCH  69  70
ATOM     70  N   UNL A   1      34.142  21.989  24.273  1.00  0.00    -0.352 N 
ATOM     71  C   UNL A   1      32.849  22.256  23.909  1.00  0.00     0.252 C 
ATOM     72  H   UNL A   1      34.702  21.602  23.561  1.00  0.00     0.163 HD
ATOM     73  O   UNL A   1      32.422  21.767  22.858  1.00  0.00    -0.269 OA
BRANCH  71  74
ATOM     74  C   UNL A   1      32.008  23.087  24.756  1.00  0.00     0.050 A 
ATOM     75  C   UNL A   1      31.179  22.619  25.757  1.00  0.00     0.079 A 
ATOM     76  C   UNL A   1      32.006  24.521  24.743  1.00  0.00     0.030 A 
ATOM     77  S   UNL A   1      30.305  23.862  26.531  1.00  0.00    -0.147 S 
ATOM     78  C   UNL A   1      31.139  25.088  25.663  1.00  0.00     0.014 A 
BRANCH  78  79
ATOM     79  C   UNL A   1      30.852  26.562  25.944  1.00  0.00     0.079 C 
ATOM     80  C   UNL A   1      31.815  27.151  26.996  1.00  0.00     0.016 C 
ATOM     81  C   UNL A   1      30.890  27.415  24.681  1.00  0.00     0.052 A 
ATOM     82  C   UNL A   1      33.222  27.296  26.423  1.00  0.00     0.006 C 
ATOM     83  C   UNL A   1      32.036  28.144  24.331  1.00  0.00    -0.026 A 
ATOM     84  N   UNL A   1      29.784  27.375  23.891  1.00  0.00    -0.260 NA
ATOM     85  C   UNL A   1      33.232  28.258  25.238  1.00  0.00     0.037 C 
ATOM     86  C   UNL A   1      32.026  28.841  23.119  1.00  0.00     0.007 A 
ATOM     87  C   UNL A   1      29.815  28.060  22.728  1.00  0.00     0.111 A 
ATOM     88  C   UNL A   1      30.904  28.795  22.300  1.00  0.00     0.020 A 
ENDBRANCH  78  79
ENDBRANCH  71  74
ENDBRANCH  69  70
ENDBRANCH  68  69
ENDBRANCH   1  68
TORSDOF 14
ENDMDL
