MODEL 1
REMARK VINA RESULT:     -10.6      0.000      0.000
REMARK SMILES Nc1ccc2c(c1)C(=O)N(CCC(=O)NCCCNC(=O)c1ccc(-c3c4nc(c(-c5ccc(S(=O)(=O)[O-])cc5)c5ccc([nH]5)c(-c5ccc(S(=O)(=O)[O-])cc5)c5nc(c(-c6ccc(S(=O)(=O)[O-])cc6)c6ccc3[nH]6)C=C5)C=C4)cc1)C2
REMARK SMILES IDX 17 1 16 2 15 3 13 4 14 5 12 7 11 8 10 9 2 10 3 11 7 12 4 13
REMARK SMILES IDX 6 14 5 15 8 16 82 17 9 18 1 19 18 22 19 23 20 24 21 26 22 27
REMARK SMILES IDX 23 28 81 29 24 30 80 31 25 32 26 33 27 34 74 35 28 36 79 37
REMARK SMILES IDX 73 38 75 39 29 40 78 41 72 42 71 43 30 45 60 46 41 47 59 48
REMARK SMILES IDX 42 49 45 50 58 51 76 52 43 53 44 54 57 56 77 57 46 58 31 59
REMARK SMILES IDX 32 60 40 61 33 62 39 63 34 64 35 65 36 66 37 67 38 68 61 69
REMARK SMILES IDX 62 70 70 71 63 72 69 73 64 74 65 75 66 76 67 77 68 78 47 79
REMARK SMILES IDX 48 80 56 81 49 82 55 83 50 84 51 85 52 86 53 87 54 88
REMARK H PARENT 15 6 1 20 1 21 19 25 75 44 45 55
REMARK Flexibility Score: inf
ROOT
ATOM      1  C   UNL A   1      41.026  19.862  26.345  1.00  0.00     0.042 C 
ENDROOT
BRANCH   1   2
ATOM      2  C   UNL A   1      42.159  19.269  27.181  1.00  0.00     0.117 C 
BRANCH   2   3
ATOM      3  N   UNL A   1      43.187  18.653  26.356  1.00  0.00    -0.356 N 
ATOM      4  C   UNL A   1      43.985  19.180  25.386  1.00  0.00     0.221 C 
ATOM      5  O   UNL A   1      44.756  18.414  24.801  1.00  0.00    -0.275 OA
ATOM      6  H   UNL A   1      43.331  17.695  26.528  1.00  0.00     0.163 HD
BRANCH   4   7
ATOM      7  C   UNL A   1      43.954  20.653  25.038  1.00  0.00     0.121 C 
BRANCH   7   8
ATOM      8  C   UNL A   1      45.105  21.427  25.683  1.00  0.00     0.130 C 
BRANCH   8   9
ATOM      9  N   UNL A   1      45.070  22.847  25.373  1.00  0.00    -0.334 N 
ATOM     10  C   UNL A   1      45.079  27.436  25.783  1.00  0.00     0.032 A 
ATOM     11  C   UNL A   1      43.751  27.233  25.359  1.00  0.00     0.026 A 
ATOM     12  C   UNL A   1      45.927  26.336  25.921  1.00  0.00     0.039 A 
ATOM     13  C   UNL A   1      43.302  25.984  24.912  1.00  0.00     0.008 A 
ATOM     14  C   UNL A   1      45.440  25.095  25.550  1.00  0.00     0.047 A 
ATOM     15  C   UNL A   1      44.170  24.912  25.005  1.00  0.00    -0.016 A 
ATOM     16  C   UNL A   1      46.013  23.766  25.799  1.00  0.00     0.254 C 
ATOM     17  C   UNL A   1      43.962  23.470  24.675  1.00  0.00     0.156 C 
ATOM     18  O   UNL A   1      47.064  23.548  26.379  1.00  0.00    -0.269 OA
BRANCH  10  19
ATOM     19  N   UNL A   1      45.487  28.698  26.198  1.00  0.00    -0.399 N 
ATOM     20  H   UNL A   1      44.818  29.379  26.438  1.00  0.00     0.156 HD
ATOM     21  H   UNL A   1      46.447  28.911  26.252  1.00  0.00     0.156 HD
ENDBRANCH  10  19
ENDBRANCH   8   9
ENDBRANCH   7   8
ENDBRANCH   4   7
ENDBRANCH   2   3
ENDBRANCH   1   2
BRANCH   1  22
ATOM     22  C   UNL A   1      40.865  21.375  26.434  1.00  0.00     0.118 C 
BRANCH  22  23
ATOM     23  N   UNL A   1      39.555  21.805  25.980  1.00  0.00    -0.352 N 
ATOM     24  C   UNL A   1      38.818  22.942  26.211  1.00  0.00     0.251 C 
ATOM     25  H   UNL A   1      39.106  21.155  25.392  1.00  0.00     0.163 HD
ATOM     26  O   UNL A   1      37.622  22.907  25.919  1.00  0.00    -0.269 OA
BRANCH  24  27
ATOM     27  C   UNL A   1      39.377  24.189  26.806  1.00  0.00     0.039 A 
ATOM     28  C   UNL A   1      40.007  25.185  26.061  1.00  0.00     0.014 A 
ATOM     29  C   UNL A   1      39.140  24.430  28.169  1.00  0.00     0.014 A 
ATOM     30  C   UNL A   1      40.490  26.345  26.684  1.00  0.00     0.010 A 
ATOM     31  C   UNL A   1      39.551  25.628  28.777  1.00  0.00     0.010 A 
ATOM     32  C   UNL A   1      40.258  26.593  28.048  1.00  0.00    -0.014 A 
BRANCH  32  33
ATOM     33  C   UNL A   1      40.701  27.878  28.676  1.00  0.00     0.031 A 
ATOM     34  C   UNL A   1      42.133  28.087  29.108  1.00  0.00     0.074 A 
ATOM     35  C   UNL A   1      39.814  28.880  28.852  1.00  0.00     0.049 A 
ATOM     36  N   UNL A   1      42.690  29.144  29.645  1.00  0.00    -0.248 NA
ATOM     37  C   UNL A   1      43.063  26.967  28.913  1.00  0.00     0.031 C 
ATOM     38  C   UNL A   1      38.399  28.822  28.487  1.00  0.00     0.029 A 
ATOM     39  N   UNL A   1      39.970  30.148  29.364  1.00  0.00    -0.354 N 
ATOM     40  C   UNL A   1      44.026  28.813  29.852  1.00  0.00     0.074 A 
ATOM     41  C   UNL A   1      44.190  27.444  29.421  1.00  0.00     0.031 C 
ATOM     42  C   UNL A   1      37.832  30.014  28.730  1.00  0.00     0.029 A 
ATOM     43  C   UNL A   1      38.819  30.902  29.338  1.00  0.00     0.049 A 
ATOM     44  H   UNL A   1      40.826  30.484  29.716  1.00  0.00     0.167 HD
ATOM     45  C   UNL A   1      45.030  29.585  30.335  1.00  0.00     0.031 A 
ATOM     46  C   UNL A   1      38.567  32.161  29.759  1.00  0.00     0.031 A 
ATOM     47  C   UNL A   1      44.867  30.953  30.759  1.00  0.00     0.049 A 
ATOM     48  C   UNL A   1      39.684  32.979  30.348  1.00  0.00     0.074 A 
ATOM     49  C   UNL A   1      45.837  31.820  31.232  1.00  0.00     0.029 A 
ATOM     50  N   UNL A   1      43.671  31.654  30.766  1.00  0.00    -0.354 N 
ATOM     51  N   UNL A   1      40.947  32.662  30.490  1.00  0.00    -0.248 NA
ATOM     52  C   UNL A   1      39.344  34.328  30.828  1.00  0.00     0.031 C 
ATOM     53  C   UNL A   1      45.216  33.012  31.604  1.00  0.00     0.029 A 
ATOM     54  C   UNL A   1      43.874  32.928  31.274  1.00  0.00     0.049 A 
ATOM     55  H   UNL A   1      42.807  31.300  30.456  1.00  0.00     0.167 HD
ATOM     56  C   UNL A   1      41.557  33.775  31.060  1.00  0.00     0.074 A 
ATOM     57  C   UNL A   1      40.530  34.784  31.212  1.00  0.00     0.031 C 
ATOM     58  C   UNL A   1      42.852  33.936  31.427  1.00  0.00     0.031 A 
BRANCH  45  59
ATOM     59  C   UNL A   1      46.416  28.991  30.433  1.00  0.00    -0.014 A 
ATOM     60  C   UNL A   1      47.321  29.147  29.365  1.00  0.00     0.010 A 
ATOM     61  C   UNL A   1      46.771  28.155  31.507  1.00  0.00     0.010 A 
ATOM     62  C   UNL A   1      48.530  28.445  29.347  1.00  0.00     0.020 A 
ATOM     63  C   UNL A   1      47.997  27.479  31.510  1.00  0.00     0.020 A 
ATOM     64  C   UNL A   1      48.855  27.606  30.415  1.00  0.00     0.054 A 
BRANCH  64  65
ATOM     65  S   UNL A   1      50.405  26.666  30.348  1.00  0.00     0.124 S 
ATOM     66  O   UNL A   1      50.875  26.940  28.994  1.00  0.00    -0.237 OA
ATOM     67  O   UNL A   1      51.188  27.270  31.425  1.00  0.00    -0.237 OA
ATOM     68  O   UNL A   1      49.981  25.290  30.596  1.00  0.00    -0.744 OA
ENDBRANCH  64  65
ENDBRANCH  45  59
BRANCH  46  69
ATOM     69  C   UNL A   1      37.192  32.718  29.600  1.00  0.00    -0.014 A 
ATOM     70  C   UNL A   1      36.768  33.230  28.359  1.00  0.00     0.010 A 
ATOM     71  C   UNL A   1      36.333  32.826  30.708  1.00  0.00     0.010 A 
ATOM     72  C   UNL A   1      35.554  33.910  28.246  1.00  0.00     0.020 A 
ATOM     73  C   UNL A   1      35.096  33.471  30.590  1.00  0.00     0.020 A 
ATOM     74  C   UNL A   1      34.733  34.042  29.368  1.00  0.00     0.054 A 
BRANCH  74  75
ATOM     75  S   UNL A   1      33.203  35.004  29.216  1.00  0.00     0.124 S 
ATOM     76  O   UNL A   1      32.479  34.253  28.194  1.00  0.00    -0.237 OA
ATOM     77  O   UNL A   1      32.647  34.932  30.564  1.00  0.00    -0.237 OA
ATOM     78  O   UNL A   1      33.668  36.326  28.805  1.00  0.00    -0.744 OA
ENDBRANCH  74  75
ENDBRANCH  46  69
BRANCH  58  79
ATOM     79  C   UNL A   1      43.270  35.251  32.042  1.00  0.00    -0.014 A 
ATOM     80  C   UNL A   1      43.028  35.492  33.408  1.00  0.00     0.010 A 
ATOM     81  C   UNL A   1      43.761  36.299  31.243  1.00  0.00     0.010 A 
ATOM     82  C   UNL A   1      43.219  36.766  33.951  1.00  0.00     0.020 A 
ATOM     83  C   UNL A   1      43.989  37.564  31.791  1.00  0.00     0.020 A 
ATOM     84  C   UNL A   1      43.687  37.798  33.135  1.00  0.00     0.054 A 
BRANCH  84  85
ATOM     85  S   UNL A   1      43.873  39.457  33.845  1.00  0.00     0.124 S 
ATOM     86  O   UNL A   1      45.111  39.920  33.226  1.00  0.00    -0.237 OA
ATOM     87  O   UNL A   1      42.656  40.131  33.399  1.00  0.00    -0.237 OA
ATOM     88  O   UNL A   1      43.949  39.211  35.283  1.00  0.00    -0.744 OA
ENDBRANCH  84  85
ENDBRANCH  58  79
ENDBRANCH  32  33
ENDBRANCH  24  27
ENDBRANCH  22  23
ENDBRANCH   1  22
TORSDOF 16
ENDMDL
MODEL 2
REMARK VINA RESULT:     -10.4      0.995      8.439
REMARK SMILES Nc1ccc2c(c1)C(=O)N(CCC(=O)NCCCNC(=O)c1ccc(-c3c4nc(c(-c5ccc(S(=O)(=O)[O-])cc5)c5ccc([nH]5)c(-c5ccc(S(=O)(=O)[O-])cc5)c5nc(c(-c6ccc(S(=O)(=O)[O-])cc6)c6ccc3[nH]6)C=C5)C=C4)cc1)C2
REMARK SMILES IDX 17 1 16 2 15 3 13 4 14 5 12 7 11 8 10 9 2 10 3 11 7 12 4 13
REMARK SMILES IDX 6 14 5 15 8 16 82 17 9 18 1 19 18 22 19 23 20 24 21 26 22 27
REMARK SMILES IDX 23 28 81 29 24 30 80 31 25 32 26 33 27 34 74 35 28 36 79 37
REMARK SMILES IDX 73 38 75 39 29 40 78 41 72 42 71 43 30 45 60 46 41 47 59 48
REMARK SMILES IDX 42 49 45 50 58 51 76 52 43 53 44 54 57 56 77 57 46 58 31 59
REMARK SMILES IDX 32 60 40 61 33 62 39 63 34 64 35 65 36 66 37 67 38 68 61 69
REMARK SMILES IDX 62 70 70 71 63 72 69 73 64 74 65 75 66 76 67 77 68 78 47 79
REMARK SMILES IDX 48 80 56 81 49 82 55 83 50 84 51 85 52 86 53 87 54 88
REMARK H PARENT 15 6 1 20 1 21 19 25 75 44 45 55
REMARK Flexibility Score: inf
ROOT
ATOM      1  C   UNL A   1      41.691  21.349  26.131  1.00  0.00     0.042 C 
ENDROOT
BRANCH   1   2
ATOM      2  C   UNL A   1      42.719  20.237  26.335  1.00  0.00     0.117 C 
BRANCH   2   3
ATOM      3  N   UNL A   1      43.206  19.700  25.073  1.00  0.00    -0.356 N 
ATOM      4  C   UNL A   1      44.449  19.723  24.515  1.00  0.00     0.221 C 
ATOM      5  O   UNL A   1      44.581  19.224  23.394  1.00  0.00    -0.275 OA
ATOM      6  H   UNL A   1      42.523  19.244  24.532  1.00  0.00     0.163 HD
BRANCH   4   7
ATOM      7  C   UNL A   1      45.638  20.318  25.238  1.00  0.00     0.121 C 
BRANCH   7   8
ATOM      8  C   UNL A   1      46.168  21.576  24.550  1.00  0.00     0.130 C 
BRANCH   8   9
ATOM      9  N   UNL A   1      45.620  22.799  25.114  1.00  0.00    -0.334 N 
ATOM     10  C   UNL A   1      43.920  27.059  25.554  1.00  0.00     0.032 A 
ATOM     11  C   UNL A   1      45.156  27.222  26.208  1.00  0.00     0.026 A 
ATOM     12  C   UNL A   1      43.581  25.806  25.040  1.00  0.00     0.039 A 
ATOM     13  C   UNL A   1      45.984  26.131  26.505  1.00  0.00     0.008 A 
ATOM     14  C   UNL A   1      44.449  24.755  25.274  1.00  0.00     0.047 A 
ATOM     15  C   UNL A   1      45.610  24.886  26.036  1.00  0.00    -0.016 A 
ATOM     16  C   UNL A   1      44.462  23.416  24.670  1.00  0.00     0.254 C 
ATOM     17  C   UNL A   1      46.305  23.569  26.134  1.00  0.00     0.156 C 
ATOM     18  O   UNL A   1      43.660  23.005  23.849  1.00  0.00    -0.269 OA
BRANCH  10  19
ATOM     19  N   UNL A   1      43.121  28.167  25.299  1.00  0.00    -0.399 N 
ATOM     20  H   UNL A   1      43.400  29.058  25.610  1.00  0.00     0.156 HD
ATOM     21  H   UNL A   1      42.276  28.060  24.806  1.00  0.00     0.156 HD
ENDBRANCH  10  19
ENDBRANCH   8   9
ENDBRANCH   7   8
ENDBRANCH   4   7
ENDBRANCH   2   3
ENDBRANCH   1   2
BRANCH   1  22
ATOM     22  C   UNL A   1      40.362  21.157  26.852  1.00  0.00     0.118 C 
BRANCH  22  23
ATOM     23  N   UNL A   1      39.254  21.710  26.095  1.00  0.00    -0.352 N 
ATOM     24  C   UNL A   1      38.651  22.946  26.098  1.00  0.00     0.251 C 
ATOM     25  H   UNL A   1      38.856  21.077  25.454  1.00  0.00     0.163 HD
ATOM     26  O   UNL A   1      37.553  23.039  25.548  1.00  0.00    -0.269 OA
BRANCH  24  27
ATOM     27  C   UNL A   1      39.237  24.156  26.742  1.00  0.00     0.039 A 
ATOM     28  C   UNL A   1      39.977  25.115  26.051  1.00  0.00     0.014 A 
ATOM     29  C   UNL A   1      38.916  24.407  28.085  1.00  0.00     0.014 A 
ATOM     30  C   UNL A   1      40.481  26.243  26.716  1.00  0.00     0.010 A 
ATOM     31  C   UNL A   1      39.351  25.577  28.730  1.00  0.00     0.010 A 
ATOM     32  C   UNL A   1      40.165  26.500  28.061  1.00  0.00    -0.014 A 
BRANCH  32  33
ATOM     33  C   UNL A   1      40.636  27.755  28.729  1.00  0.00     0.031 A 
ATOM     34  C   UNL A   1      39.715  28.938  28.914  1.00  0.00     0.074 A 
ATOM     35  C   UNL A   1      41.902  27.836  29.190  1.00  0.00     0.049 A 
ATOM     36  N   UNL A   1      39.953  30.090  29.490  1.00  0.00    -0.248 NA
ATOM     37  C   UNL A   1      38.351  28.815  28.384  1.00  0.00     0.031 C 
ATOM     38  C   UNL A   1      42.904  26.776  29.080  1.00  0.00     0.029 A 
ATOM     39  N   UNL A   1      42.559  28.843  29.858  1.00  0.00    -0.354 N 
ATOM     40  C   UNL A   1      38.774  30.823  29.389  1.00  0.00     0.074 A 
ATOM     41  C   UNL A   1      37.833  30.004  28.660  1.00  0.00     0.031 C 
ATOM     42  C   UNL A   1      44.025  27.163  29.709  1.00  0.00     0.029 A 
ATOM     43  C   UNL A   1      43.854  28.526  30.204  1.00  0.00     0.049 A 
ATOM     44  H   UNL A   1      42.143  29.710  30.070  1.00  0.00     0.167 HD
ATOM     45  C   UNL A   1      38.492  32.056  29.876  1.00  0.00     0.031 A 
ATOM     46  C   UNL A   1      44.808  29.242  30.837  1.00  0.00     0.031 A 
ATOM     47  C   UNL A   1      39.429  32.870  30.609  1.00  0.00     0.049 A 
ATOM     48  C   UNL A   1      44.493  30.632  31.318  1.00  0.00     0.074 A 
ATOM     49  C   UNL A   1      39.218  34.118  31.168  1.00  0.00     0.029 A 
ATOM     50  N   UNL A   1      40.745  32.528  30.886  1.00  0.00    -0.354 N 
ATOM     51  N   UNL A   1      43.358  31.285  31.252  1.00  0.00    -0.248 NA
ATOM     52  C   UNL A   1      45.582  31.381  31.964  1.00  0.00     0.031 C 
ATOM     53  C   UNL A   1      40.425  34.568  31.706  1.00  0.00     0.029 A 
ATOM     54  C   UNL A   1      41.366  33.561  31.570  1.00  0.00     0.049 A 
ATOM     55  H   UNL A   1      41.173  31.679  30.633  1.00  0.00     0.167 HD
ATOM     56  C   UNL A   1      43.590  32.514  31.861  1.00  0.00     0.074 A 
ATOM     57  C   UNL A   1      44.966  32.504  32.314  1.00  0.00     0.031 C 
ATOM     58  C   UNL A   1      42.737  33.554  32.023  1.00  0.00     0.031 A 
BRANCH  45  59
ATOM     59  C   UNL A   1      37.109  32.623  29.656  1.00  0.00    -0.014 A 
ATOM     60  C   UNL A   1      36.763  33.154  28.399  1.00  0.00     0.010 A 
ATOM     61  C   UNL A   1      36.208  32.769  30.726  1.00  0.00     0.010 A 
ATOM     62  C   UNL A   1      35.568  33.859  28.227  1.00  0.00     0.020 A 
ATOM     63  C   UNL A   1      34.993  33.441  30.549  1.00  0.00     0.020 A 
ATOM     64  C   UNL A   1      34.695  34.007  29.307  1.00  0.00     0.054 A 
BRANCH  64  65
ATOM     65  S   UNL A   1      33.174  34.968  29.076  1.00  0.00     0.124 S 
ATOM     66  O   UNL A   1      33.689  36.266  28.651  1.00  0.00    -0.237 OA
ATOM     67  O   UNL A   1      32.468  34.201  28.051  1.00  0.00    -0.237 OA
ATOM     68  O   UNL A   1      32.550  34.944  30.397  1.00  0.00    -0.744 OA
ENDBRANCH  64  65
ENDBRANCH  45  59
BRANCH  46  69
ATOM     69  C   UNL A   1      46.145  28.621  31.071  1.00  0.00    -0.014 A 
ATOM     70  C   UNL A   1      47.141  28.674  30.077  1.00  0.00     0.010 A 
ATOM     71  C   UNL A   1      46.399  27.894  32.248  1.00  0.00     0.010 A 
ATOM     72  C   UNL A   1      48.326  27.947  30.216  1.00  0.00     0.020 A 
ATOM     73  C   UNL A   1      47.602  27.197  32.410  1.00  0.00     0.020 A 
ATOM     74  C   UNL A   1      48.541  27.199  31.376  1.00  0.00     0.054 A 
BRANCH  74  75
ATOM     75  S   UNL A   1      50.047  26.196  31.494  1.00  0.00     0.124 S 
ATOM     76  O   UNL A   1      51.003  27.156  32.041  1.00  0.00    -0.237 OA
ATOM     77  O   UNL A   1      49.645  25.123  32.398  1.00  0.00    -0.237 OA
ATOM     78  O   UNL A   1      50.296  25.786  30.114  1.00  0.00    -0.744 OA
ENDBRANCH  74  75
ENDBRANCH  46  69
BRANCH  58  79
ATOM     79  C   UNL A   1      43.239  34.799  32.716  1.00  0.00    -0.014 A 
ATOM     80  C   UNL A   1      43.868  35.812  31.967  1.00  0.00     0.010 A 
ATOM     81  C   UNL A   1      43.224  34.900  34.118  1.00  0.00     0.010 A 
ATOM     82  C   UNL A   1      44.516  36.873  32.606  1.00  0.00     0.020 A 
ATOM     83  C   UNL A   1      43.839  35.979  34.760  1.00  0.00     0.020 A 
ATOM     84  C   UNL A   1      44.508  36.943  34.000  1.00  0.00     0.054 A 
BRANCH  84  85
ATOM     85  S   UNL A   1      45.404  38.294  34.812  1.00  0.00     0.124 S 
ATOM     86  O   UNL A   1      46.410  37.575  35.588  1.00  0.00    -0.237 OA
ATOM     87  O   UNL A   1      45.914  39.064  33.680  1.00  0.00    -0.237 OA
ATOM     88  O   UNL A   1      44.374  38.968  35.600  1.00  0.00    -0.744 OA
ENDBRANCH  84  85
ENDBRANCH  58  79
ENDBRANCH  32  33
ENDBRANCH  24  27
ENDBRANCH  22  23
ENDBRANCH   1  22
TORSDOF 16
ENDMDL
MODEL 3
REMARK VINA RESULT:     -10.4      3.424     12.200
REMARK SMILES Nc1ccc2c(c1)C(=O)N(CCC(=O)NCCCNC(=O)c1ccc(-c3c4nc(c(-c5ccc(S(=O)(=O)[O-])cc5)c5ccc([nH]5)c(-c5ccc(S(=O)(=O)[O-])cc5)c5nc(c(-c6ccc(S(=O)(=O)[O-])cc6)c6ccc3[nH]6)C=C5)C=C4)cc1)C2
REMARK SMILES IDX 17 1 16 2 15 3 13 4 14 5 12 7 11 8 10 9 2 10 3 11 7 12 4 13
REMARK SMILES IDX 6 14 5 15 8 16 82 17 9 18 1 19 18 22 19 23 20 24 21 26 22 27
REMARK SMILES IDX 23 28 81 29 24 30 80 31 25 32 26 33 27 34 74 35 28 36 79 37
REMARK SMILES IDX 73 38 75 39 29 40 78 41 72 42 71 43 30 45 60 46 41 47 59 48
REMARK SMILES IDX 42 49 45 50 58 51 76 52 43 53 44 54 57 56 77 57 46 58 31 59
REMARK SMILES IDX 32 60 40 61 33 62 39 63 34 64 35 65 36 66 37 67 38 68 61 69
REMARK SMILES IDX 62 70 70 71 63 72 69 73 64 74 65 75 66 76 67 77 68 78 47 79
REMARK SMILES IDX 48 80 56 81 49 82 55 83 50 84 51 85 52 86 53 87 54 88
REMARK H PARENT 15 6 1 20 1 21 19 25 75 44 45 55
REMARK Flexibility Score: inf
ROOT
ATOM      1  C   UNL A   1      33.184  34.057  28.457  1.00  0.00     0.042 C 
ENDROOT
BRANCH   1   2
ATOM      2  C   UNL A   1      33.615  35.424  28.986  1.00  0.00     0.117 C 
BRANCH   2   3
ATOM      3  N   UNL A   1      32.687  35.946  29.979  1.00  0.00    -0.356 N 
ATOM      4  C   UNL A   1      32.802  36.065  31.331  1.00  0.00     0.221 C 
ATOM      5  O   UNL A   1      31.831  36.509  31.951  1.00  0.00    -0.275 OA
ATOM      6  H   UNL A   1      31.833  36.267  29.611  1.00  0.00     0.163 HD
BRANCH   4   7
ATOM      7  C   UNL A   1      34.074  35.690  32.061  1.00  0.00     0.121 C 
BRANCH   7   8
ATOM      8  C   UNL A   1      34.268  34.175  32.151  1.00  0.00     0.130 C 
BRANCH   8   9
ATOM      9  N   UNL A   1      35.401  33.803  32.981  1.00  0.00    -0.334 N 
ATOM     10  C   UNL A   1      38.264  31.428  35.701  1.00  0.00     0.032 A 
ATOM     11  C   UNL A   1      37.822  32.408  36.611  1.00  0.00     0.026 A 
ATOM     12  C   UNL A   1      37.794  31.456  34.387  1.00  0.00     0.039 A 
ATOM     13  C   UNL A   1      37.056  33.505  36.198  1.00  0.00     0.008 A 
ATOM     14  C   UNL A   1      36.972  32.506  34.017  1.00  0.00     0.047 A 
ATOM     15  C   UNL A   1      36.641  33.549  34.881  1.00  0.00    -0.016 A 
ATOM     16  C   UNL A   1      36.165  32.662  32.800  1.00  0.00     0.254 C 
ATOM     17  C   UNL A   1      35.776  34.539  34.173  1.00  0.00     0.156 C 
ATOM     18  O   UNL A   1      36.111  31.862  31.881  1.00  0.00    -0.269 OA
BRANCH  10  19
ATOM     19  N   UNL A   1      39.041  30.366  36.150  1.00  0.00    -0.399 N 
ATOM     20  H   UNL A   1      38.624  29.495  36.338  1.00  0.00     0.156 HD
ATOM     21  H   UNL A   1      40.009  30.487  36.281  1.00  0.00     0.156 HD
ENDBRANCH  10  19
ENDBRANCH   8   9
ENDBRANCH   7   8
ENDBRANCH   4   7
ENDBRANCH   2   3
ENDBRANCH   1   2
BRANCH   1  22
ATOM     22  C   UNL A   1      34.297  33.024  28.319  1.00  0.00     0.118 C 
BRANCH  22  23
ATOM     23  N   UNL A   1      33.799  31.762  27.802  1.00  0.00    -0.352 N 
ATOM     24  C   UNL A   1      34.404  30.551  27.565  1.00  0.00     0.251 C 
ATOM     25  H   UNL A   1      32.841  31.777  27.576  1.00  0.00     0.163 HD
ATOM     26  O   UNL A   1      33.797  29.745  26.860  1.00  0.00    -0.269 OA
BRANCH  24  27
ATOM     27  C   UNL A   1      35.748  30.176  28.092  1.00  0.00     0.039 A 
ATOM     28  C   UNL A   1      35.959  29.663  29.371  1.00  0.00     0.014 A 
ATOM     29  C   UNL A   1      36.837  30.219  27.206  1.00  0.00     0.014 A 
ATOM     30  C   UNL A   1      37.249  29.309  29.795  1.00  0.00     0.010 A 
ATOM     31  C   UNL A   1      38.113  29.787  27.603  1.00  0.00     0.010 A 
ATOM     32  C   UNL A   1      38.344  29.351  28.914  1.00  0.00    -0.014 A 
BRANCH  32  33
ATOM     33  C   UNL A   1      39.696  28.883  29.356  1.00  0.00     0.031 A 
ATOM     34  C   UNL A   1      40.558  29.722  30.268  1.00  0.00     0.074 A 
ATOM     35  C   UNL A   1      40.158  27.682  28.946  1.00  0.00     0.049 A 
ATOM     36  N   UNL A   1      41.741  29.458  30.764  1.00  0.00    -0.248 NA
ATOM     37  C   UNL A   1      40.026  31.029  30.678  1.00  0.00     0.031 C 
ATOM     38  C   UNL A   1      39.439  26.763  28.063  1.00  0.00     0.029 A 
ATOM     39  N   UNL A   1      41.328  27.018  29.230  1.00  0.00    -0.354 N 
ATOM     40  C   UNL A   1      42.090  30.562  31.538  1.00  0.00     0.074 A 
ATOM     41  C   UNL A   1      41.014  31.517  31.414  1.00  0.00     0.031 C 
ATOM     42  C   UNL A   1      40.154  25.636  27.924  1.00  0.00     0.029 A 
ATOM     43  C   UNL A   1      41.416  25.774  28.646  1.00  0.00     0.049 A 
ATOM     44  H   UNL A   1      42.038  27.396  29.798  1.00  0.00     0.167 HD
ATOM     45  C   UNL A   1      43.195  30.753  32.299  1.00  0.00     0.031 A 
ATOM     46  C   UNL A   1      42.396  24.844  28.670  1.00  0.00     0.031 A 
ATOM     47  C   UNL A   1      44.265  29.797  32.428  1.00  0.00     0.049 A 
ATOM     48  C   UNL A   1      43.640  25.103  29.474  1.00  0.00     0.074 A 
ATOM     49  C   UNL A   1      45.408  29.895  33.203  1.00  0.00     0.029 A 
ATOM     50  N   UNL A   1      44.334  28.576  31.773  1.00  0.00    -0.354 N 
ATOM     51  N   UNL A   1      43.927  26.132  30.233  1.00  0.00    -0.248 NA
ATOM     52  C   UNL A   1      44.691  24.075  29.431  1.00  0.00     0.031 C 
ATOM     53  C   UNL A   1      46.205  28.778  32.953  1.00  0.00     0.029 A 
ATOM     54  C   UNL A   1      45.519  27.934  32.095  1.00  0.00     0.049 A 
ATOM     55  H   UNL A   1      43.644  28.219  31.168  1.00  0.00     0.167 HD
ATOM     56  C   UNL A   1      45.183  25.869  30.772  1.00  0.00     0.074 A 
ATOM     57  C   UNL A   1      45.590  24.572  30.273  1.00  0.00     0.031 C 
ATOM     58  C   UNL A   1      45.928  26.641  31.600  1.00  0.00     0.031 A 
BRANCH  45  59
ATOM     59  C   UNL A   1      43.323  32.042  33.078  1.00  0.00    -0.014 A 
ATOM     60  C   UNL A   1      42.684  32.172  34.326  1.00  0.00     0.010 A 
ATOM     61  C   UNL A   1      43.942  33.171  32.511  1.00  0.00     0.010 A 
ATOM     62  C   UNL A   1      42.622  33.411  34.970  1.00  0.00     0.020 A 
ATOM     63  C   UNL A   1      43.914  34.406  33.170  1.00  0.00     0.020 A 
ATOM     64  C   UNL A   1      43.228  34.523  34.382  1.00  0.00     0.054 A 
BRANCH  64  65
ATOM     65  S   UNL A   1      43.093  36.133  35.208  1.00  0.00     0.124 S 
ATOM     66  O   UNL A   1      41.659  36.397  35.137  1.00  0.00    -0.237 OA
ATOM     67  O   UNL A   1      43.619  35.848  36.542  1.00  0.00    -0.237 OA
ATOM     68  O   UNL A   1      43.932  37.008  34.393  1.00  0.00    -0.744 OA
ENDBRANCH  64  65
ENDBRANCH  45  59
BRANCH  46  69
ATOM     69  C   UNL A   1      42.203  23.568  27.921  1.00  0.00    -0.014 A 
ATOM     70  C   UNL A   1      41.365  22.559  28.433  1.00  0.00     0.010 A 
ATOM     71  C   UNL A   1      42.926  23.316  26.741  1.00  0.00     0.010 A 
ATOM     72  C   UNL A   1      41.318  21.299  27.832  1.00  0.00     0.020 A 
ATOM     73  C   UNL A   1      42.850  22.068  26.112  1.00  0.00     0.020 A 
ATOM     74  C   UNL A   1      42.075  21.056  26.684  1.00  0.00     0.054 A 
BRANCH  74  75
ATOM     75  S   UNL A   1      42.063  19.387  25.973  1.00  0.00     0.124 S 
ATOM     76  O   UNL A   1      40.638  19.177  25.729  1.00  0.00    -0.237 OA
ATOM     77  O   UNL A   1      42.891  19.544  24.781  1.00  0.00    -0.237 OA
ATOM     78  O   UNL A   1      42.643  18.560  27.028  1.00  0.00    -0.744 OA
ENDBRANCH  74  75
ENDBRANCH  46  69
BRANCH  58  79
ATOM     79  C   UNL A   1      47.280  26.131  32.040  1.00  0.00    -0.014 A 
ATOM     80  C   UNL A   1      48.381  26.228  31.168  1.00  0.00     0.010 A 
ATOM     81  C   UNL A   1      47.428  25.426  33.247  1.00  0.00     0.010 A 
ATOM     82  C   UNL A   1      49.586  25.587  31.470  1.00  0.00     0.020 A 
ATOM     83  C   UNL A   1      48.643  24.815  33.570  1.00  0.00     0.020 A 
ATOM     84  C   UNL A   1      49.706  24.873  32.664  1.00  0.00     0.054 A 
BRANCH  84  85
ATOM     85  S   UNL A   1      51.257  24.000  33.009  1.00  0.00     0.124 S 
ATOM     86  O   UNL A   1      52.257  24.934  32.499  1.00  0.00    -0.237 OA
ATOM     87  O   UNL A   1      51.221  23.849  34.462  1.00  0.00    -0.237 OA
ATOM     88  O   UNL A   1      51.127  22.755  32.257  1.00  0.00    -0.744 OA
ENDBRANCH  84  85
ENDBRANCH  58  79
ENDBRANCH  32  33
ENDBRANCH  24  27
ENDBRANCH  22  23
ENDBRANCH   1  22
TORSDOF 16
ENDMDL
