MODEL 1
REMARK VINA RESULT:      -9.4      0.000      0.000
REMARK SMILES CC1CC[NH+]([C@H](c2ccc(F)cc2)c2ccc([C@@H](C)C(=O)NCCCNC(=O)c3ccc(-c4c5nc(c(-c6ccc(S(=O)(=O)[O-])cc6)c6ccc([nH]6)c(-c6ccc(S(=O)(=O)[O-])cc6)c6nc(c(-c7ccc(S(=O)(=O)[O-])cc7)c7ccc4[nH]7)C=C6)C=C5)cc3)cc2-c2ccc(C(F)(F)F)cc2)CC1
REMARK SMILES IDX 24 1 23 2 22 3 20 4 21 5 18 7 19 8 17 9 14 10 15 11 90 12
REMARK SMILES IDX 16 13 89 14 6 15 5 16 1 17 2 18 3 19 102 20 4 21 101 22 7 24
REMARK SMILES IDX 8 25 13 26 9 27 12 28 10 29 11 30 91 31 92 32 100 33 93 34
REMARK SMILES IDX 99 35 94 36 95 37 96 38 97 39 98 40 25 41 26 42 27 43 28 45
REMARK SMILES IDX 29 46 30 47 88 48 31 49 87 50 32 51 33 52 34 53 81 54 35 55
REMARK SMILES IDX 86 56 80 57 82 58 36 59 85 60 79 61 78 62 37 64 67 65 48 66
REMARK SMILES IDX 66 67 49 68 52 69 65 70 83 71 50 72 51 73 64 75 84 76 53 77
REMARK SMILES IDX 38 78 39 79 47 80 40 81 46 82 41 83 42 84 43 85 44 86 45 87
REMARK SMILES IDX 68 88 69 89 77 90 70 91 76 92 71 93 72 94 73 95 74 96 75 97
REMARK SMILES IDX 54 98 55 99 63 100 56 101 62 102 57 103 58 104 59 105 60 106
REMARK SMILES IDX 61 107
REMARK H PARENT 22 6 5 23 26 44 82 63 52 74
REMARK Flexibility Score: inf
ROOT
ATOM      1  C   UNL A   1      40.937  21.493  27.757  1.00  0.00     0.042 C 
ENDROOT
BRANCH   1   2
ATOM      2  C   UNL A   1      41.861  22.528  28.402  1.00  0.00     0.117 C 
BRANCH   2   3
ATOM      3  N   UNL A   1      43.266  22.273  28.130  1.00  0.00    -0.356 N 
ATOM      4  C   UNL A   1      44.106  22.658  27.129  1.00  0.00     0.227 C 
ATOM      5  O   UNL A   1      45.265  22.227  27.208  1.00  0.00    -0.274 OA
ATOM      6  H   UNL A   1      43.698  21.705  28.808  1.00  0.00     0.163 HD
BRANCH   4   7
ATOM      7  C   UNL A   1      43.718  23.570  25.949  1.00  0.00     0.105 C 
ATOM      8  C   UNL A   1      43.231  22.827  24.706  1.00  0.00     0.023 C 
BRANCH   7   9
ATOM      9  C   UNL A   1      44.730  24.671  25.686  1.00  0.00    -0.035 A 
ATOM     10  C   UNL A   1      46.850  26.594  25.516  1.00  0.00     0.022 A 
ATOM     11  C   UNL A   1      46.864  25.379  24.809  1.00  0.00     0.011 A 
ATOM     12  C   UNL A   1      45.639  26.916  26.188  1.00  0.00    -0.009 A 
ATOM     13  C   UNL A   1      45.800  24.482  24.830  1.00  0.00     0.005 A 
ATOM     14  C   UNL A   1      44.640  25.915  26.325  1.00  0.00     0.013 A 
BRANCH  10  15
ATOM     15  C   UNL A   1      48.085  27.547  25.487  1.00  0.00     0.247 C 
BRANCH  15  16
ATOM     16  N   UNL A   1      48.686  27.870  24.155  1.00  0.00    -0.325 N 
ATOM     17  C   UNL A   1      49.831  26.845  20.034  1.00  0.00     0.008 C 
ATOM     18  C   UNL A   1      49.346  26.923  21.474  1.00  0.00    -0.003 C 
ATOM     19  C   UNL A   1      48.232  27.952  21.640  1.00  0.00     0.065 C 
ATOM     20  C   UNL A   1      50.465  27.328  22.427  1.00  0.00     0.065 C 
ATOM     21  C   UNL A   1      47.701  27.997  23.077  1.00  0.00     0.263 C 
ATOM     22  C   UNL A   1      49.977  27.242  23.872  1.00  0.00     0.263 C 
ATOM     23  H   UNL A   1      49.015  28.833  24.222  1.00  0.00     0.348 HD
ENDBRANCH  15  16
BRANCH  15  24
ATOM     24  C   UNL A   1      49.194  27.163  26.489  1.00  0.00     0.014 A 
ATOM     25  C   UNL A   1      49.484  25.821  26.808  1.00  0.00     0.013 A 
ATOM     26  C   UNL A   1      49.950  28.177  27.110  1.00  0.00     0.013 A 
ATOM     27  C   UNL A   1      50.494  25.508  27.721  1.00  0.00     0.040 A 
ATOM     28  C   UNL A   1      50.940  27.860  28.042  1.00  0.00     0.040 A 
ATOM     29  C   UNL A   1      51.203  26.530  28.336  1.00  0.00     0.123 A 
ATOM     30  F   UNL A   1      52.156  26.228  29.230  1.00  0.00    -0.207 F 
ENDBRANCH  15  24
ENDBRANCH  10  15
BRANCH  12  31
ATOM     31  C   UNL A   1      45.324  28.268  26.689  1.00  0.00    -0.018 A 
ATOM     32  C   UNL A   1      46.264  29.037  27.389  1.00  0.00     0.009 A 
ATOM     33  C   UNL A   1      44.034  28.800  26.514  1.00  0.00     0.009 A 
ATOM     34  C   UNL A   1      45.936  30.310  27.868  1.00  0.00     0.014 A 
ATOM     35  C   UNL A   1      43.706  30.076  26.982  1.00  0.00     0.014 A 
ATOM     36  C   UNL A   1      44.658  30.848  27.659  1.00  0.00     0.056 A 
BRANCH  36  37
ATOM     37  C   UNL A   1      44.313  32.220  28.179  1.00  0.00     0.416 C 
ATOM     38  F   UNL A   1      43.128  32.235  28.854  1.00  0.00    -0.166 F 
ATOM     39  F   UNL A   1      45.241  32.711  29.047  1.00  0.00    -0.166 F 
ATOM     40  F   UNL A   1      44.190  33.160  27.198  1.00  0.00    -0.166 F 
ENDBRANCH  36  37
ENDBRANCH  12  31
ENDBRANCH   7   9
ENDBRANCH   4   7
ENDBRANCH   2   3
ENDBRANCH   1   2
BRANCH   1  41
ATOM     41  C   UNL A   1      40.822  21.587  26.244  1.00  0.00     0.118 C 
BRANCH  41  42
ATOM     42  N   UNL A   1      39.480  21.943  25.814  1.00  0.00    -0.352 N 
ATOM     43  C   UNL A   1      38.700  23.037  26.098  1.00  0.00     0.251 C 
ATOM     44  H   UNL A   1      39.057  21.287  25.214  1.00  0.00     0.163 HD
ATOM     45  O   UNL A   1      37.515  23.006  25.768  1.00  0.00    -0.269 OA
BRANCH  43  46
ATOM     46  C   UNL A   1      39.236  24.237  26.791  1.00  0.00     0.039 A 
ATOM     47  C   UNL A   1      38.817  24.491  28.103  1.00  0.00     0.014 A 
ATOM     48  C   UNL A   1      40.073  25.156  26.155  1.00  0.00     0.014 A 
ATOM     49  C   UNL A   1      39.256  25.636  28.777  1.00  0.00     0.010 A 
ATOM     50  C   UNL A   1      40.582  26.249  26.857  1.00  0.00     0.010 A 
ATOM     51  C   UNL A   1      40.161  26.517  28.168  1.00  0.00    -0.014 A 
BRANCH  51  52
ATOM     52  C   UNL A   1      40.651  27.739  28.862  1.00  0.00     0.031 A 
ATOM     53  C   UNL A   1      42.035  27.768  29.456  1.00  0.00     0.074 A 
ATOM     54  C   UNL A   1      39.836  28.799  29.020  1.00  0.00     0.049 A 
ATOM     55  N   UNL A   1      42.619  28.718  30.140  1.00  0.00    -0.248 NA
ATOM     56  C   UNL A   1      42.865  26.567  29.271  1.00  0.00     0.031 C 
ATOM     57  C   UNL A   1      38.471  28.893  28.507  1.00  0.00     0.029 A 
ATOM     58  N   UNL A   1      40.026  29.997  29.664  1.00  0.00    -0.354 N 
ATOM     59  C   UNL A   1      43.872  28.224  30.481  1.00  0.00     0.074 A 
ATOM     60  C   UNL A   1      43.943  26.870  29.978  1.00  0.00     0.031 C 
ATOM     61  C   UNL A   1      37.946  30.081  28.846  1.00  0.00     0.029 A 
ATOM     62  C   UNL A   1      38.930  30.826  29.622  1.00  0.00     0.049 A 
ATOM     63  H   UNL A   1      40.868  30.239  30.112  1.00  0.00     0.167 HD
ATOM     64  C   UNL A   1      44.884  28.849  31.132  1.00  0.00     0.031 A 
ATOM     65  C   UNL A   1      38.732  32.051  30.146  1.00  0.00     0.031 A 
ATOM     66  C   UNL A   1      44.815  30.201  31.619  1.00  0.00     0.049 A 
ATOM     67  C   UNL A   1      39.857  32.714  30.888  1.00  0.00     0.074 A 
ATOM     68  C   UNL A   1      45.807  30.951  32.226  1.00  0.00     0.029 A 
ATOM     69  N   UNL A   1      43.686  31.005  31.559  1.00  0.00    -0.354 N 
ATOM     70  N   UNL A   1      41.062  32.258  31.133  1.00  0.00    -0.248 NA
ATOM     71  C   UNL A   1      39.604  34.067  31.402  1.00  0.00     0.031 C 
ATOM     72  C   UNL A   1      45.264  32.191  32.576  1.00  0.00     0.029 A 
ATOM     73  C   UNL A   1      43.949  32.234  32.140  1.00  0.00     0.049 A 
ATOM     74  H   UNL A   1      42.825  30.741  31.161  1.00  0.00     0.167 HD
ATOM     75  C   UNL A   1      41.727  33.285  31.792  1.00  0.00     0.074 A 
ATOM     76  C   UNL A   1      40.789  34.384  31.908  1.00  0.00     0.031 C 
ATOM     77  C   UNL A   1      43.003  33.318  32.248  1.00  0.00     0.031 A 
BRANCH  64  78
ATOM     78  C   UNL A   1      46.148  28.060  31.357  1.00  0.00    -0.014 A 
ATOM     79  C   UNL A   1      46.235  27.100  32.382  1.00  0.00     0.010 A 
ATOM     80  C   UNL A   1      47.266  28.280  30.532  1.00  0.00     0.010 A 
ATOM     81  C   UNL A   1      47.434  26.422  32.619  1.00  0.00     0.020 A 
ATOM     82  C   UNL A   1      48.459  27.582  30.747  1.00  0.00     0.020 A 
ATOM     83  C   UNL A   1      48.541  26.676  31.807  1.00  0.00     0.054 A 
BRANCH  83  84
ATOM     84  S   UNL A   1      50.091  25.796  32.146  1.00  0.00     0.124 S 
ATOM     85  O   UNL A   1      50.055  24.731  31.147  1.00  0.00    -0.237 OA
ATOM     86  O   UNL A   1      51.102  26.828  31.926  1.00  0.00    -0.237 OA
ATOM     87  O   UNL A   1      49.945  25.356  33.531  1.00  0.00    -0.744 OA
ENDBRANCH  83  84
ENDBRANCH  64  78
BRANCH  65  88
ATOM     88  C   UNL A   1      37.435  32.747  29.933  1.00  0.00    -0.014 A 
ATOM     89  C   UNL A   1      37.289  33.660  28.875  1.00  0.00     0.010 A 
ATOM     90  C   UNL A   1      36.328  32.472  30.758  1.00  0.00     0.010 A 
ATOM     91  C   UNL A   1      36.066  34.297  28.651  1.00  0.00     0.020 A 
ATOM     92  C   UNL A   1      35.095  33.090  30.523  1.00  0.00     0.020 A 
ATOM     93  C   UNL A   1      34.974  34.005  29.474  1.00  0.00     0.054 A 
BRANCH  93  94
ATOM     94  S   UNL A   1      33.379  34.794  29.121  1.00  0.00     0.124 S 
ATOM     95  O   UNL A   1      32.775  33.854  28.183  1.00  0.00    -0.237 OA
ATOM     96  O   UNL A   1      32.760  34.856  30.443  1.00  0.00    -0.237 OA
ATOM     97  O   UNL A   1      33.754  36.089  28.558  1.00  0.00    -0.744 OA
ENDBRANCH  93  94
ENDBRANCH  65  88
BRANCH  77  98
ATOM     98  C   UNL A   1      43.476  34.602  32.874  1.00  0.00    -0.014 A 
ATOM     99  C   UNL A   1      43.360  34.828  34.257  1.00  0.00     0.010 A 
ATOM    100  C   UNL A   1      44.079  35.582  32.065  1.00  0.00     0.010 A 
ATOM    101  C   UNL A   1      43.809  36.027  34.815  1.00  0.00     0.020 A 
ATOM    102  C   UNL A   1      44.552  36.771  32.623  1.00  0.00     0.020 A 
ATOM    103  C   UNL A   1      44.400  36.993  33.994  1.00  0.00     0.054 A 
BRANCH 103 104
ATOM    104  S   UNL A   1      45.008  38.527  34.745  1.00  0.00     0.124 S 
ATOM    105  O   UNL A   1      46.348  38.634  34.174  1.00  0.00    -0.237 OA
ATOM    106  O   UNL A   1      44.044  39.520  34.276  1.00  0.00    -0.237 OA
ATOM    107  O   UNL A   1      44.962  38.253  36.179  1.00  0.00    -0.744 OA
ENDBRANCH 103 104
ENDBRANCH  77  98
ENDBRANCH  51  52
ENDBRANCH  43  46
ENDBRANCH  41  42
ENDBRANCH   1  41
TORSDOF 19
ENDMDL
MODEL 2
REMARK VINA RESULT:      -9.4      1.895      3.617
REMARK SMILES CC1CC[NH+]([C@H](c2ccc(F)cc2)c2ccc([C@@H](C)C(=O)NCCCNC(=O)c3ccc(-c4c5nc(c(-c6ccc(S(=O)(=O)[O-])cc6)c6ccc([nH]6)c(-c6ccc(S(=O)(=O)[O-])cc6)c6nc(c(-c7ccc(S(=O)(=O)[O-])cc7)c7ccc4[nH]7)C=C6)C=C5)cc3)cc2-c2ccc(C(F)(F)F)cc2)CC1
REMARK SMILES IDX 24 1 23 2 22 3 20 4 21 5 18 7 19 8 17 9 14 10 15 11 90 12
REMARK SMILES IDX 16 13 89 14 6 15 5 16 1 17 2 18 3 19 102 20 4 21 101 22 7 24
REMARK SMILES IDX 8 25 13 26 9 27 12 28 10 29 11 30 91 31 92 32 100 33 93 34
REMARK SMILES IDX 99 35 94 36 95 37 96 38 97 39 98 40 25 41 26 42 27 43 28 45
REMARK SMILES IDX 29 46 30 47 88 48 31 49 87 50 32 51 33 52 34 53 81 54 35 55
REMARK SMILES IDX 86 56 80 57 82 58 36 59 85 60 79 61 78 62 37 64 67 65 48 66
REMARK SMILES IDX 66 67 49 68 52 69 65 70 83 71 50 72 51 73 64 75 84 76 53 77
REMARK SMILES IDX 38 78 39 79 47 80 40 81 46 82 41 83 42 84 43 85 44 86 45 87
REMARK SMILES IDX 68 88 69 89 77 90 70 91 76 92 71 93 72 94 73 95 74 96 75 97
REMARK SMILES IDX 54 98 55 99 63 100 56 101 62 102 57 103 58 104 59 105 60 106
REMARK SMILES IDX 61 107
REMARK H PARENT 22 6 5 23 26 44 82 63 52 74
REMARK Flexibility Score: inf
ROOT
ATOM      1  C   UNL A   1      41.216  21.703  27.684  1.00  0.00     0.042 C 
ENDROOT
BRANCH   1   2
ATOM      2  C   UNL A   1      42.310  22.538  28.353  1.00  0.00     0.117 C 
BRANCH   2   3
ATOM      3  N   UNL A   1      43.625  22.298  27.784  1.00  0.00    -0.356 N 
ATOM      4  C   UNL A   1      44.428  23.023  26.956  1.00  0.00     0.227 C 
ATOM      5  O   UNL A   1      45.504  22.488  26.651  1.00  0.00    -0.274 OA
ATOM      6  H   UNL A   1      44.014  21.434  28.051  1.00  0.00     0.163 HD
BRANCH   4   7
ATOM      7  C   UNL A   1      44.097  24.421  26.401  1.00  0.00     0.105 C 
ATOM      8  C   UNL A   1      43.384  24.414  25.050  1.00  0.00     0.023 C 
BRANCH   7   9
ATOM      9  C   UNL A   1      45.251  25.401  26.515  1.00  0.00    -0.035 A 
ATOM     10  C   UNL A   1      47.140  27.550  26.702  1.00  0.00     0.022 A 
ATOM     11  C   UNL A   1      46.551  26.952  27.829  1.00  0.00     0.011 A 
ATOM     12  C   UNL A   1      46.894  26.915  25.454  1.00  0.00    -0.009 A 
ATOM     13  C   UNL A   1      45.695  25.858  27.742  1.00  0.00     0.005 A 
ATOM     14  C   UNL A   1      45.894  25.908  25.378  1.00  0.00     0.013 A 
BRANCH  10  15
ATOM     15  C   UNL A   1      48.064  28.798  26.853  1.00  0.00     0.247 C 
BRANCH  15  16
ATOM     16  N   UNL A   1      49.495  28.565  27.224  1.00  0.00    -0.325 N 
ATOM     17  C   UNL A   1      53.372  26.542  26.756  1.00  0.00     0.008 C 
ATOM     18  C   UNL A   1      51.943  27.061  26.708  1.00  0.00    -0.003 C 
ATOM     19  C   UNL A   1      51.891  28.539  26.332  1.00  0.00     0.065 C 
ATOM     20  C   UNL A   1      51.245  26.925  28.056  1.00  0.00     0.065 C 
ATOM     21  C   UNL A   1      50.452  29.055  26.228  1.00  0.00     0.263 C 
ATOM     22  C   UNL A   1      49.772  27.310  27.924  1.00  0.00     0.263 C 
ATOM     23  H   UNL A   1      49.691  29.199  27.999  1.00  0.00     0.348 HD
ENDBRANCH  15  16
BRANCH  15  24
ATOM     24  C   UNL A   1      47.465  29.917  27.730  1.00  0.00     0.014 A 
ATOM     25  C   UNL A   1      46.076  30.142  27.813  1.00  0.00     0.013 A 
ATOM     26  C   UNL A   1      48.322  30.746  28.480  1.00  0.00     0.013 A 
ATOM     27  C   UNL A   1      45.565  31.165  28.616  1.00  0.00     0.040 A 
ATOM     28  C   UNL A   1      47.810  31.784  29.260  1.00  0.00     0.040 A 
ATOM     29  C   UNL A   1      46.438  31.982  29.322  1.00  0.00     0.123 A 
ATOM     30  F   UNL A   1      45.948  32.978  30.073  1.00  0.00    -0.207 F 
ENDBRANCH  15  24
ENDBRANCH  10  15
BRANCH  12  31
ATOM     31  C   UNL A   1      47.681  27.189  24.235  1.00  0.00    -0.018 A 
ATOM     32  C   UNL A   1      47.197  28.014  23.211  1.00  0.00     0.009 A 
ATOM     33  C   UNL A   1      48.932  26.575  24.053  1.00  0.00     0.009 A 
ATOM     34  C   UNL A   1      47.954  28.246  22.057  1.00  0.00     0.014 A 
ATOM     35  C   UNL A   1      49.697  26.812  22.907  1.00  0.00     0.014 A 
ATOM     36  C   UNL A   1      49.218  27.657  21.899  1.00  0.00     0.056 A 
BRANCH  36  37
ATOM     37  C   UNL A   1      50.027  27.911  20.653  1.00  0.00     0.416 C 
ATOM     38  F   UNL A   1      50.276  29.238  20.459  1.00  0.00    -0.166 F 
ATOM     39  F   UNL A   1      51.245  27.303  20.674  1.00  0.00    -0.166 F 
ATOM     40  F   UNL A   1      49.419  27.481  19.510  1.00  0.00    -0.166 F 
ENDBRANCH  36  37
ENDBRANCH  12  31
ENDBRANCH   7   9
ENDBRANCH   4   7
ENDBRANCH   2   3
ENDBRANCH   1   2
BRANCH   1  41
ATOM     41  C   UNL A   1      41.065  21.920  26.186  1.00  0.00     0.118 C 
BRANCH  41  42
ATOM     42  N   UNL A   1      39.693  22.216  25.808  1.00  0.00    -0.352 N 
ATOM     43  C   UNL A   1      38.860  23.249  26.162  1.00  0.00     0.251 C 
ATOM     44  H   UNL A   1      39.292  21.564  25.189  1.00  0.00     0.163 HD
ATOM     45  O   UNL A   1      37.671  23.164  25.861  1.00  0.00    -0.269 OA
BRANCH  43  46
ATOM     46  C   UNL A   1      39.347  24.447  26.895  1.00  0.00     0.039 A 
ATOM     47  C   UNL A   1      38.944  24.621  28.225  1.00  0.00     0.014 A 
ATOM     48  C   UNL A   1      40.119  25.436  26.283  1.00  0.00     0.014 A 
ATOM     49  C   UNL A   1      39.336  25.759  28.940  1.00  0.00     0.010 A 
ATOM     50  C   UNL A   1      40.584  26.524  27.022  1.00  0.00     0.010 A 
ATOM     51  C   UNL A   1      40.178  26.713  28.351  1.00  0.00    -0.014 A 
BRANCH  51  52
ATOM     52  C   UNL A   1      40.618  27.930  29.088  1.00  0.00     0.031 A 
ATOM     53  C   UNL A   1      41.966  27.961  29.760  1.00  0.00     0.074 A 
ATOM     54  C   UNL A   1      39.786  28.981  29.212  1.00  0.00     0.049 A 
ATOM     55  N   UNL A   1      42.501  28.907  30.489  1.00  0.00    -0.248 NA
ATOM     56  C   UNL A   1      42.814  26.769  29.608  1.00  0.00     0.031 C 
ATOM     57  C   UNL A   1      38.452  29.071  28.623  1.00  0.00     0.029 A 
ATOM     58  N   UNL A   1      39.929  30.172  29.881  1.00  0.00    -0.354 N 
ATOM     59  C   UNL A   1      43.737  28.418  30.894  1.00  0.00     0.074 A 
ATOM     60  C   UNL A   1      43.848  27.071  30.378  1.00  0.00     0.031 C 
ATOM     61  C   UNL A   1      37.898  30.250  28.947  1.00  0.00     0.029 A 
ATOM     62  C   UNL A   1      38.829  30.992  29.788  1.00  0.00     0.049 A 
ATOM     63  H   UNL A   1      40.742  30.415  30.380  1.00  0.00     0.167 HD
ATOM     64  C   UNL A   1      44.705  29.043  31.610  1.00  0.00     0.031 A 
ATOM     65  C   UNL A   1      38.592  32.209  30.315  1.00  0.00     0.031 A 
ATOM     66  C   UNL A   1      44.596  30.387  32.109  1.00  0.00     0.049 A 
ATOM     67  C   UNL A   1      39.667  32.871  31.129  1.00  0.00     0.074 A 
ATOM     68  C   UNL A   1      45.546  31.137  32.781  1.00  0.00     0.029 A 
ATOM     69  N   UNL A   1      43.466  31.184  31.995  1.00  0.00    -0.354 N 
ATOM     70  N   UNL A   1      40.860  32.421  31.436  1.00  0.00    -0.248 NA
ATOM     71  C   UNL A   1      39.374  34.215  31.644  1.00  0.00     0.031 C 
ATOM     72  C   UNL A   1      44.973  32.368  33.116  1.00  0.00     0.029 A 
ATOM     73  C   UNL A   1      43.685  32.407  32.606  1.00  0.00     0.049 A 
ATOM     74  H   UNL A   1      42.632  30.918  31.546  1.00  0.00     0.167 HD
ATOM     75  C   UNL A   1      41.478  33.444  32.145  1.00  0.00     0.074 A 
ATOM     76  C   UNL A   1      40.525  34.534  32.221  1.00  0.00     0.031 C 
ATOM     77  C   UNL A   1      42.725  33.481  32.674  1.00  0.00     0.031 A 
BRANCH  64  78
ATOM     78  C   UNL A   1      45.961  28.260  31.896  1.00  0.00    -0.014 A 
ATOM     79  C   UNL A   1      47.120  28.432  31.117  1.00  0.00     0.010 A 
ATOM     80  C   UNL A   1      45.984  27.339  32.959  1.00  0.00     0.010 A 
ATOM     81  C   UNL A   1      48.256  27.653  31.353  1.00  0.00     0.020 A 
ATOM     82  C   UNL A   1      47.129  26.580  33.218  1.00  0.00     0.020 A 
ATOM     83  C   UNL A   1      48.249  26.724  32.396  1.00  0.00     0.054 A 
BRANCH  83  84
ATOM     84  S   UNL A   1      49.729  25.713  32.673  1.00  0.00     0.124 S 
ATOM     85  O   UNL A   1      49.148  24.437  33.082  1.00  0.00    -0.237 OA
ATOM     86  O   UNL A   1      50.372  25.717  31.361  1.00  0.00    -0.237 OA
ATOM     87  O   UNL A   1      50.451  26.433  33.719  1.00  0.00    -0.744 OA
ENDBRANCH  83  84
ENDBRANCH  64  78
BRANCH  65  88
ATOM     88  C   UNL A   1      37.303  32.897  30.037  1.00  0.00    -0.014 A 
ATOM     89  C   UNL A   1      37.135  33.629  28.849  1.00  0.00     0.010 A 
ATOM     90  C   UNL A   1      36.224  32.794  30.936  1.00  0.00     0.010 A 
ATOM     91  C   UNL A   1      35.918  34.255  28.568  1.00  0.00     0.020 A 
ATOM     92  C   UNL A   1      34.998  33.400  30.647  1.00  0.00     0.020 A 
ATOM     93  C   UNL A   1      34.854  34.133  29.466  1.00  0.00     0.054 A 
BRANCH  93  94
ATOM     94  S   UNL A   1      33.265  34.899  29.046  1.00  0.00     0.124 S 
ATOM     95  O   UNL A   1      32.591  34.933  30.340  1.00  0.00    -0.237 OA
ATOM     96  O   UNL A   1      33.673  36.197  28.511  1.00  0.00    -0.237 OA
ATOM     97  O   UNL A   1      32.691  33.983  28.063  1.00  0.00    -0.744 OA
ENDBRANCH  93  94
ENDBRANCH  65  88
BRANCH  77  98
ATOM     98  C   UNL A   1      43.150  34.760  33.342  1.00  0.00    -0.014 A 
ATOM     99  C   UNL A   1      42.998  34.949  34.727  1.00  0.00     0.010 A 
ATOM    100  C   UNL A   1      43.746  35.776  32.571  1.00  0.00     0.010 A 
ATOM    101  C   UNL A   1      43.403  36.145  35.324  1.00  0.00     0.020 A 
ATOM    102  C   UNL A   1      44.176  36.962  33.170  1.00  0.00     0.020 A 
ATOM    103  C   UNL A   1      43.987  37.145  34.541  1.00  0.00     0.054 A 
BRANCH 103 104
ATOM    104  S   UNL A   1      44.539  38.675  35.344  1.00  0.00     0.124 S 
ATOM    105  O   UNL A   1      44.081  38.480  36.716  1.00  0.00    -0.237 OA
ATOM    106  O   UNL A   1      45.986  38.635  35.152  1.00  0.00    -0.237 OA
ATOM    107  O   UNL A   1      43.848  39.725  34.599  1.00  0.00    -0.744 OA
ENDBRANCH 103 104
ENDBRANCH  77  98
ENDBRANCH  51  52
ENDBRANCH  43  46
ENDBRANCH  41  42
ENDBRANCH   1  41
TORSDOF 19
ENDMDL
MODEL 3
REMARK VINA RESULT:      -9.3      4.505     12.086
REMARK SMILES CC1CC[NH+]([C@H](c2ccc(F)cc2)c2ccc([C@@H](C)C(=O)NCCCNC(=O)c3ccc(-c4c5nc(c(-c6ccc(S(=O)(=O)[O-])cc6)c6ccc([nH]6)c(-c6ccc(S(=O)(=O)[O-])cc6)c6nc(c(-c7ccc(S(=O)(=O)[O-])cc7)c7ccc4[nH]7)C=C6)C=C5)cc3)cc2-c2ccc(C(F)(F)F)cc2)CC1
REMARK SMILES IDX 24 1 23 2 22 3 20 4 21 5 18 7 19 8 17 9 14 10 15 11 90 12
REMARK SMILES IDX 16 13 89 14 6 15 5 16 1 17 2 18 3 19 102 20 4 21 101 22 7 24
REMARK SMILES IDX 8 25 13 26 9 27 12 28 10 29 11 30 91 31 92 32 100 33 93 34
REMARK SMILES IDX 99 35 94 36 95 37 96 38 97 39 98 40 25 41 26 42 27 43 28 45
REMARK SMILES IDX 29 46 30 47 88 48 31 49 87 50 32 51 33 52 34 53 81 54 35 55
REMARK SMILES IDX 86 56 80 57 82 58 36 59 85 60 79 61 78 62 37 64 67 65 48 66
REMARK SMILES IDX 66 67 49 68 52 69 65 70 83 71 50 72 51 73 64 75 84 76 53 77
REMARK SMILES IDX 38 78 39 79 47 80 40 81 46 82 41 83 42 84 43 85 44 86 45 87
REMARK SMILES IDX 68 88 69 89 77 90 70 91 76 92 71 93 72 94 73 95 74 96 75 97
REMARK SMILES IDX 54 98 55 99 63 100 56 101 62 102 57 103 58 104 59 105 60 106
REMARK SMILES IDX 61 107
REMARK H PARENT 22 6 5 23 26 44 82 63 52 74
REMARK Flexibility Score: inf
ROOT
ATOM      1  C   UNL A   1      33.668  34.033  28.665  1.00  0.00     0.042 C 
ENDROOT
BRANCH   1   2
ATOM      2  C   UNL A   1      34.423  35.235  29.236  1.00  0.00     0.117 C 
BRANCH   2   3
ATOM      3  N   UNL A   1      34.251  35.374  30.672  1.00  0.00    -0.356 N 
ATOM      4  C   UNL A   1      34.743  34.687  31.741  1.00  0.00     0.227 C 
ATOM      5  O   UNL A   1      34.359  35.080  32.852  1.00  0.00    -0.274 OA
ATOM      6  H   UNL A   1      33.655  36.116  30.924  1.00  0.00     0.163 HD
BRANCH   4   7
ATOM      7  C   UNL A   1      35.719  33.498  31.656  1.00  0.00     0.105 C 
ATOM      8  C   UNL A   1      35.046  32.131  31.550  1.00  0.00     0.023 C 
BRANCH   7   9
ATOM      9  C   UNL A   1      36.853  33.581  32.663  1.00  0.00    -0.035 A 
ATOM     10  C   UNL A   1      39.122  33.372  34.403  1.00  0.00     0.022 A 
ATOM     11  C   UNL A   1      39.169  34.036  33.166  1.00  0.00     0.011 A 
ATOM     12  C   UNL A   1      37.835  32.957  34.845  1.00  0.00    -0.009 A 
ATOM     13  C   UNL A   1      38.049  34.206  32.358  1.00  0.00     0.005 A 
ATOM     14  C   UNL A   1      36.747  32.998  33.932  1.00  0.00     0.013 A 
BRANCH  10  15
ATOM     15  C   UNL A   1      40.416  33.177  35.254  1.00  0.00     0.247 C 
BRANCH  15  16
ATOM     16  N   UNL A   1      40.926  31.782  35.436  1.00  0.00    -0.325 N 
ATOM     17  C   UNL A   1      43.686  28.481  34.522  1.00  0.00     0.008 C 
ATOM     18  C   UNL A   1      42.877  29.765  34.631  1.00  0.00    -0.003 C 
ATOM     19  C   UNL A   1      42.988  30.387  36.020  1.00  0.00     0.065 C 
ATOM     20  C   UNL A   1      41.395  29.524  34.373  1.00  0.00     0.065 C 
ATOM     21  C   UNL A   1      42.220  31.709  36.121  1.00  0.00     0.263 C 
ATOM     22  C   UNL A   1      40.647  30.856  34.337  1.00  0.00     0.263 C 
ATOM     23  H   UNL A   1      40.320  31.350  36.134  1.00  0.00     0.348 HD
ENDBRANCH  15  16
BRANCH  15  24
ATOM     24  C   UNL A   1      40.389  33.912  36.609  1.00  0.00     0.014 A 
ATOM     25  C   UNL A   1      40.570  33.236  37.832  1.00  0.00     0.013 A 
ATOM     26  C   UNL A   1      40.181  35.305  36.639  1.00  0.00     0.013 A 
ATOM     27  C   UNL A   1      40.538  33.932  39.043  1.00  0.00     0.040 A 
ATOM     28  C   UNL A   1      40.123  35.993  37.853  1.00  0.00     0.040 A 
ATOM     29  C   UNL A   1      40.305  35.300  39.042  1.00  0.00     0.123 A 
ATOM     30  F   UNL A   1      40.251  35.962  40.206  1.00  0.00    -0.207 F 
ENDBRANCH  15  24
ENDBRANCH  10  15
BRANCH  12  31
ATOM     31  C   UNL A   1      37.545  32.557  36.236  1.00  0.00    -0.018 A 
ATOM     32  C   UNL A   1      37.083  33.475  37.189  1.00  0.00     0.009 A 
ATOM     33  C   UNL A   1      37.778  31.235  36.652  1.00  0.00     0.009 A 
ATOM     34  C   UNL A   1      36.830  33.076  38.507  1.00  0.00     0.014 A 
ATOM     35  C   UNL A   1      37.517  30.829  37.963  1.00  0.00     0.014 A 
ATOM     36  C   UNL A   1      37.033  31.746  38.904  1.00  0.00     0.056 A 
BRANCH  36  37
ATOM     37  C   UNL A   1      36.758  31.325  40.325  1.00  0.00     0.416 C 
ATOM     38  F   UNL A   1      37.081  32.297  41.225  1.00  0.00    -0.166 F 
ATOM     39  F   UNL A   1      35.448  31.029  40.551  1.00  0.00    -0.166 F 
ATOM     40  F   UNL A   1      37.459  30.220  40.711  1.00  0.00    -0.166 F 
ENDBRANCH  36  37
ENDBRANCH  12  31
ENDBRANCH   7   9
ENDBRANCH   4   7
ENDBRANCH   2   3
ENDBRANCH   1   2
BRANCH   1  41
ATOM     41  C   UNL A   1      34.547  32.946  28.066  1.00  0.00     0.118 C 
BRANCH  41  42
ATOM     42  N   UNL A   1      33.818  31.710  27.838  1.00  0.00    -0.352 N 
ATOM     43  C   UNL A   1      34.252  30.411  27.728  1.00  0.00     0.251 C 
ATOM     44  H   UNL A   1      32.844  31.822  27.749  1.00  0.00     0.163 HD
ATOM     45  O   UNL A   1      33.452  29.564  27.335  1.00  0.00    -0.269 OA
BRANCH  43  46
ATOM     46  C   UNL A   1      35.643  30.008  28.060  1.00  0.00     0.039 A 
ATOM     47  C   UNL A   1      35.919  29.584  29.366  1.00  0.00     0.014 A 
ATOM     48  C   UNL A   1      36.691  30.113  27.143  1.00  0.00     0.014 A 
ATOM     49  C   UNL A   1      37.225  29.243  29.738  1.00  0.00     0.010 A 
ATOM     50  C   UNL A   1      37.974  29.687  27.488  1.00  0.00     0.010 A 
ATOM     51  C   UNL A   1      38.263  29.271  28.796  1.00  0.00    -0.014 A 
BRANCH  51  52
ATOM     52  C   UNL A   1      39.660  28.907  29.160  1.00  0.00     0.031 A 
ATOM     53  C   UNL A   1      40.553  29.913  29.836  1.00  0.00     0.074 A 
ATOM     54  C   UNL A   1      40.150  27.697  28.826  1.00  0.00     0.049 A 
ATOM     55  N   UNL A   1      41.810  29.798  30.182  1.00  0.00    -0.248 NA
ATOM     56  C   UNL A   1      39.963  31.224  30.149  1.00  0.00     0.031 C 
ATOM     57  C   UNL A   1      39.396  26.640  28.158  1.00  0.00     0.029 A 
ATOM     58  N   UNL A   1      41.400  27.154  28.991  1.00  0.00    -0.354 N 
ATOM     59  C   UNL A   1      42.163  31.024  30.735  1.00  0.00     0.074 A 
ATOM     60  C   UNL A   1      41.006  31.885  30.626  1.00  0.00     0.031 C 
ATOM     61  C   UNL A   1      40.188  25.573  27.973  1.00  0.00     0.029 A 
ATOM     62  C   UNL A   1      41.516  25.878  28.490  1.00  0.00     0.049 A 
ATOM     63  H   UNL A   1      42.142  27.631  29.426  1.00  0.00     0.167 HD
ATOM     64  C   UNL A   1      43.337  31.392  31.306  1.00  0.00     0.031 A 
ATOM     65  C   UNL A   1      42.571  25.042  28.450  1.00  0.00     0.031 A 
ATOM     66  C   UNL A   1      44.480  30.527  31.424  1.00  0.00     0.049 A 
ATOM     67  C   UNL A   1      43.871  25.480  29.062  1.00  0.00     0.074 A 
ATOM     68  C   UNL A   1      45.690  30.779  32.048  1.00  0.00     0.029 A 
ATOM     69  N   UNL A   1      44.559  29.245  30.902  1.00  0.00    -0.354 N 
ATOM     70  N   UNL A   1      44.161  26.616  29.648  1.00  0.00    -0.248 NA
ATOM     71  C   UNL A   1      44.977  24.514  29.031  1.00  0.00     0.031 C 
ATOM     72  C   UNL A   1      46.517  29.665  31.862  1.00  0.00     0.029 A 
ATOM     73  C   UNL A   1      45.804  28.700  31.168  1.00  0.00     0.049 A 
ATOM     74  H   UNL A   1      43.835  28.788  30.415  1.00  0.00     0.167 HD
ATOM     75  C   UNL A   1      45.471  26.487  30.096  1.00  0.00     0.074 A 
ATOM     76  C   UNL A   1      45.914  25.162  29.709  1.00  0.00     0.031 C 
ATOM     77  C   UNL A   1      46.231  27.380  30.775  1.00  0.00     0.031 A 
BRANCH  64  78
ATOM     78  C   UNL A   1      43.432  32.799  31.835  1.00  0.00    -0.014 A 
ATOM     79  C   UNL A   1      43.487  33.903  30.964  1.00  0.00     0.010 A 
ATOM     80  C   UNL A   1      43.467  33.024  33.224  1.00  0.00     0.010 A 
ATOM     81  C   UNL A   1      43.640  35.198  31.469  1.00  0.00     0.020 A 
ATOM     82  C   UNL A   1      43.589  34.320  33.733  1.00  0.00     0.020 A 
ATOM     83  C   UNL A   1      43.701  35.396  32.850  1.00  0.00     0.054 A 
BRANCH  83  84
ATOM     84  S   UNL A   1      43.917  37.084  33.479  1.00  0.00     0.124 S 
ATOM     85  O   UNL A   1      42.566  37.412  33.925  1.00  0.00    -0.237 OA
ATOM     86  O   UNL A   1      44.903  36.908  34.542  1.00  0.00    -0.237 OA
ATOM     87  O   UNL A   1      44.388  37.831  32.315  1.00  0.00    -0.744 OA
ENDBRANCH  83  84
ENDBRANCH  64  78
BRANCH  65  88
ATOM     88  C   UNL A   1      42.419  23.685  27.857  1.00  0.00    -0.014 A 
ATOM     89  C   UNL A   1      42.835  23.441  26.538  1.00  0.00     0.010 A 
ATOM     90  C   UNL A   1      41.894  22.623  28.617  1.00  0.00     0.010 A 
ATOM     91  C   UNL A   1      42.721  22.163  25.983  1.00  0.00     0.020 A 
ATOM     92  C   UNL A   1      41.800  21.338  28.074  1.00  0.00     0.020 A 
ATOM     93  C   UNL A   1      42.208  21.118  26.756  1.00  0.00     0.054 A 
BRANCH  93  94
ATOM     94  S   UNL A   1      42.133  19.455  26.035  1.00  0.00     0.124 S 
ATOM     95  O   UNL A   1      42.993  19.592  24.863  1.00  0.00    -0.237 OA
ATOM     96  O   UNL A   1      42.660  18.621  27.113  1.00  0.00    -0.237 OA
ATOM     97  O   UNL A   1      40.712  19.268  25.752  1.00  0.00    -0.744 OA
ENDBRANCH  93  94
ENDBRANCH  65  88
BRANCH  77  98
ATOM     98  C   UNL A   1      47.608  26.936  31.186  1.00  0.00    -0.014 A 
ATOM     99  C   UNL A   1      47.826  26.248  32.393  1.00  0.00     0.010 A 
ATOM    100  C   UNL A   1      48.697  27.183  30.329  1.00  0.00     0.010 A 
ATOM    101  C   UNL A   1      49.114  25.845  32.751  1.00  0.00     0.020 A 
ATOM    102  C   UNL A   1      49.982  26.758  30.672  1.00  0.00     0.020 A 
ATOM    103  C   UNL A   1      50.185  26.104  31.890  1.00  0.00     0.054 A 
BRANCH 103 104
ATOM    104  S   UNL A   1      51.843  25.539  32.358  1.00  0.00     0.124 S 
ATOM    105  O   UNL A   1      52.237  26.539  33.347  1.00  0.00    -0.237 OA
ATOM    106  O   UNL A   1      51.590  24.200  32.884  1.00  0.00    -0.237 OA
ATOM    107  O   UNL A   1      52.589  25.576  31.102  1.00  0.00    -0.744 OA
ENDBRANCH 103 104
ENDBRANCH  77  98
ENDBRANCH  51  52
ENDBRANCH  43  46
ENDBRANCH  41  42
ENDBRANCH   1  41
TORSDOF 19
ENDMDL
