MODEL 1
REMARK VINA RESULT:     -11.8      0.000      0.000
REMARK SMILES CCn1cccc1C(=O)N1CC[C@H](C(=O)NCCCNC(=O)c2ccc(-c3c4nc(c(-c5ccc(S(=O)(=O)[O-])cc5)c5ccc([nH]5)c(-c5ccc(S(=O)(=O)[O-])cc5)c5nc(c(-c6ccc(S(=O)(=O)[O-])cc6)c6ccc3[nH]6)C=C5)C=C4)cc2)[C@H]1C
REMARK SMILES IDX 18 1 17 2 16 3 14 4 15 5 13 7 10 8 11 9 83 10 12 11 84 12
REMARK SMILES IDX 8 13 9 14 7 15 3 16 4 17 5 18 6 19 2 20 1 21 19 22 20 23
REMARK SMILES IDX 21 24 22 26 23 27 24 28 82 29 25 30 81 31 26 32 27 33 28 34
REMARK SMILES IDX 75 35 29 36 80 37 74 38 76 39 30 40 79 41 73 42 72 43 31 45
REMARK SMILES IDX 61 46 42 47 60 48 43 49 46 50 59 51 77 52 44 53 45 54 58 56
REMARK SMILES IDX 78 57 47 58 32 59 33 60 41 61 34 62 40 63 35 64 36 65 37 66
REMARK SMILES IDX 38 67 39 68 62 69 63 70 71 71 64 72 70 73 65 74 66 75 67 76
REMARK SMILES IDX 68 77 69 78 48 79 49 80 57 81 50 82 56 83 51 84 52 85 53 86
REMARK SMILES IDX 54 87 55 88
REMARK H PARENT 16 6 20 25 76 44 46 55
REMARK Flexibility Score: inf
ROOT
ATOM      1  C   UNL A   1      37.844  19.847  25.012  1.00  0.00     0.042 C 
ENDROOT
BRANCH   1   2
ATOM      2  C   UNL A   1      36.712  20.870  24.849  1.00  0.00     0.117 C 
BRANCH   2   3
ATOM      3  N   UNL A   1      35.947  21.094  26.064  1.00  0.00    -0.356 N 
ATOM      4  C   UNL A   1      34.655  21.522  26.215  1.00  0.00     0.225 C 
ATOM      5  O   UNL A   1      34.145  21.466  27.331  1.00  0.00    -0.275 OA
ATOM      6  H   UNL A   1      36.429  20.911  26.902  1.00  0.00     0.163 HD
BRANCH   4   7
ATOM      7  C   UNL A   1      33.880  21.997  24.993  1.00  0.00     0.102 C 
ATOM      8  N   UNL A   1      32.038  23.510  25.364  1.00  0.00    -0.334 N 
ATOM      9  C   UNL A   1      31.570  22.146  25.570  1.00  0.00     0.121 C 
ATOM     10  C   UNL A   1      33.483  23.482  25.125  1.00  0.00     0.094 C 
ATOM     11  C   UNL A   1      32.541  21.283  24.795  1.00  0.00     0.037 C 
ATOM     12  C   UNL A   1      33.960  24.230  23.895  1.00  0.00     0.032 C 
BRANCH   8  13
ATOM     13  C   UNL A   1      31.367  24.501  26.097  1.00  0.00     0.270 C 
ATOM     14  O   UNL A   1      30.963  24.225  27.230  1.00  0.00    -0.267 OA
BRANCH  13  15
ATOM     15  C   UNL A   1      31.118  25.839  25.565  1.00  0.00     0.107 A 
ATOM     16  N   UNL A   1      31.881  26.996  25.620  1.00  0.00    -0.344 N 
ATOM     17  C   UNL A   1      31.375  27.938  24.745  1.00  0.00     0.086 A 
ATOM     18  C   UNL A   1      30.289  27.403  24.105  1.00  0.00     0.020 A 
ATOM     19  C   UNL A   1      30.123  26.102  24.619  1.00  0.00     0.033 A 
BRANCH  16  20
ATOM     20  C   UNL A   1      33.139  27.226  26.312  1.00  0.00     0.119 C 
ATOM     21  C   UNL A   1      33.844  28.503  25.847  1.00  0.00     0.027 C 
ENDBRANCH  16  20
ENDBRANCH  13  15
ENDBRANCH   8  13
ENDBRANCH   4   7
ENDBRANCH   2   3
ENDBRANCH   1   2
BRANCH   1  22
ATOM     22  C   UNL A   1      39.051  20.438  25.712  1.00  0.00     0.118 C 
BRANCH  22  23
ATOM     23  N   UNL A   1      40.036  19.402  25.971  1.00  0.00    -0.352 N 
ATOM     24  C   UNL A   1      41.396  19.529  26.095  1.00  0.00     0.251 C 
ATOM     25  H   UNL A   1      39.681  18.489  26.071  1.00  0.00     0.163 HD
ATOM     26  O   UNL A   1      42.110  18.552  25.934  1.00  0.00    -0.269 OA
BRANCH  24  27
ATOM     27  C   UNL A   1      41.981  20.843  26.409  1.00  0.00     0.039 A 
ATOM     28  C   UNL A   1      42.433  21.640  25.352  1.00  0.00     0.014 A 
ATOM     29  C   UNL A   1      42.138  21.253  27.739  1.00  0.00     0.014 A 
ATOM     30  C   UNL A   1      43.005  22.872  25.628  1.00  0.00     0.010 A 
ATOM     31  C   UNL A   1      42.648  22.506  28.016  1.00  0.00     0.010 A 
ATOM     32  C   UNL A   1      43.088  23.304  26.959  1.00  0.00    -0.014 A 
BRANCH  32  33
ATOM     33  C   UNL A   1      43.570  24.659  27.262  1.00  0.00     0.031 A 
ATOM     34  C   UNL A   1      42.391  25.651  27.432  1.00  0.00     0.074 A 
ATOM     35  C   UNL A   1      44.936  24.765  27.344  1.00  0.00     0.049 A 
ATOM     36  N   UNL A   1      42.386  26.946  27.419  1.00  0.00    -0.248 NA
ATOM     37  C   UNL A   1      40.998  25.133  27.609  1.00  0.00     0.031 C 
ATOM     38  C   UNL A   1      45.895  23.635  27.195  1.00  0.00     0.029 A 
ATOM     39  N   UNL A   1      45.805  25.806  27.573  1.00  0.00    -0.354 N 
ATOM     40  C   UNL A   1      41.077  27.397  27.730  1.00  0.00     0.074 A 
ATOM     41  C   UNL A   1      40.251  26.231  27.774  1.00  0.00     0.031 C 
ATOM     42  C   UNL A   1      47.176  24.063  27.244  1.00  0.00     0.029 A 
ATOM     43  C   UNL A   1      47.190  25.497  27.441  1.00  0.00     0.049 A 
ATOM     44  H   UNL A   1      45.492  26.707  27.814  1.00  0.00     0.167 HD
ATOM     45  C   UNL A   1      40.785  28.706  28.001  1.00  0.00     0.031 A 
ATOM     46  C   UNL A   1      48.258  26.352  27.438  1.00  0.00     0.031 A 
ATOM     47  C   UNL A   1      41.951  29.499  27.802  1.00  0.00     0.049 A 
ATOM     48  C   UNL A   1      47.684  27.660  27.775  1.00  0.00     0.074 A 
ATOM     49  C   UNL A   1      42.576  29.907  26.653  1.00  0.00     0.029 A 
ATOM     50  N   UNL A   1      42.819  29.606  28.861  1.00  0.00    -0.354 N 
ATOM     51  N   UNL A   1      47.260  27.999  28.953  1.00  0.00    -0.248 NA
ATOM     52  C   UNL A   1      47.469  28.633  26.699  1.00  0.00     0.031 C 
ATOM     53  C   UNL A   1      43.937  29.723  26.962  1.00  0.00     0.029 A 
ATOM     54  C   UNL A   1      44.083  29.491  28.336  1.00  0.00     0.049 A 
ATOM     55  H   UNL A   1      42.583  29.739  29.808  1.00  0.00     0.167 HD
ATOM     56  C   UNL A   1      46.390  29.018  28.665  1.00  0.00     0.074 A 
ATOM     57  C   UNL A   1      46.800  29.558  27.384  1.00  0.00     0.031 C 
ATOM     58  C   UNL A   1      45.138  29.006  29.190  1.00  0.00     0.031 A 
BRANCH  45  59
ATOM     59  C   UNL A   1      39.586  29.417  28.571  1.00  0.00    -0.014 A 
ATOM     60  C   UNL A   1      38.394  29.382  27.798  1.00  0.00     0.010 A 
ATOM     61  C   UNL A   1      39.659  30.370  29.598  1.00  0.00     0.010 A 
ATOM     62  C   UNL A   1      37.386  30.337  27.939  1.00  0.00     0.020 A 
ATOM     63  C   UNL A   1      38.627  31.318  29.769  1.00  0.00     0.020 A 
ATOM     64  C   UNL A   1      37.526  31.325  28.904  1.00  0.00     0.054 A 
BRANCH  64  65
ATOM     65  S   UNL A   1      36.286  32.652  28.941  1.00  0.00     0.124 S 
ATOM     66  O   UNL A   1      35.646  32.517  27.635  1.00  0.00    -0.237 OA
ATOM     67  O   UNL A   1      35.454  32.275  30.084  1.00  0.00    -0.237 OA
ATOM     68  O   UNL A   1      37.080  33.862  29.131  1.00  0.00    -0.744 OA
ENDBRANCH  64  65
ENDBRANCH  45  59
BRANCH  46  69
ATOM     69  C   UNL A   1      49.727  26.364  27.075  1.00  0.00    -0.014 A 
ATOM     70  C   UNL A   1      50.812  26.269  27.955  1.00  0.00     0.010 A 
ATOM     71  C   UNL A   1      50.056  26.305  25.687  1.00  0.00     0.010 A 
ATOM     72  C   UNL A   1      52.111  25.957  27.475  1.00  0.00     0.020 A 
ATOM     73  C   UNL A   1      51.315  25.941  25.206  1.00  0.00     0.020 A 
ATOM     74  C   UNL A   1      52.337  25.732  26.110  1.00  0.00     0.054 A 
BRANCH  74  75
ATOM     75  S   UNL A   1      53.901  25.013  25.523  1.00  0.00     0.124 S 
ATOM     76  O   UNL A   1      53.547  23.613  25.316  1.00  0.00    -0.237 OA
ATOM     77  O   UNL A   1      54.173  25.784  24.312  1.00  0.00    -0.237 OA
ATOM     78  O   UNL A   1      54.829  25.266  26.625  1.00  0.00    -0.744 OA
ENDBRANCH  74  75
ENDBRANCH  46  69
BRANCH  58  79
ATOM     79  C   UNL A   1      44.952  28.155  30.446  1.00  0.00    -0.014 A 
ATOM     80  C   UNL A   1      44.418  26.859  30.321  1.00  0.00     0.010 A 
ATOM     81  C   UNL A   1      45.209  28.616  31.755  1.00  0.00     0.010 A 
ATOM     82  C   UNL A   1      44.150  26.057  31.440  1.00  0.00     0.020 A 
ATOM     83  C   UNL A   1      44.948  27.817  32.888  1.00  0.00     0.020 A 
ATOM     84  C   UNL A   1      44.422  26.537  32.721  1.00  0.00     0.054 A 
BRANCH  84  85
ATOM     85  S   UNL A   1      44.083  25.453  34.142  1.00  0.00     0.124 S 
ATOM     86  O   UNL A   1      42.848  26.013  34.688  1.00  0.00    -0.237 OA
ATOM     87  O   UNL A   1      43.949  24.143  33.511  1.00  0.00    -0.237 OA
ATOM     88  O   UNL A   1      45.260  25.614  34.994  1.00  0.00    -0.744 OA
ENDBRANCH  84  85
ENDBRANCH  58  79
ENDBRANCH  32  33
ENDBRANCH  24  27
ENDBRANCH  22  23
ENDBRANCH   1  22
TORSDOF 16
ENDMDL
MODEL 2
REMARK VINA RESULT:     -11.6      1.366      1.778
REMARK SMILES CCn1cccc1C(=O)N1CC[C@H](C(=O)NCCCNC(=O)c2ccc(-c3c4nc(c(-c5ccc(S(=O)(=O)[O-])cc5)c5ccc([nH]5)c(-c5ccc(S(=O)(=O)[O-])cc5)c5nc(c(-c6ccc(S(=O)(=O)[O-])cc6)c6ccc3[nH]6)C=C5)C=C4)cc2)[C@H]1C
REMARK SMILES IDX 18 1 17 2 16 3 14 4 15 5 13 7 10 8 11 9 83 10 12 11 84 12
REMARK SMILES IDX 8 13 9 14 7 15 3 16 4 17 5 18 6 19 2 20 1 21 19 22 20 23
REMARK SMILES IDX 21 24 22 26 23 27 24 28 82 29 25 30 81 31 26 32 27 33 28 34
REMARK SMILES IDX 75 35 29 36 80 37 74 38 76 39 30 40 79 41 73 42 72 43 31 45
REMARK SMILES IDX 61 46 42 47 60 48 43 49 46 50 59 51 77 52 44 53 45 54 58 56
REMARK SMILES IDX 78 57 47 58 32 59 33 60 41 61 34 62 40 63 35 64 36 65 37 66
REMARK SMILES IDX 38 67 39 68 62 69 63 70 71 71 64 72 70 73 65 74 66 75 67 76
REMARK SMILES IDX 68 77 69 78 48 79 49 80 57 81 50 82 56 83 51 84 52 85 53 86
REMARK SMILES IDX 54 87 55 88
REMARK H PARENT 16 6 20 25 76 44 46 55
REMARK Flexibility Score: inf
ROOT
ATOM      1  C   UNL A   1      37.941  19.685  25.127  1.00  0.00     0.042 C 
ENDROOT
BRANCH   1   2
ATOM      2  C   UNL A   1      36.797  20.692  24.946  1.00  0.00     0.117 C 
BRANCH   2   3
ATOM      3  N   UNL A   1      37.075  21.720  23.958  1.00  0.00    -0.356 N 
ATOM      4  C   UNL A   1      36.294  22.766  23.543  1.00  0.00     0.225 C 
ATOM      5  O   UNL A   1      36.797  23.628  22.827  1.00  0.00    -0.275 OA
ATOM      6  H   UNL A   1      37.954  21.655  23.522  1.00  0.00     0.163 HD
BRANCH   4   7
ATOM      7  C   UNL A   1      34.852  22.856  24.027  1.00  0.00     0.102 C 
ATOM      8  N   UNL A   1      33.634  24.876  23.520  1.00  0.00    -0.334 N 
ATOM      9  C   UNL A   1      34.423  25.096  24.724  1.00  0.00     0.121 C 
ATOM     10  C   UNL A   1      33.954  23.552  22.982  1.00  0.00     0.094 C 
ATOM     11  C   UNL A   1      34.673  23.712  25.282  1.00  0.00     0.037 C 
ATOM     12  C   UNL A   1      32.765  22.659  22.682  1.00  0.00     0.032 C 
BRANCH   8  13
ATOM     13  C   UNL A   1      33.379  26.016  22.743  1.00  0.00     0.270 C 
ATOM     14  O   UNL A   1      33.901  26.098  21.628  1.00  0.00    -0.267 OA
BRANCH  13  15
ATOM     15  C   UNL A   1      32.531  27.111  23.209  1.00  0.00     0.107 A 
ATOM     16  N   UNL A   1      31.187  27.138  23.554  1.00  0.00    -0.344 N 
ATOM     17  C   UNL A   1      30.889  28.324  24.197  1.00  0.00     0.086 A 
ATOM     18  C   UNL A   1      32.031  29.073  24.287  1.00  0.00     0.020 A 
ATOM     19  C   UNL A   1      33.051  28.325  23.666  1.00  0.00     0.033 A 
BRANCH  16  20
ATOM     20  C   UNL A   1      30.204  26.071  23.468  1.00  0.00     0.119 C 
ATOM     21  C   UNL A   1      28.856  26.461  24.081  1.00  0.00     0.027 C 
ENDBRANCH  16  20
ENDBRANCH  13  15
ENDBRANCH   8  13
ENDBRANCH   4   7
ENDBRANCH   2   3
ENDBRANCH   1   2
BRANCH   1  22
ATOM     22  C   UNL A   1      39.168  20.319  25.747  1.00  0.00     0.118 C 
BRANCH  22  23
ATOM     23  N   UNL A   1      40.182  19.309  25.998  1.00  0.00    -0.352 N 
ATOM     24  C   UNL A   1      41.538  19.470  26.113  1.00  0.00     0.251 C 
ATOM     25  H   UNL A   1      39.850  18.388  26.100  1.00  0.00     0.163 HD
ATOM     26  O   UNL A   1      42.276  18.512  25.946  1.00  0.00    -0.269 OA
BRANCH  24  27
ATOM     27  C   UNL A   1      42.092  20.799  26.425  1.00  0.00     0.039 A 
ATOM     28  C   UNL A   1      42.572  21.583  25.370  1.00  0.00     0.014 A 
ATOM     29  C   UNL A   1      42.193  21.235  27.751  1.00  0.00     0.014 A 
ATOM     30  C   UNL A   1      43.115  22.829  25.645  1.00  0.00     0.010 A 
ATOM     31  C   UNL A   1      42.673  22.500  28.024  1.00  0.00     0.010 A 
ATOM     32  C   UNL A   1      43.141  23.286  26.970  1.00  0.00    -0.014 A 
BRANCH  32  33
ATOM     33  C   UNL A   1      43.591  24.653  27.266  1.00  0.00     0.031 A 
ATOM     34  C   UNL A   1      42.389  25.622  27.414  1.00  0.00     0.074 A 
ATOM     35  C   UNL A   1      44.953  24.789  27.363  1.00  0.00     0.049 A 
ATOM     36  N   UNL A   1      42.358  26.917  27.388  1.00  0.00    -0.248 NA
ATOM     37  C   UNL A   1      41.006  25.077  27.579  1.00  0.00     0.031 C 
ATOM     38  C   UNL A   1      45.937  23.678  27.235  1.00  0.00     0.029 A 
ATOM     39  N   UNL A   1      45.799  25.849  27.592  1.00  0.00    -0.354 N 
ATOM     40  C   UNL A   1      41.036  27.343  27.680  1.00  0.00     0.074 A 
ATOM     41  C   UNL A   1      40.234  26.160  27.726  1.00  0.00     0.031 C 
ATOM     42  C   UNL A   1      47.209  24.133  27.295  1.00  0.00     0.029 A 
ATOM     43  C   UNL A   1      47.190  25.568  27.479  1.00  0.00     0.049 A 
ATOM     44  H   UNL A   1      45.463  26.746  27.820  1.00  0.00     0.167 HD
ATOM     45  C   UNL A   1      40.714  28.648  27.935  1.00  0.00     0.031 A 
ATOM     46  C   UNL A   1      48.241  26.445  27.479  1.00  0.00     0.031 A 
ATOM     47  C   UNL A   1      41.866  29.463  27.742  1.00  0.00     0.049 A 
ATOM     48  C   UNL A   1      47.635  27.744  27.798  1.00  0.00     0.074 A 
ATOM     49  C   UNL A   1      42.495  29.874  26.597  1.00  0.00     0.029 A 
ATOM     50  N   UNL A   1      42.719  29.598  28.810  1.00  0.00    -0.354 N 
ATOM     51  N   UNL A   1      47.191  28.085  28.967  1.00  0.00    -0.248 NA
ATOM     52  C   UNL A   1      47.413  28.703  26.711  1.00  0.00     0.031 C 
ATOM     53  C   UNL A   1      43.856  29.721  26.923  1.00  0.00     0.029 A 
ATOM     54  C   UNL A   1      43.991  29.505  28.301  1.00  0.00     0.049 A 
ATOM     55  H   UNL A   1      42.469  29.734  29.753  1.00  0.00     0.167 HD
ATOM     56  C   UNL A   1      46.304  29.083  28.660  1.00  0.00     0.074 A 
ATOM     57  C   UNL A   1      46.717  29.620  27.379  1.00  0.00     0.031 C 
ATOM     58  C   UNL A   1      45.046  29.050  29.171  1.00  0.00     0.031 A 
BRANCH  45  59
ATOM     59  C   UNL A   1      39.495  29.339  28.485  1.00  0.00    -0.014 A 
ATOM     60  C   UNL A   1      38.325  29.313  27.677  1.00  0.00     0.010 A 
ATOM     61  C   UNL A   1      39.530  30.270  29.533  1.00  0.00     0.010 A 
ATOM     62  C   UNL A   1      37.307  30.258  27.809  1.00  0.00     0.020 A 
ATOM     63  C   UNL A   1      38.487  31.208  29.694  1.00  0.00     0.020 A 
ATOM     64  C   UNL A   1      37.412  31.226  28.798  1.00  0.00     0.054 A 
BRANCH  64  65
ATOM     65  S   UNL A   1      36.162  32.544  28.827  1.00  0.00     0.124 S 
ATOM     66  O   UNL A   1      35.408  32.231  30.038  1.00  0.00    -0.237 OA
ATOM     67  O   UNL A   1      36.980  33.754  28.897  1.00  0.00    -0.237 OA
ATOM     68  O   UNL A   1      35.439  32.362  27.572  1.00  0.00    -0.744 OA
ENDBRANCH  64  65
ENDBRANCH  45  59
BRANCH  46  69
ATOM     69  C   UNL A   1      49.713  26.485  27.133  1.00  0.00    -0.014 A 
ATOM     70  C   UNL A   1      50.788  26.505  28.030  1.00  0.00     0.010 A 
ATOM     71  C   UNL A   1      50.065  26.324  25.759  1.00  0.00     0.010 A 
ATOM     72  C   UNL A   1      52.105  26.206  27.592  1.00  0.00     0.020 A 
ATOM     73  C   UNL A   1      51.343  25.971  25.324  1.00  0.00     0.020 A 
ATOM     74  C   UNL A   1      52.359  25.878  26.254  1.00  0.00     0.054 A 
BRANCH  74  75
ATOM     75  S   UNL A   1      53.957  25.175  25.746  1.00  0.00     0.124 S 
ATOM     76  O   UNL A   1      53.571  23.884  25.184  1.00  0.00    -0.237 OA
ATOM     77  O   UNL A   1      54.451  26.161  24.788  1.00  0.00    -0.237 OA
ATOM     78  O   UNL A   1      54.715  25.109  26.995  1.00  0.00    -0.744 OA
ENDBRANCH  74  75
ENDBRANCH  46  69
BRANCH  58  79
ATOM     79  C   UNL A   1      44.864  28.207  30.433  1.00  0.00    -0.014 A 
ATOM     80  C   UNL A   1      44.504  26.852  30.304  1.00  0.00     0.010 A 
ATOM     81  C   UNL A   1      44.954  28.721  31.744  1.00  0.00     0.010 A 
ATOM     82  C   UNL A   1      44.245  26.044  31.421  1.00  0.00     0.020 A 
ATOM     83  C   UNL A   1      44.700  27.917  32.876  1.00  0.00     0.020 A 
ATOM     84  C   UNL A   1      44.350  26.579  32.704  1.00  0.00     0.054 A 
BRANCH  84  85
ATOM     85  S   UNL A   1      44.031  25.488  34.125  1.00  0.00     0.124 S 
ATOM     86  O   UNL A   1      42.855  26.098  34.743  1.00  0.00    -0.237 OA
ATOM     87  O   UNL A   1      43.800  24.197  33.484  1.00  0.00    -0.237 OA
ATOM     88  O   UNL A   1      45.257  25.577  34.918  1.00  0.00    -0.744 OA
ENDBRANCH  84  85
ENDBRANCH  58  79
ENDBRANCH  32  33
ENDBRANCH  24  27
ENDBRANCH  22  23
ENDBRANCH   1  22
TORSDOF 16
ENDMDL
MODEL 3
REMARK VINA RESULT:     -11.6      4.918     11.092
REMARK SMILES CCn1cccc1C(=O)N1CC[C@H](C(=O)NCCCNC(=O)c2ccc(-c3c4nc(c(-c5ccc(S(=O)(=O)[O-])cc5)c5ccc([nH]5)c(-c5ccc(S(=O)(=O)[O-])cc5)c5nc(c(-c6ccc(S(=O)(=O)[O-])cc6)c6ccc3[nH]6)C=C5)C=C4)cc2)[C@H]1C
REMARK SMILES IDX 18 1 17 2 16 3 14 4 15 5 13 7 10 8 11 9 83 10 12 11 84 12
REMARK SMILES IDX 8 13 9 14 7 15 3 16 4 17 5 18 6 19 2 20 1 21 19 22 20 23
REMARK SMILES IDX 21 24 22 26 23 27 24 28 82 29 25 30 81 31 26 32 27 33 28 34
REMARK SMILES IDX 75 35 29 36 80 37 74 38 76 39 30 40 79 41 73 42 72 43 31 45
REMARK SMILES IDX 61 46 42 47 60 48 43 49 46 50 59 51 77 52 44 53 45 54 58 56
REMARK SMILES IDX 78 57 47 58 32 59 33 60 41 61 34 62 40 63 35 64 36 65 37 66
REMARK SMILES IDX 38 67 39 68 62 69 63 70 71 71 64 72 70 73 65 74 66 75 67 76
REMARK SMILES IDX 68 77 69 78 48 79 49 80 57 81 50 82 56 83 51 84 52 85 53 86
REMARK SMILES IDX 54 87 55 88
REMARK H PARENT 16 6 20 25 76 44 46 55
REMARK Flexibility Score: inf
ROOT
ATOM      1  C   UNL A   1      35.814  33.213  29.643  1.00  0.00     0.042 C 
ENDROOT
BRANCH   1   2
ATOM      2  C   UNL A   1      34.883  32.331  30.486  1.00  0.00     0.117 C 
BRANCH   2   3
ATOM      3  N   UNL A   1      34.967  32.590  31.913  1.00  0.00    -0.356 N 
ATOM      4  C   UNL A   1      35.958  32.267  32.801  1.00  0.00     0.225 C 
ATOM      5  O   UNL A   1      35.912  32.745  33.932  1.00  0.00    -0.275 OA
ATOM      6  H   UNL A   1      34.198  33.067  32.299  1.00  0.00     0.163 HD
BRANCH   4   7
ATOM      7  C   UNL A   1      37.108  31.380  32.343  1.00  0.00     0.102 C 
ATOM      8  N   UNL A   1      38.875  30.944  33.927  1.00  0.00    -0.334 N 
ATOM      9  C   UNL A   1      39.136  32.220  33.277  1.00  0.00     0.121 C 
ATOM     10  C   UNL A   1      37.576  30.441  33.475  1.00  0.00     0.094 C 
ATOM     11  C   UNL A   1      38.376  32.153  31.971  1.00  0.00     0.037 C 
ATOM     12  C   UNL A   1      37.565  29.012  32.966  1.00  0.00     0.032 C 
BRANCH   8  13
ATOM     13  C   UNL A   1      39.374  30.812  35.232  1.00  0.00     0.270 C 
ATOM     14  O   UNL A   1      39.945  29.763  35.541  1.00  0.00    -0.267 OA
BRANCH  13  15
ATOM     15  C   UNL A   1      39.232  31.863  36.238  1.00  0.00     0.107 A 
ATOM     16  N   UNL A   1      40.102  32.869  36.632  1.00  0.00    -0.344 N 
ATOM     17  C   UNL A   1      39.434  33.789  37.417  1.00  0.00     0.086 A 
ATOM     18  C   UNL A   1      38.127  33.401  37.533  1.00  0.00     0.020 A 
ATOM     19  C   UNL A   1      38.001  32.199  36.808  1.00  0.00     0.033 A 
BRANCH  16  20
ATOM     20  C   UNL A   1      41.467  33.114  36.197  1.00  0.00     0.119 C 
ATOM     21  C   UNL A   1      42.380  33.560  37.342  1.00  0.00     0.027 C 
ENDBRANCH  16  20
ENDBRANCH  13  15
ENDBRANCH   8  13
ENDBRANCH   4   7
ENDBRANCH   2   3
ENDBRANCH   1   2
BRANCH   1  22
ATOM     22  C   UNL A   1      36.617  32.406  28.644  1.00  0.00     0.118 C 
BRANCH  22  23
ATOM     23  N   UNL A   1      35.796  31.350  28.078  1.00  0.00    -0.352 N 
ATOM     24  C   UNL A   1      36.178  30.100  27.665  1.00  0.00     0.251 C 
ATOM     25  H   UNL A   1      34.839  31.559  27.979  1.00  0.00     0.163 HD
ATOM     26  O   UNL A   1      35.474  29.482  26.881  1.00  0.00    -0.269 OA
BRANCH  24  27
ATOM     27  C   UNL A   1      37.438  29.520  28.161  1.00  0.00     0.039 A 
ATOM     28  C   UNL A   1      37.410  28.791  29.354  1.00  0.00     0.014 A 
ATOM     29  C   UNL A   1      38.642  29.752  27.486  1.00  0.00     0.014 A 
ATOM     30  C   UNL A   1      38.589  28.254  29.848  1.00  0.00     0.010 A 
ATOM     31  C   UNL A   1      39.807  29.167  27.938  1.00  0.00     0.010 A 
ATOM     32  C   UNL A   1      39.776  28.430  29.123  1.00  0.00    -0.014 A 
BRANCH  32  33
ATOM     33  C   UNL A   1      41.009  27.759  29.559  1.00  0.00     0.031 A 
ATOM     34  C   UNL A   1      41.299  26.500  28.703  1.00  0.00     0.074 A 
ATOM     35  C   UNL A   1      41.645  28.379  30.606  1.00  0.00     0.049 A 
ATOM     36  N   UNL A   1      42.094  25.504  28.933  1.00  0.00    -0.248 NA
ATOM     37  C   UNL A   1      40.574  26.291  27.411  1.00  0.00     0.031 C 
ATOM     38  C   UNL A   1      41.200  29.645  31.252  1.00  0.00     0.029 A 
ATOM     39  N   UNL A   1      42.778  28.106  31.337  1.00  0.00    -0.354 N 
ATOM     40  C   UNL A   1      42.096  24.653  27.797  1.00  0.00     0.074 A 
ATOM     41  C   UNL A   1      41.089  25.160  26.916  1.00  0.00     0.031 C 
ATOM     42  C   UNL A   1      41.983  29.964  32.307  1.00  0.00     0.029 A 
ATOM     43  C   UNL A   1      43.016  28.961  32.452  1.00  0.00     0.049 A 
ATOM     44  H   UNL A   1      43.386  27.368  31.105  1.00  0.00     0.167 HD
ATOM     45  C   UNL A   1      42.986  23.628  27.636  1.00  0.00     0.031 A 
ATOM     46  C   UNL A   1      43.948  28.828  33.445  1.00  0.00     0.031 A 
ATOM     47  C   UNL A   1      43.782  23.506  28.810  1.00  0.00     0.049 A 
ATOM     48  C   UNL A   1      44.777  27.693  33.021  1.00  0.00     0.074 A 
ATOM     49  C   UNL A   1      43.484  23.012  30.052  1.00  0.00     0.029 A 
ATOM     50  N   UNL A   1      44.903  24.298  28.887  1.00  0.00    -0.354 N 
ATOM     51  N   UNL A   1      45.637  27.727  32.051  1.00  0.00    -0.248 NA
ATOM     52  C   UNL A   1      44.564  26.388  33.657  1.00  0.00     0.031 C 
ATOM     53  C   UNL A   1      44.093  23.947  30.910  1.00  0.00     0.029 A 
ATOM     54  C   UNL A   1      44.947  24.779  30.173  1.00  0.00     0.049 A 
ATOM     55  H   UNL A   1      45.546  24.484  28.165  1.00  0.00     0.167 HD
ATOM     56  C   UNL A   1      45.746  26.404  31.714  1.00  0.00     0.074 A 
ATOM     57  C   UNL A   1      45.358  25.648  32.888  1.00  0.00     0.031 C 
ATOM     58  C   UNL A   1      45.628  26.025  30.415  1.00  0.00     0.031 A 
BRANCH  45  59
ATOM     59  C   UNL A   1      43.369  22.743  26.479  1.00  0.00    -0.014 A 
ATOM     60  C   UNL A   1      42.769  21.455  26.432  1.00  0.00     0.010 A 
ATOM     61  C   UNL A   1      44.496  22.957  25.672  1.00  0.00     0.010 A 
ATOM     62  C   UNL A   1      43.343  20.390  25.735  1.00  0.00     0.020 A 
ATOM     63  C   UNL A   1      45.062  21.892  24.936  1.00  0.00     0.020 A 
ATOM     64  C   UNL A   1      44.511  20.608  25.017  1.00  0.00     0.054 A 
BRANCH  64  65
ATOM     65  S   UNL A   1      45.325  19.166  24.270  1.00  0.00     0.124 S 
ATOM     66  O   UNL A   1      45.007  18.103  25.220  1.00  0.00    -0.237 OA
ATOM     67  O   UNL A   1      44.657  19.063  22.973  1.00  0.00    -0.237 OA
ATOM     68  O   UNL A   1      46.730  19.556  24.209  1.00  0.00    -0.744 OA
ENDBRANCH  64  65
ENDBRANCH  45  59
BRANCH  46  69
ATOM     69  C   UNL A   1      44.260  29.380  34.819  1.00  0.00    -0.014 A 
ATOM     70  C   UNL A   1      43.343  29.858  35.762  1.00  0.00     0.010 A 
ATOM     71  C   UNL A   1      45.606  29.259  35.279  1.00  0.00     0.010 A 
ATOM     72  C   UNL A   1      43.720  30.032  37.120  1.00  0.00     0.020 A 
ATOM     73  C   UNL A   1      45.977  29.369  36.620  1.00  0.00     0.020 A 
ATOM     74  C   UNL A   1      45.018  29.723  37.549  1.00  0.00     0.054 A 
BRANCH  74  75
ATOM     75  S   UNL A   1      45.423  29.620  39.318  1.00  0.00     0.124 S 
ATOM     76  O   UNL A   1      45.121  28.227  39.632  1.00  0.00    -0.237 OA
ATOM     77  O   UNL A   1      46.838  29.983  39.344  1.00  0.00    -0.237 OA
ATOM     78  O   UNL A   1      44.532  30.605  39.931  1.00  0.00    -0.744 OA
ENDBRANCH  74  75
ENDBRANCH  46  69
BRANCH  58  79
ATOM     79  C   UNL A   1      45.890  27.118  29.379  1.00  0.00    -0.014 A 
ATOM     80  C   UNL A   1      44.801  27.841  28.856  1.00  0.00     0.010 A 
ATOM     81  C   UNL A   1      47.163  27.403  28.839  1.00  0.00     0.010 A 
ATOM     82  C   UNL A   1      44.965  28.800  27.847  1.00  0.00     0.020 A 
ATOM     83  C   UNL A   1      47.341  28.370  27.827  1.00  0.00     0.020 A 
ATOM     84  C   UNL A   1      46.236  29.066  27.339  1.00  0.00     0.054 A 
BRANCH  84  85
ATOM     85  S   UNL A   1      46.405  30.338  26.049  1.00  0.00     0.124 S 
ATOM     86  O   UNL A   1      46.550  29.544  24.830  1.00  0.00    -0.237 OA
ATOM     87  O   UNL A   1      45.150  31.074  26.168  1.00  0.00    -0.237 OA
ATOM     88  O   UNL A   1      47.601  31.081  26.444  1.00  0.00    -0.744 OA
ENDBRANCH  84  85
ENDBRANCH  58  79
ENDBRANCH  32  33
ENDBRANCH  24  27
ENDBRANCH  22  23
ENDBRANCH   1  22
TORSDOF 16
ENDMDL
