MODEL 1
REMARK VINA RESULT:     -11.6      0.000      0.000
REMARK SMILES O=C(C[C@@H]1CN(C(=O)NC[C@H]2C[C@H]3CC[C@@H]2C3)CCO1)NCCCNC(=O)c1ccc(-c2c3nc(c(-c4ccc(S(=O)(=O)[O-])cc4)c4ccc([nH]4)c(-c4ccc(S(=O)(=O)[O-])cc4)c4nc(c(-c5ccc(S(=O)(=O)[O-])cc5)c5ccc2[nH]5)C=C4)C=C3)cc1
REMARK SMILES IDX 22 1 21 2 1 3 2 4 3 6 4 7 5 8 20 9 6 10 19 11 18 12 7 13
REMARK SMILES IDX 8 14 9 15 10 17 11 18 12 19 16 20 13 21 15 22 17 23 14 24
REMARK SMILES IDX 23 25 24 26 25 27 26 28 27 30 28 31 29 32 87 33 30 34 86 35
REMARK SMILES IDX 31 36 32 37 33 38 80 39 34 40 85 41 79 42 81 43 35 44 84 45
REMARK SMILES IDX 78 46 77 47 36 49 66 50 47 51 65 52 48 53 51 54 64 55 82 56
REMARK SMILES IDX 49 57 50 58 63 60 83 61 52 62 37 63 38 64 46 65 39 66 45 67
REMARK SMILES IDX 40 68 41 69 42 70 43 71 44 72 67 73 68 74 76 75 69 76 75 77
REMARK SMILES IDX 70 78 71 79 72 80 73 81 74 82 53 83 54 84 62 85 55 86 61 87
REMARK SMILES IDX 56 88 57 89 58 90 59 91 60 92
REMARK H PARENT 21 5 9 16 25 29 81 48 51 59
REMARK Flexibility Score: inf
ROOT
ATOM      1  C   UNL A   1      32.234  28.052  25.034  1.00  0.00     0.117 C 
ENDROOT
BRANCH   1   2
ATOM      2  N   UNL A   1      31.892  26.663  24.811  1.00  0.00    -0.356 N 
ATOM      3  O   UNL A   1      30.991  26.335  26.899  1.00  0.00    -0.275 OA
ATOM      4  C   UNL A   1      31.219  25.934  25.763  1.00  0.00     0.222 C 
ATOM      5  H   UNL A   1      32.146  26.233  23.963  1.00  0.00     0.163 HD
BRANCH   4   6
ATOM      6  C   UNL A   1      30.650  24.636  25.256  1.00  0.00     0.133 C 
BRANCH   6   7
ATOM      7  C   UNL A   1      31.761  23.645  24.905  1.00  0.00     0.147 C 
ATOM      8  C   UNL A   1      33.067  23.883  25.705  1.00  0.00     0.154 C 
ATOM      9  O   UNL A   1      31.996  23.781  23.484  1.00  0.00    -0.374 OA
ATOM     10  N   UNL A   1      34.120  22.991  25.224  1.00  0.00    -0.320 N 
ATOM     11  C   UNL A   1      33.042  22.906  23.030  1.00  0.00     0.182 C 
ATOM     12  C   UNL A   1      34.345  23.173  23.785  1.00  0.00     0.150 C 
BRANCH  10  13
ATOM     13  C   UNL A   1      34.802  22.001  25.845  1.00  0.00     0.317 C 
ATOM     14  O   UNL A   1      35.912  22.214  26.352  1.00  0.00    -0.249 OA
ATOM     15  N   UNL A   1      34.401  20.738  25.979  1.00  0.00    -0.338 N 
ATOM     16  H   UNL A   1      35.110  20.229  26.434  1.00  0.00     0.165 HD
BRANCH  15  17
ATOM     17  C   UNL A   1      33.289  19.833  25.695  1.00  0.00     0.121 C 
BRANCH  17  18
ATOM     18  C   UNL A   1      33.570  18.986  24.444  1.00  0.00     0.012 C 
ATOM     19  C   UNL A   1      34.927  18.236  24.468  1.00  0.00     0.009 C 
ATOM     20  C   UNL A   1      32.573  17.827  24.156  1.00  0.00    -0.006 C 
ATOM     21  C   UNL A   1      34.534  16.775  24.193  1.00  0.00    -0.011 C 
ATOM     22  C   UNL A   1      32.428  16.873  25.349  1.00  0.00     0.004 C 
ATOM     23  C   UNL A   1      33.395  16.955  23.204  1.00  0.00     0.007 C 
ATOM     24  C   UNL A   1      33.810  16.210  25.425  1.00  0.00     0.004 C 
ENDBRANCH  17  18
ENDBRANCH  15  17
ENDBRANCH  10  13
ENDBRANCH   6   7
ENDBRANCH   4   6
ENDBRANCH   1   2
BRANCH   1  25
ATOM     25  C   UNL A   1      33.667  28.284  25.481  1.00  0.00     0.042 C 
BRANCH  25  26
ATOM     26  C   UNL A   1      33.892  28.343  26.987  1.00  0.00     0.118 C 
BRANCH  26  27
ATOM     27  N   UNL A   1      33.577  29.628  27.594  1.00  0.00    -0.352 N 
ATOM     28  C   UNL A   1      34.422  30.496  28.243  1.00  0.00     0.251 C 
ATOM     29  H   UNL A   1      32.636  29.911  27.532  1.00  0.00     0.163 HD
ATOM     30  O   UNL A   1      34.033  31.587  28.649  1.00  0.00    -0.269 OA
BRANCH  28  31
ATOM     31  C   UNL A   1      35.824  30.132  28.457  1.00  0.00     0.039 A 
ATOM     32  C   UNL A   1      36.715  30.168  27.378  1.00  0.00     0.014 A 
ATOM     33  C   UNL A   1      36.231  29.718  29.723  1.00  0.00     0.014 A 
ATOM     34  C   UNL A   1      38.052  29.829  27.584  1.00  0.00     0.010 A 
ATOM     35  C   UNL A   1      37.566  29.430  29.936  1.00  0.00     0.010 A 
ATOM     36  C   UNL A   1      38.481  29.476  28.869  1.00  0.00    -0.014 A 
BRANCH  36  37
ATOM     37  C   UNL A   1      39.873  29.090  29.174  1.00  0.00     0.031 A 
ATOM     38  C   UNL A   1      40.836  30.175  29.548  1.00  0.00     0.074 A 
ATOM     39  C   UNL A   1      40.283  27.837  28.914  1.00  0.00     0.049 A 
ATOM     40  N   UNL A   1      42.138  30.187  29.472  1.00  0.00    -0.248 NA
ATOM     41  C   UNL A   1      40.239  31.440  30.013  1.00  0.00     0.031 C 
ATOM     42  C   UNL A   1      39.414  26.717  28.541  1.00  0.00     0.029 A 
ATOM     43  N   UNL A   1      41.547  27.312  28.863  1.00  0.00    -0.354 N 
ATOM     44  C   UNL A   1      42.517  31.480  29.815  1.00  0.00     0.074 A 
ATOM     45  C   UNL A   1      41.307  32.221  30.100  1.00  0.00     0.031 C 
ATOM     46  C   UNL A   1      40.176  25.645  28.270  1.00  0.00     0.029 A 
ATOM     47  C   UNL A   1      41.579  26.019  28.394  1.00  0.00     0.049 A 
ATOM     48  H   UNL A   1      42.352  27.810  29.135  1.00  0.00     0.167 HD
ATOM     49  C   UNL A   1      43.767  31.997  29.867  1.00  0.00     0.031 A 
ATOM     50  C   UNL A   1      42.628  25.246  28.058  1.00  0.00     0.031 A 
ATOM     51  C   UNL A   1      44.947  31.222  29.596  1.00  0.00     0.049 A 
ATOM     52  C   UNL A   1      44.010  25.819  28.182  1.00  0.00     0.074 A 
ATOM     53  C   UNL A   1      46.272  31.615  29.646  1.00  0.00     0.029 A 
ATOM     54  N   UNL A   1      44.938  29.880  29.240  1.00  0.00    -0.354 N 
ATOM     55  N   UNL A   1      44.363  27.045  28.495  1.00  0.00    -0.248 NA
ATOM     56  C   UNL A   1      45.134  24.913  27.916  1.00  0.00     0.031 C 
ATOM     57  C   UNL A   1      47.064  30.512  29.306  1.00  0.00     0.029 A 
ATOM     58  C   UNL A   1      46.232  29.424  29.080  1.00  0.00     0.049 A 
ATOM     59  H   UNL A   1      44.127  29.334  29.119  1.00  0.00     0.167 HD
ATOM     60  C   UNL A   1      45.751  27.050  28.493  1.00  0.00     0.074 A 
ATOM     61  C   UNL A   1      46.172  25.705  28.148  1.00  0.00     0.031 C 
ATOM     62  C   UNL A   1      46.605  28.071  28.754  1.00  0.00     0.031 A 
BRANCH  49  63
ATOM     63  C   UNL A   1      43.902  33.458  30.199  1.00  0.00    -0.014 A 
ATOM     64  C   UNL A   1      43.875  34.441  29.192  1.00  0.00     0.010 A 
ATOM     65  C   UNL A   1      44.060  33.858  31.538  1.00  0.00     0.010 A 
ATOM     66  C   UNL A   1      44.054  35.790  29.514  1.00  0.00     0.020 A 
ATOM     67  C   UNL A   1      44.213  35.209  31.866  1.00  0.00     0.020 A 
ATOM     68  C   UNL A   1      44.232  36.164  30.849  1.00  0.00     0.054 A 
BRANCH  68  69
ATOM     69  S   UNL A   1      44.459  37.921  31.244  1.00  0.00     0.124 S 
ATOM     70  O   UNL A   1      45.915  38.046  31.223  1.00  0.00    -0.237 OA
ATOM     71  O   UNL A   1      43.756  38.593  30.154  1.00  0.00    -0.237 OA
ATOM     72  O   UNL A   1      43.840  38.060  32.559  1.00  0.00    -0.744 OA
ENDBRANCH  68  69
ENDBRANCH  49  63
BRANCH  50  73
ATOM     73  C   UNL A   1      42.394  23.857  27.584  1.00  0.00    -0.014 A 
ATOM     74  C   UNL A   1      42.340  23.585  26.206  1.00  0.00     0.010 A 
ATOM     75  C   UNL A   1      42.301  22.791  28.497  1.00  0.00     0.010 A 
ATOM     76  C   UNL A   1      42.198  22.272  25.748  1.00  0.00     0.020 A 
ATOM     77  C   UNL A   1      42.179  21.474  28.041  1.00  0.00     0.020 A 
ATOM     78  C   UNL A   1      42.124  21.223  26.669  1.00  0.00     0.054 A 
BRANCH  78  79
ATOM     79  S   UNL A   1      42.036  19.519  26.050  1.00  0.00     0.124 S 
ATOM     80  O   UNL A   1      42.964  19.557  24.925  1.00  0.00    -0.237 OA
ATOM     81  O   UNL A   1      42.473  18.738  27.205  1.00  0.00    -0.237 OA
ATOM     82  O   UNL A   1      40.627  19.357  25.699  1.00  0.00    -0.744 OA
ENDBRANCH  78  79
ENDBRANCH  50  73
BRANCH  62  83
ATOM     83  C   UNL A   1      48.071  27.756  28.736  1.00  0.00    -0.014 A 
ATOM     84  C   UNL A   1      48.663  27.003  29.764  1.00  0.00     0.010 A 
ATOM     85  C   UNL A   1      48.844  28.153  27.631  1.00  0.00     0.010 A 
ATOM     86  C   UNL A   1      50.016  26.663  29.691  1.00  0.00     0.020 A 
ATOM     87  C   UNL A   1      50.191  27.800  27.548  1.00  0.00     0.020 A 
ATOM     88  C   UNL A   1      50.770  27.064  28.584  1.00  0.00     0.054 A 
BRANCH  88  89
ATOM     89  S   UNL A   1      52.508  26.556  28.477  1.00  0.00     0.124 S 
ATOM     90  O   UNL A   1      53.134  27.740  27.897  1.00  0.00    -0.237 OA
ATOM     91  O   UNL A   1      52.851  26.281  29.871  1.00  0.00    -0.237 OA
ATOM     92  O   UNL A   1      52.469  25.380  27.610  1.00  0.00    -0.744 OA
ENDBRANCH  88  89
ENDBRANCH  62  83
ENDBRANCH  36  37
ENDBRANCH  28  31
ENDBRANCH  26  27
ENDBRANCH  25  26
ENDBRANCH   1  25
TORSDOF 17
ENDMDL
MODEL 2
REMARK VINA RESULT:     -10.8      3.035      8.332
REMARK SMILES O=C(C[C@@H]1CN(C(=O)NC[C@H]2C[C@H]3CC[C@@H]2C3)CCO1)NCCCNC(=O)c1ccc(-c2c3nc(c(-c4ccc(S(=O)(=O)[O-])cc4)c4ccc([nH]4)c(-c4ccc(S(=O)(=O)[O-])cc4)c4nc(c(-c5ccc(S(=O)(=O)[O-])cc5)c5ccc2[nH]5)C=C4)C=C3)cc1
REMARK SMILES IDX 22 1 21 2 1 3 2 4 3 6 4 7 5 8 20 9 6 10 19 11 18 12 7 13
REMARK SMILES IDX 8 14 9 15 10 17 11 18 12 19 16 20 13 21 15 22 17 23 14 24
REMARK SMILES IDX 23 25 24 26 25 27 26 28 27 30 28 31 29 32 87 33 30 34 86 35
REMARK SMILES IDX 31 36 32 37 33 38 80 39 34 40 85 41 79 42 81 43 35 44 84 45
REMARK SMILES IDX 78 46 77 47 36 49 66 50 47 51 65 52 48 53 51 54 64 55 82 56
REMARK SMILES IDX 49 57 50 58 63 60 83 61 52 62 37 63 38 64 46 65 39 66 45 67
REMARK SMILES IDX 40 68 41 69 42 70 43 71 44 72 67 73 68 74 76 75 69 76 75 77
REMARK SMILES IDX 70 78 71 79 72 80 73 81 74 82 53 83 54 84 62 85 55 86 61 87
REMARK SMILES IDX 56 88 57 89 58 90 59 91 60 92
REMARK H PARENT 21 5 9 16 25 29 81 48 51 59
REMARK Flexibility Score: inf
ROOT
ATOM      1  C   UNL A   1      37.525  21.459  24.386  1.00  0.00     0.117 C 
ENDROOT
BRANCH   1   2
ATOM      2  N   UNL A   1      36.844  22.652  24.846  1.00  0.00    -0.356 N 
ATOM      3  O   UNL A   1      36.144  23.308  22.758  1.00  0.00    -0.275 OA
ATOM      4  C   UNL A   1      36.137  23.448  23.976  1.00  0.00     0.222 C 
ATOM      5  H   UNL A   1      36.890  22.898  25.798  1.00  0.00     0.163 HD
BRANCH   4   6
ATOM      6  C   UNL A   1      35.226  24.438  24.651  1.00  0.00     0.133 C 
BRANCH   6   7
ATOM      7  C   UNL A   1      33.799  23.895  24.755  1.00  0.00     0.147 C 
ATOM      8  C   UNL A   1      33.199  24.021  26.179  1.00  0.00     0.154 C 
ATOM      9  O   UNL A   1      33.859  22.509  24.343  1.00  0.00    -0.374 OA
ATOM     10  N   UNL A   1      31.896  23.365  26.234  1.00  0.00    -0.320 N 
ATOM     11  C   UNL A   1      32.571  21.875  24.415  1.00  0.00     0.182 C 
ATOM     12  C   UNL A   1      31.999  21.957  25.832  1.00  0.00     0.150 C 
BRANCH  10  13
ATOM     13  C   UNL A   1      30.659  23.857  26.478  1.00  0.00     0.317 C 
ATOM     14  O   UNL A   1      29.931  23.349  27.342  1.00  0.00    -0.249 OA
ATOM     15  N   UNL A   1      30.088  24.887  25.855  1.00  0.00    -0.338 N 
ATOM     16  H   UNL A   1      29.174  24.998  26.203  1.00  0.00     0.165 HD
BRANCH  15  17
ATOM     17  C   UNL A   1      30.327  25.911  24.840  1.00  0.00     0.121 C 
BRANCH  17  18
ATOM     18  C   UNL A   1      30.586  27.282  25.485  1.00  0.00     0.012 C 
ATOM     19  C   UNL A   1      31.432  27.230  26.784  1.00  0.00     0.009 C 
ATOM     20  C   UNL A   1      31.381  28.308  24.631  1.00  0.00    -0.006 C 
ATOM     21  C   UNL A   1      32.576  28.218  26.506  1.00  0.00    -0.011 C 
ATOM     22  C   UNL A   1      32.728  27.750  24.153  1.00  0.00     0.004 C 
ATOM     23  C   UNL A   1      31.856  29.290  25.706  1.00  0.00     0.007 C 
ATOM     24  C   UNL A   1      33.521  27.609  25.458  1.00  0.00     0.004 C 
ENDBRANCH  17  18
ENDBRANCH  15  17
ENDBRANCH  10  13
ENDBRANCH   6   7
ENDBRANCH   4   6
ENDBRANCH   1   2
BRANCH   1  25
ATOM     25  C   UNL A   1      37.985  20.529  25.497  1.00  0.00     0.042 C 
BRANCH  25  26
ATOM     26  C   UNL A   1      39.352  20.834  26.095  1.00  0.00     0.118 C 
BRANCH  26  27
ATOM     27  N   UNL A   1      40.343  19.785  25.902  1.00  0.00    -0.352 N 
ATOM     28  C   UNL A   1      41.703  19.851  26.084  1.00  0.00     0.251 C 
ATOM     29  H   UNL A   1      39.992  18.915  25.602  1.00  0.00     0.163 HD
ATOM     30  O   UNL A   1      42.418  18.862  25.951  1.00  0.00    -0.269 OA
BRANCH  28  31
ATOM     31  C   UNL A   1      42.333  21.121  26.455  1.00  0.00     0.039 A 
ATOM     32  C   UNL A   1      42.664  22.041  25.455  1.00  0.00     0.014 A 
ATOM     33  C   UNL A   1      42.626  21.365  27.795  1.00  0.00     0.014 A 
ATOM     34  C   UNL A   1      43.258  23.252  25.810  1.00  0.00     0.010 A 
ATOM     35  C   UNL A   1      43.169  22.586  28.150  1.00  0.00     0.010 A 
ATOM     36  C   UNL A   1      43.494  23.532  27.161  1.00  0.00    -0.014 A 
BRANCH  36  37
ATOM     37  C   UNL A   1      44.129  24.781  27.625  1.00  0.00     0.031 A 
ATOM     38  C   UNL A   1      43.237  25.888  28.099  1.00  0.00     0.074 A 
ATOM     39  C   UNL A   1      45.444  24.969  27.421  1.00  0.00     0.049 A 
ATOM     40  N   UNL A   1      43.474  27.167  28.172  1.00  0.00    -0.248 NA
ATOM     41  C   UNL A   1      41.869  25.497  28.486  1.00  0.00     0.031 C 
ATOM     42  C   UNL A   1      46.388  23.947  26.958  1.00  0.00     0.029 A 
ATOM     43  N   UNL A   1      46.201  26.106  27.517  1.00  0.00    -0.354 N 
ATOM     44  C   UNL A   1      42.269  27.747  28.548  1.00  0.00     0.074 A 
ATOM     45  C   UNL A   1      41.304  26.679  28.688  1.00  0.00     0.031 C 
ATOM     46  C   UNL A   1      47.593  24.514  26.781  1.00  0.00     0.029 A 
ATOM     47  C   UNL A   1      47.489  25.941  27.063  1.00  0.00     0.049 A 
ATOM     48  H   UNL A   1      45.857  26.957  27.875  1.00  0.00     0.167 HD
ATOM     49  C   UNL A   1      41.998  29.060  28.738  1.00  0.00     0.031 A 
ATOM     50  C   UNL A   1      48.456  26.852  26.853  1.00  0.00     0.031 A 
ATOM     51  C   UNL A   1      42.990  30.092  28.608  1.00  0.00     0.049 A 
ATOM     52  C   UNL A   1      48.153  28.297  27.129  1.00  0.00     0.074 A 
ATOM     53  C   UNL A   1      42.856  31.454  28.806  1.00  0.00     0.029 A 
ATOM     54  N   UNL A   1      44.316  29.864  28.261  1.00  0.00    -0.354 N 
ATOM     55  N   UNL A   1      47.009  28.841  27.473  1.00  0.00    -0.248 NA
ATOM     56  C   UNL A   1      49.264  29.247  26.998  1.00  0.00     0.031 C 
ATOM     57  C   UNL A   1      44.098  32.052  28.564  1.00  0.00     0.029 A 
ATOM     58  C   UNL A   1      45.013  31.056  28.252  1.00  0.00     0.049 A 
ATOM     59  H   UNL A   1      44.700  28.983  28.052  1.00  0.00     0.167 HD
ATOM     60  C   UNL A   1      47.268  30.197  27.629  1.00  0.00     0.074 A 
ATOM     61  C   UNL A   1      48.677  30.387  27.342  1.00  0.00     0.031 C 
ATOM     62  C   UNL A   1      46.422  31.196  27.979  1.00  0.00     0.031 A 
BRANCH  49  63
ATOM     63  C   UNL A   1      40.580  29.436  29.074  1.00  0.00    -0.014 A 
ATOM     64  C   UNL A   1      39.579  29.465  28.087  1.00  0.00     0.010 A 
ATOM     65  C   UNL A   1      40.242  29.767  30.399  1.00  0.00     0.010 A 
ATOM     66  C   UNL A   1      38.278  29.867  28.408  1.00  0.00     0.020 A 
ATOM     67  C   UNL A   1      38.936  30.144  30.729  1.00  0.00     0.020 A 
ATOM     68  C   UNL A   1      37.968  30.214  29.726  1.00  0.00     0.054 A 
BRANCH  68  69
ATOM     69  S   UNL A   1      36.273  30.730  30.120  1.00  0.00     0.124 S 
ATOM     70  O   UNL A   1      35.951  29.859  31.248  1.00  0.00    -0.237 OA
ATOM     71  O   UNL A   1      36.431  32.145  30.444  1.00  0.00    -0.237 OA
ATOM     72  O   UNL A   1      35.535  30.455  28.890  1.00  0.00    -0.744 OA
ENDBRANCH  68  69
ENDBRANCH  49  63
BRANCH  50  73
ATOM     73  C   UNL A   1      49.788  26.410  26.363  1.00  0.00    -0.014 A 
ATOM     74  C   UNL A   1      50.146  26.613  25.019  1.00  0.00     0.010 A 
ATOM     75  C   UNL A   1      50.732  25.854  27.247  1.00  0.00     0.010 A 
ATOM     76  C   UNL A   1      51.423  26.272  24.567  1.00  0.00     0.020 A 
ATOM     77  C   UNL A   1      52.018  25.530  26.801  1.00  0.00     0.020 A 
ATOM     78  C   UNL A   1      52.354  25.737  25.462  1.00  0.00     0.054 A 
BRANCH  78  79
ATOM     79  S   UNL A   1      54.036  25.390  24.875  1.00  0.00     0.124 S 
ATOM     80  O   UNL A   1      54.010  25.956  23.530  1.00  0.00    -0.237 OA
ATOM     81  O   UNL A   1      54.865  26.102  25.845  1.00  0.00    -0.237 OA
ATOM     82  O   UNL A   1      54.127  23.934  24.943  1.00  0.00    -0.744 OA
ENDBRANCH  78  79
ENDBRANCH  50  73
BRANCH  62  83
ATOM     83  C   UNL A   1      47.010  32.567  28.130  1.00  0.00    -0.014 A 
ATOM     84  C   UNL A   1      47.566  32.987  29.350  1.00  0.00     0.010 A 
ATOM     85  C   UNL A   1      47.077  33.412  27.008  1.00  0.00     0.010 A 
ATOM     86  C   UNL A   1      48.170  34.242  29.447  1.00  0.00     0.020 A 
ATOM     87  C   UNL A   1      47.694  34.659  27.099  1.00  0.00     0.020 A 
ATOM     88  C   UNL A   1      48.230  35.070  28.321  1.00  0.00     0.054 A 
BRANCH  88  89
ATOM     89  S   UNL A   1      49.078  36.667  28.452  1.00  0.00     0.124 S 
ATOM     90  O   UNL A   1      50.086  36.391  29.471  1.00  0.00    -0.237 OA
ATOM     91  O   UNL A   1      49.591  36.873  27.099  1.00  0.00    -0.237 OA
ATOM     92  O   UNL A   1      48.017  37.588  28.855  1.00  0.00    -0.744 OA
ENDBRANCH  88  89
ENDBRANCH  62  83
ENDBRANCH  36  37
ENDBRANCH  28  31
ENDBRANCH  26  27
ENDBRANCH  25  26
ENDBRANCH   1  25
TORSDOF 17
ENDMDL
MODEL 3
REMARK VINA RESULT:     -10.7      5.260      9.789
REMARK SMILES O=C(C[C@@H]1CN(C(=O)NC[C@H]2C[C@H]3CC[C@@H]2C3)CCO1)NCCCNC(=O)c1ccc(-c2c3nc(c(-c4ccc(S(=O)(=O)[O-])cc4)c4ccc([nH]4)c(-c4ccc(S(=O)(=O)[O-])cc4)c4nc(c(-c5ccc(S(=O)(=O)[O-])cc5)c5ccc2[nH]5)C=C4)C=C3)cc1
REMARK SMILES IDX 22 1 21 2 1 3 2 4 3 6 4 7 5 8 20 9 6 10 19 11 18 12 7 13
REMARK SMILES IDX 8 14 9 15 10 17 11 18 12 19 16 20 13 21 15 22 17 23 14 24
REMARK SMILES IDX 23 25 24 26 25 27 26 28 27 30 28 31 29 32 87 33 30 34 86 35
REMARK SMILES IDX 31 36 32 37 33 38 80 39 34 40 85 41 79 42 81 43 35 44 84 45
REMARK SMILES IDX 78 46 77 47 36 49 66 50 47 51 65 52 48 53 51 54 64 55 82 56
REMARK SMILES IDX 49 57 50 58 63 60 83 61 52 62 37 63 38 64 46 65 39 66 45 67
REMARK SMILES IDX 40 68 41 69 42 70 43 71 44 72 67 73 68 74 76 75 69 76 75 77
REMARK SMILES IDX 70 78 71 79 72 80 73 81 74 82 53 83 54 84 62 85 55 86 61 87
REMARK SMILES IDX 56 88 57 89 58 90 59 91 60 92
REMARK H PARENT 21 5 9 16 25 29 81 48 51 59
REMARK Flexibility Score: inf
ROOT
ATOM      1  C   UNL A   1      33.265  29.073  27.368  1.00  0.00     0.117 C 
ENDROOT
BRANCH   1   2
ATOM      2  N   UNL A   1      32.912  27.972  26.496  1.00  0.00    -0.356 N 
ATOM      3  O   UNL A   1      30.983  27.429  27.621  1.00  0.00    -0.275 OA
ATOM      4  C   UNL A   1      31.735  27.280  26.664  1.00  0.00     0.222 C 
ATOM      5  H   UNL A   1      33.524  27.715  25.771  1.00  0.00     0.163 HD
BRANCH   4   6
ATOM      6  C   UNL A   1      31.362  26.408  25.496  1.00  0.00     0.133 C 
BRANCH   6   7
ATOM      7  C   UNL A   1      31.544  24.926  25.831  1.00  0.00     0.147 C 
ATOM      8  C   UNL A   1      31.403  23.999  24.597  1.00  0.00     0.154 C 
ATOM      9  O   UNL A   1      30.547  24.608  26.830  1.00  0.00    -0.374 OA
ATOM     10  N   UNL A   1      31.453  22.599  25.013  1.00  0.00    -0.320 N 
ATOM     11  C   UNL A   1      30.602  23.226  27.219  1.00  0.00     0.182 C 
ATOM     12  C   UNL A   1      30.414  22.309  26.009  1.00  0.00     0.150 C 
BRANCH  10  13
ATOM     13  C   UNL A   1      32.333  21.613  24.720  1.00  0.00     0.317 C 
ATOM     14  O   UNL A   1      32.157  20.873  23.742  1.00  0.00    -0.249 OA
ATOM     15  N   UNL A   1      33.435  21.316  25.407  1.00  0.00    -0.338 N 
ATOM     16  H   UNL A   1      33.860  20.530  24.995  1.00  0.00     0.165 HD
BRANCH  15  17
ATOM     17  C   UNL A   1      34.241  21.735  26.552  1.00  0.00     0.121 C 
BRANCH  17  18
ATOM     18  C   UNL A   1      35.688  22.036  26.130  1.00  0.00     0.012 C 
ATOM     19  C   UNL A   1      36.070  21.506  24.724  1.00  0.00     0.009 C 
ATOM     20  C   UNL A   1      36.078  23.537  26.019  1.00  0.00    -0.006 C 
ATOM     21  C   UNL A   1      36.620  22.752  24.009  1.00  0.00    -0.011 C 
ATOM     22  C   UNL A   1      35.142  24.314  25.084  1.00  0.00     0.004 C 
ATOM     23  C   UNL A   1      37.335  23.457  25.149  1.00  0.00     0.007 C 
ATOM     24  C   UNL A   1      35.458  23.711  23.709  1.00  0.00     0.004 C 
ENDBRANCH  17  18
ENDBRANCH  15  17
ENDBRANCH  10  13
ENDBRANCH   6   7
ENDBRANCH   4   6
ENDBRANCH   1   2
BRANCH   1  25
ATOM     25  C   UNL A   1      32.764  30.431  26.903  1.00  0.00     0.042 C 
BRANCH  25  26
ATOM     26  C   UNL A   1      33.723  31.597  27.104  1.00  0.00     0.118 C 
BRANCH  26  27
ATOM     27  N   UNL A   1      33.102  32.805  27.629  1.00  0.00    -0.352 N 
ATOM     28  C   UNL A   1      33.556  33.634  28.626  1.00  0.00     0.251 C 
ATOM     29  H   UNL A   1      32.246  33.060  27.215  1.00  0.00     0.163 HD
ATOM     30  O   UNL A   1      32.961  34.666  28.924  1.00  0.00    -0.269 OA
BRANCH  28  31
ATOM     31  C   UNL A   1      34.780  33.300  29.358  1.00  0.00     0.039 A 
ATOM     32  C   UNL A   1      34.713  32.425  30.447  1.00  0.00     0.014 A 
ATOM     33  C   UNL A   1      35.980  33.896  28.977  1.00  0.00     0.014 A 
ATOM     34  C   UNL A   1      35.879  32.103  31.139  1.00  0.00     0.010 A 
ATOM     35  C   UNL A   1      37.144  33.538  29.632  1.00  0.00     0.010 A 
ATOM     36  C   UNL A   1      37.100  32.647  30.719  1.00  0.00    -0.014 A 
BRANCH  36  37
ATOM     37  C   UNL A   1      38.380  32.371  31.400  1.00  0.00     0.031 A 
ATOM     38  C   UNL A   1      39.240  31.269  30.858  1.00  0.00     0.074 A 
ATOM     39  C   UNL A   1      38.640  32.957  32.580  1.00  0.00     0.049 A 
ATOM     40  N   UNL A   1      40.163  30.571  31.456  1.00  0.00    -0.248 NA
ATOM     41  C   UNL A   1      38.973  30.863  29.466  1.00  0.00     0.031 C 
ATOM     42  C   UNL A   1      37.855  34.036  33.186  1.00  0.00     0.029 A 
ATOM     43  N   UNL A   1      39.605  32.680  33.512  1.00  0.00    -0.354 N 
ATOM     44  C   UNL A   1      40.545  29.598  30.540  1.00  0.00     0.074 A 
ATOM     45  C   UNL A   1      39.752  29.798  29.346  1.00  0.00     0.031 C 
ATOM     46  C   UNL A   1      38.353  34.309  34.403  1.00  0.00     0.029 A 
ATOM     47  C   UNL A   1      39.449  33.388  34.681  1.00  0.00     0.049 A 
ATOM     48  H   UNL A   1      40.337  32.039  33.360  1.00  0.00     0.167 HD
ATOM     49  C   UNL A   1      41.465  28.618  30.699  1.00  0.00     0.031 A 
ATOM     50  C   UNL A   1      40.090  33.269  35.858  1.00  0.00     0.031 A 
ATOM     51  C   UNL A   1      42.248  28.463  31.895  1.00  0.00     0.049 A 
ATOM     52  C   UNL A   1      41.151  32.214  35.993  1.00  0.00     0.074 A 
ATOM     53  C   UNL A   1      43.234  27.534  32.171  1.00  0.00     0.029 A 
ATOM     54  N   UNL A   1      42.139  29.280  33.012  1.00  0.00    -0.354 N 
ATOM     55  N   UNL A   1      41.500  31.289  35.128  1.00  0.00    -0.248 NA
ATOM     56  C   UNL A   1      41.907  32.187  37.250  1.00  0.00     0.031 C 
ATOM     57  C   UNL A   1      43.713  27.782  33.463  1.00  0.00     0.029 A 
ATOM     58  C   UNL A   1      43.048  28.888  33.975  1.00  0.00     0.049 A 
ATOM     59  H   UNL A   1      41.506  30.029  33.104  1.00  0.00     0.167 HD
ATOM     60  C   UNL A   1      42.538  30.586  35.725  1.00  0.00     0.074 A 
ATOM     61  C   UNL A   1      42.759  31.195  37.024  1.00  0.00     0.031 C 
ATOM     62  C   UNL A   1      43.248  29.536  35.247  1.00  0.00     0.031 A 
BRANCH  49  63
ATOM     63  C   UNL A   1      41.640  27.639  29.569  1.00  0.00    -0.014 A 
ATOM     64  C   UNL A   1      40.676  26.648  29.305  1.00  0.00     0.010 A 
ATOM     65  C   UNL A   1      42.787  27.708  28.758  1.00  0.00     0.010 A 
ATOM     66  C   UNL A   1      40.880  25.715  28.284  1.00  0.00     0.020 A 
ATOM     67  C   UNL A   1      42.982  26.792  27.719  1.00  0.00     0.020 A 
ATOM     68  C   UNL A   1      42.037  25.787  27.504  1.00  0.00     0.054 A 
BRANCH  68  69
ATOM     69  S   UNL A   1      42.280  24.567  26.182  1.00  0.00     0.124 S 
ATOM     70  O   UNL A   1      41.887  25.327  24.998  1.00  0.00    -0.237 OA
ATOM     71  O   UNL A   1      43.704  24.256  26.285  1.00  0.00    -0.237 OA
ATOM     72  O   UNL A   1      41.381  23.477  26.551  1.00  0.00    -0.744 OA
ENDBRANCH  68  69
ENDBRANCH  49  63
BRANCH  50  73
ATOM     73  C   UNL A   1      39.741  34.178  36.981  1.00  0.00    -0.014 A 
ATOM     74  C   UNL A   1      38.909  33.725  38.019  1.00  0.00     0.010 A 
ATOM     75  C   UNL A   1      40.294  35.469  37.060  1.00  0.00     0.010 A 
ATOM     76  C   UNL A   1      38.637  34.545  39.117  1.00  0.00     0.020 A 
ATOM     77  C   UNL A   1      40.040  36.284  38.168  1.00  0.00     0.020 A 
ATOM     78  C   UNL A   1      39.209  35.819  39.188  1.00  0.00     0.054 A 
BRANCH  78  79
ATOM     79  S   UNL A   1      38.919  36.828  40.668  1.00  0.00     0.124 S 
ATOM     80  O   UNL A   1      40.279  37.102  41.120  1.00  0.00    -0.237 OA
ATOM     81  O   UNL A   1      38.187  37.974  40.134  1.00  0.00    -0.237 OA
ATOM     82  O   UNL A   1      38.134  35.948  41.532  1.00  0.00    -0.744 OA
ENDBRANCH  78  79
ENDBRANCH  50  73
BRANCH  62  83
ATOM     83  C   UNL A   1      44.365  29.020  36.104  1.00  0.00    -0.014 A 
ATOM     84  C   UNL A   1      45.642  29.605  36.060  1.00  0.00     0.010 A 
ATOM     85  C   UNL A   1      44.105  27.988  37.023  1.00  0.00     0.010 A 
ATOM     86  C   UNL A   1      46.648  29.154  36.916  1.00  0.00     0.020 A 
ATOM     87  C   UNL A   1      45.103  27.547  37.891  1.00  0.00     0.020 A 
ATOM     88  C   UNL A   1      46.372  28.128  37.826  1.00  0.00     0.054 A 
BRANCH  88  89
ATOM     89  S   UNL A   1      47.672  27.602  38.975  1.00  0.00     0.124 S 
ATOM     90  O   UNL A   1      46.895  27.002  40.056  1.00  0.00    -0.237 OA
ATOM     91  O   UNL A   1      48.457  26.668  38.171  1.00  0.00    -0.237 OA
ATOM     92  O   UNL A   1      48.356  28.849  39.314  1.00  0.00    -0.744 OA
ENDBRANCH  88  89
ENDBRANCH  62  83
ENDBRANCH  36  37
ENDBRANCH  28  31
ENDBRANCH  26  27
ENDBRANCH  25  26
ENDBRANCH   1  25
TORSDOF 17
ENDMDL
