MODEL 1
REMARK VINA RESULT:     -11.7      0.000      0.000
REMARK SMILES Nc1cc(C(=O)NCCCNC(=O)c2ccc(-c3c4nc(c(-c5ccc(S(=O)(=O)[O-])cc5)c5ccc([nH]5)c(-c5ccc(S(=O)(=O)[O-])cc5)c5nc(c(-c6ccc(S(=O)(=O)[O-])cc6)c6ccc3[nH]6)C=C5)C=C4)cc2)nc2ccccc12
REMARK SMILES IDX 10 1 9 2 8 3 7 4 5 5 6 6 4 8 2 9 3 10 80 11 75 12 79 13
REMARK SMILES IDX 74 14 76 15 78 16 77 17 1 18 11 21 12 22 13 24 14 25 15 26
REMARK SMILES IDX 73 27 16 28 72 29 17 30 18 31 19 32 66 33 20 34 71 35 65 36
REMARK SMILES IDX 67 37 21 38 70 39 64 40 63 41 22 43 52 44 33 45 51 46 34 47
REMARK SMILES IDX 37 48 50 49 68 50 35 51 36 52 49 54 69 55 38 56 23 57 24 58
REMARK SMILES IDX 32 59 25 60 31 61 26 62 27 63 28 64 29 65 30 66 53 67 54 68
REMARK SMILES IDX 62 69 55 70 61 71 56 72 57 73 58 74 59 75 60 76 39 77 40 78
REMARK SMILES IDX 48 79 41 80 47 81 42 82 43 83 44 84 45 85 46 86
REMARK H PARENT 7 7 1 19 1 20 11 23 67 42 37 53
REMARK Flexibility Score: inf
ROOT
ATOM      1  C   UNL A   1      33.319  28.610  27.240  1.00  0.00     0.118 C 
ENDROOT
BRANCH   1   2
ATOM      2  C   UNL A   1      31.913  28.053  27.449  1.00  0.00     0.042 C 
BRANCH   2   3
ATOM      3  C   UNL A   1      31.457  27.133  26.318  1.00  0.00     0.118 C 
BRANCH   3   4
ATOM      4  N   UNL A   1      30.988  25.860  26.828  1.00  0.00    -0.351 N 
ATOM      5  C   UNL A   1      31.325  24.550  26.568  1.00  0.00     0.269 C 
ATOM      6  O   UNL A   1      30.734  23.708  27.249  1.00  0.00    -0.268 OA
ATOM      7  H   UNL A   1      30.279  25.951  27.506  1.00  0.00     0.163 HD
BRANCH   5   8
ATOM      8  C   UNL A   1      32.351  24.106  25.552  1.00  0.00     0.130 A 
ATOM      9  C   UNL A   1      33.099  23.263  23.426  1.00  0.00     0.043 A 
ATOM     10  C   UNL A   1      32.062  23.651  24.279  1.00  0.00     0.060 A 
ATOM     11  C   UNL A   1      34.433  23.348  23.886  1.00  0.00     0.023 A 
ATOM     12  C   UNL A   1      34.630  23.778  25.214  1.00  0.00     0.073 A 
ATOM     13  C   UNL A   1      35.566  23.012  23.106  1.00  0.00     0.012 A 
ATOM     14  N   UNL A   1      33.626  24.156  26.015  1.00  0.00    -0.242 NA
ATOM     15  C   UNL A   1      35.921  23.819  25.725  1.00  0.00     0.029 A 
ATOM     16  C   UNL A   1      36.854  23.064  23.641  1.00  0.00     0.001 A 
ATOM     17  C   UNL A   1      37.030  23.460  24.959  1.00  0.00     0.002 A 
BRANCH   9  18
ATOM     18  N   UNL A   1      32.776  22.914  22.113  1.00  0.00    -0.398 N 
ATOM     19  H   UNL A   1      31.993  22.345  21.933  1.00  0.00     0.156 HD
ATOM     20  H   UNL A   1      33.332  23.238  21.367  1.00  0.00     0.156 HD
ENDBRANCH   9  18
ENDBRANCH   5   8
ENDBRANCH   3   4
ENDBRANCH   2   3
ENDBRANCH   1   2
BRANCH   1  21
ATOM     21  N   UNL A   1      33.374  30.051  27.453  1.00  0.00    -0.352 N 
ATOM     22  C   UNL A   1      34.367  30.825  28.009  1.00  0.00     0.251 C 
ATOM     23  H   UNL A   1      32.579  30.548  27.152  1.00  0.00     0.163 HD
ATOM     24  O   UNL A   1      34.138  31.993  28.291  1.00  0.00    -0.269 OA
BRANCH  22  25
ATOM     25  C   UNL A   1      35.697  30.237  28.289  1.00  0.00     0.039 A 
ATOM     26  C   UNL A   1      35.959  29.610  29.509  1.00  0.00     0.014 A 
ATOM     27  C   UNL A   1      36.695  30.311  27.312  1.00  0.00     0.014 A 
ATOM     28  C   UNL A   1      37.255  29.209  29.814  1.00  0.00     0.010 A 
ATOM     29  C   UNL A   1      37.979  29.832  27.591  1.00  0.00     0.010 A 
ATOM     30  C   UNL A   1      38.283  29.322  28.863  1.00  0.00    -0.014 A 
BRANCH  30  31
ATOM     31  C   UNL A   1      39.665  28.917  29.229  1.00  0.00     0.031 A 
ATOM     32  C   UNL A   1      40.509  29.792  30.118  1.00  0.00     0.074 A 
ATOM     33  C   UNL A   1      40.134  27.722  28.817  1.00  0.00     0.049 A 
ATOM     34  N   UNL A   1      41.719  29.579  30.571  1.00  0.00    -0.248 NA
ATOM     35  C   UNL A   1      39.925  31.070  30.559  1.00  0.00     0.031 C 
ATOM     36  C   UNL A   1      39.395  26.774  27.980  1.00  0.00     0.029 A 
ATOM     37  N   UNL A   1      41.321  27.081  29.074  1.00  0.00    -0.354 N 
ATOM     38  C   UNL A   1      42.040  30.690  31.341  1.00  0.00     0.074 A 
ATOM     39  C   UNL A   1      40.916  31.597  31.264  1.00  0.00     0.031 C 
ATOM     40  C   UNL A   1      40.114  25.650  27.849  1.00  0.00     0.029 A 
ATOM     41  C   UNL A   1      41.393  25.819  28.532  1.00  0.00     0.049 A 
ATOM     42  H   UNL A   1      42.049  27.486  29.598  1.00  0.00     0.167 HD
ATOM     43  C   UNL A   1      43.162  30.926  32.060  1.00  0.00     0.031 A 
ATOM     44  C   UNL A   1      42.377  24.898  28.570  1.00  0.00     0.031 A 
ATOM     45  C   UNL A   1      44.274  30.014  32.139  1.00  0.00     0.049 A 
ATOM     46  C   UNL A   1      43.639  25.209  29.321  1.00  0.00     0.074 A 
ATOM     47  C   UNL A   1      45.456  30.166  32.842  1.00  0.00     0.029 A 
ATOM     48  N   UNL A   1      44.339  28.781  31.507  1.00  0.00    -0.354 N 
ATOM     49  N   UNL A   1      43.927  26.273  30.033  1.00  0.00    -0.248 NA
ATOM     50  C   UNL A   1      44.712  24.207  29.273  1.00  0.00     0.031 C 
ATOM     51  C   UNL A   1      46.262  29.053  32.587  1.00  0.00     0.029 A 
ATOM     52  C   UNL A   1      45.553  28.174  31.782  1.00  0.00     0.049 A 
ATOM     53  H   UNL A   1      43.628  28.396  30.946  1.00  0.00     0.167 HD
ATOM     54  C   UNL A   1      45.210  26.063  30.525  1.00  0.00     0.074 A 
ATOM     55  C   UNL A   1      45.635  24.763  30.048  1.00  0.00     0.031 C 
ATOM     56  C   UNL A   1      45.967  26.880  31.299  1.00  0.00     0.031 A 
BRANCH  43  57
ATOM     57  C   UNL A   1      43.261  32.218  32.831  1.00  0.00    -0.014 A 
ATOM     58  C   UNL A   1      42.754  32.293  34.142  1.00  0.00     0.010 A 
ATOM     59  C   UNL A   1      43.753  33.385  32.221  1.00  0.00     0.010 A 
ATOM     60  C   UNL A   1      42.714  33.515  34.820  1.00  0.00     0.020 A 
ATOM     61  C   UNL A   1      43.739  34.605  32.906  1.00  0.00     0.020 A 
ATOM     62  C   UNL A   1      43.200  34.666  34.193  1.00  0.00     0.054 A 
BRANCH  62  63
ATOM     63  S   UNL A   1      43.131  36.245  35.082  1.00  0.00     0.124 S 
ATOM     64  O   UNL A   1      43.363  37.212  34.014  1.00  0.00    -0.237 OA
ATOM     65  O   UNL A   1      41.783  36.237  35.647  1.00  0.00    -0.237 OA
ATOM     66  O   UNL A   1      44.207  36.129  36.066  1.00  0.00    -0.744 OA
ENDBRANCH  62  63
ENDBRANCH  43  57
BRANCH  44  67
ATOM     67  C   UNL A   1      42.178  23.593  27.881  1.00  0.00    -0.014 A 
ATOM     68  C   UNL A   1      41.432  22.569  28.496  1.00  0.00     0.010 A 
ATOM     69  C   UNL A   1      42.807  23.333  26.650  1.00  0.00     0.010 A 
ATOM     70  C   UNL A   1      41.371  21.294  27.929  1.00  0.00     0.020 A 
ATOM     71  C   UNL A   1      42.720  22.066  26.062  1.00  0.00     0.020 A 
ATOM     72  C   UNL A   1      42.030  21.047  26.722  1.00  0.00     0.054 A 
BRANCH  72  73
ATOM     73  S   UNL A   1      41.982  19.370  26.031  1.00  0.00     0.124 S 
ATOM     74  O   UNL A   1      42.535  18.581  27.128  1.00  0.00    -0.237 OA
ATOM     75  O   UNL A   1      40.559  19.172  25.768  1.00  0.00    -0.237 OA
ATOM     76  O   UNL A   1      42.824  19.468  24.841  1.00  0.00    -0.744 OA
ENDBRANCH  72  73
ENDBRANCH  44  67
BRANCH  56  77
ATOM     77  C   UNL A   1      47.344  26.415  31.688  1.00  0.00    -0.014 A 
ATOM     78  C   UNL A   1      48.414  26.569  30.786  1.00  0.00     0.010 A 
ATOM     79  C   UNL A   1      47.550  25.700  32.881  1.00  0.00     0.010 A 
ATOM     80  C   UNL A   1      49.653  25.982  31.049  1.00  0.00     0.020 A 
ATOM     81  C   UNL A   1      48.797  25.135  33.160  1.00  0.00     0.020 A 
ATOM     82  C   UNL A   1      49.832  25.256  32.229  1.00  0.00     0.054 A 
BRANCH  82  83
ATOM     83  S   UNL A   1      51.434  24.460  32.532  1.00  0.00     0.124 S 
ATOM     84  O   UNL A   1      51.625  24.689  33.960  1.00  0.00    -0.237 OA
ATOM     85  O   UNL A   1      51.184  23.074  32.144  1.00  0.00    -0.237 OA
ATOM     86  O   UNL A   1      52.349  25.189  31.654  1.00  0.00    -0.744 OA
ENDBRANCH  82  83
ENDBRANCH  56  77
ENDBRANCH  30  31
ENDBRANCH  22  25
ENDBRANCH   1  21
TORSDOF 14
ENDMDL
MODEL 2
REMARK VINA RESULT:     -11.5      2.926      9.497
REMARK SMILES Nc1cc(C(=O)NCCCNC(=O)c2ccc(-c3c4nc(c(-c5ccc(S(=O)(=O)[O-])cc5)c5ccc([nH]5)c(-c5ccc(S(=O)(=O)[O-])cc5)c5nc(c(-c6ccc(S(=O)(=O)[O-])cc6)c6ccc3[nH]6)C=C5)C=C4)cc2)nc2ccccc12
REMARK SMILES IDX 10 1 9 2 8 3 7 4 5 5 6 6 4 8 2 9 3 10 80 11 75 12 79 13
REMARK SMILES IDX 74 14 76 15 78 16 77 17 1 18 11 21 12 22 13 24 14 25 15 26
REMARK SMILES IDX 73 27 16 28 72 29 17 30 18 31 19 32 66 33 20 34 71 35 65 36
REMARK SMILES IDX 67 37 21 38 70 39 64 40 63 41 22 43 52 44 33 45 51 46 34 47
REMARK SMILES IDX 37 48 50 49 68 50 35 51 36 52 49 54 69 55 38 56 23 57 24 58
REMARK SMILES IDX 32 59 25 60 31 61 26 62 27 63 28 64 29 65 30 66 53 67 54 68
REMARK SMILES IDX 62 69 55 70 61 71 56 72 57 73 58 74 59 75 60 76 39 77 40 78
REMARK SMILES IDX 48 79 41 80 47 81 42 82 43 83 44 84 45 85 46 86
REMARK H PARENT 7 7 1 19 1 20 11 23 67 42 37 53
REMARK Flexibility Score: inf
ROOT
ATOM      1  C   UNL A   1      36.955  23.501  24.963  1.00  0.00     0.118 C 
ENDROOT
BRANCH   1   2
ATOM      2  C   UNL A   1      35.778  23.605  25.930  1.00  0.00     0.042 C 
BRANCH   2   3
ATOM      3  C   UNL A   1      34.595  24.382  25.356  1.00  0.00     0.118 C 
BRANCH   3   4
ATOM      4  N   UNL A   1      33.383  24.133  26.112  1.00  0.00    -0.351 N 
ATOM      5  C   UNL A   1      32.415  23.155  26.060  1.00  0.00     0.269 C 
ATOM      6  O   UNL A   1      31.532  23.242  26.918  1.00  0.00    -0.268 OA
ATOM      7  H   UNL A   1      33.217  24.807  26.812  1.00  0.00     0.163 HD
BRANCH   5   8
ATOM      8  C   UNL A   1      32.387  22.017  25.068  1.00  0.00     0.130 A 
ATOM      9  C   UNL A   1      32.034  21.004  22.914  1.00  0.00     0.043 A 
ATOM     10  C   UNL A   1      32.025  22.133  23.739  1.00  0.00     0.060 A 
ATOM     11  C   UNL A   1      32.418  19.759  23.461  1.00  0.00     0.023 A 
ATOM     12  C   UNL A   1      32.726  19.726  24.837  1.00  0.00     0.073 A 
ATOM     13  C   UNL A   1      32.495  18.554  22.721  1.00  0.00     0.012 A 
ATOM     14  N   UNL A   1      32.723  20.819  25.610  1.00  0.00    -0.242 NA
ATOM     15  C   UNL A   1      33.051  18.512  25.427  1.00  0.00     0.029 A 
ATOM     16  C   UNL A   1      32.828  17.346  23.336  1.00  0.00     0.001 A 
ATOM     17  C   UNL A   1      33.097  17.324  24.696  1.00  0.00     0.002 A 
BRANCH   9  18
ATOM     18  N   UNL A   1      31.768  21.180  21.554  1.00  0.00    -0.398 N 
ATOM     19  H   UNL A   1      32.508  21.334  20.924  1.00  0.00     0.156 HD
ATOM     20  H   UNL A   1      30.840  21.147  21.226  1.00  0.00     0.156 HD
ENDBRANCH   9  18
ENDBRANCH   5   8
ENDBRANCH   3   4
ENDBRANCH   2   3
ENDBRANCH   1   2
BRANCH   1  21
ATOM     21  N   UNL A   1      37.958  22.548  25.420  1.00  0.00    -0.352 N 
ATOM     22  C   UNL A   1      39.117  22.758  26.131  1.00  0.00     0.251 C 
ATOM     23  H   UNL A   1      37.779  21.609  25.183  1.00  0.00     0.163 HD
ATOM     24  O   UNL A   1      39.934  21.853  26.238  1.00  0.00    -0.269 OA
BRANCH  22  25
ATOM     25  C   UNL A   1      39.385  24.080  26.741  1.00  0.00     0.039 A 
ATOM     26  C   UNL A   1      40.044  25.079  26.022  1.00  0.00     0.014 A 
ATOM     27  C   UNL A   1      38.965  24.324  28.052  1.00  0.00     0.014 A 
ATOM     28  C   UNL A   1      40.427  26.252  26.663  1.00  0.00     0.010 A 
ATOM     29  C   UNL A   1      39.279  25.539  28.670  1.00  0.00     0.010 A 
ATOM     30  C   UNL A   1      40.058  26.494  27.996  1.00  0.00    -0.014 A 
BRANCH  30  31
ATOM     31  C   UNL A   1      40.510  27.741  28.666  1.00  0.00     0.031 A 
ATOM     32  C   UNL A   1      41.952  27.914  29.067  1.00  0.00     0.074 A 
ATOM     33  C   UNL A   1      39.634  28.748  28.847  1.00  0.00     0.049 A 
ATOM     34  N   UNL A   1      42.531  28.948  29.623  1.00  0.00    -0.248 NA
ATOM     35  C   UNL A   1      42.864  26.786  28.812  1.00  0.00     0.031 C 
ATOM     36  C   UNL A   1      38.219  28.708  28.469  1.00  0.00     0.029 A 
ATOM     37  N   UNL A   1      39.805  30.012  29.356  1.00  0.00    -0.354 N 
ATOM     38  C   UNL A   1      43.866  28.596  29.788  1.00  0.00     0.074 A 
ATOM     39  C   UNL A   1      44.006  27.239  29.310  1.00  0.00     0.031 C 
ATOM     40  C   UNL A   1      37.670  29.910  28.694  1.00  0.00     0.029 A 
ATOM     41  C   UNL A   1      38.669  30.787  29.298  1.00  0.00     0.049 A 
ATOM     42  H   UNL A   1      40.659  30.333  29.725  1.00  0.00     0.167 HD
ATOM     43  C   UNL A   1      44.883  29.342  30.276  1.00  0.00     0.031 A 
ATOM     44  C   UNL A   1      38.448  32.058  29.689  1.00  0.00     0.031 A 
ATOM     45  C   UNL A   1      44.737  30.697  30.742  1.00  0.00     0.049 A 
ATOM     46  C   UNL A   1      39.578  32.844  30.289  1.00  0.00     0.074 A 
ATOM     47  C   UNL A   1      45.711  31.535  31.256  1.00  0.00     0.029 A 
ATOM     48  N   UNL A   1      43.551  31.416  30.741  1.00  0.00    -0.354 N 
ATOM     49  N   UNL A   1      40.831  32.487  30.446  1.00  0.00    -0.248 NA
ATOM     50  C   UNL A   1      39.271  34.198  30.768  1.00  0.00     0.031 C 
ATOM     51  C   UNL A   1      45.103  32.738  31.622  1.00  0.00     0.029 A 
ATOM     52  C   UNL A   1      43.764  32.677  31.271  1.00  0.00     0.049 A 
ATOM     53  H   UNL A   1      42.686  31.078  30.413  1.00  0.00     0.167 HD
ATOM     54  C   UNL A   1      41.463  33.576  31.035  1.00  0.00     0.074 A 
ATOM     55  C   UNL A   1      40.462  34.612  31.186  1.00  0.00     0.031 C 
ATOM     56  C   UNL A   1      42.757  33.700  31.419  1.00  0.00     0.031 A 
BRANCH  43  57
ATOM     57  C   UNL A   1      46.258  28.726  30.338  1.00  0.00    -0.014 A 
ATOM     58  C   UNL A   1      47.104  28.785  29.215  1.00  0.00     0.010 A 
ATOM     59  C   UNL A   1      46.670  27.993  31.465  1.00  0.00     0.010 A 
ATOM     60  C   UNL A   1      48.324  28.103  29.207  1.00  0.00     0.020 A 
ATOM     61  C   UNL A   1      47.902  27.332  31.472  1.00  0.00     0.020 A 
ATOM     62  C   UNL A   1      48.712  27.374  30.334  1.00  0.00     0.054 A 
BRANCH  62  63
ATOM     63  S   UNL A   1      50.294  26.486  30.304  1.00  0.00     0.124 S 
ATOM     64  O   UNL A   1      50.062  25.407  31.259  1.00  0.00    -0.237 OA
ATOM     65  O   UNL A   1      50.407  26.080  28.905  1.00  0.00    -0.237 OA
ATOM     66  O   UNL A   1      51.260  27.499  30.726  1.00  0.00    -0.744 OA
ENDBRANCH  62  63
ENDBRANCH  43  57
BRANCH  44  67
ATOM     67  C   UNL A   1      37.095  32.651  29.502  1.00  0.00    -0.014 A 
ATOM     68  C   UNL A   1      36.731  33.221  28.266  1.00  0.00     0.010 A 
ATOM     69  C   UNL A   1      36.196  32.733  30.580  1.00  0.00     0.010 A 
ATOM     70  C   UNL A   1      35.527  33.914  28.130  1.00  0.00     0.020 A 
ATOM     71  C   UNL A   1      34.973  33.398  30.437  1.00  0.00     0.020 A 
ATOM     72  C   UNL A   1      34.663  34.012  29.222  1.00  0.00     0.054 A 
BRANCH  72  73
ATOM     73  S   UNL A   1      33.129  34.963  29.037  1.00  0.00     0.124 S 
ATOM     74  O   UNL A   1      32.411  34.177  28.036  1.00  0.00    -0.237 OA
ATOM     75  O   UNL A   1      32.567  34.930  30.384  1.00  0.00    -0.237 OA
ATOM     76  O   UNL A   1      33.592  36.274  28.590  1.00  0.00    -0.744 OA
ENDBRANCH  72  73
ENDBRANCH  44  67
BRANCH  56  77
ATOM     77  C   UNL A   1      43.190  34.995  32.051  1.00  0.00    -0.014 A 
ATOM     78  C   UNL A   1      42.871  35.256  33.397  1.00  0.00     0.010 A 
ATOM     79  C   UNL A   1      43.783  36.008  31.278  1.00  0.00     0.010 A 
ATOM     80  C   UNL A   1      43.098  36.520  33.947  1.00  0.00     0.020 A 
ATOM     81  C   UNL A   1      44.038  37.265  31.834  1.00  0.00     0.020 A 
ATOM     82  C   UNL A   1      43.667  37.520  33.157  1.00  0.00     0.054 A 
BRANCH  82  83
ATOM     83  S   UNL A   1      43.911  39.169  33.874  1.00  0.00     0.124 S 
ATOM     84  O   UNL A   1      44.184  38.856  35.273  1.00  0.00    -0.237 OA
ATOM     85  O   UNL A   1      45.043  39.688  33.111  1.00  0.00    -0.237 OA
ATOM     86  O   UNL A   1      42.638  39.843  33.622  1.00  0.00    -0.744 OA
ENDBRANCH  82  83
ENDBRANCH  56  77
ENDBRANCH  30  31
ENDBRANCH  22  25
ENDBRANCH   1  21
TORSDOF 14
ENDMDL
MODEL 3
REMARK VINA RESULT:     -11.4      1.956      3.165
REMARK SMILES Nc1cc(C(=O)NCCCNC(=O)c2ccc(-c3c4nc(c(-c5ccc(S(=O)(=O)[O-])cc5)c5ccc([nH]5)c(-c5ccc(S(=O)(=O)[O-])cc5)c5nc(c(-c6ccc(S(=O)(=O)[O-])cc6)c6ccc3[nH]6)C=C5)C=C4)cc2)nc2ccccc12
REMARK SMILES IDX 10 1 9 2 8 3 7 4 5 5 6 6 4 8 2 9 3 10 80 11 75 12 79 13
REMARK SMILES IDX 74 14 76 15 78 16 77 17 1 18 11 21 12 22 13 24 14 25 15 26
REMARK SMILES IDX 73 27 16 28 72 29 17 30 18 31 19 32 66 33 20 34 71 35 65 36
REMARK SMILES IDX 67 37 21 38 70 39 64 40 63 41 22 43 52 44 33 45 51 46 34 47
REMARK SMILES IDX 37 48 50 49 68 50 35 51 36 52 49 54 69 55 38 56 23 57 24 58
REMARK SMILES IDX 32 59 25 60 31 61 26 62 27 63 28 64 29 65 30 66 53 67 54 68
REMARK SMILES IDX 62 69 55 70 61 71 56 72 57 73 58 74 59 75 60 76 39 77 40 78
REMARK SMILES IDX 48 79 41 80 47 81 42 82 43 83 44 84 45 85 46 86
REMARK H PARENT 7 7 1 19 1 20 11 23 67 42 37 53
REMARK Flexibility Score: inf
ROOT
ATOM      1  C   UNL A   1      33.136  28.526  27.600  1.00  0.00     0.118 C 
ENDROOT
BRANCH   1   2
ATOM      2  C   UNL A   1      32.675  27.954  26.262  1.00  0.00     0.042 C 
BRANCH   2   3
ATOM      3  C   UNL A   1      33.730  28.068  25.163  1.00  0.00     0.118 C 
BRANCH   3   4
ATOM      4  N   UNL A   1      33.667  26.943  24.251  1.00  0.00    -0.351 N 
ATOM      5  C   UNL A   1      32.677  26.429  23.444  1.00  0.00     0.269 C 
ATOM      6  O   UNL A   1      33.011  25.465  22.749  1.00  0.00    -0.268 OA
ATOM      7  H   UNL A   1      34.513  26.440  24.197  1.00  0.00     0.163 HD
BRANCH   5   8
ATOM      8  C   UNL A   1      31.270  26.969  23.349  1.00  0.00     0.130 A 
ATOM      9  C   UNL A   1      28.880  26.901  23.622  1.00  0.00     0.043 A 
ATOM     10  C   UNL A   1      30.134  26.299  23.764  1.00  0.00     0.060 A 
ATOM     11  C   UNL A   1      28.801  28.194  23.054  1.00  0.00     0.023 A 
ATOM     12  C   UNL A   1      30.006  28.780  22.617  1.00  0.00     0.073 A 
ATOM     13  C   UNL A   1      27.594  28.916  22.886  1.00  0.00     0.012 A 
ATOM     14  N   UNL A   1      31.200  28.194  22.770  1.00  0.00    -0.242 NA
ATOM     15  C   UNL A   1      29.965  30.023  21.999  1.00  0.00     0.029 A 
ATOM     16  C   UNL A   1      27.580  30.166  22.266  1.00  0.00     0.001 A 
ATOM     17  C   UNL A   1      28.769  30.716  21.812  1.00  0.00     0.002 A 
BRANCH   9  18
ATOM     18  N   UNL A   1      27.769  26.242  24.152  1.00  0.00    -0.398 N 
ATOM     19  H   UNL A   1      27.444  25.411  23.736  1.00  0.00     0.156 HD
ATOM     20  H   UNL A   1      27.311  26.608  24.944  1.00  0.00     0.156 HD
ENDBRANCH   9  18
ENDBRANCH   5   8
ENDBRANCH   3   4
ENDBRANCH   2   3
ENDBRANCH   1   2
BRANCH   1  21
ATOM     21  N   UNL A   1      33.236  29.980  27.570  1.00  0.00    -0.352 N 
ATOM     22  C   UNL A   1      34.279  30.802  27.929  1.00  0.00     0.251 C 
ATOM     23  H   UNL A   1      32.432  30.446  27.241  1.00  0.00     0.163 HD
ATOM     24  O   UNL A   1      34.093  32.008  28.028  1.00  0.00    -0.269 OA
BRANCH  22  25
ATOM     25  C   UNL A   1      35.612  30.227  28.220  1.00  0.00     0.039 A 
ATOM     26  C   UNL A   1      35.911  29.720  29.485  1.00  0.00     0.014 A 
ATOM     27  C   UNL A   1      36.574  30.190  27.206  1.00  0.00     0.014 A 
ATOM     28  C   UNL A   1      37.213  29.333  29.784  1.00  0.00     0.010 A 
ATOM     29  C   UNL A   1      37.863  29.722  27.486  1.00  0.00     0.010 A 
ATOM     30  C   UNL A   1      38.207  29.337  28.791  1.00  0.00    -0.014 A 
BRANCH  30  31
ATOM     31  C   UNL A   1      39.597  28.950  29.147  1.00  0.00     0.031 A 
ATOM     32  C   UNL A   1      40.442  29.847  30.014  1.00  0.00     0.074 A 
ATOM     33  C   UNL A   1      40.073  27.755  28.747  1.00  0.00     0.049 A 
ATOM     34  N   UNL A   1      41.658  29.652  30.457  1.00  0.00    -0.248 NA
ATOM     35  C   UNL A   1      39.850  31.125  30.443  1.00  0.00     0.031 C 
ATOM     36  C   UNL A   1      39.334  26.788  27.931  1.00  0.00     0.029 A 
ATOM     37  N   UNL A   1      41.269  27.129  29.000  1.00  0.00    -0.354 N 
ATOM     38  C   UNL A   1      41.977  30.778  31.207  1.00  0.00     0.074 A 
ATOM     39  C   UNL A   1      40.844  31.672  31.130  1.00  0.00     0.031 C 
ATOM     40  C   UNL A   1      40.062  25.669  27.809  1.00  0.00     0.029 A 
ATOM     41  C   UNL A   1      41.348  25.860  28.475  1.00  0.00     0.049 A 
ATOM     42  H   UNL A   1      41.999  27.549  29.509  1.00  0.00     0.167 HD
ATOM     43  C   UNL A   1      43.105  31.034  31.910  1.00  0.00     0.031 A 
ATOM     44  C   UNL A   1      42.341  24.949  28.515  1.00  0.00     0.031 A 
ATOM     45  C   UNL A   1      44.226  30.135  31.989  1.00  0.00     0.049 A 
ATOM     46  C   UNL A   1      43.609  25.284  29.247  1.00  0.00     0.074 A 
ATOM     47  C   UNL A   1      45.415  30.308  32.676  1.00  0.00     0.029 A 
ATOM     48  N   UNL A   1      44.297  28.893  31.374  1.00  0.00    -0.354 N 
ATOM     49  N   UNL A   1      43.894  26.361  29.941  1.00  0.00    -0.248 NA
ATOM     50  C   UNL A   1      44.691  24.291  29.201  1.00  0.00     0.031 C 
ATOM     51  C   UNL A   1      46.229  29.200  32.428  1.00  0.00     0.029 A 
ATOM     52  C   UNL A   1      45.520  28.303  31.644  1.00  0.00     0.049 A 
ATOM     53  H   UNL A   1      43.584  28.493  30.826  1.00  0.00     0.167 HD
ATOM     54  C   UNL A   1      45.184  26.170  30.421  1.00  0.00     0.074 A 
ATOM     55  C   UNL A   1      45.617  24.868  29.958  1.00  0.00     0.031 C 
ATOM     56  C   UNL A   1      45.941  27.006  31.174  1.00  0.00     0.031 A 
BRANCH  43  57
ATOM     57  C   UNL A   1      43.199  32.338  32.661  1.00  0.00    -0.014 A 
ATOM     58  C   UNL A   1      42.664  32.441  33.958  1.00  0.00     0.010 A 
ATOM     59  C   UNL A   1      43.717  33.490  32.043  1.00  0.00     0.010 A 
ATOM     60  C   UNL A   1      42.620  33.675  34.614  1.00  0.00     0.020 A 
ATOM     61  C   UNL A   1      43.701  34.722  32.706  1.00  0.00     0.020 A 
ATOM     62  C   UNL A   1      43.133  34.809  33.980  1.00  0.00     0.054 A 
BRANCH  62  63
ATOM     63  S   UNL A   1      43.060  36.405  34.841  1.00  0.00     0.124 S 
ATOM     64  O   UNL A   1      43.448  37.341  33.791  1.00  0.00    -0.237 OA
ATOM     65  O   UNL A   1      41.664  36.475  35.267  1.00  0.00    -0.237 OA
ATOM     66  O   UNL A   1      44.024  36.248  35.929  1.00  0.00    -0.744 OA
ENDBRANCH  62  63
ENDBRANCH  43  57
BRANCH  44  67
ATOM     67  C   UNL A   1      42.147  23.633  27.847  1.00  0.00    -0.014 A 
ATOM     68  C   UNL A   1      41.432  22.605  28.491  1.00  0.00     0.010 A 
ATOM     69  C   UNL A   1      42.753  23.366  26.606  1.00  0.00     0.010 A 
ATOM     70  C   UNL A   1      41.378  21.323  27.941  1.00  0.00     0.020 A 
ATOM     71  C   UNL A   1      42.672  22.092  26.035  1.00  0.00     0.020 A 
ATOM     72  C   UNL A   1      42.013  21.071  26.723  1.00  0.00     0.054 A 
BRANCH  72  73
ATOM     73  S   UNL A   1      41.977  19.384  26.054  1.00  0.00     0.124 S 
ATOM     74  O   UNL A   1      40.565  19.232  25.711  1.00  0.00    -0.237 OA
ATOM     75  O   UNL A   1      42.894  19.469  24.922  1.00  0.00    -0.237 OA
ATOM     76  O   UNL A   1      42.443  18.565  27.170  1.00  0.00    -0.744 OA
ENDBRANCH  72  73
ENDBRANCH  44  67
BRANCH  56  77
ATOM     77  C   UNL A   1      47.327  26.560  31.554  1.00  0.00    -0.014 A 
ATOM     78  C   UNL A   1      48.386  26.716  30.640  1.00  0.00     0.010 A 
ATOM     79  C   UNL A   1      47.553  25.861  32.753  1.00  0.00     0.010 A 
ATOM     80  C   UNL A   1      49.634  26.144  30.897  1.00  0.00     0.020 A 
ATOM     81  C   UNL A   1      48.809  25.312  33.026  1.00  0.00     0.020 A 
ATOM     82  C   UNL A   1      49.833  25.433  32.083  1.00  0.00     0.054 A 
BRANCH  82  83
ATOM     83  S   UNL A   1      51.446  24.658  32.378  1.00  0.00     0.124 S 
ATOM     84  O   UNL A   1      52.316  25.408  31.476  1.00  0.00    -0.237 OA
ATOM     85  O   UNL A   1      51.662  24.895  33.803  1.00  0.00    -0.237 OA
ATOM     86  O   UNL A   1      51.225  23.259  32.013  1.00  0.00    -0.744 OA
ENDBRANCH  82  83
ENDBRANCH  56  77
ENDBRANCH  30  31
ENDBRANCH  22  25
ENDBRANCH   1  21
TORSDOF 14
ENDMDL
