MODEL 1
REMARK VINA RESULT:     -12.8      0.000      0.000
REMARK SMILES O=C(NCCCNC(=O)[C@@H]1C[C@@H]1C(=O)N1CCN(c2ncc(C(F)(F)F)cc2Cl)CC1)c1ccc(-c2c3nc(c(-c4ccc(S(=O)(=O)[O-])cc4)c4ccc([nH]4)c(-c4ccc(S(=O)(=O)[O-])cc4)c4nc(c(-c5ccc(S(=O)(=O)[O-])cc5)c5ccc2[nH]5)C=C4)C=C3)cc1
REMARK SMILES IDX 5 1 4 2 3 3 1 4 2 5 32 7 33 8 91 9 34 10 90 11 35 12 36 13
REMARK SMILES IDX 37 14 84 15 38 16 89 17 83 18 85 19 39 20 88 21 82 22 81 23
REMARK SMILES IDX 40 25 70 26 51 27 69 28 52 29 55 30 68 31 86 32 53 33 54 34
REMARK SMILES IDX 67 36 87 37 56 38 41 39 42 40 50 41 43 42 49 43 44 44 45 45
REMARK SMILES IDX 46 46 47 47 48 48 71 49 72 50 80 51 73 52 79 53 74 54 75 55
REMARK SMILES IDX 76 56 77 57 78 58 57 59 58 60 66 61 59 62 65 63 60 64 61 65
REMARK SMILES IDX 62 66 63 67 64 68 6 69 7 70 8 71 9 73 10 74 11 75 12 76
REMARK SMILES IDX 13 77 14 78 15 79 16 80 31 81 17 82 30 83 18 84 19 85 20 86
REMARK SMILES IDX 28 87 21 88 27 89 29 90 22 91 23 92 24 93 25 94 26 95
REMARK H PARENT 3 6 85 24 55 35 7 72
REMARK Flexibility Score: inf
ROOT
ATOM      1  C   UNL A   1      34.809  31.309  27.638  1.00  0.00     0.042 C 
ENDROOT
BRANCH   1   2
ATOM      2  C   UNL A   1      35.843  31.479  28.743  1.00  0.00     0.118 C 
BRANCH   2   3
ATOM      3  N   UNL A   1      35.820  30.537  29.858  1.00  0.00    -0.352 N 
ATOM      4  O   UNL A   1      36.559  29.065  31.392  1.00  0.00    -0.269 OA
ATOM      5  C   UNL A   1      36.796  29.700  30.366  1.00  0.00     0.251 C 
ATOM      6  H   UNL A   1      34.957  30.490  30.331  1.00  0.00     0.163 HD
BRANCH   5   7
ATOM      7  C   UNL A   1      38.094  29.503  29.683  1.00  0.00     0.039 A 
ATOM      8  C   UNL A   1      39.254  29.296  30.413  1.00  0.00     0.014 A 
ATOM      9  C   UNL A   1      38.157  29.485  28.280  1.00  0.00     0.014 A 
ATOM     10  C   UNL A   1      40.481  29.302  29.778  1.00  0.00     0.010 A 
ATOM     11  C   UNL A   1      39.387  29.309  27.627  1.00  0.00     0.010 A 
ATOM     12  C   UNL A   1      40.567  29.240  28.376  1.00  0.00    -0.014 A 
BRANCH  12  13
ATOM     13  C   UNL A   1      41.915  28.966  27.811  1.00  0.00     0.031 A 
ATOM     14  C   UNL A   1      43.018  29.980  27.844  1.00  0.00     0.074 A 
ATOM     15  C   UNL A   1      42.161  27.693  27.428  1.00  0.00     0.049 A 
ATOM     16  N   UNL A   1      44.296  29.796  27.630  1.00  0.00    -0.248 NA
ATOM     17  C   UNL A   1      42.655  31.373  28.141  1.00  0.00     0.031 C 
ATOM     18  C   UNL A   1      41.143  26.638  27.331  1.00  0.00     0.029 A 
ATOM     19  N   UNL A   1      43.334  27.039  27.157  1.00  0.00    -0.354 N 
ATOM     20  C   UNL A   1      44.889  31.046  27.756  1.00  0.00     0.074 A 
ATOM     21  C   UNL A   1      43.827  31.987  28.039  1.00  0.00     0.031 C 
ATOM     22  C   UNL A   1      41.747  25.455  27.172  1.00  0.00     0.029 A 
ATOM     23  C   UNL A   1      43.181  25.674  27.051  1.00  0.00     0.049 A 
ATOM     24  H   UNL A   1      44.199  27.498  27.049  1.00  0.00     0.167 HD
ATOM     25  C   UNL A   1      46.202  31.370  27.649  1.00  0.00     0.031 A 
ATOM     26  C   UNL A   1      44.092  24.698  26.880  1.00  0.00     0.031 A 
ATOM     27  C   UNL A   1      47.244  30.417  27.358  1.00  0.00     0.049 A 
ATOM     28  C   UNL A   1      45.536  25.085  26.788  1.00  0.00     0.074 A 
ATOM     29  C   UNL A   1      48.602  30.644  27.209  1.00  0.00     0.029 A 
ATOM     30  N   UNL A   1      47.047  29.055  27.179  1.00  0.00    -0.354 N 
ATOM     31  N   UNL A   1      46.076  26.275  26.914  1.00  0.00    -0.248 NA
ATOM     32  C   UNL A   1      46.494  24.007  26.516  1.00  0.00     0.031 C 
ATOM     33  C   UNL A   1      49.218  29.426  26.896  1.00  0.00     0.029 A 
ATOM     34  C   UNL A   1      48.254  28.431  26.907  1.00  0.00     0.049 A 
ATOM     35  H   UNL A   1      46.176  28.599  27.238  1.00  0.00     0.167 HD
ATOM     36  C   UNL A   1      47.437  26.092  26.723  1.00  0.00     0.074 A 
ATOM     37  C   UNL A   1      47.642  24.669  26.526  1.00  0.00     0.031 C 
ATOM     38  C   UNL A   1      48.428  27.017  26.691  1.00  0.00     0.031 A 
BRANCH  25  39
ATOM     39  C   UNL A   1      46.583  32.818  27.823  1.00  0.00    -0.014 A 
ATOM     40  C   UNL A   1      46.945  33.328  29.083  1.00  0.00     0.010 A 
ATOM     41  C   UNL A   1      46.635  33.668  26.703  1.00  0.00     0.010 A 
ATOM     42  C   UNL A   1      47.325  34.668  29.223  1.00  0.00     0.020 A 
ATOM     43  C   UNL A   1      47.038  35.001  26.834  1.00  0.00     0.020 A 
ATOM     44  C   UNL A   1      47.369  35.496  28.097  1.00  0.00     0.054 A 
BRANCH  44  45
ATOM     45  S   UNL A   1      47.898  37.220  28.303  1.00  0.00     0.124 S 
ATOM     46  O   UNL A   1      46.698  37.838  28.861  1.00  0.00    -0.237 OA
ATOM     47  O   UNL A   1      49.028  37.101  29.221  1.00  0.00    -0.237 OA
ATOM     48  O   UNL A   1      48.241  37.642  26.948  1.00  0.00    -0.744 OA
ENDBRANCH  44  45
ENDBRANCH  25  39
BRANCH  26  49
ATOM     49  C   UNL A   1      43.648  23.283  26.739  1.00  0.00    -0.014 A 
ATOM     50  C   UNL A   1      43.157  22.552  27.834  1.00  0.00     0.010 A 
ATOM     51  C   UNL A   1      43.704  22.662  25.476  1.00  0.00     0.010 A 
ATOM     52  C   UNL A   1      42.749  21.222  27.672  1.00  0.00     0.020 A 
ATOM     53  C   UNL A   1      43.262  21.350  25.302  1.00  0.00     0.020 A 
ATOM     54  C   UNL A   1      42.804  20.631  26.406  1.00  0.00     0.054 A 
BRANCH  54  55
ATOM     55  S   UNL A   1      42.234  18.922  26.200  1.00  0.00     0.124 S 
ATOM     56  O   UNL A   1      40.861  19.116  25.746  1.00  0.00    -0.237 OA
ATOM     57  O   UNL A   1      43.164  18.393  25.205  1.00  0.00    -0.237 OA
ATOM     58  O   UNL A   1      42.378  18.352  27.538  1.00  0.00    -0.744 OA
ENDBRANCH  54  55
ENDBRANCH  26  49
BRANCH  38  59
ATOM     59  C   UNL A   1      49.816  26.503  26.431  1.00  0.00    -0.014 A 
ATOM     60  C   UNL A   1      50.333  26.450  25.123  1.00  0.00     0.010 A 
ATOM     61  C   UNL A   1      50.612  26.069  27.505  1.00  0.00     0.010 A 
ATOM     62  C   UNL A   1      51.604  25.923  24.888  1.00  0.00     0.020 A 
ATOM     63  C   UNL A   1      51.896  25.568  27.276  1.00  0.00     0.020 A 
ATOM     64  C   UNL A   1      52.375  25.479  25.967  1.00  0.00     0.054 A 
BRANCH  64  65
ATOM     65  S   UNL A   1      54.026  24.804  25.639  1.00  0.00     0.124 S 
ATOM     66  O   UNL A   1      53.716  23.443  25.208  1.00  0.00    -0.237 OA
ATOM     67  O   UNL A   1      54.536  25.692  24.598  1.00  0.00    -0.237 OA
ATOM     68  O   UNL A   1      54.704  24.911  26.929  1.00  0.00    -0.744 OA
ENDBRANCH  64  65
ENDBRANCH  38  59
ENDBRANCH  12  13
ENDBRANCH   5   7
ENDBRANCH   2   3
ENDBRANCH   1   2
BRANCH   1  69
ATOM     69  C   UNL A   1      34.253  29.915  27.422  1.00  0.00     0.117 C 
BRANCH  69  70
ATOM     70  N   UNL A   1      33.943  29.679  26.031  1.00  0.00    -0.356 N 
ATOM     71  C   UNL A   1      33.005  28.969  25.347  1.00  0.00     0.223 C 
ATOM     72  H   UNL A   1      34.564  30.148  25.428  1.00  0.00     0.163 HD
ATOM     73  O   UNL A   1      33.056  29.091  24.120  1.00  0.00    -0.275 OA
BRANCH  71  74
ATOM     74  C   UNL A   1      31.900  28.126  25.874  1.00  0.00     0.091 C 
ATOM     75  C   UNL A   1      32.297  26.831  26.554  1.00  0.00     0.028 C 
ATOM     76  C   UNL A   1      31.184  26.838  25.549  1.00  0.00     0.092 C 
BRANCH  76  77
ATOM     77  C   UNL A   1      31.243  26.170  24.243  1.00  0.00     0.226 C 
ATOM     78  O   UNL A   1      31.122  26.849  23.235  1.00  0.00    -0.275 OA
ATOM     79  N   UNL A   1      31.450  24.807  24.234  1.00  0.00    -0.339 N 
ATOM     80  C   UNL A   1      32.161  24.205  23.111  1.00  0.00     0.141 C 
ATOM     81  C   UNL A   1      30.931  23.846  25.218  1.00  0.00     0.141 C 
ATOM     82  C   UNL A   1      33.352  23.419  23.672  1.00  0.00     0.139 C 
ATOM     83  C   UNL A   1      31.960  22.770  25.659  1.00  0.00     0.139 C 
ATOM     84  N   UNL A   1      32.847  22.390  24.569  1.00  0.00    -0.352 N 
BRANCH  84  85
ATOM     85  C   UNL A   1      33.269  21.118  24.282  1.00  0.00     0.147 A 
ATOM     86  N   UNL A   1      32.362  20.316  23.672  1.00  0.00    -0.237 NA
ATOM     87  C   UNL A   1      34.454  20.592  24.817  1.00  0.00     0.084 A 
ATOM     88  C   UNL A   1      32.602  18.985  23.630  1.00  0.00     0.126 A 
ATOM     89  C   UNL A   1      34.679  19.217  24.759  1.00  0.00     0.039 A 
ATOM     90  Cl  UNL A   1      35.605  21.570  25.654  1.00  0.00    -0.080 Cl
ATOM     91  C   UNL A   1      33.729  18.385  24.166  1.00  0.00     0.075 A 
BRANCH  91  92
ATOM     92  C   UNL A   1      33.877  16.898  24.108  1.00  0.00     0.417 C 
ATOM     93  F   UNL A   1      34.293  16.453  22.892  1.00  0.00    -0.166 F 
ATOM     94  F   UNL A   1      34.791  16.435  25.006  1.00  0.00    -0.166 F 
ATOM     95  F   UNL A   1      32.723  16.228  24.378  1.00  0.00    -0.166 F 
ENDBRANCH  91  92
ENDBRANCH  84  85
ENDBRANCH  76  77
ENDBRANCH  71  74
ENDBRANCH  69  70
ENDBRANCH   1  69
TORSDOF 16
ENDMDL
MODEL 2
REMARK VINA RESULT:     -12.4      1.952      8.305
REMARK SMILES O=C(NCCCNC(=O)[C@@H]1C[C@@H]1C(=O)N1CCN(c2ncc(C(F)(F)F)cc2Cl)CC1)c1ccc(-c2c3nc(c(-c4ccc(S(=O)(=O)[O-])cc4)c4ccc([nH]4)c(-c4ccc(S(=O)(=O)[O-])cc4)c4nc(c(-c5ccc(S(=O)(=O)[O-])cc5)c5ccc2[nH]5)C=C4)C=C3)cc1
REMARK SMILES IDX 5 1 4 2 3 3 1 4 2 5 32 7 33 8 91 9 34 10 90 11 35 12 36 13
REMARK SMILES IDX 37 14 84 15 38 16 89 17 83 18 85 19 39 20 88 21 82 22 81 23
REMARK SMILES IDX 40 25 70 26 51 27 69 28 52 29 55 30 68 31 86 32 53 33 54 34
REMARK SMILES IDX 67 36 87 37 56 38 41 39 42 40 50 41 43 42 49 43 44 44 45 45
REMARK SMILES IDX 46 46 47 47 48 48 71 49 72 50 80 51 73 52 79 53 74 54 75 55
REMARK SMILES IDX 76 56 77 57 78 58 57 59 58 60 66 61 59 62 65 63 60 64 61 65
REMARK SMILES IDX 62 66 63 67 64 68 6 69 7 70 8 71 9 73 10 74 11 75 12 76
REMARK SMILES IDX 13 77 14 78 15 79 16 80 31 81 17 82 30 83 18 84 19 85 20 86
REMARK SMILES IDX 28 87 21 88 27 89 29 90 22 91 23 92 24 93 25 94 26 95
REMARK H PARENT 3 6 85 24 55 35 7 72
REMARK Flexibility Score: inf
ROOT
ATOM      1  C   UNL A   1      32.911  27.788  26.539  1.00  0.00     0.042 C 
ENDROOT
BRANCH   1   2
ATOM      2  C   UNL A   1      34.145  28.605  26.899  1.00  0.00     0.118 C 
BRANCH   2   3
ATOM      3  N   UNL A   1      33.958  29.836  27.659  1.00  0.00    -0.352 N 
ATOM      4  O   UNL A   1      34.465  31.677  28.851  1.00  0.00    -0.269 OA
ATOM      5  C   UNL A   1      34.852  30.613  28.371  1.00  0.00     0.251 C 
ATOM      6  H   UNL A   1      33.032  30.171  27.666  1.00  0.00     0.163 HD
BRANCH   5   7
ATOM      7  C   UNL A   1      36.244  30.178  28.623  1.00  0.00     0.039 A 
ATOM      8  C   UNL A   1      37.213  30.298  27.638  1.00  0.00     0.014 A 
ATOM      9  C   UNL A   1      36.608  29.671  29.881  1.00  0.00     0.014 A 
ATOM     10  C   UNL A   1      38.454  29.717  27.814  1.00  0.00     0.010 A 
ATOM     11  C   UNL A   1      37.924  29.245  30.120  1.00  0.00     0.010 A 
ATOM     12  C   UNL A   1      38.855  29.243  29.075  1.00  0.00    -0.014 A 
BRANCH  12  13
ATOM     13  C   UNL A   1      40.296  28.905  29.223  1.00  0.00     0.031 A 
ATOM     14  C   UNL A   1      40.860  27.595  28.764  1.00  0.00     0.074 A 
ATOM     15  C   UNL A   1      41.112  29.904  29.625  1.00  0.00     0.049 A 
ATOM     16  N   UNL A   1      42.116  27.267  28.593  1.00  0.00    -0.248 NA
ATOM     17  C   UNL A   1      39.913  26.509  28.470  1.00  0.00     0.031 C 
ATOM     18  C   UNL A   1      40.655  31.209  30.121  1.00  0.00     0.029 A 
ATOM     19  N   UNL A   1      42.476  30.032  29.580  1.00  0.00    -0.354 N 
ATOM     20  C   UNL A   1      42.113  25.941  28.181  1.00  0.00     0.074 A 
ATOM     21  C   UNL A   1      40.731  25.512  28.154  1.00  0.00     0.031 C 
ATOM     22  C   UNL A   1      41.697  32.044  30.192  1.00  0.00     0.029 A 
ATOM     23  C   UNL A   1      42.908  31.313  29.849  1.00  0.00     0.049 A 
ATOM     24  H   UNL A   1      43.085  29.285  29.378  1.00  0.00     0.167 HD
ATOM     25  C   UNL A   1      43.171  25.159  27.852  1.00  0.00     0.031 A 
ATOM     26  C   UNL A   1      44.143  31.848  29.819  1.00  0.00     0.031 A 
ATOM     27  C   UNL A   1      44.543  25.602  27.894  1.00  0.00     0.049 A 
ATOM     28  C   UNL A   1      45.289  30.964  29.431  1.00  0.00     0.074 A 
ATOM     29  C   UNL A   1      45.690  24.884  27.601  1.00  0.00     0.029 A 
ATOM     30  N   UNL A   1      44.953  26.881  28.245  1.00  0.00    -0.354 N 
ATOM     31  N   UNL A   1      45.262  29.712  29.040  1.00  0.00    -0.248 NA
ATOM     32  C   UNL A   1      46.630  31.556  29.491  1.00  0.00     0.031 C 
ATOM     33  C   UNL A   1      46.794  25.717  27.817  1.00  0.00     0.029 A 
ATOM     34  C   UNL A   1      46.335  26.969  28.190  1.00  0.00     0.049 A 
ATOM     35  H   UNL A   1      44.350  27.617  28.496  1.00  0.00     0.167 HD
ATOM     36  C   UNL A   1      46.586  29.359  28.822  1.00  0.00     0.074 A 
ATOM     37  C   UNL A   1      47.380  30.547  29.072  1.00  0.00     0.031 C 
ATOM     38  C   UNL A   1      47.102  28.157  28.467  1.00  0.00     0.031 A 
BRANCH  25  39
ATOM     39  C   UNL A   1      42.891  23.735  27.442  1.00  0.00    -0.014 A 
ATOM     40  C   UNL A   1      42.586  22.750  28.398  1.00  0.00     0.010 A 
ATOM     41  C   UNL A   1      42.877  23.389  26.078  1.00  0.00     0.010 A 
ATOM     42  C   UNL A   1      42.300  21.439  27.999  1.00  0.00     0.020 A 
ATOM     43  C   UNL A   1      42.567  22.087  25.674  1.00  0.00     0.020 A 
ATOM     44  C   UNL A   1      42.293  21.116  26.639  1.00  0.00     0.054 A 
BRANCH  44  45
ATOM     45  S   UNL A   1      41.885  19.417  26.149  1.00  0.00     0.124 S 
ATOM     46  O   UNL A   1      42.712  19.239  24.959  1.00  0.00    -0.237 OA
ATOM     47  O   UNL A   1      42.290  18.640  27.317  1.00  0.00    -0.237 OA
ATOM     48  O   UNL A   1      40.445  19.462  25.904  1.00  0.00    -0.744 OA
ENDBRANCH  44  45
ENDBRANCH  25  39
BRANCH  26  49
ATOM     49  C   UNL A   1      44.347  33.269  30.214  1.00  0.00    -0.014 A 
ATOM     50  C   UNL A   1      44.547  33.640  31.555  1.00  0.00     0.010 A 
ATOM     51  C   UNL A   1      44.358  34.269  29.222  1.00  0.00     0.010 A 
ATOM     52  C   UNL A   1      44.733  34.985  31.897  1.00  0.00     0.020 A 
ATOM     53  C   UNL A   1      44.582  35.606  29.554  1.00  0.00     0.020 A 
ATOM     54  C   UNL A   1      44.750  35.959  30.893  1.00  0.00     0.054 A 
BRANCH  54  55
ATOM     55  S   UNL A   1      45.033  37.692  31.344  1.00  0.00     0.124 S 
ATOM     56  O   UNL A   1      43.692  38.255  31.233  1.00  0.00    -0.237 OA
ATOM     57  O   UNL A   1      45.567  37.587  32.699  1.00  0.00    -0.237 OA
ATOM     58  O   UNL A   1      45.991  38.152  30.341  1.00  0.00    -0.744 OA
ENDBRANCH  54  55
ENDBRANCH  26  49
BRANCH  38  59
ATOM     59  C   UNL A   1      48.598  28.083  28.335  1.00  0.00    -0.014 A 
ATOM     60  C   UNL A   1      49.229  28.350  27.106  1.00  0.00     0.010 A 
ATOM     61  C   UNL A   1      49.381  27.746  29.452  1.00  0.00     0.010 A 
ATOM     62  C   UNL A   1      50.614  28.228  26.983  1.00  0.00     0.020 A 
ATOM     63  C   UNL A   1      50.771  27.652  29.340  1.00  0.00     0.020 A 
ATOM     64  C   UNL A   1      51.375  27.873  28.101  1.00  0.00     0.054 A 
BRANCH  64  65
ATOM     65  S   UNL A   1      53.174  27.728  27.920  1.00  0.00     0.124 S 
ATOM     66  O   UNL A   1      53.642  28.087  29.257  1.00  0.00    -0.237 OA
ATOM     67  O   UNL A   1      53.348  26.326  27.549  1.00  0.00    -0.237 OA
ATOM     68  O   UNL A   1      53.494  28.689  26.868  1.00  0.00    -0.744 OA
ENDBRANCH  64  65
ENDBRANCH  38  59
ENDBRANCH  12  13
ENDBRANCH   5   7
ENDBRANCH   2   3
ENDBRANCH   1   2
BRANCH   1  69
ATOM     69  C   UNL A   1      31.733  28.540  25.951  1.00  0.00     0.117 C 
BRANCH  69  70
ATOM     70  N   UNL A   1      31.970  28.901  24.573  1.00  0.00    -0.356 N 
ATOM     71  C   UNL A   1      31.478  28.513  23.365  1.00  0.00     0.223 C 
ATOM     72  H   UNL A   1      32.657  29.600  24.486  1.00  0.00     0.163 HD
ATOM     73  O   UNL A   1      31.922  29.142  22.400  1.00  0.00    -0.275 OA
BRANCH  71  74
ATOM     74  C   UNL A   1      30.444  27.491  23.059  1.00  0.00     0.091 C 
ATOM     75  C   UNL A   1      29.105  27.650  23.750  1.00  0.00     0.028 C 
ATOM     76  C   UNL A   1      29.771  26.307  23.710  1.00  0.00     0.092 C 
BRANCH  76  77
ATOM     77  C   UNL A   1      30.297  25.609  24.890  1.00  0.00     0.226 C 
ATOM     78  O   UNL A   1      29.901  25.950  25.994  1.00  0.00    -0.275 OA
ATOM     79  N   UNL A   1      31.202  24.591  24.677  1.00  0.00    -0.339 N 
ATOM     80  C   UNL A   1      31.249  23.476  25.617  1.00  0.00     0.141 C 
ATOM     81  C   UNL A   1      32.228  24.551  23.626  1.00  0.00     0.141 C 
ATOM     82  C   UNL A   1      31.054  22.179  24.821  1.00  0.00     0.139 C 
ATOM     83  C   UNL A   1      32.364  23.173  22.923  1.00  0.00     0.139 C 
ATOM     84  N   UNL A   1      32.126  22.070  23.843  1.00  0.00    -0.352 N 
BRANCH  84  85
ATOM     85  C   UNL A   1      32.835  20.898  23.894  1.00  0.00     0.147 A 
ATOM     86  N   UNL A   1      32.281  19.841  23.251  1.00  0.00    -0.237 NA
ATOM     87  C   UNL A   1      33.917  20.725  24.769  1.00  0.00     0.084 A 
ATOM     88  C   UNL A   1      32.765  18.603  23.507  1.00  0.00     0.126 A 
ATOM     89  C   UNL A   1      34.400  19.440  25.014  1.00  0.00     0.039 A 
ATOM     90  Cl  UNL A   1      34.612  22.037  25.653  1.00  0.00    -0.080 Cl
ATOM     91  C   UNL A   1      33.807  18.346  24.383  1.00  0.00     0.075 A 
BRANCH  91  92
ATOM     92  C   UNL A   1      34.237  16.935  24.631  1.00  0.00     0.417 C 
ATOM     93  F   UNL A   1      35.576  16.816  24.831  1.00  0.00    -0.166 F 
ATOM     94  F   UNL A   1      33.646  16.403  25.736  1.00  0.00    -0.166 F 
ATOM     95  F   UNL A   1      33.934  16.089  23.608  1.00  0.00    -0.166 F 
ENDBRANCH  91  92
ENDBRANCH  84  85
ENDBRANCH  76  77
ENDBRANCH  71  74
ENDBRANCH  69  70
ENDBRANCH   1  69
TORSDOF 16
ENDMDL
MODEL 3
REMARK VINA RESULT:     -12.4      6.057      8.061
REMARK SMILES O=C(NCCCNC(=O)[C@@H]1C[C@@H]1C(=O)N1CCN(c2ncc(C(F)(F)F)cc2Cl)CC1)c1ccc(-c2c3nc(c(-c4ccc(S(=O)(=O)[O-])cc4)c4ccc([nH]4)c(-c4ccc(S(=O)(=O)[O-])cc4)c4nc(c(-c5ccc(S(=O)(=O)[O-])cc5)c5ccc2[nH]5)C=C4)C=C3)cc1
REMARK SMILES IDX 5 1 4 2 3 3 1 4 2 5 32 7 33 8 91 9 34 10 90 11 35 12 36 13
REMARK SMILES IDX 37 14 84 15 38 16 89 17 83 18 85 19 39 20 88 21 82 22 81 23
REMARK SMILES IDX 40 25 70 26 51 27 69 28 52 29 55 30 68 31 86 32 53 33 54 34
REMARK SMILES IDX 67 36 87 37 56 38 41 39 42 40 50 41 43 42 49 43 44 44 45 45
REMARK SMILES IDX 46 46 47 47 48 48 71 49 72 50 80 51 73 52 79 53 74 54 75 55
REMARK SMILES IDX 76 56 77 57 78 58 57 59 58 60 66 61 59 62 65 63 60 64 61 65
REMARK SMILES IDX 62 66 63 67 64 68 6 69 7 70 8 71 9 73 10 74 11 75 12 76
REMARK SMILES IDX 13 77 14 78 15 79 16 80 31 81 17 82 30 83 18 84 19 85 20 86
REMARK SMILES IDX 28 87 21 88 27 89 29 90 22 91 23 92 24 93 25 94 26 95
REMARK H PARENT 3 6 85 24 55 35 7 72
REMARK Flexibility Score: inf
ROOT
ATOM      1  C   UNL A   1      33.083  31.070  27.452  1.00  0.00     0.042 C 
ENDROOT
BRANCH   1   2
ATOM      2  C   UNL A   1      33.325  32.483  26.939  1.00  0.00     0.118 C 
BRANCH   2   3
ATOM      3  N   UNL A   1      32.806  33.599  27.724  1.00  0.00    -0.352 N 
ATOM      4  O   UNL A   1      32.740  35.261  29.241  1.00  0.00    -0.269 OA
ATOM      5  C   UNL A   1      33.333  34.274  28.810  1.00  0.00     0.251 C 
ATOM      6  H   UNL A   1      31.927  33.928  27.428  1.00  0.00     0.163 HD
BRANCH   5   7
ATOM      7  C   UNL A   1      34.556  33.810  29.503  1.00  0.00     0.039 A 
ATOM      8  C   UNL A   1      35.795  34.349  29.190  1.00  0.00     0.014 A 
ATOM      9  C   UNL A   1      34.468  32.843  30.518  1.00  0.00     0.014 A 
ATOM     10  C   UNL A   1      36.945  33.780  29.703  1.00  0.00     0.010 A 
ATOM     11  C   UNL A   1      35.625  32.392  31.170  1.00  0.00     0.010 A 
ATOM     12  C   UNL A   1      36.882  32.843  30.748  1.00  0.00    -0.014 A 
BRANCH  12  13
ATOM     13  C   UNL A   1      38.169  32.512  31.414  1.00  0.00     0.031 A 
ATOM     14  C   UNL A   1      38.524  33.035  32.773  1.00  0.00     0.074 A 
ATOM     15  C   UNL A   1      38.932  31.569  30.818  1.00  0.00     0.049 A 
ATOM     16  N   UNL A   1      39.477  32.631  33.575  1.00  0.00    -0.248 NA
ATOM     17  C   UNL A   1      37.730  34.153  33.303  1.00  0.00     0.031 C 
ATOM     18  C   UNL A   1      38.686  31.019  29.478  1.00  0.00     0.029 A 
ATOM     19  N   UNL A   1      39.987  30.829  31.285  1.00  0.00    -0.354 N 
ATOM     20  C   UNL A   1      39.404  33.446  34.697  1.00  0.00     0.074 A 
ATOM     21  C   UNL A   1      38.331  34.388  34.463  1.00  0.00     0.031 C 
ATOM     22  C   UNL A   1      39.460  29.943  29.294  1.00  0.00     0.029 A 
ATOM     23  C   UNL A   1      40.328  29.786  30.452  1.00  0.00     0.049 A 
ATOM     24  H   UNL A   1      40.455  31.024  32.130  1.00  0.00     0.167 HD
ATOM     25  C   UNL A   1      40.164  33.404  35.820  1.00  0.00     0.031 A 
ATOM     26  C   UNL A   1      41.236  28.803  30.600  1.00  0.00     0.031 A 
ATOM     27  C   UNL A   1      41.235  32.462  36.031  1.00  0.00     0.049 A 
ATOM     28  C   UNL A   1      42.045  28.771  31.860  1.00  0.00     0.074 A 
ATOM     29  C   UNL A   1      42.079  32.346  37.122  1.00  0.00     0.029 A 
ATOM     30  N   UNL A   1      41.606  31.468  35.135  1.00  0.00    -0.354 N 
ATOM     31  N   UNL A   1      41.956  29.551  32.912  1.00  0.00    -0.248 NA
ATOM     32  C   UNL A   1      43.084  27.738  31.952  1.00  0.00     0.031 C 
ATOM     33  C   UNL A   1      42.987  31.312  36.866  1.00  0.00     0.029 A 
ATOM     34  C   UNL A   1      42.675  30.746  35.641  1.00  0.00     0.049 A 
ATOM     35  H   UNL A   1      41.173  31.302  34.266  1.00  0.00     0.167 HD
ATOM     36  C   UNL A   1      42.939  29.113  33.787  1.00  0.00     0.074 A 
ATOM     37  C   UNL A   1      43.572  27.967  33.163  1.00  0.00     0.031 C 
ATOM     38  C   UNL A   1      43.302  29.624  34.989  1.00  0.00     0.031 A 
BRANCH  25  39
ATOM     39  C   UNL A   1      39.882  34.420  36.897  1.00  0.00    -0.014 A 
ATOM     40  C   UNL A   1      39.124  34.083  38.033  1.00  0.00     0.010 A 
ATOM     41  C   UNL A   1      40.428  35.713  36.800  1.00  0.00     0.010 A 
ATOM     42  C   UNL A   1      38.895  35.029  39.039  1.00  0.00     0.020 A 
ATOM     43  C   UNL A   1      40.223  36.654  37.814  1.00  0.00     0.020 A 
ATOM     44  C   UNL A   1      39.446  36.310  38.922  1.00  0.00     0.054 A 
BRANCH  44  45
ATOM     45  S   UNL A   1      39.161  37.505  40.258  1.00  0.00     0.124 S 
ATOM     46  O   UNL A   1      38.212  38.427  39.640  1.00  0.00    -0.237 OA
ATOM     47  O   UNL A   1      38.620  36.670  41.326  1.00  0.00    -0.237 OA
ATOM     48  O   UNL A   1      40.487  38.061  40.516  1.00  0.00    -0.744 OA
ENDBRANCH  44  45
ENDBRANCH  25  39
BRANCH  26  49
ATOM     49  C   UNL A   1      41.448  27.817  29.505  1.00  0.00    -0.014 A 
ATOM     50  C   UNL A   1      40.549  26.760  29.280  1.00  0.00     0.010 A 
ATOM     51  C   UNL A   1      42.566  27.951  28.658  1.00  0.00     0.010 A 
ATOM     52  C   UNL A   1      40.777  25.846  28.244  1.00  0.00     0.020 A 
ATOM     53  C   UNL A   1      42.775  27.065  27.600  1.00  0.00     0.020 A 
ATOM     54  C   UNL A   1      41.888  26.006  27.411  1.00  0.00     0.054 A 
BRANCH  54  55
ATOM     55  S   UNL A   1      42.149  24.839  26.047  1.00  0.00     0.124 S 
ATOM     56  O   UNL A   1      41.081  23.871  26.272  1.00  0.00    -0.237 OA
ATOM     57  O   UNL A   1      41.999  25.688  24.868  1.00  0.00    -0.237 OA
ATOM     58  O   UNL A   1      43.504  24.343  26.278  1.00  0.00    -0.744 OA
ENDBRANCH  54  55
ENDBRANCH  26  49
BRANCH  38  59
ATOM     59  C   UNL A   1      44.438  28.937  35.694  1.00  0.00    -0.014 A 
ATOM     60  C   UNL A   1      45.770  29.331  35.471  1.00  0.00     0.010 A 
ATOM     61  C   UNL A   1      44.171  27.886  36.589  1.00  0.00     0.010 A 
ATOM     62  C   UNL A   1      46.820  28.652  36.092  1.00  0.00     0.020 A 
ATOM     63  C   UNL A   1      45.218  27.223  37.234  1.00  0.00     0.020 A 
ATOM     64  C   UNL A   1      46.536  27.597  36.965  1.00  0.00     0.054 A 
BRANCH  64  65
ATOM     65  S   UNL A   1      47.915  26.733  37.766  1.00  0.00     0.124 S 
ATOM     66  O   UNL A   1      48.025  27.449  39.034  1.00  0.00    -0.237 OA
ATOM     67  O   UNL A   1      47.423  25.360  37.859  1.00  0.00    -0.237 OA
ATOM     68  O   UNL A   1      49.028  26.928  36.840  1.00  0.00    -0.744 OA
ENDBRANCH  64  65
ENDBRANCH  38  59
ENDBRANCH  12  13
ENDBRANCH   5   7
ENDBRANCH   2   3
ENDBRANCH   1   2
BRANCH   1  69
ATOM     69  C   UNL A   1      33.945  29.967  26.869  1.00  0.00     0.117 C 
BRANCH  69  70
ATOM     70  N   UNL A   1      33.418  29.495  25.609  1.00  0.00    -0.356 N 
ATOM     71  C   UNL A   1      32.471  28.598  25.223  1.00  0.00     0.223 C 
ATOM     72  H   UNL A   1      33.853  29.929  24.840  1.00  0.00     0.163 HD
ATOM     73  O   UNL A   1      32.280  28.540  24.005  1.00  0.00    -0.275 OA
BRANCH  71  74
ATOM     74  C   UNL A   1      31.599  27.736  26.062  1.00  0.00     0.091 C 
ATOM     75  C   UNL A   1      32.243  26.507  26.672  1.00  0.00     0.028 C 
ATOM     76  C   UNL A   1      30.907  26.396  25.999  1.00  0.00     0.092 C 
BRANCH  76  77
ATOM     77  C   UNL A   1      30.666  25.652  24.757  1.00  0.00     0.226 C 
ATOM     78  O   UNL A   1      30.199  26.251  23.800  1.00  0.00    -0.275 OA
ATOM     79  N   UNL A   1      30.998  24.314  24.741  1.00  0.00    -0.339 N 
ATOM     80  C   UNL A   1      31.422  23.704  23.485  1.00  0.00     0.141 C 
ATOM     81  C   UNL A   1      30.875  23.378  25.868  1.00  0.00     0.141 C 
ATOM     82  C   UNL A   1      32.796  23.061  23.713  1.00  0.00     0.139 C 
ATOM     83  C   UNL A   1      32.088  22.425  26.038  1.00  0.00     0.139 C 
ATOM     84  N   UNL A   1      32.668  22.053  24.756  1.00  0.00    -0.352 N 
BRANCH  84  85
ATOM     85  C   UNL A   1      33.119  20.805  24.408  1.00  0.00     0.147 A 
ATOM     86  N   UNL A   1      32.178  19.939  23.957  1.00  0.00    -0.237 NA
ATOM     87  C   UNL A   1      34.406  20.363  24.745  1.00  0.00     0.084 A 
ATOM     88  C   UNL A   1      32.493  18.625  23.883  1.00  0.00     0.126 A 
ATOM     89  C   UNL A   1      34.707  19.004  24.657  1.00  0.00     0.039 A 
ATOM     90  Cl  UNL A   1      35.613  21.423  25.379  1.00  0.00    -0.080 Cl
ATOM     91  C   UNL A   1      33.728  18.105  24.229  1.00  0.00     0.075 A 
BRANCH  91  92
ATOM     92  C   UNL A   1      33.960  16.629  24.154  1.00  0.00     0.417 C 
ATOM     93  F   UNL A   1      34.867  16.187  25.067  1.00  0.00    -0.166 F 
ATOM     94  F   UNL A   1      32.823  15.917  24.384  1.00  0.00    -0.166 F 
ATOM     95  F   UNL A   1      34.417  16.214  22.940  1.00  0.00    -0.166 F 
ENDBRANCH  91  92
ENDBRANCH  84  85
ENDBRANCH  76  77
ENDBRANCH  71  74
ENDBRANCH  69  70
ENDBRANCH   1  69
TORSDOF 16
ENDMDL
