MODEL 1
REMARK VINA RESULT:     -10.8      0.000      0.000
REMARK SMILES CC(C)(C)OC(=O)N1CCC[C@@](CC2CCC2)(C(=O)NCCCNC(=O)c2ccc(-c3c4nc(c(-c5ccc(S(=O)(=O)[O-])cc5)c5ccc([nH]5)c(-c5ccc(S(=O)(=O)[O-])cc5)c5nc(c(-c6ccc(S(=O)(=O)[O-])cc6)c6ccc3[nH]6)C=C5)C=C4)cc2)C1
REMARK SMILES IDX 22 1 21 2 20 3 18 4 19 5 12 7 8 8 9 9 87 10 10 11 11 12 6 13
REMARK SMILES IDX 7 14 5 15 2 16 1 17 3 18 4 19 13 20 14 21 15 22 17 23 16 24
REMARK SMILES IDX 23 25 24 26 25 27 26 29 27 30 28 31 86 32 29 33 85 34 30 35
REMARK SMILES IDX 31 36 32 37 79 38 33 39 84 40 78 41 80 42 34 43 83 44 77 45
REMARK SMILES IDX 76 46 35 48 65 49 46 50 64 51 47 52 50 53 63 54 81 55 48 56
REMARK SMILES IDX 49 57 62 59 82 60 51 61 36 62 37 63 45 64 38 65 44 66 39 67
REMARK SMILES IDX 40 68 41 69 42 70 43 71 66 72 67 73 75 74 68 75 74 76 69 77
REMARK SMILES IDX 70 78 71 79 72 80 73 81 52 82 53 83 61 84 54 85 60 86 55 87
REMARK SMILES IDX 56 88 57 89 58 90 59 91
REMARK H PARENT 20 6 24 28 80 47 50 58
REMARK Flexibility Score: inf
ROOT
ATOM      1  C   UNL A   1      32.042  28.323  27.392  1.00  0.00     0.042 C 
ENDROOT
BRANCH   1   2
ATOM      2  C   UNL A   1      31.694  27.551  26.142  1.00  0.00     0.117 C 
BRANCH   2   3
ATOM      3  N   UNL A   1      30.524  26.730  26.187  1.00  0.00    -0.355 N 
ATOM      4  C   UNL A   1      30.521  25.365  26.237  1.00  0.00     0.228 C 
ATOM      5  O   UNL A   1      29.585  24.849  26.855  1.00  0.00    -0.274 OA
ATOM      6  H   UNL A   1      29.651  27.185  26.183  1.00  0.00     0.163 HD
BRANCH   4   7
ATOM      7  C   UNL A   1      31.606  24.510  25.514  1.00  0.00     0.067 C 
ATOM      8  N   UNL A   1      33.039  22.535  26.221  1.00  0.00    -0.307 N 
ATOM      9  C   UNL A   1      32.425  21.624  25.276  1.00  0.00     0.123 C 
ATOM     10  C   UNL A   1      32.196  23.628  26.711  1.00  0.00     0.140 C 
ATOM     11  C   UNL A   1      31.878  22.381  24.082  1.00  0.00     0.023 C 
ATOM     12  C   UNL A   1      30.942  23.496  24.544  1.00  0.00     0.020 C 
BRANCH   8  13
ATOM     13  C   UNL A   1      34.381  22.393  26.515  1.00  0.00     0.410 C 
ATOM     14  O   UNL A   1      34.779  21.834  27.526  1.00  0.00    -0.224 OA
BRANCH  13  15
ATOM     15  O   UNL A   1      35.187  22.989  25.596  1.00  0.00    -0.444 OA
BRANCH  15  16
ATOM     16  C   UNL A   1      36.196  22.213  24.892  1.00  0.00     0.106 C 
ATOM     17  C   UNL A   1      37.523  22.520  25.604  1.00  0.00     0.056 C 
ATOM     18  C   UNL A   1      36.277  22.699  23.443  1.00  0.00     0.056 C 
ATOM     19  C   UNL A   1      35.980  20.692  24.971  1.00  0.00     0.056 C 
ENDBRANCH  15  16
ENDBRANCH  13  15
ENDBRANCH   8  13
BRANCH   7  20
ATOM     20  C   UNL A   1      32.834  25.320  24.967  1.00  0.00     0.022 C 
BRANCH  20  21
ATOM     21  C   UNL A   1      33.065  25.770  23.507  1.00  0.00    -0.010 C 
ATOM     22  C   UNL A   1      33.631  25.003  22.282  1.00  0.00     0.003 C 
ATOM     23  C   UNL A   1      31.895  26.280  22.634  1.00  0.00     0.003 C 
ATOM     24  C   UNL A   1      32.543  25.638  21.394  1.00  0.00     0.001 C 
ENDBRANCH  20  21
ENDBRANCH   7  20
ENDBRANCH   4   7
ENDBRANCH   2   3
ENDBRANCH   1   2
BRANCH   1  25
ATOM     25  C   UNL A   1      33.463  28.853  27.356  1.00  0.00     0.118 C 
BRANCH  25  26
ATOM     26  N   UNL A   1      33.603  30.224  27.863  1.00  0.00    -0.352 N 
ATOM     27  C   UNL A   1      34.702  30.852  28.405  1.00  0.00     0.251 C 
ATOM     28  H   UNL A   1      32.790  30.776  27.808  1.00  0.00     0.163 HD
ATOM     29  O   UNL A   1      34.615  31.995  28.837  1.00  0.00    -0.269 OA
BRANCH  27  30
ATOM     30  C   UNL A   1      35.966  30.100  28.502  1.00  0.00     0.039 A 
ATOM     31  C   UNL A   1      36.847  30.098  27.420  1.00  0.00     0.014 A 
ATOM     32  C   UNL A   1      36.325  29.521  29.717  1.00  0.00     0.014 A 
ATOM     33  C   UNL A   1      38.145  29.618  27.599  1.00  0.00     0.010 A 
ATOM     34  C   UNL A   1      37.647  29.177  29.930  1.00  0.00     0.010 A 
ATOM     35  C   UNL A   1      38.572  29.220  28.875  1.00  0.00    -0.014 A 
BRANCH  35  36
ATOM     36  C   UNL A   1      39.970  28.820  29.167  1.00  0.00     0.031 A 
ATOM     37  C   UNL A   1      40.919  29.856  29.708  1.00  0.00     0.074 A 
ATOM     38  C   UNL A   1      40.415  27.594  28.824  1.00  0.00     0.049 A 
ATOM     39  N   UNL A   1      42.218  29.804  29.824  1.00  0.00    -0.248 NA
ATOM     40  C   UNL A   1      40.327  31.142  30.122  1.00  0.00     0.031 C 
ATOM     41  C   UNL A   1      39.600  26.515  28.259  1.00  0.00     0.029 A 
ATOM     42  N   UNL A   1      41.677  27.057  28.878  1.00  0.00    -0.354 N 
ATOM     43  C   UNL A   1      42.600  31.060  30.281  1.00  0.00     0.074 A 
ATOM     44  C   UNL A   1      41.408  31.869  30.360  1.00  0.00     0.031 C 
ATOM     45  C   UNL A   1      40.377  25.441  28.044  1.00  0.00     0.029 A 
ATOM     46  C   UNL A   1      41.755  25.773  28.392  1.00  0.00     0.049 A 
ATOM     47  H   UNL A   1      42.455  27.546  29.233  1.00  0.00     0.167 HD
ATOM     48  C   UNL A   1      43.835  31.493  30.627  1.00  0.00     0.031 A 
ATOM     49  C   UNL A   1      42.819  24.961  28.225  1.00  0.00     0.031 A 
ATOM     50  C   UNL A   1      45.008  30.666  30.575  1.00  0.00     0.049 A 
ATOM     51  C   UNL A   1      44.184  25.467  28.607  1.00  0.00     0.074 A 
ATOM     52  C   UNL A   1      46.297  30.983  30.964  1.00  0.00     0.029 A 
ATOM     53  N   UNL A   1      45.034  29.360  30.112  1.00  0.00    -0.354 N 
ATOM     54  N   UNL A   1      44.522  26.640  29.088  1.00  0.00    -0.248 NA
ATOM     55  C   UNL A   1      45.312  24.541  28.433  1.00  0.00     0.031 C 
ATOM     56  C   UNL A   1      47.114  29.886  30.682  1.00  0.00     0.029 A 
ATOM     57  C   UNL A   1      46.321  28.861  30.187  1.00  0.00     0.049 A 
ATOM     58  H   UNL A   1      44.252  28.861  29.780  1.00  0.00     0.167 HD
ATOM     59  C   UNL A   1      45.894  26.577  29.313  1.00  0.00     0.074 A 
ATOM     60  C   UNL A   1      46.323  25.253  28.916  1.00  0.00     0.031 C 
ATOM     61  C   UNL A   1      46.720  27.529  29.810  1.00  0.00     0.031 A 
BRANCH  48  62
ATOM     62  C   UNL A   1      43.971  32.919  31.088  1.00  0.00    -0.014 A 
ATOM     63  C   UNL A   1      44.208  33.962  30.175  1.00  0.00     0.010 A 
ATOM     64  C   UNL A   1      43.829  33.225  32.454  1.00  0.00     0.010 A 
ATOM     65  C   UNL A   1      44.346  35.278  30.623  1.00  0.00     0.020 A 
ATOM     66  C   UNL A   1      43.930  34.545  32.902  1.00  0.00     0.020 A 
ATOM     67  C   UNL A   1      44.205  35.561  31.985  1.00  0.00     0.054 A 
BRANCH  67  68
ATOM     68  S   UNL A   1      44.361  37.282  32.531  1.00  0.00     0.124 S 
ATOM     69  O   UNL A   1      43.573  37.989  31.525  1.00  0.00    -0.237 OA
ATOM     70  O   UNL A   1      43.781  37.245  33.871  1.00  0.00    -0.237 OA
ATOM     71  O   UNL A   1      45.799  37.533  32.482  1.00  0.00    -0.744 OA
ENDBRANCH  67  68
ENDBRANCH  48  62
BRANCH  49  72
ATOM     72  C   UNL A   1      42.635  23.588  27.678  1.00  0.00    -0.014 A 
ATOM     73  C   UNL A   1      42.756  23.349  26.297  1.00  0.00     0.010 A 
ATOM     74  C   UNL A   1      42.347  22.507  28.533  1.00  0.00     0.010 A 
ATOM     75  C   UNL A   1      42.572  22.062  25.779  1.00  0.00     0.020 A 
ATOM     76  C   UNL A   1      42.195  21.214  28.023  1.00  0.00     0.020 A 
ATOM     77  C   UNL A   1      42.296  21.002  26.648  1.00  0.00     0.054 A 
BRANCH  77  78
ATOM     78  S   UNL A   1      42.108  19.334  25.956  1.00  0.00     0.124 S 
ATOM     79  O   UNL A   1      40.668  19.263  25.723  1.00  0.00    -0.237 OA
ATOM     80  O   UNL A   1      42.941  19.396  24.758  1.00  0.00    -0.237 OA
ATOM     81  O   UNL A   1      42.614  18.466  27.016  1.00  0.00    -0.744 OA
ENDBRANCH  77  78
ENDBRANCH  49  72
BRANCH  61  82
ATOM     82  C   UNL A   1      48.166  27.168  30.024  1.00  0.00    -0.014 A 
ATOM     83  C   UNL A   1      49.190  27.759  29.267  1.00  0.00     0.010 A 
ATOM     84  C   UNL A   1      48.502  26.315  31.092  1.00  0.00     0.010 A 
ATOM     85  C   UNL A   1      50.529  27.502  29.575  1.00  0.00     0.020 A 
ATOM     86  C   UNL A   1      49.838  26.079  31.422  1.00  0.00     0.020 A 
ATOM     87  C   UNL A   1      50.843  26.673  30.659  1.00  0.00     0.054 A 
BRANCH  87  88
ATOM     88  S   UNL A   1      52.588  26.441  31.099  1.00  0.00     0.124 S 
ATOM     89  O   UNL A   1      53.195  26.163  29.801  1.00  0.00    -0.237 OA
ATOM     90  O   UNL A   1      52.939  27.727  31.696  1.00  0.00    -0.237 OA
ATOM     91  O   UNL A   1      52.563  25.315  32.030  1.00  0.00    -0.744 OA
ENDBRANCH  87  88
ENDBRANCH  61  82
ENDBRANCH  35  36
ENDBRANCH  27  30
ENDBRANCH  25  26
ENDBRANCH   1  25
TORSDOF 18
ENDMDL
MODEL 2
REMARK VINA RESULT:     -10.7      1.716      2.611
REMARK SMILES CC(C)(C)OC(=O)N1CCC[C@@](CC2CCC2)(C(=O)NCCCNC(=O)c2ccc(-c3c4nc(c(-c5ccc(S(=O)(=O)[O-])cc5)c5ccc([nH]5)c(-c5ccc(S(=O)(=O)[O-])cc5)c5nc(c(-c6ccc(S(=O)(=O)[O-])cc6)c6ccc3[nH]6)C=C5)C=C4)cc2)C1
REMARK SMILES IDX 22 1 21 2 20 3 18 4 19 5 12 7 8 8 9 9 87 10 10 11 11 12 6 13
REMARK SMILES IDX 7 14 5 15 2 16 1 17 3 18 4 19 13 20 14 21 15 22 17 23 16 24
REMARK SMILES IDX 23 25 24 26 25 27 26 29 27 30 28 31 86 32 29 33 85 34 30 35
REMARK SMILES IDX 31 36 32 37 79 38 33 39 84 40 78 41 80 42 34 43 83 44 77 45
REMARK SMILES IDX 76 46 35 48 65 49 46 50 64 51 47 52 50 53 63 54 81 55 48 56
REMARK SMILES IDX 49 57 62 59 82 60 51 61 36 62 37 63 45 64 38 65 44 66 39 67
REMARK SMILES IDX 40 68 41 69 42 70 43 71 66 72 67 73 75 74 68 75 74 76 69 77
REMARK SMILES IDX 70 78 71 79 72 80 73 81 52 82 53 83 61 84 54 85 60 86 55 87
REMARK SMILES IDX 56 88 57 89 58 90 59 91
REMARK H PARENT 20 6 24 28 80 47 50 58
REMARK Flexibility Score: inf
ROOT
ATOM      1  C   UNL A   1      32.227  29.724  26.921  1.00  0.00     0.042 C 
ENDROOT
BRANCH   1   2
ATOM      2  C   UNL A   1      31.848  29.720  25.460  1.00  0.00     0.117 C 
BRANCH   2   3
ATOM      3  N   UNL A   1      32.916  29.694  24.509  1.00  0.00    -0.355 N 
ATOM      4  C   UNL A   1      33.163  28.679  23.629  1.00  0.00     0.228 C 
ATOM      5  O   UNL A   1      33.655  29.009  22.546  1.00  0.00    -0.274 OA
ATOM      6  H   UNL A   1      33.522  30.470  24.486  1.00  0.00     0.163 HD
BRANCH   4   7
ATOM      7  C   UNL A   1      32.885  27.187  23.990  1.00  0.00     0.067 C 
ATOM      8  N   UNL A   1      33.971  24.991  23.322  1.00  0.00    -0.307 N 
ATOM      9  C   UNL A   1      34.433  24.696  24.663  1.00  0.00     0.123 C 
ATOM     10  C   UNL A   1      33.845  26.408  22.975  1.00  0.00     0.140 C 
ATOM     11  C   UNL A   1      33.542  25.364  25.692  1.00  0.00     0.023 C 
ATOM     12  C   UNL A   1      33.430  26.860  25.406  1.00  0.00     0.020 C 
BRANCH   8  13
ATOM     13  C   UNL A   1      33.582  23.950  22.501  1.00  0.00     0.410 C 
ATOM     14  O   UNL A   1      33.256  24.115  21.335  1.00  0.00    -0.224 OA
BRANCH  13  15
ATOM     15  O   UNL A   1      33.547  22.755  23.149  1.00  0.00    -0.444 OA
BRANCH  15  16
ATOM     16  C   UNL A   1      32.277  22.086  23.387  1.00  0.00     0.106 C 
ATOM     17  C   UNL A   1      32.483  21.250  24.659  1.00  0.00     0.056 C 
ATOM     18  C   UNL A   1      31.980  21.152  22.212  1.00  0.00     0.056 C 
ATOM     19  C   UNL A   1      31.107  23.047  23.659  1.00  0.00     0.056 C 
ENDBRANCH  15  16
ENDBRANCH  13  15
ENDBRANCH   8  13
BRANCH   7  20
ATOM     20  C   UNL A   1      31.440  26.680  23.648  1.00  0.00     0.022 C 
BRANCH  20  21
ATOM     21  C   UNL A   1      30.118  27.451  23.857  1.00  0.00    -0.010 C 
ATOM     22  C   UNL A   1      29.476  28.612  23.052  1.00  0.00     0.003 C 
ATOM     23  C   UNL A   1      28.757  26.715  23.860  1.00  0.00     0.003 C 
ATOM     24  C   UNL A   1      28.099  27.935  23.191  1.00  0.00     0.001 C 
ENDBRANCH  20  21
ENDBRANCH   7  20
ENDBRANCH   4   7
ENDBRANCH   2   3
ENDBRANCH   1   2
BRANCH   1  25
ATOM     25  C   UNL A   1      33.571  30.387  27.158  1.00  0.00     0.118 C 
BRANCH  25  26
ATOM     26  N   UNL A   1      33.552  31.419  28.203  1.00  0.00    -0.352 N 
ATOM     27  C   UNL A   1      34.510  31.736  29.140  1.00  0.00     0.251 C 
ATOM     28  H   UNL A   1      32.734  31.964  28.239  1.00  0.00     0.163 HD
ATOM     29  O   UNL A   1      34.293  32.597  29.984  1.00  0.00    -0.269 OA
BRANCH  27  30
ATOM     30  C   UNL A   1      35.775  30.980  29.139  1.00  0.00     0.039 A 
ATOM     31  C   UNL A   1      36.547  30.938  27.977  1.00  0.00     0.014 A 
ATOM     32  C   UNL A   1      36.248  30.437  30.331  1.00  0.00     0.014 A 
ATOM     33  C   UNL A   1      37.854  30.455  28.045  1.00  0.00     0.010 A 
ATOM     34  C   UNL A   1      37.584  30.092  30.426  1.00  0.00     0.010 A 
ATOM     35  C   UNL A   1      38.402  30.095  29.285  1.00  0.00    -0.014 A 
BRANCH  35  36
ATOM     36  C   UNL A   1      39.821  29.697  29.453  1.00  0.00     0.031 A 
ATOM     37  C   UNL A   1      40.823  30.745  29.855  1.00  0.00     0.074 A 
ATOM     38  C   UNL A   1      40.224  28.454  29.119  1.00  0.00     0.049 A 
ATOM     39  N   UNL A   1      42.127  30.688  29.842  1.00  0.00    -0.248 NA
ATOM     40  C   UNL A   1      40.281  32.052  30.272  1.00  0.00     0.031 C 
ATOM     41  C   UNL A   1      39.353  27.360  28.683  1.00  0.00     0.029 A 
ATOM     42  N   UNL A   1      41.483  27.909  29.070  1.00  0.00    -0.354 N 
ATOM     43  C   UNL A   1      42.558  31.958  30.207  1.00  0.00     0.074 A 
ATOM     44  C   UNL A   1      41.383  32.780  30.371  1.00  0.00     0.031 C 
ATOM     45  C   UNL A   1      40.100  26.271  28.436  1.00  0.00     0.029 A 
ATOM     46  C   UNL A   1      41.507  26.605  28.632  1.00  0.00     0.049 A 
ATOM     47  H   UNL A   1      42.294  28.405  29.325  1.00  0.00     0.167 HD
ATOM     48  C   UNL A   1      43.823  32.394  30.410  1.00  0.00     0.031 A 
ATOM     49  C   UNL A   1      42.545  25.779  28.393  1.00  0.00     0.031 A 
ATOM     50  C   UNL A   1      44.981  31.557  30.276  1.00  0.00     0.049 A 
ATOM     51  C   UNL A   1      43.944  26.288  28.617  1.00  0.00     0.074 A 
ATOM     52  C   UNL A   1      46.304  31.879  30.522  1.00  0.00     0.029 A 
ATOM     53  N   UNL A   1      44.956  30.232  29.867  1.00  0.00    -0.354 N 
ATOM     54  N   UNL A   1      44.333  27.477  29.013  1.00  0.00    -0.248 NA
ATOM     55  C   UNL A   1      45.045  25.347  28.371  1.00  0.00     0.031 C 
ATOM     56  C   UNL A   1      47.085  30.764  30.205  1.00  0.00     0.029 A 
ATOM     57  C   UNL A   1      46.242  29.727  29.835  1.00  0.00     0.049 A 
ATOM     58  H   UNL A   1      44.142  29.727  29.636  1.00  0.00     0.167 HD
ATOM     59  C   UNL A   1      45.720  27.413  29.103  1.00  0.00     0.074 A 
ATOM     60  C   UNL A   1      46.102  26.070  28.721  1.00  0.00     0.031 C 
ATOM     61  C   UNL A   1      46.596  28.377  29.476  1.00  0.00     0.031 A 
BRANCH  48  62
ATOM     62  C   UNL A   1      44.010  33.837  30.796  1.00  0.00    -0.014 A 
ATOM     63  C   UNL A   1      44.078  34.230  32.145  1.00  0.00     0.010 A 
ATOM     64  C   UNL A   1      44.152  34.813  29.793  1.00  0.00     0.010 A 
ATOM     65  C   UNL A   1      44.239  35.575  32.485  1.00  0.00     0.020 A 
ATOM     66  C   UNL A   1      44.349  36.156  30.128  1.00  0.00     0.020 A 
ATOM     67  C   UNL A   1      44.373  36.530  31.472  1.00  0.00     0.054 A 
BRANCH  67  68
ATOM     68  S   UNL A   1      44.609  38.263  31.945  1.00  0.00     0.124 S 
ATOM     69  O   UNL A   1      44.611  38.932  30.646  1.00  0.00    -0.237 OA
ATOM     70  O   UNL A   1      43.443  38.526  32.785  1.00  0.00    -0.237 OA
ATOM     71  O   UNL A   1      45.892  38.261  32.644  1.00  0.00    -0.744 OA
ENDBRANCH  67  68
ENDBRANCH  48  62
BRANCH  49  72
ATOM     72  C   UNL A   1      42.302  24.386  27.925  1.00  0.00    -0.014 A 
ATOM     73  C   UNL A   1      42.145  24.113  26.555  1.00  0.00     0.010 A 
ATOM     74  C   UNL A   1      42.236  23.321  28.843  1.00  0.00     0.010 A 
ATOM     75  C   UNL A   1      41.905  22.808  26.113  1.00  0.00     0.020 A 
ATOM     76  C   UNL A   1      42.028  22.010  28.403  1.00  0.00     0.020 A 
ATOM     77  C   UNL A   1      41.852  21.764  27.041  1.00  0.00     0.054 A 
BRANCH  77  78
ATOM     78  S   UNL A   1      41.584  20.072  26.438  1.00  0.00     0.124 S 
ATOM     79  O   UNL A   1      42.481  20.015  25.288  1.00  0.00    -0.237 OA
ATOM     80  O   UNL A   1      41.978  19.264  27.589  1.00  0.00    -0.237 OA
ATOM     81  O   UNL A   1      40.158  20.044  26.122  1.00  0.00    -0.744 OA
ENDBRANCH  77  78
ENDBRANCH  49  72
BRANCH  61  82
ATOM     82  C   UNL A   1      48.054  28.014  29.560  1.00  0.00    -0.014 A 
ATOM     83  C   UNL A   1      48.922  28.202  28.473  1.00  0.00     0.010 A 
ATOM     84  C   UNL A   1      48.580  27.594  30.797  1.00  0.00     0.010 A 
ATOM     85  C   UNL A   1      50.294  27.977  28.621  1.00  0.00     0.020 A 
ATOM     86  C   UNL A   1      49.952  27.397  30.957  1.00  0.00     0.020 A 
ATOM     87  C   UNL A   1      50.800  27.588  29.867  1.00  0.00     0.054 A 
BRANCH  87  88
ATOM     88  S   UNL A   1      52.595  27.405  30.057  1.00  0.00     0.124 S 
ATOM     89  O   UNL A   1      53.001  28.754  30.438  1.00  0.00    -0.237 OA
ATOM     90  O   UNL A   1      52.702  26.394  31.106  1.00  0.00    -0.237 OA
ATOM     91  O   UNL A   1      53.041  26.971  28.735  1.00  0.00    -0.744 OA
ENDBRANCH  87  88
ENDBRANCH  61  82
ENDBRANCH  35  36
ENDBRANCH  27  30
ENDBRANCH  25  26
ENDBRANCH   1  25
TORSDOF 18
ENDMDL
MODEL 3
REMARK VINA RESULT:     -10.5      2.884      4.743
REMARK SMILES CC(C)(C)OC(=O)N1CCC[C@@](CC2CCC2)(C(=O)NCCCNC(=O)c2ccc(-c3c4nc(c(-c5ccc(S(=O)(=O)[O-])cc5)c5ccc([nH]5)c(-c5ccc(S(=O)(=O)[O-])cc5)c5nc(c(-c6ccc(S(=O)(=O)[O-])cc6)c6ccc3[nH]6)C=C5)C=C4)cc2)C1
REMARK SMILES IDX 22 1 21 2 20 3 18 4 19 5 12 7 8 8 9 9 87 10 10 11 11 12 6 13
REMARK SMILES IDX 7 14 5 15 2 16 1 17 3 18 4 19 13 20 14 21 15 22 17 23 16 24
REMARK SMILES IDX 23 25 24 26 25 27 26 29 27 30 28 31 86 32 29 33 85 34 30 35
REMARK SMILES IDX 31 36 32 37 79 38 33 39 84 40 78 41 80 42 34 43 83 44 77 45
REMARK SMILES IDX 76 46 35 48 65 49 46 50 64 51 47 52 50 53 63 54 81 55 48 56
REMARK SMILES IDX 49 57 62 59 82 60 51 61 36 62 37 63 45 64 38 65 44 66 39 67
REMARK SMILES IDX 40 68 41 69 42 70 43 71 66 72 67 73 75 74 68 75 74 76 69 77
REMARK SMILES IDX 70 78 71 79 72 80 73 81 52 82 53 83 61 84 54 85 60 86 55 87
REMARK SMILES IDX 56 88 57 89 58 90 59 91
REMARK H PARENT 20 6 24 28 80 47 50 58
REMARK Flexibility Score: inf
ROOT
ATOM      1  C   UNL A   1      34.903  29.843  27.220  1.00  0.00     0.042 C 
ENDROOT
BRANCH   1   2
ATOM      2  C   UNL A   1      34.106  28.562  27.181  1.00  0.00     0.117 C 
BRANCH   2   3
ATOM      3  N   UNL A   1      32.757  28.619  27.653  1.00  0.00    -0.355 N 
ATOM      4  C   UNL A   1      31.715  27.893  27.150  1.00  0.00     0.228 C 
ATOM      5  O   UNL A   1      30.838  27.574  27.958  1.00  0.00    -0.274 OA
ATOM      6  H   UNL A   1      32.564  29.229  28.402  1.00  0.00     0.163 HD
BRANCH   4   7
ATOM      7  C   UNL A   1      31.615  27.533  25.636  1.00  0.00     0.067 C 
ATOM      8  N   UNL A   1      31.461  28.916  23.511  1.00  0.00    -0.307 N 
ATOM      9  C   UNL A   1      32.744  28.467  23.007  1.00  0.00     0.123 C 
ATOM     10  C   UNL A   1      31.312  28.954  24.967  1.00  0.00     0.140 C 
ATOM     11  C   UNL A   1      33.084  27.098  23.561  1.00  0.00     0.023 C 
ATOM     12  C   UNL A   1      33.002  27.106  25.086  1.00  0.00     0.020 C 
BRANCH   8  13
ATOM     13  C   UNL A   1      30.440  29.171  22.616  1.00  0.00     0.410 C 
ATOM     14  O   UNL A   1      30.267  28.506  21.606  1.00  0.00    -0.224 OA
BRANCH  13  15
ATOM     15  O   UNL A   1      29.704  30.263  22.956  1.00  0.00    -0.444 OA
BRANCH  15  16
ATOM     16  C   UNL A   1      28.281  30.308  22.660  1.00  0.00     0.106 C 
ATOM     17  C   UNL A   1      27.717  31.450  23.520  1.00  0.00     0.056 C 
ATOM     18  C   UNL A   1      27.640  28.987  23.091  1.00  0.00     0.056 C 
ATOM     19  C   UNL A   1      27.959  30.643  21.193  1.00  0.00     0.056 C 
ENDBRANCH  15  16
ENDBRANCH  13  15
ENDBRANCH   8  13
BRANCH   7  20
ATOM     20  C   UNL A   1      30.388  26.635  25.247  1.00  0.00     0.022 C 
BRANCH  20  21
ATOM     21  C   UNL A   1      30.361  25.093  25.168  1.00  0.00    -0.010 C 
ATOM     22  C   UNL A   1      30.884  24.119  24.078  1.00  0.00     0.003 C 
ATOM     23  C   UNL A   1      31.042  24.226  26.253  1.00  0.00     0.003 C 
ATOM     24  C   UNL A   1      31.429  23.191  25.181  1.00  0.00     0.001 C 
ENDBRANCH  20  21
ENDBRANCH   7  20
ENDBRANCH   4   7
ENDBRANCH   2   3
ENDBRANCH   1   2
BRANCH   1  25
ATOM     25  C   UNL A   1      36.023  29.786  28.242  1.00  0.00     0.118 C 
BRANCH  25  26
ATOM     26  N   UNL A   1      35.661  30.332  29.557  1.00  0.00    -0.352 N 
ATOM     27  C   UNL A   1      36.471  30.696  30.608  1.00  0.00     0.251 C 
ATOM     28  H   UNL A   1      34.697  30.455  29.708  1.00  0.00     0.163 HD
ATOM     29  O   UNL A   1      35.983  31.079  31.666  1.00  0.00    -0.269 OA
BRANCH  27  30
ATOM     30  C   UNL A   1      37.930  30.562  30.453  1.00  0.00     0.039 A 
ATOM     31  C   UNL A   1      38.673  29.949  31.463  1.00  0.00     0.014 A 
ATOM     32  C   UNL A   1      38.525  30.923  29.247  1.00  0.00     0.014 A 
ATOM     33  C   UNL A   1      39.996  29.584  31.210  1.00  0.00     0.010 A 
ATOM     34  C   UNL A   1      39.786  30.437  28.951  1.00  0.00     0.010 A 
ATOM     35  C   UNL A   1      40.536  29.765  29.928  1.00  0.00    -0.014 A 
BRANCH  35  36
ATOM     36  C   UNL A   1      41.889  29.286  29.550  1.00  0.00     0.031 A 
ATOM     37  C   UNL A   1      43.025  30.272  29.532  1.00  0.00     0.074 A 
ATOM     38  C   UNL A   1      42.066  28.027  29.102  1.00  0.00     0.049 A 
ATOM     39  N   UNL A   1      44.222  30.143  29.027  1.00  0.00    -0.248 NA
ATOM     40  C   UNL A   1      42.755  31.602  30.109  1.00  0.00     0.031 C 
ATOM     41  C   UNL A   1      41.034  26.987  29.040  1.00  0.00     0.029 A 
ATOM     42  N   UNL A   1      43.180  27.413  28.586  1.00  0.00    -0.354 N 
ATOM     43  C   UNL A   1      44.830  31.382  29.188  1.00  0.00     0.074 A 
ATOM     44  C   UNL A   1      43.851  32.266  29.776  1.00  0.00     0.031 C 
ATOM     45  C   UNL A   1      41.570  25.862  28.540  1.00  0.00     0.029 A 
ATOM     46  C   UNL A   1      42.963  26.115  28.186  1.00  0.00     0.049 A 
ATOM     47  H   UNL A   1      44.053  27.860  28.509  1.00  0.00     0.167 HD
ATOM     48  C   UNL A   1      46.099  31.745  28.893  1.00  0.00     0.031 A 
ATOM     49  C   UNL A   1      43.786  25.235  27.580  1.00  0.00     0.031 A 
ATOM     50  C   UNL A   1      47.072  30.846  28.340  1.00  0.00     0.049 A 
ATOM     51  C   UNL A   1      45.192  25.663  27.253  1.00  0.00     0.074 A 
ATOM     52  C   UNL A   1      48.405  31.091  28.063  1.00  0.00     0.029 A 
ATOM     53  N   UNL A   1      46.820  29.530  27.985  1.00  0.00    -0.354 N 
ATOM     54  N   UNL A   1      45.768  26.824  27.459  1.00  0.00    -0.248 NA
ATOM     55  C   UNL A   1      46.063  24.664  26.618  1.00  0.00     0.031 C 
ATOM     56  C   UNL A   1      48.944  29.938  27.487  1.00  0.00     0.029 A 
ATOM     57  C   UNL A   1      47.967  28.954  27.474  1.00  0.00     0.049 A 
ATOM     58  H   UNL A   1      45.953  29.073  28.084  1.00  0.00     0.167 HD
ATOM     59  C   UNL A   1      47.079  26.681  27.018  1.00  0.00     0.074 A 
ATOM     60  C   UNL A   1      47.212  25.323  26.534  1.00  0.00     0.031 C 
ATOM     61  C   UNL A   1      48.084  27.591  27.021  1.00  0.00     0.031 A 
BRANCH  48  62
ATOM     62  C   UNL A   1      46.499  33.171  29.164  1.00  0.00    -0.014 A 
ATOM     63  C   UNL A   1      47.049  33.553  30.401  1.00  0.00     0.010 A 
ATOM     64  C   UNL A   1      46.351  34.139  28.154  1.00  0.00     0.010 A 
ATOM     65  C   UNL A   1      47.401  34.883  30.640  1.00  0.00     0.020 A 
ATOM     66  C   UNL A   1      46.737  35.464  28.375  1.00  0.00     0.020 A 
ATOM     67  C   UNL A   1      47.242  35.831  29.624  1.00  0.00     0.054 A 
BRANCH  67  68
ATOM     68  S   UNL A   1      47.736  37.543  29.954  1.00  0.00     0.124 S 
ATOM     69  O   UNL A   1      46.451  38.237  29.923  1.00  0.00    -0.237 OA
ATOM     70  O   UNL A   1      48.364  37.446  31.269  1.00  0.00    -0.237 OA
ATOM     71  O   UNL A   1      48.641  37.863  28.854  1.00  0.00    -0.744 OA
ENDBRANCH  67  68
ENDBRANCH  48  62
BRANCH  49  72
ATOM     72  C   UNL A   1      43.306  23.863  27.254  1.00  0.00    -0.014 A 
ATOM     73  C   UNL A   1      43.197  22.888  28.262  1.00  0.00     0.010 A 
ATOM     74  C   UNL A   1      42.946  23.522  25.937  1.00  0.00     0.010 A 
ATOM     75  C   UNL A   1      42.757  21.596  27.957  1.00  0.00     0.020 A 
ATOM     76  C   UNL A   1      42.475  22.241  25.633  1.00  0.00     0.020 A 
ATOM     77  C   UNL A   1      42.396  21.282  26.644  1.00  0.00     0.054 A 
BRANCH  77  78
ATOM     78  S   UNL A   1      41.786  19.611  26.282  1.00  0.00     0.124 S 
ATOM     79  O   UNL A   1      42.144  18.887  27.498  1.00  0.00    -0.237 OA
ATOM     80  O   UNL A   1      40.357  19.837  26.077  1.00  0.00    -0.237 OA
ATOM     81  O   UNL A   1      42.528  19.229  25.083  1.00  0.00    -0.744 OA
ENDBRANCH  77  78
ENDBRANCH  49  72
BRANCH  61  82
ATOM     82  C   UNL A   1      49.442  27.145  26.552  1.00  0.00    -0.014 A 
ATOM     83  C   UNL A   1      50.351  26.521  27.421  1.00  0.00     0.010 A 
ATOM     84  C   UNL A   1      49.755  27.245  25.182  1.00  0.00     0.010 A 
ATOM     85  C   UNL A   1      51.552  26.003  26.928  1.00  0.00     0.020 A 
ATOM     86  C   UNL A   1      50.939  26.702  24.681  1.00  0.00     0.020 A 
ATOM     87  C   UNL A   1      51.832  26.086  25.558  1.00  0.00     0.054 A 
BRANCH  87  88
ATOM     88  S   UNL A   1      53.348  25.313  24.931  1.00  0.00     0.124 S 
ATOM     89  O   UNL A   1      53.183  23.927  25.360  1.00  0.00    -0.237 OA
ATOM     90  O   UNL A   1      53.251  25.544  23.492  1.00  0.00    -0.237 OA
ATOM     91  O   UNL A   1      54.416  26.050  25.604  1.00  0.00    -0.744 OA
ENDBRANCH  87  88
ENDBRANCH  61  82
ENDBRANCH  35  36
ENDBRANCH  27  30
ENDBRANCH  25  26
ENDBRANCH   1  25
TORSDOF 18
ENDMDL
