MODEL 1
REMARK VINA RESULT:     -11.0      0.000      0.000
REMARK SMILES C[NH2+][C@]1(C(=O)NCCCNC(=O)c2ccc(-c3c4nc(c(-c5ccc(S(=O)(=O)[O-])cc5)c5ccc([nH]5)c(-c5ccc(S(=O)(=O)[O-])cc5)c5nc(c(-c6ccc(S(=O)(=O)[O-])cc6)c6ccc3[nH]6)C=C5)C=C4)cc2)CCC[C@H]([N@H+]2CCC[C@@H]2C2CCCC2)C1
REMARK SMILES IDX 8 1 7 2 6 3 4 4 5 5 3 7 73 8 87 9 74 10 76 11 75 12 2 13
REMARK SMILES IDX 1 14 77 17 78 18 81 19 79 21 80 22 82 23 83 24 86 25 84 26
REMARK SMILES IDX 85 27 9 28 10 29 11 30 12 32 13 33 14 34 72 35 15 36 71 37
REMARK SMILES IDX 16 38 17 39 18 40 65 41 19 42 70 43 64 44 66 45 20 46 69 47
REMARK SMILES IDX 63 48 62 49 21 51 51 52 32 53 50 54 33 55 36 56 49 57 67 58
REMARK SMILES IDX 34 59 35 60 48 62 68 63 37 64 22 65 23 66 31 67 24 68 30 69
REMARK SMILES IDX 25 70 26 71 27 72 28 73 29 74 52 75 53 76 61 77 54 78 60 79
REMARK SMILES IDX 55 80 56 81 57 82 58 83 59 84 38 85 39 86 47 87 40 88 46 89
REMARK SMILES IDX 41 90 42 91 43 92 44 93 45 94
REMARK H PARENT 6 6 2 15 2 16 77 20 10 31 66 50 36 61
REMARK Flexibility Score: inf
ROOT
ATOM      1  C   UNL A   1      34.255  27.669  26.057  1.00  0.00     0.042 C 
ENDROOT
BRANCH   1   2
ATOM      2  C   UNL A   1      33.794  27.934  24.612  1.00  0.00     0.118 C 
BRANCH   2   3
ATOM      3  N   UNL A   1      32.408  27.565  24.328  1.00  0.00    -0.351 N 
ATOM      4  C   UNL A   1      31.651  26.456  24.582  1.00  0.00     0.281 C 
ATOM      5  O   UNL A   1      30.426  26.667  24.589  1.00  0.00    -0.268 OA
ATOM      6  H   UNL A   1      31.912  28.269  23.852  1.00  0.00     0.163 HD
BRANCH   4   7
ATOM      7  C   UNL A   1      32.198  24.975  24.814  1.00  0.00     0.181 C 
ATOM      8  C   UNL A   1      32.455  24.638  26.314  1.00  0.00     0.079 C 
ATOM      9  C   UNL A   1      31.213  23.956  24.216  1.00  0.00     0.144 C 
ATOM     10  C   UNL A   1      31.902  23.369  26.990  1.00  0.00     0.013 C 
ATOM     11  C   UNL A   1      31.311  22.514  24.771  1.00  0.00     0.191 C 
ATOM     12  C   UNL A   1      30.832  22.639  26.219  1.00  0.00     0.065 C 
BRANCH   7  13
ATOM     13  N   UNL A   1      33.370  24.794  23.889  1.00  0.00    -0.336 N 
ATOM     14  C   UNL A   1      33.114  24.755  22.460  1.00  0.00     0.331 C 
ATOM     15  H   UNL A   1      34.014  25.566  24.061  1.00  0.00     0.346 HD
ATOM     16  H   UNL A   1      33.725  23.863  24.109  1.00  0.00     0.346 HD
ENDBRANCH   7  13
BRANCH  11  17
ATOM     17  N   UNL A   1      32.457  21.584  24.824  1.00  0.00    -0.330 N 
ATOM     18  C   UNL A   1      32.029  20.186  24.854  1.00  0.00     0.262 C 
ATOM     19  C   UNL A   1      33.858  21.630  24.332  1.00  0.00     0.187 C 
ATOM     20  H   UNL A   1      32.729  22.224  25.570  1.00  0.00     0.348 HD
ATOM     21  C   UNL A   1      33.251  19.538  25.441  1.00  0.00     0.067 C 
ATOM     22  C   UNL A   1      34.373  20.204  24.669  1.00  0.00     0.071 C 
BRANCH  19  23
ATOM     23  C   UNL A   1      34.939  22.661  24.796  1.00  0.00     0.047 C 
ATOM     24  C   UNL A   1      35.466  22.796  26.237  1.00  0.00     0.010 C 
ATOM     25  C   UNL A   1      36.291  22.553  24.062  1.00  0.00     0.010 C 
ATOM     26  C   UNL A   1      36.544  23.881  26.091  1.00  0.00     0.001 C 
ATOM     27  C   UNL A   1      37.131  23.670  24.694  1.00  0.00     0.001 C 
ENDBRANCH  19  23
ENDBRANCH  11  17
ENDBRANCH   4   7
ENDBRANCH   2   3
ENDBRANCH   1   2
BRANCH   1  28
ATOM     28  C   UNL A   1      33.345  28.237  27.131  1.00  0.00     0.118 C 
BRANCH  28  29
ATOM     29  N   UNL A   1      33.380  29.687  27.139  1.00  0.00    -0.352 N 
ATOM     30  C   UNL A   1      34.280  30.524  27.734  1.00  0.00     0.251 C 
ATOM     31  H   UNL A   1      32.652  30.130  26.646  1.00  0.00     0.163 HD
ATOM     32  O   UNL A   1      33.944  31.695  27.963  1.00  0.00    -0.269 OA
BRANCH  30  33
ATOM     33  C   UNL A   1      35.640  30.065  28.081  1.00  0.00     0.039 A 
ATOM     34  C   UNL A   1      35.907  29.654  29.390  1.00  0.00     0.014 A 
ATOM     35  C   UNL A   1      36.679  30.124  27.146  1.00  0.00     0.014 A 
ATOM     36  C   UNL A   1      37.204  29.286  29.754  1.00  0.00     0.010 A 
ATOM     37  C   UNL A   1      37.954  29.682  27.487  1.00  0.00     0.010 A 
ATOM     38  C   UNL A   1      38.235  29.285  28.802  1.00  0.00    -0.014 A 
BRANCH  38  39
ATOM     39  C   UNL A   1      39.623  28.909  29.166  1.00  0.00     0.031 A 
ATOM     40  C   UNL A   1      40.518  29.909  29.850  1.00  0.00     0.074 A 
ATOM     41  C   UNL A   1      40.093  27.693  28.829  1.00  0.00     0.049 A 
ATOM     42  N   UNL A   1      41.777  29.795  30.188  1.00  0.00    -0.248 NA
ATOM     43  C   UNL A   1      39.930  31.221  30.173  1.00  0.00     0.031 C 
ATOM     44  C   UNL A   1      39.331  26.655  28.131  1.00  0.00     0.029 A 
ATOM     45  N   UNL A   1      41.327  27.127  29.020  1.00  0.00    -0.354 N 
ATOM     46  C   UNL A   1      42.134  31.018  30.741  1.00  0.00     0.074 A 
ATOM     47  C   UNL A   1      40.975  31.879  30.651  1.00  0.00     0.031 C 
ATOM     48  C   UNL A   1      40.107  25.571  27.974  1.00  0.00     0.029 A 
ATOM     49  C   UNL A   1      41.429  25.850  28.523  1.00  0.00     0.049 A 
ATOM     50  H   UNL A   1      42.069  27.591  29.471  1.00  0.00     0.167 HD
ATOM     51  C   UNL A   1      43.316  31.388  31.291  1.00  0.00     0.031 A 
ATOM     52  C   UNL A   1      42.474  25.000  28.504  1.00  0.00     0.031 A 
ATOM     53  C   UNL A   1      44.459  30.520  31.393  1.00  0.00     0.049 A 
ATOM     54  C   UNL A   1      43.776  25.431  29.124  1.00  0.00     0.074 A 
ATOM     55  C   UNL A   1      45.685  30.777  31.981  1.00  0.00     0.029 A 
ATOM     56  N   UNL A   1      44.516  29.227  30.895  1.00  0.00    -0.354 N 
ATOM     57  N   UNL A   1      44.076  26.573  29.695  1.00  0.00    -0.248 NA
ATOM     58  C   UNL A   1      44.872  24.454  29.109  1.00  0.00     0.031 C 
ATOM     59  C   UNL A   1      46.499  29.654  31.797  1.00  0.00     0.029 A 
ATOM     60  C   UNL A   1      45.761  28.679  31.145  1.00  0.00     0.049 A 
ATOM     61  H   UNL A   1      43.779  28.767  30.431  1.00  0.00     0.167 HD
ATOM     62  C   UNL A   1      45.388  26.442  30.133  1.00  0.00     0.074 A 
ATOM     63  C   UNL A   1      45.819  25.106  29.773  1.00  0.00     0.031 C 
ATOM     64  C   UNL A   1      46.168  27.345  30.779  1.00  0.00     0.031 A 
BRANCH  51  65
ATOM     65  C   UNL A   1      43.431  32.793  31.823  1.00  0.00    -0.014 A 
ATOM     66  C   UNL A   1      43.853  33.851  30.997  1.00  0.00     0.010 A 
ATOM     67  C   UNL A   1      43.076  33.069  33.156  1.00  0.00     0.010 A 
ATOM     68  C   UNL A   1      43.956  35.150  31.504  1.00  0.00     0.020 A 
ATOM     69  C   UNL A   1      43.151  34.371  33.660  1.00  0.00     0.020 A 
ATOM     70  C   UNL A   1      43.608  35.401  32.834  1.00  0.00     0.054 A 
BRANCH  70  71
ATOM     71  S   UNL A   1      43.731  37.098  33.461  1.00  0.00     0.124 S 
ATOM     72  O   UNL A   1      43.761  37.874  32.224  1.00  0.00    -0.237 OA
ATOM     73  O   UNL A   1      42.513  37.234  34.257  1.00  0.00    -0.237 OA
ATOM     74  O   UNL A   1      44.975  37.098  34.226  1.00  0.00    -0.744 OA
ENDBRANCH  70  71
ENDBRANCH  51  65
BRANCH  52  75
ATOM     75  C   UNL A   1      42.323  23.651  27.894  1.00  0.00    -0.014 A 
ATOM     76  C   UNL A   1      42.892  23.369  26.640  1.00  0.00     0.010 A 
ATOM     77  C   UNL A   1      41.626  22.635  28.574  1.00  0.00     0.010 A 
ATOM     78  C   UNL A   1      42.752  22.101  26.068  1.00  0.00     0.020 A 
ATOM     79  C   UNL A   1      41.507  21.359  28.017  1.00  0.00     0.020 A 
ATOM     80  C   UNL A   1      42.061  21.103  26.762  1.00  0.00     0.054 A 
BRANCH  80  81
ATOM     81  S   UNL A   1      41.935  19.451  26.023  1.00  0.00     0.124 S 
ATOM     82  O   UNL A   1      40.509  19.358  25.728  1.00  0.00    -0.237 OA
ATOM     83  O   UNL A   1      42.817  19.555  24.863  1.00  0.00    -0.237 OA
ATOM     84  O   UNL A   1      42.416  18.567  27.083  1.00  0.00    -0.744 OA
ENDBRANCH  80  81
ENDBRANCH  52  75
BRANCH  64  85
ATOM     85  C   UNL A   1      47.553  26.907  31.171  1.00  0.00    -0.014 A 
ATOM     86  C   UNL A   1      48.658  27.151  30.337  1.00  0.00     0.010 A 
ATOM     87  C   UNL A   1      47.757  26.295  32.421  1.00  0.00     0.010 A 
ATOM     88  C   UNL A   1      49.939  26.763  30.734  1.00  0.00     0.020 A 
ATOM     89  C   UNL A   1      49.039  25.931  32.834  1.00  0.00     0.020 A 
ATOM     90  C   UNL A   1      50.122  26.155  31.981  1.00  0.00     0.054 A 
BRANCH  90  91
ATOM     91  S   UNL A   1      51.802  25.703  32.494  1.00  0.00     0.124 S 
ATOM     92  O   UNL A   1      52.586  26.052  31.313  1.00  0.00    -0.237 OA
ATOM     93  O   UNL A   1      52.018  26.549  33.666  1.00  0.00    -0.237 OA
ATOM     94  O   UNL A   1      51.705  24.272  32.777  1.00  0.00    -0.744 OA
ENDBRANCH  90  91
ENDBRANCH  64  85
ENDBRANCH  38  39
ENDBRANCH  30  33
ENDBRANCH  28  29
ENDBRANCH   1  28
TORSDOF 16
ENDMDL
MODEL 2
REMARK VINA RESULT:     -10.6      2.521      9.122
REMARK SMILES C[NH2+][C@]1(C(=O)NCCCNC(=O)c2ccc(-c3c4nc(c(-c5ccc(S(=O)(=O)[O-])cc5)c5ccc([nH]5)c(-c5ccc(S(=O)(=O)[O-])cc5)c5nc(c(-c6ccc(S(=O)(=O)[O-])cc6)c6ccc3[nH]6)C=C5)C=C4)cc2)CCC[C@H]([N@H+]2CCC[C@@H]2C2CCCC2)C1
REMARK SMILES IDX 8 1 7 2 6 3 4 4 5 5 3 7 73 8 87 9 74 10 76 11 75 12 2 13
REMARK SMILES IDX 1 14 77 17 78 18 81 19 79 21 80 22 82 23 83 24 86 25 84 26
REMARK SMILES IDX 85 27 9 28 10 29 11 30 12 32 13 33 14 34 72 35 15 36 71 37
REMARK SMILES IDX 16 38 17 39 18 40 65 41 19 42 70 43 64 44 66 45 20 46 69 47
REMARK SMILES IDX 63 48 62 49 21 51 51 52 32 53 50 54 33 55 36 56 49 57 67 58
REMARK SMILES IDX 34 59 35 60 48 62 68 63 37 64 22 65 23 66 31 67 24 68 30 69
REMARK SMILES IDX 25 70 26 71 27 72 28 73 29 74 52 75 53 76 61 77 54 78 60 79
REMARK SMILES IDX 55 80 56 81 57 82 58 83 59 84 38 85 39 86 47 87 40 88 46 89
REMARK SMILES IDX 41 90 42 91 43 92 44 93 45 94
REMARK H PARENT 6 6 2 15 2 16 77 20 10 31 66 50 36 61
REMARK Flexibility Score: inf
ROOT
ATOM      1  C   UNL A   1      35.181  22.533  26.121  1.00  0.00     0.042 C 
ENDROOT
BRANCH   1   2
ATOM      2  C   UNL A   1      34.142  22.944  27.181  1.00  0.00     0.118 C 
BRANCH   2   3
ATOM      3  N   UNL A   1      32.764  22.561  26.876  1.00  0.00    -0.351 N 
ATOM      4  C   UNL A   1      31.823  23.025  26.001  1.00  0.00     0.281 C 
ATOM      5  O   UNL A   1      30.942  22.195  25.715  1.00  0.00    -0.268 OA
ATOM      6  H   UNL A   1      32.447  21.805  27.419  1.00  0.00     0.163 HD
BRANCH   4   7
ATOM      7  C   UNL A   1      31.751  24.494  25.385  1.00  0.00     0.181 C 
ATOM      8  C   UNL A   1      33.134  25.036  24.913  1.00  0.00     0.079 C 
ATOM      9  C   UNL A   1      30.756  24.520  24.212  1.00  0.00     0.144 C 
ATOM     10  C   UNL A   1      33.359  25.640  23.513  1.00  0.00     0.013 C 
ATOM     11  C   UNL A   1      30.928  25.683  23.204  1.00  0.00     0.191 C 
ATOM     12  C   UNL A   1      32.260  25.383  22.513  1.00  0.00     0.065 C 
BRANCH   7  13
ATOM     13  N   UNL A   1      31.016  25.349  26.382  1.00  0.00    -0.336 N 
ATOM     14  C   UNL A   1      29.574  25.207  26.472  1.00  0.00     0.331 C 
ATOM     15  H   UNL A   1      31.400  25.138  27.303  1.00  0.00     0.346 HD
ATOM     16  H   UNL A   1      31.157  26.303  26.051  1.00  0.00     0.346 HD
ENDBRANCH   7  13
BRANCH  11  17
ATOM     17  N   UNL A   1      30.927  27.145  23.419  1.00  0.00    -0.330 N 
ATOM     18  C   UNL A   1      30.159  27.850  22.393  1.00  0.00     0.262 C 
ATOM     19  C   UNL A   1      31.018  28.021  24.615  1.00  0.00     0.187 C 
ATOM     20  H   UNL A   1      31.927  26.966  23.511  1.00  0.00     0.348 HD
ATOM     21  C   UNL A   1      30.752  29.226  22.505  1.00  0.00     0.067 C 
ATOM     22  C   UNL A   1      30.807  29.433  24.006  1.00  0.00     0.071 C 
BRANCH  19  23
ATOM     23  C   UNL A   1      32.240  28.087  25.589  1.00  0.00     0.047 C 
ATOM     24  C   UNL A   1      33.583  28.771  25.271  1.00  0.00     0.010 C 
ATOM     25  C   UNL A   1      31.949  28.762  26.944  1.00  0.00     0.010 C 
ATOM     26  C   UNL A   1      34.355  28.603  26.588  1.00  0.00     0.001 C 
ATOM     27  C   UNL A   1      33.290  28.673  27.683  1.00  0.00     0.001 C 
ENDBRANCH  19  23
ENDBRANCH  11  17
ENDBRANCH   4   7
ENDBRANCH   2   3
ENDBRANCH   1   2
BRANCH   1  28
ATOM     28  C   UNL A   1      36.452  23.362  26.119  1.00  0.00     0.118 C 
BRANCH  28  29
ATOM     29  N   UNL A   1      37.631  22.518  26.180  1.00  0.00    -0.352 N 
ATOM     30  C   UNL A   1      38.940  22.876  26.330  1.00  0.00     0.251 C 
ATOM     31  H   UNL A   1      37.463  21.551  26.102  1.00  0.00     0.163 HD
ATOM     32  O   UNL A   1      39.821  22.079  25.974  1.00  0.00    -0.269 OA
BRANCH  30  33
ATOM     33  C   UNL A   1      39.317  24.174  26.925  1.00  0.00     0.039 A 
ATOM     34  C   UNL A   1      40.052  25.086  26.162  1.00  0.00     0.014 A 
ATOM     35  C   UNL A   1      39.027  24.462  28.263  1.00  0.00     0.014 A 
ATOM     36  C   UNL A   1      40.478  26.287  26.732  1.00  0.00     0.010 A 
ATOM     37  C   UNL A   1      39.383  25.693  28.807  1.00  0.00     0.010 A 
ATOM     38  C   UNL A   1      40.136  26.606  28.055  1.00  0.00    -0.014 A 
BRANCH  38  39
ATOM     39  C   UNL A   1      40.587  27.870  28.688  1.00  0.00     0.031 A 
ATOM     40  C   UNL A   1      41.980  27.975  29.250  1.00  0.00     0.074 A 
ATOM     41  C   UNL A   1      39.725  28.898  28.806  1.00  0.00     0.049 A 
ATOM     42  N   UNL A   1      42.536  28.967  29.897  1.00  0.00    -0.248 NA
ATOM     43  C   UNL A   1      42.855  26.801  29.090  1.00  0.00     0.031 C 
ATOM     44  C   UNL A   1      38.339  28.899  28.333  1.00  0.00     0.029 A 
ATOM     45  N   UNL A   1      39.885  30.138  29.369  1.00  0.00    -0.354 N 
ATOM     46  C   UNL A   1      43.812  28.531  30.236  1.00  0.00     0.074 A 
ATOM     47  C   UNL A   1      43.933  27.169  29.767  1.00  0.00     0.031 C 
ATOM     48  C   UNL A   1      37.783  30.090  28.604  1.00  0.00     0.029 A 
ATOM     49  C   UNL A   1      38.757  30.921  29.303  1.00  0.00     0.049 A 
ATOM     50  H   UNL A   1      40.727  30.439  29.780  1.00  0.00     0.167 HD
ATOM     51  C   UNL A   1      44.801  29.210  30.866  1.00  0.00     0.031 A 
ATOM     52  C   UNL A   1      38.530  32.167  29.762  1.00  0.00     0.031 A 
ATOM     53  C   UNL A   1      44.678  30.571  31.314  1.00  0.00     0.049 A 
ATOM     54  C   UNL A   1      39.645  32.903  30.455  1.00  0.00     0.074 A 
ATOM     55  C   UNL A   1      45.637  31.370  31.913  1.00  0.00     0.029 A 
ATOM     56  N   UNL A   1      43.526  31.337  31.211  1.00  0.00    -0.354 N 
ATOM     57  N   UNL A   1      40.864  32.494  30.714  1.00  0.00    -0.248 NA
ATOM     58  C   UNL A   1      39.356  34.271  30.905  1.00  0.00     0.031 C 
ATOM     59  C   UNL A   1      45.049  32.604  32.214  1.00  0.00     0.029 A 
ATOM     60  C   UNL A   1      43.742  32.591  31.752  1.00  0.00     0.049 A 
ATOM     61  H   UNL A   1      42.679  31.032  30.813  1.00  0.00     0.167 HD
ATOM     62  C   UNL A   1      41.498  33.565  31.332  1.00  0.00     0.074 A 
ATOM     63  C   UNL A   1      40.532  34.644  31.395  1.00  0.00     0.031 C 
ATOM     64  C   UNL A   1      42.766  33.651  31.802  1.00  0.00     0.031 A 
BRANCH  51  65
ATOM     65  C   UNL A   1      46.100  28.487  31.109  1.00  0.00    -0.014 A 
ATOM     66  C   UNL A   1      47.143  28.528  30.165  1.00  0.00     0.010 A 
ATOM     67  C   UNL A   1      46.299  27.789  32.315  1.00  0.00     0.010 A 
ATOM     68  C   UNL A   1      48.343  27.851  30.404  1.00  0.00     0.020 A 
ATOM     69  C   UNL A   1      47.508  27.134  32.570  1.00  0.00     0.020 A 
ATOM     70  C   UNL A   1      48.516  27.155  31.603  1.00  0.00     0.054 A 
BRANCH  70  71
ATOM     71  S   UNL A   1      50.090  26.304  31.896  1.00  0.00     0.124 S 
ATOM     72  O   UNL A   1      50.444  26.779  33.232  1.00  0.00    -0.237 OA
ATOM     73  O   UNL A   1      49.713  24.895  31.812  1.00  0.00    -0.237 OA
ATOM     74  O   UNL A   1      50.951  26.781  30.817  1.00  0.00    -0.744 OA
ENDBRANCH  70  71
ENDBRANCH  51  65
BRANCH  52  75
ATOM     75  C   UNL A   1      37.199  32.801  29.561  1.00  0.00    -0.014 A 
ATOM     76  C   UNL A   1      36.243  32.792  30.591  1.00  0.00     0.010 A 
ATOM     77  C   UNL A   1      36.887  33.434  28.344  1.00  0.00     0.010 A 
ATOM     78  C   UNL A   1      34.993  33.389  30.403  1.00  0.00     0.020 A 
ATOM     79  C   UNL A   1      35.649  34.056  28.162  1.00  0.00     0.020 A 
ATOM     80  C   UNL A   1      34.705  34.019  29.189  1.00  0.00     0.054 A 
BRANCH  80  81
ATOM     81  S   UNL A   1      33.096  34.832  28.986  1.00  0.00     0.124 S 
ATOM     82  O   UNL A   1      32.565  34.798  30.345  1.00  0.00    -0.237 OA
ATOM     83  O   UNL A   1      33.470  36.153  28.485  1.00  0.00    -0.237 OA
ATOM     84  O   UNL A   1      32.404  33.982  28.020  1.00  0.00    -0.744 OA
ENDBRANCH  80  81
ENDBRANCH  52  75
BRANCH  64  85
ATOM     85  C   UNL A   1      43.197  34.966  32.394  1.00  0.00    -0.014 A 
ATOM     86  C   UNL A   1      43.008  35.249  33.758  1.00  0.00     0.010 A 
ATOM     87  C   UNL A   1      43.854  35.908  31.581  1.00  0.00     0.010 A 
ATOM     88  C   UNL A   1      43.443  36.464  34.292  1.00  0.00     0.020 A 
ATOM     89  C   UNL A   1      44.314  37.112  32.116  1.00  0.00     0.020 A 
ATOM     90  C   UNL A   1      44.093  37.389  33.468  1.00  0.00     0.054 A 
BRANCH  90  91
ATOM     91  S   UNL A   1      44.689  38.939  34.195  1.00  0.00     0.124 S 
ATOM     92  O   UNL A   1      43.477  39.751  34.217  1.00  0.00    -0.237 OA
ATOM     93  O   UNL A   1      45.185  38.511  35.501  1.00  0.00    -0.237 OA
ATOM     94  O   UNL A   1      45.722  39.386  33.261  1.00  0.00    -0.744 OA
ENDBRANCH  90  91
ENDBRANCH  64  85
ENDBRANCH  38  39
ENDBRANCH  30  33
ENDBRANCH  28  29
ENDBRANCH   1  28
TORSDOF 16
ENDMDL
MODEL 3
REMARK VINA RESULT:     -10.6      4.385      9.449
REMARK SMILES C[NH2+][C@]1(C(=O)NCCCNC(=O)c2ccc(-c3c4nc(c(-c5ccc(S(=O)(=O)[O-])cc5)c5ccc([nH]5)c(-c5ccc(S(=O)(=O)[O-])cc5)c5nc(c(-c6ccc(S(=O)(=O)[O-])cc6)c6ccc3[nH]6)C=C5)C=C4)cc2)CCC[C@H]([N@H+]2CCC[C@@H]2C2CCCC2)C1
REMARK SMILES IDX 8 1 7 2 6 3 4 4 5 5 3 7 73 8 87 9 74 10 76 11 75 12 2 13
REMARK SMILES IDX 1 14 77 17 78 18 81 19 79 21 80 22 82 23 83 24 86 25 84 26
REMARK SMILES IDX 85 27 9 28 10 29 11 30 12 32 13 33 14 34 72 35 15 36 71 37
REMARK SMILES IDX 16 38 17 39 18 40 65 41 19 42 70 43 64 44 66 45 20 46 69 47
REMARK SMILES IDX 63 48 62 49 21 51 51 52 32 53 50 54 33 55 36 56 49 57 67 58
REMARK SMILES IDX 34 59 35 60 48 62 68 63 37 64 22 65 23 66 31 67 24 68 30 69
REMARK SMILES IDX 25 70 26 71 27 72 28 73 29 74 52 75 53 76 61 77 54 78 60 79
REMARK SMILES IDX 55 80 56 81 57 82 58 83 59 84 38 85 39 86 47 87 40 88 46 89
REMARK SMILES IDX 41 90 42 91 43 92 44 93 45 94
REMARK H PARENT 6 6 2 15 2 16 77 20 10 31 66 50 36 61
REMARK Flexibility Score: inf
ROOT
ATOM      1  C   UNL A   1      37.480  23.574  25.686  1.00  0.00     0.042 C 
ENDROOT
BRANCH   1   2
ATOM      2  C   UNL A   1      36.055  24.069  25.997  1.00  0.00     0.118 C 
BRANCH   2   3
ATOM      3  N   UNL A   1      34.981  23.228  25.472  1.00  0.00    -0.351 N 
ATOM      4  C   UNL A   1      33.936  23.446  24.620  1.00  0.00     0.281 C 
ATOM      5  O   UNL A   1      33.503  22.418  24.071  1.00  0.00    -0.268 OA
ATOM      6  H   UNL A   1      35.019  22.302  25.805  1.00  0.00     0.163 HD
BRANCH   4   7
ATOM      7  C   UNL A   1      33.238  24.850  24.325  1.00  0.00     0.181 C 
ATOM      8  C   UNL A   1      34.093  25.790  23.423  1.00  0.00     0.079 C 
ATOM      9  C   UNL A   1      31.861  24.622  23.678  1.00  0.00     0.144 C 
ATOM     10  C   UNL A   1      33.528  26.480  22.166  1.00  0.00     0.013 C 
ATOM     11  C   UNL A   1      31.280  25.819  22.884  1.00  0.00     0.191 C 
ATOM     12  C   UNL A   1      32.207  25.947  21.673  1.00  0.00     0.065 C 
BRANCH   7  13
ATOM     13  N   UNL A   1      32.821  25.416  25.655  1.00  0.00    -0.336 N 
ATOM     14  C   UNL A   1      31.859  24.669  26.445  1.00  0.00     0.331 C 
ATOM     15  H   UNL A   1      33.665  25.517  26.220  1.00  0.00     0.346 HD
ATOM     16  H   UNL A   1      32.338  26.284  25.421  1.00  0.00     0.346 HD
ENDBRANCH   7  13
BRANCH  11  17
ATOM     17  N   UNL A   1      31.006  27.206  23.307  1.00  0.00    -0.330 N 
ATOM     18  C   UNL A   1      30.037  27.866  22.433  1.00  0.00     0.262 C 
ATOM     19  C   UNL A   1      31.014  27.918  24.612  1.00  0.00     0.187 C 
ATOM     20  H   UNL A   1      32.026  27.228  23.323  1.00  0.00     0.348 HD
ATOM     21  C   UNL A   1      30.352  29.309  22.714  1.00  0.00     0.067 C 
ATOM     22  C   UNL A   1      30.481  29.323  24.224  1.00  0.00     0.071 C 
BRANCH  19  23
ATOM     23  C   UNL A   1      32.271  28.107  25.523  1.00  0.00     0.047 C 
ATOM     24  C   UNL A   1      33.493  28.976  25.170  1.00  0.00     0.010 C 
ATOM     25  C   UNL A   1      31.972  28.681  26.923  1.00  0.00     0.010 C 
ATOM     26  C   UNL A   1      34.354  28.859  26.436  1.00  0.00     0.001 C 
ATOM     27  C   UNL A   1      33.354  28.742  27.587  1.00  0.00     0.001 C 
ENDBRANCH  19  23
ENDBRANCH  11  17
ENDBRANCH   4   7
ENDBRANCH   2   3
ENDBRANCH   1   2
BRANCH   1  28
ATOM     28  C   UNL A   1      38.531  23.976  26.705  1.00  0.00     0.118 C 
BRANCH  28  29
ATOM     29  N   UNL A   1      39.792  24.297  26.062  1.00  0.00    -0.352 N 
ATOM     30  C   UNL A   1      40.545  25.431  26.161  1.00  0.00     0.251 C 
ATOM     31  H   UNL A   1      40.154  23.598  25.471  1.00  0.00     0.163 HD
ATOM     32  O   UNL A   1      41.363  25.684  25.265  1.00  0.00    -0.269 OA
BRANCH  30  33
ATOM     33  C   UNL A   1      40.417  26.338  27.320  1.00  0.00     0.039 A 
ATOM     34  C   UNL A   1      41.151  27.527  27.340  1.00  0.00     0.014 A 
ATOM     35  C   UNL A   1      39.644  25.980  28.430  1.00  0.00     0.014 A 
ATOM     36  C   UNL A   1      41.097  28.361  28.459  1.00  0.00     0.010 A 
ATOM     37  C   UNL A   1      39.528  26.848  29.512  1.00  0.00     0.010 A 
ATOM     38  C   UNL A   1      40.275  28.034  29.549  1.00  0.00    -0.014 A 
BRANCH  38  39
ATOM     39  C   UNL A   1      40.209  28.897  30.754  1.00  0.00     0.031 A 
ATOM     40  C   UNL A   1      39.200  30.012  30.826  1.00  0.00     0.074 A 
ATOM     41  C   UNL A   1      41.094  28.712  31.752  1.00  0.00     0.049 A 
ATOM     42  N   UNL A   1      39.030  30.912  31.760  1.00  0.00    -0.248 NA
ATOM     43  C   UNL A   1      38.278  30.153  29.686  1.00  0.00     0.031 C 
ATOM     44  C   UNL A   1      42.141  27.689  31.777  1.00  0.00     0.029 A 
ATOM     45  N   UNL A   1      41.259  29.385  32.935  1.00  0.00    -0.354 N 
ATOM     46  C   UNL A   1      38.002  31.734  31.314  1.00  0.00     0.074 A 
ATOM     47  C   UNL A   1      37.617  31.256  30.004  1.00  0.00     0.031 C 
ATOM     48  C   UNL A   1      42.824  27.787  32.928  1.00  0.00     0.029 A 
ATOM     49  C   UNL A   1      42.292  28.901  33.703  1.00  0.00     0.049 A 
ATOM     50  H   UNL A   1      40.693  30.143  33.208  1.00  0.00     0.167 HD
ATOM     51  C   UNL A   1      37.418  32.781  31.945  1.00  0.00     0.031 A 
ATOM     52  C   UNL A   1      42.761  29.314  34.897  1.00  0.00     0.031 A 
ATOM     53  C   UNL A   1      37.795  33.239  33.255  1.00  0.00     0.049 A 
ATOM     54  C   UNL A   1      42.094  30.477  35.580  1.00  0.00     0.074 A 
ATOM     55  C   UNL A   1      37.231  34.253  34.007  1.00  0.00     0.029 A 
ATOM     56  N   UNL A   1      38.832  32.709  34.009  1.00  0.00    -0.354 N 
ATOM     57  N   UNL A   1      41.083  31.204  35.167  1.00  0.00    -0.248 NA
ATOM     58  C   UNL A   1      42.622  30.865  36.894  1.00  0.00     0.031 C 
ATOM     59  C   UNL A   1      37.958  34.368  35.198  1.00  0.00     0.029 A 
ATOM     60  C   UNL A   1      38.938  33.387  35.209  1.00  0.00     0.049 A 
ATOM     61  H   UNL A   1      39.408  31.960  33.730  1.00  0.00     0.167 HD
ATOM     62  C   UNL A   1      40.836  32.118  36.184  1.00  0.00     0.074 A 
ATOM     63  C   UNL A   1      41.793  31.843  37.237  1.00  0.00     0.031 C 
ATOM     64  C   UNL A   1      39.898  33.095  36.245  1.00  0.00     0.031 A 
BRANCH  51  65
ATOM     65  C   UNL A   1      36.310  33.503  31.222  1.00  0.00    -0.014 A 
ATOM     66  C   UNL A   1      35.072  33.747  31.846  1.00  0.00     0.010 A 
ATOM     67  C   UNL A   1      36.521  33.981  29.915  1.00  0.00     0.010 A 
ATOM     68  C   UNL A   1      34.053  34.417  31.162  1.00  0.00     0.020 A 
ATOM     69  C   UNL A   1      35.514  34.676  29.238  1.00  0.00     0.020 A 
ATOM     70  C   UNL A   1      34.279  34.874  29.861  1.00  0.00     0.054 A 
BRANCH  70  71
ATOM     71  S   UNL A   1      32.948  35.759  29.005  1.00  0.00     0.124 S 
ATOM     72  O   UNL A   1      33.687  36.800  28.296  1.00  0.00    -0.237 OA
ATOM     73  O   UNL A   1      32.364  34.719  28.161  1.00  0.00    -0.237 OA
ATOM     74  O   UNL A   1      32.091  36.231  30.089  1.00  0.00    -0.744 OA
ENDBRANCH  70  71
ENDBRANCH  51  65
BRANCH  52  75
ATOM     75  C   UNL A   1      43.910  28.609  35.526  1.00  0.00    -0.014 A 
ATOM     76  C   UNL A   1      45.228  29.022  35.266  1.00  0.00     0.010 A 
ATOM     77  C   UNL A   1      43.691  27.532  36.405  1.00  0.00     0.010 A 
ATOM     78  C   UNL A   1      46.308  28.361  35.859  1.00  0.00     0.020 A 
ATOM     79  C   UNL A   1      44.767  26.887  37.021  1.00  0.00     0.020 A 
ATOM     80  C   UNL A   1      46.070  27.297  36.734  1.00  0.00     0.054 A 
BRANCH  80  81
ATOM     81  S   UNL A   1      47.483  26.487  37.532  1.00  0.00     0.124 S 
ATOM     82  O   UNL A   1      48.607  27.010  36.761  1.00  0.00    -0.237 OA
ATOM     83  O   UNL A   1      47.385  26.964  38.910  1.00  0.00    -0.237 OA
ATOM     84  O   UNL A   1      47.206  25.064  37.353  1.00  0.00    -0.744 OA
ENDBRANCH  80  81
ENDBRANCH  52  75
BRANCH  64  85
ATOM     85  C   UNL A   1      39.836  33.917  37.504  1.00  0.00    -0.014 A 
ATOM     86  C   UNL A   1      40.577  35.104  37.637  1.00  0.00     0.010 A 
ATOM     87  C   UNL A   1      38.975  33.523  38.545  1.00  0.00     0.010 A 
ATOM     88  C   UNL A   1      40.481  35.867  38.803  1.00  0.00     0.020 A 
ATOM     89  C   UNL A   1      38.855  34.297  39.700  1.00  0.00     0.020 A 
ATOM     90  C   UNL A   1      39.621  35.458  39.828  1.00  0.00     0.054 A 
BRANCH  90  91
ATOM     91  S   UNL A   1      39.478  36.491  41.312  1.00  0.00     0.124 S 
ATOM     92  O   UNL A   1      40.858  36.532  41.788  1.00  0.00    -0.237 OA
ATOM     93  O   UNL A   1      38.958  37.748  40.780  1.00  0.00    -0.237 OA
ATOM     94  O   UNL A   1      38.548  35.750  42.162  1.00  0.00    -0.744 OA
ENDBRANCH  90  91
ENDBRANCH  64  85
ENDBRANCH  38  39
ENDBRANCH  30  33
ENDBRANCH  28  29
ENDBRANCH   1  28
TORSDOF 16
ENDMDL
