MODEL 1
REMARK VINA RESULT:     -12.0      0.000      0.000
REMARK SMILES C/C(=C\C(=O)c1c(O)n(C)c2ccccc2c1=O)Nc1ccc(C(=O)NCCCNC(=O)c2ccc(-c3c4nc(c(-c5ccc(S(=O)(=O)[O-])cc5)c5ccc([nH]5)c(-c5ccc(S(=O)(=O)[O-])cc5)c5nc(c(-c6ccc(S(=O)(=O)[O-])cc6)c6ccc3[nH]6)C=C5)C=C4)cc2)cc1
REMARK SMILES IDX 27 1 26 2 24 3 25 4 23 6 20 7 21 8 94 9 22 10 93 11 19 12
REMARK SMILES IDX 2 14 1 15 3 16 4 17 5 18 6 19 7 20 17 21 9 22 16 23 18 24
REMARK SMILES IDX 10 25 11 26 15 27 12 28 14 29 13 30 8 31 28 33 29 34 30 35
REMARK SMILES IDX 31 36 32 38 33 39 34 40 92 41 35 42 91 43 36 44 37 45 38 46
REMARK SMILES IDX 85 47 39 48 90 49 84 50 86 51 40 52 89 53 83 54 82 55 41 57
REMARK SMILES IDX 71 58 52 59 70 60 53 61 56 62 69 63 87 64 54 65 55 66 68 68
REMARK SMILES IDX 88 69 57 70 42 71 43 72 51 73 44 74 50 75 45 76 46 77 47 78
REMARK SMILES IDX 48 79 49 80 72 81 73 82 81 83 74 84 80 85 75 86 76 87 77 88
REMARK SMILES IDX 78 89 79 90 58 91 59 92 67 93 60 94 66 95 61 96 62 97 63 98
REMARK SMILES IDX 64 99 65 100
REMARK H PARENT 26 5 19 13 8 32 30 37 86 56 56 67
REMARK Flexibility Score: inf
ROOT
ATOM      1  C   UNL A   1      43.608  22.178  26.433  1.00  0.00     0.118 C 
ENDROOT
BRANCH   1   2
ATOM      2  N   UNL A   1      42.956  21.083  27.126  1.00  0.00    -0.352 N 
ATOM      3  C   UNL A   1      41.680  20.623  27.281  1.00  0.00     0.251 C 
ATOM      4  O   UNL A   1      41.577  19.601  27.967  1.00  0.00    -0.269 OA
ATOM      5  H   UNL A   1      43.605  20.525  27.613  1.00  0.00     0.163 HD
BRANCH   3   6
ATOM      6  C   UNL A   1      40.435  21.242  26.739  1.00  0.00     0.039 A 
ATOM      7  C   UNL A   1      38.259  22.766  25.680  1.00  0.00     0.038 A 
ATOM      8  C   UNL A   1      39.106  23.292  26.651  1.00  0.00     0.027 A 
ATOM      9  C   UNL A   1      38.449  21.425  25.337  1.00  0.00     0.027 A 
ATOM     10  C   UNL A   1      40.187  22.559  27.150  1.00  0.00     0.016 A 
ATOM     11  C   UNL A   1      39.504  20.668  25.876  1.00  0.00     0.016 A 
BRANCH   7  12
ATOM     12  N   UNL A   1      37.322  23.526  24.950  1.00  0.00    -0.359 N 
ATOM     13  H   UNL A   1      37.697  24.138  24.276  1.00  0.00     0.166 HD
BRANCH  12  14
ATOM     14  C   UNL A   1      35.921  23.523  25.061  1.00  0.00     0.016 C 
ATOM     15  C   UNL A   1      35.331  23.126  26.393  1.00  0.00     0.064 C 
ATOM     16  C   UNL A   1      35.174  23.908  23.999  1.00  0.00     0.074 C 
BRANCH  16  17
ATOM     17  C   UNL A   1      33.705  24.170  23.807  1.00  0.00     0.196 C 
ATOM     18  O   UNL A   1      32.998  23.293  23.316  1.00  0.00    -0.289 OA
BRANCH  17  19
ATOM     19  C   UNL A   1      33.165  25.515  24.069  1.00  0.00     0.130 A 
ATOM     20  C   UNL A   1      33.289  26.485  23.141  1.00  0.00     0.206 A 
ATOM     21  C   UNL A   1      32.673  25.865  25.418  1.00  0.00     0.204 A 
ATOM     22  N   UNL A   1      33.103  27.838  23.422  1.00  0.00    -0.315 N 
ATOM     23  C   UNL A   1      32.362  27.287  25.685  1.00  0.00     0.047 A 
ATOM     24  O   UNL A   1      32.580  25.026  26.309  1.00  0.00    -0.288 OA
ATOM     25  C   UNL A   1      33.603  28.886  22.524  1.00  0.00     0.153 C 
ATOM     26  C   UNL A   1      32.611  28.247  24.686  1.00  0.00     0.055 A 
ATOM     27  C   UNL A   1      31.887  27.649  26.956  1.00  0.00     0.014 A 
ATOM     28  C   UNL A   1      32.356  29.589  25.018  1.00  0.00     0.027 A 
ATOM     29  C   UNL A   1      31.651  28.985  27.255  1.00  0.00     0.001 A 
ATOM     30  C   UNL A   1      31.886  29.954  26.285  1.00  0.00     0.002 A 
BRANCH  20  31
ATOM     31  O   UNL A   1      33.704  26.204  21.851  1.00  0.00    -0.494 OA
ATOM     32  H   UNL A   1      33.807  25.314  21.576  1.00  0.00     0.295 HD
ENDBRANCH  20  31
ENDBRANCH  17  19
ENDBRANCH  16  17
ENDBRANCH  12  14
ENDBRANCH   7  12
ENDBRANCH   3   6
ENDBRANCH   1   2
BRANCH   1  33
ATOM     33  C   UNL A   1      43.725  23.424  27.299  1.00  0.00     0.042 C 
BRANCH  33  34
ATOM     34  C   UNL A   1      44.035  24.685  26.505  1.00  0.00     0.118 C 
BRANCH  34  35
ATOM     35  N   UNL A   1      42.921  25.107  25.661  1.00  0.00    -0.352 N 
ATOM     36  C   UNL A   1      41.838  25.916  25.926  1.00  0.00     0.251 C 
ATOM     37  H   UNL A   1      42.949  24.753  24.743  1.00  0.00     0.163 HD
ATOM     38  O   UNL A   1      40.904  25.951  25.137  1.00  0.00    -0.269 OA
BRANCH  36  39
ATOM     39  C   UNL A   1      41.786  26.708  27.176  1.00  0.00     0.039 A 
ATOM     40  C   UNL A   1      41.061  26.252  28.273  1.00  0.00     0.014 A 
ATOM     41  C   UNL A   1      42.473  27.922  27.256  1.00  0.00     0.014 A 
ATOM     42  C   UNL A   1      40.826  27.102  29.345  1.00  0.00     0.010 A 
ATOM     43  C   UNL A   1      42.344  28.722  28.398  1.00  0.00     0.010 A 
ATOM     44  C   UNL A   1      41.469  28.347  29.428  1.00  0.00    -0.014 A 
BRANCH  44  45
ATOM     45  C   UNL A   1      41.203  29.222  30.602  1.00  0.00     0.031 A 
ATOM     46  C   UNL A   1      40.025  30.161  30.616  1.00  0.00     0.074 A 
ATOM     47  C   UNL A   1      41.984  29.103  31.697  1.00  0.00     0.049 A 
ATOM     48  N   UNL A   1      39.631  30.965  31.572  1.00  0.00    -0.248 NA
ATOM     49  C   UNL A   1      39.181  30.212  29.411  1.00  0.00     0.031 C 
ATOM     50  C   UNL A   1      43.137  28.206  31.812  1.00  0.00     0.029 A 
ATOM     51  N   UNL A   1      41.904  29.695  32.933  1.00  0.00    -0.354 N 
ATOM     52  C   UNL A   1      38.513  31.629  31.077  1.00  0.00     0.074 A 
ATOM     53  C   UNL A   1      38.307  31.159  29.726  1.00  0.00     0.031 C 
ATOM     54  C   UNL A   1      43.597  28.240  33.070  1.00  0.00     0.029 A 
ATOM     55  C   UNL A   1      42.839  29.228  33.828  1.00  0.00     0.049 A 
ATOM     56  H   UNL A   1      41.240  30.387  33.158  1.00  0.00     0.167 HD
ATOM     57  C   UNL A   1      37.726  32.538  31.699  1.00  0.00     0.031 A 
ATOM     58  C   UNL A   1      43.077  29.561  35.112  1.00  0.00     0.031 A 
ATOM     59  C   UNL A   1      37.925  32.980  33.055  1.00  0.00     0.049 A 
ATOM     60  C   UNL A   1      42.219  30.603  35.764  1.00  0.00     0.074 A 
ATOM     61  C   UNL A   1      37.172  33.893  33.775  1.00  0.00     0.029 A 
ATOM     62  N   UNL A   1      38.934  32.541  33.898  1.00  0.00    -0.354 N 
ATOM     63  N   UNL A   1      41.178  31.231  35.270  1.00  0.00    -0.248 NA
ATOM     64  C   UNL A   1      42.566  30.993  37.137  1.00  0.00     0.031 C 
ATOM     65  C   UNL A   1      37.761  34.051  35.029  1.00  0.00     0.029 A 
ATOM     66  C   UNL A   1      38.839  33.184  35.121  1.00  0.00     0.049 A 
ATOM     67  H   UNL A   1      39.617  31.873  33.662  1.00  0.00     0.167 HD
ATOM     68  C   UNL A   1      40.744  32.088  36.273  1.00  0.00     0.074 A 
ATOM     69  C   UNL A   1      41.618  31.880  37.410  1.00  0.00     0.031 C 
ATOM     70  C   UNL A   1      39.718  32.972  36.246  1.00  0.00     0.031 A 
BRANCH  57  71
ATOM     71  C   UNL A   1      36.567  33.128  30.936  1.00  0.00    -0.014 A 
ATOM     72  C   UNL A   1      36.806  33.823  29.735  1.00  0.00     0.010 A 
ATOM     73  C   UNL A   1      35.264  33.107  31.465  1.00  0.00     0.010 A 
ATOM     74  C   UNL A   1      35.773  34.512  29.093  1.00  0.00     0.020 A 
ATOM     75  C   UNL A   1      34.222  33.772  30.810  1.00  0.00     0.020 A 
ATOM     76  C   UNL A   1      34.488  34.490  29.641  1.00  0.00     0.054 A 
BRANCH  76  77
ATOM     77  S   UNL A   1      33.165  35.410  28.810  1.00  0.00     0.124 S 
ATOM     78  O   UNL A   1      32.509  34.367  28.026  1.00  0.00    -0.237 OA
ATOM     79  O   UNL A   1      32.391  35.941  29.930  1.00  0.00    -0.237 OA
ATOM     80  O   UNL A   1      33.886  36.416  28.033  1.00  0.00    -0.744 OA
ENDBRANCH  76  77
ENDBRANCH  57  71
BRANCH  58  81
ATOM     81  C   UNL A   1      44.181  28.877  35.843  1.00  0.00    -0.014 A 
ATOM     82  C   UNL A   1      43.941  27.665  36.520  1.00  0.00     0.010 A 
ATOM     83  C   UNL A   1      45.444  29.483  35.959  1.00  0.00     0.010 A 
ATOM     84  C   UNL A   1      44.913  27.112  37.355  1.00  0.00     0.020 A 
ATOM     85  C   UNL A   1      46.432  28.913  36.767  1.00  0.00     0.020 A 
ATOM     86  C   UNL A   1      46.148  27.750  37.488  1.00  0.00     0.054 A 
BRANCH  86  87
ATOM     87  S   UNL A   1      47.370  27.053  38.632  1.00  0.00     0.124 S 
ATOM     88  O   UNL A   1      47.393  28.057  39.692  1.00  0.00    -0.237 OA
ATOM     89  O   UNL A   1      46.774  25.769  38.993  1.00  0.00    -0.237 OA
ATOM     90  O   UNL A   1      48.583  26.967  37.823  1.00  0.00    -0.744 OA
ENDBRANCH  86  87
ENDBRANCH  58  81
BRANCH  70  91
ATOM     91  C   UNL A   1      39.465  33.803  37.475  1.00  0.00    -0.014 A 
ATOM     92  C   UNL A   1      40.080  35.062  37.605  1.00  0.00     0.010 A 
ATOM     93  C   UNL A   1      38.738  33.278  38.558  1.00  0.00     0.010 A 
ATOM     94  C   UNL A   1      40.008  35.764  38.810  1.00  0.00     0.020 A 
ATOM     95  C   UNL A   1      38.639  33.991  39.755  1.00  0.00     0.020 A 
ATOM     96  C   UNL A   1      39.298  35.217  39.882  1.00  0.00     0.054 A 
BRANCH  96  97
ATOM     97  S   UNL A   1      39.255  36.121  41.454  1.00  0.00     0.124 S 
ATOM     98  O   UNL A   1      39.289  37.512  41.009  1.00  0.00    -0.237 OA
ATOM     99  O   UNL A   1      37.993  35.679  42.044  1.00  0.00    -0.237 OA
ATOM    100  O   UNL A   1      40.453  35.657  42.149  1.00  0.00    -0.744 OA
ENDBRANCH  96  97
ENDBRANCH  70  91
ENDBRANCH  44  45
ENDBRANCH  36  39
ENDBRANCH  34  35
ENDBRANCH  33  34
ENDBRANCH   1  33
TORSDOF 18
ENDMDL
MODEL 2
REMARK VINA RESULT:     -12.0      4.414     10.520
REMARK SMILES C/C(=C\C(=O)c1c(O)n(C)c2ccccc2c1=O)Nc1ccc(C(=O)NCCCNC(=O)c2ccc(-c3c4nc(c(-c5ccc(S(=O)(=O)[O-])cc5)c5ccc([nH]5)c(-c5ccc(S(=O)(=O)[O-])cc5)c5nc(c(-c6ccc(S(=O)(=O)[O-])cc6)c6ccc3[nH]6)C=C5)C=C4)cc2)cc1
REMARK SMILES IDX 27 1 26 2 24 3 25 4 23 6 20 7 21 8 94 9 22 10 93 11 19 12
REMARK SMILES IDX 2 14 1 15 3 16 4 17 5 18 6 19 7 20 17 21 9 22 16 23 18 24
REMARK SMILES IDX 10 25 11 26 15 27 12 28 14 29 13 30 8 31 28 33 29 34 30 35
REMARK SMILES IDX 31 36 32 38 33 39 34 40 92 41 35 42 91 43 36 44 37 45 38 46
REMARK SMILES IDX 85 47 39 48 90 49 84 50 86 51 40 52 89 53 83 54 82 55 41 57
REMARK SMILES IDX 71 58 52 59 70 60 53 61 56 62 69 63 87 64 54 65 55 66 68 68
REMARK SMILES IDX 88 69 57 70 42 71 43 72 51 73 44 74 50 75 45 76 46 77 47 78
REMARK SMILES IDX 48 79 49 80 72 81 73 82 81 83 74 84 80 85 75 86 76 87 77 88
REMARK SMILES IDX 78 89 79 90 58 91 59 92 67 93 60 94 66 95 61 96 62 97 63 98
REMARK SMILES IDX 64 99 65 100
REMARK H PARENT 26 5 19 13 8 32 30 37 86 56 56 67
REMARK Flexibility Score: inf
ROOT
ATOM      1  C   UNL A   1      42.341  20.522  26.232  1.00  0.00     0.118 C 
ENDROOT
BRANCH   1   2
ATOM      2  N   UNL A   1      42.805  21.681  25.492  1.00  0.00    -0.352 N 
ATOM      3  C   UNL A   1      43.405  22.872  25.782  1.00  0.00     0.251 C 
ATOM      4  O   UNL A   1      43.654  23.580  24.801  1.00  0.00    -0.269 OA
ATOM      5  H   UNL A   1      42.645  21.582  24.526  1.00  0.00     0.163 HD
BRANCH   3   6
ATOM      6  C   UNL A   1      43.750  23.392  27.139  1.00  0.00     0.039 A 
ATOM      7  C   UNL A   1      44.115  24.155  29.870  1.00  0.00     0.038 A 
ATOM      8  C   UNL A   1      42.844  24.005  29.325  1.00  0.00     0.027 A 
ATOM      9  C   UNL A   1      45.197  24.034  28.993  1.00  0.00     0.027 A 
ATOM     10  C   UNL A   1      42.662  23.604  27.997  1.00  0.00     0.016 A 
ATOM     11  C   UNL A   1      45.015  23.683  27.643  1.00  0.00     0.016 A 
BRANCH   7  12
ATOM     12  N   UNL A   1      44.374  24.298  31.249  1.00  0.00    -0.359 N 
ATOM     13  H   UNL A   1      44.193  23.506  31.804  1.00  0.00     0.166 HD
BRANCH  12  14
ATOM     14  C   UNL A   1      44.858  25.427  31.932  1.00  0.00     0.016 C 
ATOM     15  C   UNL A   1      46.336  25.476  32.235  1.00  0.00     0.064 C 
ATOM     16  C   UNL A   1      43.997  26.424  32.249  1.00  0.00     0.074 C 
BRANCH  16  17
ATOM     17  C   UNL A   1      44.177  27.804  32.820  1.00  0.00     0.196 C 
ATOM     18  O   UNL A   1      45.203  28.066  33.446  1.00  0.00    -0.289 OA
BRANCH  17  19
ATOM     19  C   UNL A   1      43.069  28.772  32.753  1.00  0.00     0.130 A 
ATOM     20  C   UNL A   1      43.282  30.066  33.068  1.00  0.00     0.206 A 
ATOM     21  C   UNL A   1      41.684  28.298  32.545  1.00  0.00     0.204 A 
ATOM     22  N   UNL A   1      42.251  30.964  33.339  1.00  0.00    -0.315 N 
ATOM     23  C   UNL A   1      40.591  29.281  32.719  1.00  0.00     0.047 A 
ATOM     24  O   UNL A   1      41.435  27.122  32.297  1.00  0.00    -0.288 OA
ATOM     25  C   UNL A   1      42.500  32.232  34.037  1.00  0.00     0.153 C 
ATOM     26  C   UNL A   1      40.900  30.588  33.140  1.00  0.00     0.055 A 
ATOM     27  C   UNL A   1      39.266  28.860  32.522  1.00  0.00     0.014 A 
ATOM     28  C   UNL A   1      39.817  31.459  33.350  1.00  0.00     0.027 A 
ATOM     29  C   UNL A   1      38.217  29.745  32.744  1.00  0.00     0.001 A 
ATOM     30  C   UNL A   1      38.493  31.043  33.158  1.00  0.00     0.002 A 
BRANCH  20  31
ATOM     31  O   UNL A   1      44.561  30.570  33.231  1.00  0.00    -0.494 OA
ATOM     32  H   UNL A   1      44.897  30.723  34.092  1.00  0.00     0.295 HD
ENDBRANCH  20  31
ENDBRANCH  17  19
ENDBRANCH  16  17
ENDBRANCH  12  14
ENDBRANCH   7  12
ENDBRANCH   3   6
ENDBRANCH   1   2
BRANCH   1  33
ATOM     33  C   UNL A   1      40.825  20.399  26.222  1.00  0.00     0.042 C 
BRANCH  33  34
ATOM     34  C   UNL A   1      40.121  21.544  26.937  1.00  0.00     0.118 C 
BRANCH  34  35
ATOM     35  N   UNL A   1      38.998  22.080  26.174  1.00  0.00    -0.352 N 
ATOM     36  C   UNL A   1      38.449  23.343  26.135  1.00  0.00     0.251 C 
ATOM     37  H   UNL A   1      38.557  21.427  25.584  1.00  0.00     0.163 HD
ATOM     38  O   UNL A   1      37.366  23.513  25.593  1.00  0.00    -0.269 OA
BRANCH  36  39
ATOM     39  C   UNL A   1      39.146  24.481  26.777  1.00  0.00     0.039 A 
ATOM     40  C   UNL A   1      38.957  24.754  28.128  1.00  0.00     0.014 A 
ATOM     41  C   UNL A   1      40.003  25.285  26.021  1.00  0.00     0.014 A 
ATOM     42  C   UNL A   1      39.423  25.948  28.661  1.00  0.00     0.010 A 
ATOM     43  C   UNL A   1      40.584  26.420  26.598  1.00  0.00     0.010 A 
ATOM     44  C   UNL A   1      40.249  26.796  27.908  1.00  0.00    -0.014 A 
BRANCH  44  45
ATOM     45  C   UNL A   1      40.742  28.059  28.521  1.00  0.00     0.031 A 
ATOM     46  C   UNL A   1      42.216  28.295  28.727  1.00  0.00     0.074 A 
ATOM     47  C   UNL A   1      39.855  29.034  28.816  1.00  0.00     0.049 A 
ATOM     48  N   UNL A   1      42.815  29.353  29.214  1.00  0.00    -0.248 NA
ATOM     49  C   UNL A   1      43.139  27.215  28.341  1.00  0.00     0.031 C 
ATOM     50  C   UNL A   1      38.405  28.931  28.634  1.00  0.00     0.029 A 
ATOM     51  N   UNL A   1      40.039  30.312  29.282  1.00  0.00    -0.354 N 
ATOM     52  C   UNL A   1      44.174  29.057  29.214  1.00  0.00     0.074 A 
ATOM     53  C   UNL A   1      44.313  27.711  28.708  1.00  0.00     0.031 C 
ATOM     54  C   UNL A   1      37.844  30.119  28.897  1.00  0.00     0.029 A 
ATOM     55  C   UNL A   1      38.875  31.042  29.357  1.00  0.00     0.049 A 
ATOM     56  H   UNL A   1      40.919  30.672  29.537  1.00  0.00     0.167 HD
ATOM     57  C   UNL A   1      45.210  29.843  29.592  1.00  0.00     0.031 A 
ATOM     58  C   UNL A   1      38.649  32.308  29.762  1.00  0.00     0.031 A 
ATOM     59  C   UNL A   1      45.062  31.192  30.072  1.00  0.00     0.049 A 
ATOM     60  C   UNL A   1      39.809  33.143  30.218  1.00  0.00     0.074 A 
ATOM     61  C   UNL A   1      46.057  32.071  30.469  1.00  0.00     0.029 A 
ATOM     62  N   UNL A   1      43.858  31.864  30.208  1.00  0.00    -0.354 N 
ATOM     63  N   UNL A   1      41.084  32.835  30.226  1.00  0.00    -0.248 NA
ATOM     64  C   UNL A   1      39.506  34.486  30.727  1.00  0.00     0.031 C 
ATOM     65  C   UNL A   1      45.449  33.249  30.904  1.00  0.00     0.029 A 
ATOM     66  C   UNL A   1      44.081  33.135  30.710  1.00  0.00     0.049 A 
ATOM     67  H   UNL A   1      42.975  31.492  29.983  1.00  0.00     0.167 HD
ATOM     68  C   UNL A   1      41.737  33.948  30.739  1.00  0.00     0.074 A 
ATOM     69  C   UNL A   1      40.720  34.945  31.005  1.00  0.00     0.031 C 
ATOM     70  C   UNL A   1      43.060  34.120  30.975  1.00  0.00     0.031 A 
BRANCH  57  71
ATOM     71  C   UNL A   1      46.607  29.281  29.509  1.00  0.00    -0.014 A 
ATOM     72  C   UNL A   1      47.339  29.407  28.313  1.00  0.00     0.010 A 
ATOM     73  C   UNL A   1      47.147  28.523  30.563  1.00  0.00     0.010 A 
ATOM     74  C   UNL A   1      48.568  28.761  28.159  1.00  0.00     0.020 A 
ATOM     75  C   UNL A   1      48.391  27.898  30.423  1.00  0.00     0.020 A 
ATOM     76  C   UNL A   1      49.082  28.001  29.213  1.00  0.00     0.054 A 
BRANCH  76  77
ATOM     77  S   UNL A   1      50.667  27.149  28.988  1.00  0.00     0.124 S 
ATOM     78  O   UNL A   1      51.318  27.970  27.972  1.00  0.00    -0.237 OA
ATOM     79  O   UNL A   1      51.256  27.209  30.324  1.00  0.00    -0.237 OA
ATOM     80  O   UNL A   1      50.274  25.811  28.552  1.00  0.00    -0.744 OA
ENDBRANCH  76  77
ENDBRANCH  57  71
BRANCH  58  81
ATOM     81  C   UNL A   1      37.257  32.837  29.737  1.00  0.00    -0.014 A 
ATOM     82  C   UNL A   1      36.735  33.408  28.560  1.00  0.00     0.010 A 
ATOM     83  C   UNL A   1      36.485  32.873  30.911  1.00  0.00     0.010 A 
ATOM     84  C   UNL A   1      35.506  34.069  28.574  1.00  0.00     0.020 A 
ATOM     85  C   UNL A   1      35.237  33.504  30.920  1.00  0.00     0.020 A 
ATOM     86  C   UNL A   1      34.772  34.129  29.761  1.00  0.00     0.054 A 
BRANCH  86  87
ATOM     87  S   UNL A   1      33.211  35.052  29.774  1.00  0.00     0.124 S 
ATOM     88  O   UNL A   1      32.810  34.938  31.174  1.00  0.00    -0.237 OA
ATOM     89  O   UNL A   1      33.623  36.386  29.344  1.00  0.00    -0.237 OA
ATOM     90  O   UNL A   1      32.376  34.324  28.823  1.00  0.00    -0.744 OA
ENDBRANCH  86  87
ENDBRANCH  58  81
BRANCH  70  91
ATOM     91  C   UNL A   1      43.512  35.432  31.557  1.00  0.00    -0.014 A 
ATOM     92  C   UNL A   1      43.429  35.645  32.945  1.00  0.00     0.010 A 
ATOM     93  C   UNL A   1      43.881  36.499  30.719  1.00  0.00     0.010 A 
ATOM     94  C   UNL A   1      43.666  36.911  33.483  1.00  0.00     0.020 A 
ATOM     95  C   UNL A   1      44.149  37.760  31.257  1.00  0.00     0.020 A 
ATOM     96  C   UNL A   1      44.012  37.965  32.632  1.00  0.00     0.054 A 
BRANCH  96  97
ATOM     97  S   UNL A   1      44.272  39.613  33.343  1.00  0.00     0.124 S 
ATOM     98  O   UNL A   1      45.024  40.287  32.289  1.00  0.00    -0.237 OA
ATOM     99  O   UNL A   1      42.907  40.092  33.549  1.00  0.00    -0.237 OA
ATOM    100  O   UNL A   1      45.019  39.343  34.570  1.00  0.00    -0.744 OA
ENDBRANCH  96  97
ENDBRANCH  70  91
ENDBRANCH  44  45
ENDBRANCH  36  39
ENDBRANCH  34  35
ENDBRANCH  33  34
ENDBRANCH   1  33
TORSDOF 18
ENDMDL
MODEL 3
REMARK VINA RESULT:     -11.8      4.115      5.722
REMARK SMILES C/C(=C\C(=O)c1c(O)n(C)c2ccccc2c1=O)Nc1ccc(C(=O)NCCCNC(=O)c2ccc(-c3c4nc(c(-c5ccc(S(=O)(=O)[O-])cc5)c5ccc([nH]5)c(-c5ccc(S(=O)(=O)[O-])cc5)c5nc(c(-c6ccc(S(=O)(=O)[O-])cc6)c6ccc3[nH]6)C=C5)C=C4)cc2)cc1
REMARK SMILES IDX 27 1 26 2 24 3 25 4 23 6 20 7 21 8 94 9 22 10 93 11 19 12
REMARK SMILES IDX 2 14 1 15 3 16 4 17 5 18 6 19 7 20 17 21 9 22 16 23 18 24
REMARK SMILES IDX 10 25 11 26 15 27 12 28 14 29 13 30 8 31 28 33 29 34 30 35
REMARK SMILES IDX 31 36 32 38 33 39 34 40 92 41 35 42 91 43 36 44 37 45 38 46
REMARK SMILES IDX 85 47 39 48 90 49 84 50 86 51 40 52 89 53 83 54 82 55 41 57
REMARK SMILES IDX 71 58 52 59 70 60 53 61 56 62 69 63 87 64 54 65 55 66 68 68
REMARK SMILES IDX 88 69 57 70 42 71 43 72 51 73 44 74 50 75 45 76 46 77 47 78
REMARK SMILES IDX 48 79 49 80 72 81 73 82 81 83 74 84 80 85 75 86 76 87 77 88
REMARK SMILES IDX 78 89 79 90 58 91 59 92 67 93 60 94 66 95 61 96 62 97 63 98
REMARK SMILES IDX 64 99 65 100
REMARK H PARENT 26 5 19 13 8 32 30 37 86 56 56 67
REMARK Flexibility Score: inf
ROOT
ATOM      1  C   UNL A   1      34.779  22.480  27.346  1.00  0.00     0.118 C 
ENDROOT
BRANCH   1   2
ATOM      2  N   UNL A   1      34.542  21.232  26.644  1.00  0.00    -0.352 N 
ATOM      3  C   UNL A   1      33.768  20.808  25.603  1.00  0.00     0.251 C 
ATOM      4  O   UNL A   1      33.902  19.616  25.309  1.00  0.00    -0.269 OA
ATOM      5  H   UNL A   1      35.084  20.499  27.015  1.00  0.00     0.163 HD
BRANCH   3   6
ATOM      6  C   UNL A   1      32.781  21.622  24.833  1.00  0.00     0.039 A 
ATOM      7  C   UNL A   1      30.863  23.406  23.686  1.00  0.00     0.038 A 
ATOM      8  C   UNL A   1      30.749  22.970  25.003  1.00  0.00     0.027 A 
ATOM      9  C   UNL A   1      31.886  22.839  22.920  1.00  0.00     0.027 A 
ATOM     10  C   UNL A   1      31.701  22.120  25.575  1.00  0.00     0.016 A 
ATOM     11  C   UNL A   1      32.814  21.943  23.478  1.00  0.00     0.016 A 
BRANCH   7  12
ATOM     12  N   UNL A   1      30.101  24.453  23.129  1.00  0.00    -0.359 N 
ATOM     13  H   UNL A   1      29.471  24.195  22.418  1.00  0.00     0.166 HD
BRANCH  12  14
ATOM     14  C   UNL A   1      30.124  25.820  23.459  1.00  0.00     0.016 C 
ATOM     15  C   UNL A   1      29.454  26.235  24.748  1.00  0.00     0.064 C 
ATOM     16  C   UNL A   1      30.769  26.685  22.641  1.00  0.00     0.074 C 
BRANCH  16  17
ATOM     17  C   UNL A   1      31.122  28.143  22.748  1.00  0.00     0.196 C 
ATOM     18  O   UNL A   1      31.159  28.829  21.729  1.00  0.00    -0.289 OA
BRANCH  17  19
ATOM     19  C   UNL A   1      31.562  28.693  24.042  1.00  0.00     0.130 A 
ATOM     20  C   UNL A   1      30.930  29.759  24.573  1.00  0.00     0.206 A 
ATOM     21  C   UNL A   1      32.818  28.217  24.660  1.00  0.00     0.204 A 
ATOM     22  N   UNL A   1      31.466  30.527  25.605  1.00  0.00    -0.315 N 
ATOM     23  C   UNL A   1      33.330  28.963  25.832  1.00  0.00     0.047 A 
ATOM     24  O   UNL A   1      33.453  27.277  24.191  1.00  0.00    -0.288 OA
ATOM     25  C   UNL A   1      30.961  31.873  25.904  1.00  0.00     0.153 C 
ATOM     26  C   UNL A   1      32.654  30.120  26.260  1.00  0.00     0.055 A 
ATOM     27  C   UNL A   1      34.518  28.530  26.443  1.00  0.00     0.014 A 
ATOM     28  C   UNL A   1      33.221  30.824  27.338  1.00  0.00     0.027 A 
ATOM     29  C   UNL A   1      35.056  29.251  27.502  1.00  0.00     0.001 A 
ATOM     30  C   UNL A   1      34.408  30.397  27.948  1.00  0.00     0.002 A 
BRANCH  20  31
ATOM     31  O   UNL A   1      29.730  30.218  24.059  1.00  0.00    -0.494 OA
ATOM     32  H   UNL A   1      28.923  29.837  24.344  1.00  0.00     0.295 HD
ENDBRANCH  20  31
ENDBRANCH  17  19
ENDBRANCH  16  17
ENDBRANCH  12  14
ENDBRANCH   7  12
ENDBRANCH   3   6
ENDBRANCH   1   2
BRANCH   1  33
ATOM     33  C   UNL A   1      34.857  23.670  26.401  1.00  0.00     0.042 C 
BRANCH  33  34
ATOM     34  C   UNL A   1      36.280  24.138  26.135  1.00  0.00     0.118 C 
BRANCH  34  35
ATOM     35  N   UNL A   1      37.231  23.034  26.053  1.00  0.00    -0.352 N 
ATOM     36  C   UNL A   1      38.593  22.993  26.259  1.00  0.00     0.251 C 
ATOM     37  H   UNL A   1      36.831  22.168  25.811  1.00  0.00     0.163 HD
ATOM     38  O   UNL A   1      39.226  22.004  25.913  1.00  0.00    -0.269 OA
BRANCH  36  39
ATOM     39  C   UNL A   1      39.293  24.151  26.858  1.00  0.00     0.039 A 
ATOM     40  C   UNL A   1      39.200  24.407  28.223  1.00  0.00     0.014 A 
ATOM     41  C   UNL A   1      40.058  24.994  26.047  1.00  0.00     0.014 A 
ATOM     42  C   UNL A   1      39.660  25.613  28.731  1.00  0.00     0.010 A 
ATOM     43  C   UNL A   1      40.638  26.147  26.591  1.00  0.00     0.010 A 
ATOM     44  C   UNL A   1      40.392  26.499  27.926  1.00  0.00    -0.014 A 
BRANCH  44  45
ATOM     45  C   UNL A   1      40.883  27.774  28.514  1.00  0.00     0.031 A 
ATOM     46  C   UNL A   1      39.943  28.928  28.752  1.00  0.00     0.074 A 
ATOM     47  C   UNL A   1      42.169  27.859  28.914  1.00  0.00     0.049 A 
ATOM     48  N   UNL A   1      40.200  30.096  29.288  1.00  0.00    -0.248 NA
ATOM     49  C   UNL A   1      38.540  28.760  28.340  1.00  0.00     0.031 C 
ATOM     50  C   UNL A   1      43.167  26.797  28.762  1.00  0.00     0.029 A 
ATOM     51  N   UNL A   1      42.849  28.856  29.569  1.00  0.00    -0.354 N 
ATOM     52  C   UNL A   1      39.002  30.803  29.255  1.00  0.00     0.074 A 
ATOM     53  C   UNL A   1      38.025  29.950  28.621  1.00  0.00     0.031 C 
ATOM     54  C   UNL A   1      44.296  27.161  29.384  1.00  0.00     0.029 A 
ATOM     55  C   UNL A   1      44.141  28.517  29.897  1.00  0.00     0.049 A 
ATOM     56  H   UNL A   1      42.449  29.730  29.784  1.00  0.00     0.167 HD
ATOM     57  C   UNL A   1      38.743  32.047  29.724  1.00  0.00     0.031 A 
ATOM     58  C   UNL A   1      45.106  29.215  30.528  1.00  0.00     0.031 A 
ATOM     59  C   UNL A   1      39.719  32.880  30.377  1.00  0.00     0.049 A 
ATOM     60  C   UNL A   1      44.806  30.608  30.997  1.00  0.00     0.074 A 
ATOM     61  C   UNL A   1      39.546  34.153  30.894  1.00  0.00     0.029 A 
ATOM     62  N   UNL A   1      41.038  32.527  30.615  1.00  0.00    -0.354 N 
ATOM     63  N   UNL A   1      43.672  31.263  30.939  1.00  0.00    -0.248 NA
ATOM     64  C   UNL A   1      45.911  31.361  31.606  1.00  0.00     0.031 C 
ATOM     65  C   UNL A   1      40.774  34.593  31.389  1.00  0.00     0.029 A 
ATOM     66  C   UNL A   1      41.697  33.569  31.248  1.00  0.00     0.049 A 
ATOM     67  H   UNL A   1      41.446  31.666  30.371  1.00  0.00     0.167 HD
ATOM     68  C   UNL A   1      43.924  32.505  31.506  1.00  0.00     0.074 A 
ATOM     69  C   UNL A   1      45.312  32.501  31.924  1.00  0.00     0.031 C 
ATOM     70  C   UNL A   1      43.081  33.555  31.656  1.00  0.00     0.031 A 
BRANCH  57  71
ATOM     71  C   UNL A   1      37.352  32.603  29.556  1.00  0.00    -0.014 A 
ATOM     72  C   UNL A   1      37.001  33.254  28.358  1.00  0.00     0.010 A 
ATOM     73  C   UNL A   1      36.434  32.594  30.621  1.00  0.00     0.010 A 
ATOM     74  C   UNL A   1      35.775  33.914  28.238  1.00  0.00     0.020 A 
ATOM     75  C   UNL A   1      35.194  33.229  30.495  1.00  0.00     0.020 A 
ATOM     76  C   UNL A   1      34.883  33.905  29.312  1.00  0.00     0.054 A 
BRANCH  76  77
ATOM     77  S   UNL A   1      33.306  34.787  29.149  1.00  0.00     0.124 S 
ATOM     78  O   UNL A   1      33.731  36.087  28.639  1.00  0.00    -0.237 OA
ATOM     79  O   UNL A   1      32.566  33.948  28.209  1.00  0.00    -0.237 OA
ATOM     80  O   UNL A   1      32.777  34.793  30.511  1.00  0.00    -0.744 OA
ENDBRANCH  76  77
ENDBRANCH  57  71
BRANCH  58  81
ATOM     81  C   UNL A   1      46.435  28.578  30.745  1.00  0.00    -0.014 A 
ATOM     82  C   UNL A   1      47.427  28.646  29.747  1.00  0.00     0.010 A 
ATOM     83  C   UNL A   1      46.680  27.811  31.897  1.00  0.00     0.010 A 
ATOM     84  C   UNL A   1      48.603  27.903  29.861  1.00  0.00     0.020 A 
ATOM     85  C   UNL A   1      47.873  27.093  32.031  1.00  0.00     0.020 A 
ATOM     86  C   UNL A   1      48.810  27.115  30.995  1.00  0.00     0.054 A 
BRANCH  86  87
ATOM     87  S   UNL A   1      50.313  26.104  31.091  1.00  0.00     0.124 S 
ATOM     88  O   UNL A   1      51.342  27.062  30.698  1.00  0.00    -0.237 OA
ATOM     89  O   UNL A   1      50.335  25.695  32.493  1.00  0.00    -0.237 OA
ATOM     90  O   UNL A   1      50.061  25.028  30.136  1.00  0.00    -0.744 OA
ENDBRANCH  86  87
ENDBRANCH  58  81
BRANCH  70  91
ATOM     91  C   UNL A   1      43.616  34.809  32.296  1.00  0.00    -0.014 A 
ATOM     92  C   UNL A   1      43.322  35.083  33.645  1.00  0.00     0.010 A 
ATOM     93  C   UNL A   1      44.283  35.777  31.527  1.00  0.00     0.010 A 
ATOM     94  C   UNL A   1      43.649  36.320  34.202  1.00  0.00     0.020 A 
ATOM     95  C   UNL A   1      44.639  37.006  32.090  1.00  0.00     0.020 A 
ATOM     96  C   UNL A   1      44.294  37.279  33.417  1.00  0.00     0.054 A 
BRANCH  96  97
ATOM     97  S   UNL A   1      44.670  38.897  34.145  1.00  0.00     0.124 S 
ATOM     98  O   UNL A   1      43.339  39.471  34.322  1.00  0.00    -0.237 OA
ATOM     99  O   UNL A   1      45.371  38.540  35.376  1.00  0.00    -0.237 OA
ATOM    100  O   UNL A   1      45.500  39.544  33.131  1.00  0.00    -0.744 OA
ENDBRANCH  96  97
ENDBRANCH  70  91
ENDBRANCH  44  45
ENDBRANCH  36  39
ENDBRANCH  34  35
ENDBRANCH  33  34
ENDBRANCH   1  33
TORSDOF 18
ENDMDL
