MODEL 1
REMARK VINA RESULT:     -11.9      0.000      0.000
REMARK SMILES [NH3+]Cc1ccc(C(=O)N2[C@@H](C(=O)NCCCNC(=O)c3ccc(-c4c5nc(c(-c6ccc(S(=O)(=O)[O-])cc6)c6ccc([nH]6)c(-c6ccc(S(=O)(=O)[O-])cc6)c6nc(c(-c7ccc(S(=O)(=O)[O-])cc7)c7ccc4[nH]7)C=C6)C=C5)cc3)C[C@H]3CCCC[C@@H]32)o1
REMARK SMILES IDX 14 1 13 2 11 3 12 4 10 6 9 7 86 8 80 9 81 10 85 11 82 12
REMARK SMILES IDX 84 13 83 14 7 15 8 16 6 17 3 18 4 19 87 20 5 21 2 22 1 23
REMARK SMILES IDX 15 27 16 28 17 29 18 30 19 32 20 33 21 34 79 35 22 36 78 37
REMARK SMILES IDX 23 38 24 39 25 40 72 41 26 42 77 43 71 44 73 45 27 46 76 47
REMARK SMILES IDX 70 48 69 49 28 51 58 52 39 53 57 54 40 55 43 56 56 57 74 58
REMARK SMILES IDX 41 59 42 60 55 62 75 63 44 64 29 65 30 66 38 67 31 68 37 69
REMARK SMILES IDX 32 70 33 71 34 72 35 73 36 74 59 75 60 76 68 77 61 78 67 79
REMARK SMILES IDX 62 80 63 81 64 82 65 83 66 84 45 85 46 86 54 87 47 88 53 89
REMARK SMILES IDX 48 90 49 91 50 92 51 93 52 94
REMARK H PARENT 13 5 1 24 1 25 1 26 17 31 73 50 43 61
REMARK Flexibility Score: inf
ROOT
ATOM      1  C   UNL A   1      35.656  23.964  25.812  1.00  0.00     0.117 C 
ENDROOT
BRANCH   1   2
ATOM      2  N   UNL A   1      35.166  24.276  24.483  1.00  0.00    -0.354 N 
ATOM      3  C   UNL A   1      34.244  25.178  24.050  1.00  0.00     0.242 C 
ATOM      4  O   UNL A   1      33.999  25.182  22.839  1.00  0.00    -0.273 OA
ATOM      5  H   UNL A   1      35.573  23.737  23.766  1.00  0.00     0.163 HD
BRANCH   3   6
ATOM      6  C   UNL A   1      33.495  26.111  25.037  1.00  0.00     0.175 C 
ATOM      7  N   UNL A   1      32.072  25.727  25.086  1.00  0.00    -0.321 N 
ATOM      8  C   UNL A   1      31.329  26.503  24.116  1.00  0.00     0.089 C 
ATOM      9  C   UNL A   1      33.473  27.542  24.434  1.00  0.00     0.041 C 
ATOM     10  C   UNL A   1      31.986  27.870  24.314  1.00  0.00     0.014 C 
ATOM     11  C   UNL A   1      29.819  26.659  24.284  1.00  0.00     0.025 C 
ATOM     12  C   UNL A   1      31.555  28.843  23.231  1.00  0.00     0.006 C 
ATOM     13  C   UNL A   1      29.285  27.668  23.258  1.00  0.00     0.002 C 
ATOM     14  C   UNL A   1      30.031  29.008  23.285  1.00  0.00     0.000 C 
BRANCH   7  15
ATOM     15  C   UNL A   1      31.554  24.609  25.718  1.00  0.00     0.290 C 
ATOM     16  O   UNL A   1      30.986  24.709  26.803  1.00  0.00    -0.265 OA
BRANCH  15  17
ATOM     17  C   UNL A   1      31.831  23.323  25.097  1.00  0.00     0.192 A 
ATOM     18  C   UNL A   1      32.816  21.343  24.985  1.00  0.00     0.159 A 
ATOM     19  C   UNL A   1      32.164  21.525  23.782  1.00  0.00     0.052 A 
ATOM     20  O   UNL A   1      32.607  22.428  25.785  1.00  0.00    -0.450 OA
ATOM     21  C   UNL A   1      31.550  22.799  23.847  1.00  0.00     0.057 A 
BRANCH  18  22
ATOM     22  C   UNL A   1      33.674  20.271  25.560  1.00  0.00     0.335 C 
BRANCH  22  23
ATOM     23  N   UNL A   1      32.902  19.276  26.299  1.00  0.00    -0.351 N 
ATOM     24  H   UNL A   1      33.526  18.745  26.906  1.00  0.00     0.344 HD
ATOM     25  H   UNL A   1      32.445  18.644  25.642  1.00  0.00     0.344 HD
ATOM     26  H   UNL A   1      32.197  19.746  26.866  1.00  0.00     0.344 HD
ENDBRANCH  22  23
ENDBRANCH  18  22
ENDBRANCH  15  17
ENDBRANCH   7  15
ENDBRANCH   3   6
ENDBRANCH   1   2
BRANCH   1  27
ATOM     27  C   UNL A   1      37.084  23.422  25.794  1.00  0.00     0.042 C 
BRANCH  27  28
ATOM     28  C   UNL A   1      38.094  24.209  26.627  1.00  0.00     0.118 C 
BRANCH  28  29
ATOM     29  N   UNL A   1      39.455  24.103  26.126  1.00  0.00    -0.352 N 
ATOM     30  C   UNL A   1      40.574  24.819  26.479  1.00  0.00     0.251 C 
ATOM     31  H   UNL A   1      39.595  23.420  25.432  1.00  0.00     0.163 HD
ATOM     32  O   UNL A   1      41.612  24.661  25.840  1.00  0.00    -0.269 OA
BRANCH  30  33
ATOM     33  C   UNL A   1      40.536  25.790  27.597  1.00  0.00     0.039 A 
ATOM     34  C   UNL A   1      41.424  26.872  27.569  1.00  0.00     0.014 A 
ATOM     35  C   UNL A   1      39.672  25.626  28.684  1.00  0.00     0.014 A 
ATOM     36  C   UNL A   1      41.404  27.820  28.595  1.00  0.00     0.010 A 
ATOM     37  C   UNL A   1      39.631  26.590  29.695  1.00  0.00     0.010 A 
ATOM     38  C   UNL A   1      40.491  27.697  29.653  1.00  0.00    -0.014 A 
BRANCH  38  39
ATOM     39  C   UNL A   1      40.417  28.725  30.719  1.00  0.00     0.031 A 
ATOM     40  C   UNL A   1      41.341  28.668  31.900  1.00  0.00     0.074 A 
ATOM     41  C   UNL A   1      39.480  29.690  30.647  1.00  0.00     0.049 A 
ATOM     42  N   UNL A   1      41.357  29.422  32.971  1.00  0.00    -0.248 NA
ATOM     43  C   UNL A   1      42.372  27.620  31.881  1.00  0.00     0.031 C 
ATOM     44  C   UNL A   1      38.512  29.853  29.562  1.00  0.00     0.029 A 
ATOM     45  N   UNL A   1      39.188  30.711  31.515  1.00  0.00    -0.354 N 
ATOM     46  C   UNL A   1      42.375  28.920  33.770  1.00  0.00     0.074 A 
ATOM     47  C   UNL A   1      42.958  27.802  33.057  1.00  0.00     0.031 C 
ATOM     48  C   UNL A   1      37.742  30.923  29.821  1.00  0.00     0.029 A 
ATOM     49  C   UNL A   1      38.145  31.502  31.099  1.00  0.00     0.049 A 
ATOM     50  H   UNL A   1      39.679  30.864  32.354  1.00  0.00     0.167 HD
ATOM     51  C   UNL A   1      42.785  29.345  34.988  1.00  0.00     0.031 A 
ATOM     52  C   UNL A   1      37.571  32.571  31.683  1.00  0.00     0.031 A 
ATOM     53  C   UNL A   1      42.232  30.467  35.695  1.00  0.00     0.049 A 
ATOM     54  C   UNL A   1      38.068  33.050  33.015  1.00  0.00     0.074 A 
ATOM     55  C   UNL A   1      42.596  30.977  36.930  1.00  0.00     0.029 A 
ATOM     56  N   UNL A   1      41.200  31.262  35.223  1.00  0.00    -0.354 N 
ATOM     57  N   UNL A   1      39.029  32.556  33.758  1.00  0.00    -0.248 NA
ATOM     58  C   UNL A   1      37.401  34.228  33.586  1.00  0.00     0.031 C 
ATOM     59  C   UNL A   1      41.779  32.082  37.206  1.00  0.00     0.029 A 
ATOM     60  C   UNL A   1      40.915  32.262  36.139  1.00  0.00     0.049 A 
ATOM     61  H   UNL A   1      40.738  31.135  34.363  1.00  0.00     0.167 HD
ATOM     62  C   UNL A   1      39.084  33.366  34.886  1.00  0.00     0.074 A 
ATOM     63  C   UNL A   1      38.065  34.385  34.724  1.00  0.00     0.031 C 
ATOM     64  C   UNL A   1      39.903  33.270  35.960  1.00  0.00     0.031 A 
BRANCH  51  65
ATOM     65  C   UNL A   1      43.885  28.554  35.633  1.00  0.00    -0.014 A 
ATOM     66  C   UNL A   1      43.593  27.544  36.565  1.00  0.00     0.010 A 
ATOM     67  C   UNL A   1      45.226  28.851  35.330  1.00  0.00     0.010 A 
ATOM     68  C   UNL A   1      44.627  26.873  37.223  1.00  0.00     0.020 A 
ATOM     69  C   UNL A   1      46.262  28.175  35.979  1.00  0.00     0.020 A 
ATOM     70  C   UNL A   1      45.955  27.207  36.940  1.00  0.00     0.054 A 
BRANCH  70  71
ATOM     71  S   UNL A   1      47.301  26.365  37.817  1.00  0.00     0.124 S 
ATOM     72  O   UNL A   1      46.624  25.181  38.338  1.00  0.00    -0.237 OA
ATOM     73  O   UNL A   1      48.282  26.111  36.764  1.00  0.00    -0.237 OA
ATOM     74  O   UNL A   1      47.712  27.345  38.819  1.00  0.00    -0.744 OA
ENDBRANCH  70  71
ENDBRANCH  51  65
BRANCH  52  75
ATOM     75  C   UNL A   1      36.460  33.267  30.992  1.00  0.00    -0.014 A 
ATOM     76  C   UNL A   1      35.214  33.403  31.628  1.00  0.00     0.010 A 
ATOM     77  C   UNL A   1      36.656  33.835  29.721  1.00  0.00     0.010 A 
ATOM     78  C   UNL A   1      34.179  34.102  31.005  1.00  0.00     0.020 A 
ATOM     79  C   UNL A   1      35.623  34.542  29.100  1.00  0.00     0.020 A 
ATOM     80  C   UNL A   1      34.389  34.667  29.744  1.00  0.00     0.054 A 
BRANCH  80  81
ATOM     81  S   UNL A   1      33.069  35.646  28.973  1.00  0.00     0.124 S 
ATOM     82  O   UNL A   1      32.472  34.680  28.056  1.00  0.00    -0.237 OA
ATOM     83  O   UNL A   1      32.239  36.034  30.110  1.00  0.00    -0.237 OA
ATOM     84  O   UNL A   1      33.796  36.745  28.343  1.00  0.00    -0.744 OA
ENDBRANCH  80  81
ENDBRANCH  52  75
BRANCH  64  85
ATOM     85  C   UNL A   1      39.737  34.304  37.034  1.00  0.00    -0.014 A 
ATOM     86  C   UNL A   1      38.855  34.083  38.105  1.00  0.00     0.010 A 
ATOM     87  C   UNL A   1      40.484  35.493  36.986  1.00  0.00     0.010 A 
ATOM     88  C   UNL A   1      38.706  35.048  39.105  1.00  0.00     0.020 A 
ATOM     89  C   UNL A   1      40.342  36.457  37.986  1.00  0.00     0.020 A 
ATOM     90  C   UNL A   1      39.444  36.234  39.034  1.00  0.00     0.054 A 
BRANCH  90  91
ATOM     91  S   UNL A   1      39.276  37.473  40.349  1.00  0.00     0.124 S 
ATOM     92  O   UNL A   1      40.564  38.157  40.289  1.00  0.00    -0.237 OA
ATOM     93  O   UNL A   1      38.125  38.264  39.919  1.00  0.00    -0.237 OA
ATOM     94  O   UNL A   1      39.050  36.664  41.545  1.00  0.00    -0.744 OA
ENDBRANCH  90  91
ENDBRANCH  64  85
ENDBRANCH  38  39
ENDBRANCH  30  33
ENDBRANCH  28  29
ENDBRANCH  27  28
ENDBRANCH   1  27
TORSDOF 17
ENDMDL
MODEL 2
REMARK VINA RESULT:     -11.8      3.675      4.951
REMARK SMILES [NH3+]Cc1ccc(C(=O)N2[C@@H](C(=O)NCCCNC(=O)c3ccc(-c4c5nc(c(-c6ccc(S(=O)(=O)[O-])cc6)c6ccc([nH]6)c(-c6ccc(S(=O)(=O)[O-])cc6)c6nc(c(-c7ccc(S(=O)(=O)[O-])cc7)c7ccc4[nH]7)C=C6)C=C5)cc3)C[C@H]3CCCC[C@@H]32)o1
REMARK SMILES IDX 14 1 13 2 11 3 12 4 10 6 9 7 86 8 80 9 81 10 85 11 82 12
REMARK SMILES IDX 84 13 83 14 7 15 8 16 6 17 3 18 4 19 87 20 5 21 2 22 1 23
REMARK SMILES IDX 15 27 16 28 17 29 18 30 19 32 20 33 21 34 79 35 22 36 78 37
REMARK SMILES IDX 23 38 24 39 25 40 72 41 26 42 77 43 71 44 73 45 27 46 76 47
REMARK SMILES IDX 70 48 69 49 28 51 58 52 39 53 57 54 40 55 43 56 56 57 74 58
REMARK SMILES IDX 41 59 42 60 55 62 75 63 44 64 29 65 30 66 38 67 31 68 37 69
REMARK SMILES IDX 32 70 33 71 34 72 35 73 36 74 59 75 60 76 68 77 61 78 67 79
REMARK SMILES IDX 62 80 63 81 64 82 65 83 66 84 45 85 46 86 54 87 47 88 53 89
REMARK SMILES IDX 48 90 49 91 50 92 51 93 52 94
REMARK H PARENT 13 5 1 24 1 25 1 26 17 31 73 50 43 61
REMARK Flexibility Score: inf
ROOT
ATOM      1  C   UNL A   1      33.629  23.889  25.485  1.00  0.00     0.117 C 
ENDROOT
BRANCH   1   2
ATOM      2  N   UNL A   1      32.575  24.605  26.177  1.00  0.00    -0.354 N 
ATOM      3  C   UNL A   1      31.591  25.427  25.720  1.00  0.00     0.242 C 
ATOM      4  O   UNL A   1      30.853  25.935  26.571  1.00  0.00    -0.273 OA
ATOM      5  H   UNL A   1      32.569  24.473  27.153  1.00  0.00     0.163 HD
BRANCH   3   6
ATOM      6  C   UNL A   1      31.446  25.756  24.211  1.00  0.00     0.175 C 
ATOM      7  N   UNL A   1      31.785  27.174  23.987  1.00  0.00    -0.321 N 
ATOM      8  C   UNL A   1      30.583  27.976  24.064  1.00  0.00     0.089 C 
ATOM      9  C   UNL A   1      29.940  25.671  23.837  1.00  0.00     0.041 C 
ATOM     10  C   UNL A   1      29.610  27.066  23.310  1.00  0.00     0.014 C 
ATOM     11  C   UNL A   1      30.563  29.357  23.411  1.00  0.00     0.025 C 
ATOM     12  C   UNL A   1      28.182  27.562  23.450  1.00  0.00     0.006 C 
ATOM     13  C   UNL A   1      29.141  29.931  23.456  1.00  0.00     0.002 C 
ATOM     14  C   UNL A   1      28.088  28.981  22.875  1.00  0.00     0.000 C 
BRANCH   7  15
ATOM     15  C   UNL A   1      33.059  27.716  24.002  1.00  0.00     0.290 C 
ATOM     16  O   UNL A   1      33.784  27.641  23.012  1.00  0.00    -0.265 OA
BRANCH  15  17
ATOM     17  C   UNL A   1      33.524  28.251  25.272  1.00  0.00     0.192 A 
ATOM     18  C   UNL A   1      33.720  29.836  26.806  1.00  0.00     0.159 A 
ATOM     19  C   UNL A   1      34.552  28.807  27.198  1.00  0.00     0.052 A 
ATOM     20  O   UNL A   1      33.091  29.496  25.644  1.00  0.00    -0.450 OA
ATOM     21  C   UNL A   1      34.440  27.802  26.207  1.00  0.00     0.057 A 
BRANCH  18  22
ATOM     22  C   UNL A   1      33.393  31.183  27.349  1.00  0.00     0.335 C 
BRANCH  22  23
ATOM     23  N   UNL A   1      32.074  31.648  26.932  1.00  0.00    -0.351 N 
ATOM     24  H   UNL A   1      31.996  32.649  27.104  1.00  0.00     0.344 HD
ATOM     25  H   UNL A   1      31.356  31.154  27.462  1.00  0.00     0.344 HD
ATOM     26  H   UNL A   1      31.949  31.464  25.936  1.00  0.00     0.344 HD
ENDBRANCH  22  23
ENDBRANCH  18  22
ENDBRANCH  15  17
ENDBRANCH   7  15
ENDBRANCH   3   6
ENDBRANCH   1   2
BRANCH   1  27
ATOM     27  C   UNL A   1      34.886  23.735  26.339  1.00  0.00     0.042 C 
BRANCH  27  28
ATOM     28  C   UNL A   1      36.202  24.060  25.633  1.00  0.00     0.118 C 
BRANCH  28  29
ATOM     29  N   UNL A   1      37.176  22.984  25.716  1.00  0.00    -0.352 N 
ATOM     30  C   UNL A   1      38.465  23.009  26.193  1.00  0.00     0.251 C 
ATOM     31  H   UNL A   1      36.869  22.112  25.380  1.00  0.00     0.163 HD
ATOM     32  O   UNL A   1      39.173  22.013  26.056  1.00  0.00    -0.269 OA
BRANCH  30  33
ATOM     33  C   UNL A   1      39.015  24.221  26.842  1.00  0.00     0.039 A 
ATOM     34  C   UNL A   1      39.809  25.084  26.078  1.00  0.00     0.014 A 
ATOM     35  C   UNL A   1      38.793  24.494  28.196  1.00  0.00     0.014 A 
ATOM     36  C   UNL A   1      40.328  26.248  26.650  1.00  0.00     0.010 A 
ATOM     37  C   UNL A   1      39.287  25.673  28.760  1.00  0.00     0.010 A 
ATOM     38  C   UNL A   1      40.052  26.562  27.989  1.00  0.00    -0.014 A 
BRANCH  38  39
ATOM     39  C   UNL A   1      40.546  27.822  28.594  1.00  0.00     0.031 A 
ATOM     40  C   UNL A   1      41.965  27.936  29.065  1.00  0.00     0.074 A 
ATOM     41  C   UNL A   1      39.698  28.855  28.764  1.00  0.00     0.049 A 
ATOM     42  N   UNL A   1      42.545  28.923  29.703  1.00  0.00    -0.248 NA
ATOM     43  C   UNL A   1      42.845  26.789  28.796  1.00  0.00     0.031 C 
ATOM     44  C   UNL A   1      38.290  28.871  28.363  1.00  0.00     0.029 A 
ATOM     45  N   UNL A   1      39.902  30.088  29.328  1.00  0.00    -0.354 N 
ATOM     46  C   UNL A   1      43.846  28.503  29.943  1.00  0.00     0.074 A 
ATOM     47  C   UNL A   1      43.973  27.176  29.375  1.00  0.00     0.031 C 
ATOM     48  C   UNL A   1      37.761  30.064  28.681  1.00  0.00     0.029 A 
ATOM     49  C   UNL A   1      38.781  30.882  29.328  1.00  0.00     0.049 A 
ATOM     50  H   UNL A   1      40.767  30.376  29.697  1.00  0.00     0.167 HD
ATOM     51  C   UNL A   1      44.845  29.157  30.582  1.00  0.00     0.031 A 
ATOM     52  C   UNL A   1      38.593  32.129  29.802  1.00  0.00     0.031 A 
ATOM     53  C   UNL A   1      44.740  30.482  31.127  1.00  0.00     0.049 A 
ATOM     54  C   UNL A   1      39.725  32.852  30.471  1.00  0.00     0.074 A 
ATOM     55  C   UNL A   1      45.706  31.229  31.781  1.00  0.00     0.029 A 
ATOM     56  N   UNL A   1      43.598  31.266  31.076  1.00  0.00    -0.354 N 
ATOM     57  N   UNL A   1      40.948  32.434  30.693  1.00  0.00    -0.248 NA
ATOM     58  C   UNL A   1      39.449  34.212  30.952  1.00  0.00     0.031 C 
ATOM     59  C   UNL A   1      45.146  32.466  32.126  1.00  0.00     0.029 A 
ATOM     60  C   UNL A   1      43.834  32.489  31.680  1.00  0.00     0.049 A 
ATOM     61  H   UNL A   1      42.744  30.993  30.668  1.00  0.00     0.167 HD
ATOM     62  C   UNL A   1      41.589  33.482  31.341  1.00  0.00     0.074 A 
ATOM     63  C   UNL A   1      40.623  34.556  31.467  1.00  0.00     0.031 C 
ATOM     64  C   UNL A   1      42.864  33.547  31.793  1.00  0.00     0.031 A 
BRANCH  51  65
ATOM     65  C   UNL A   1      46.138  28.412  30.735  1.00  0.00    -0.014 A 
ATOM     66  C   UNL A   1      46.364  27.588  31.850  1.00  0.00     0.010 A 
ATOM     67  C   UNL A   1      47.149  28.567  29.771  1.00  0.00     0.010 A 
ATOM     68  C   UNL A   1      47.604  26.967  32.025  1.00  0.00     0.020 A 
ATOM     69  C   UNL A   1      48.386  27.940  29.939  1.00  0.00     0.020 A 
ATOM     70  C   UNL A   1      48.614  27.163  31.079  1.00  0.00     0.054 A 
BRANCH  70  71
ATOM     71  S   UNL A   1      50.236  26.389  31.320  1.00  0.00     0.124 S 
ATOM     72  O   UNL A   1      49.875  25.139  31.981  1.00  0.00    -0.237 OA
ATOM     73  O   UNL A   1      50.748  26.250  29.958  1.00  0.00    -0.237 OA
ATOM     74  O   UNL A   1      50.948  27.356  32.151  1.00  0.00    -0.744 OA
ENDBRANCH  70  71
ENDBRANCH  51  65
BRANCH  52  75
ATOM     75  C   UNL A   1      37.267  32.773  29.644  1.00  0.00    -0.014 A 
ATOM     76  C   UNL A   1      36.389  32.846  30.738  1.00  0.00     0.010 A 
ATOM     77  C   UNL A   1      36.900  33.356  28.419  1.00  0.00     0.010 A 
ATOM     78  C   UNL A   1      35.160  33.497  30.611  1.00  0.00     0.020 A 
ATOM     79  C   UNL A   1      35.674  34.014  28.293  1.00  0.00     0.020 A 
ATOM     80  C   UNL A   1      34.810  34.077  29.389  1.00  0.00     0.054 A 
BRANCH  80  81
ATOM     81  S   UNL A   1      33.250  34.994  29.250  1.00  0.00     0.124 S 
ATOM     82  O   UNL A   1      32.730  34.915  30.612  1.00  0.00    -0.237 OA
ATOM     83  O   UNL A   1      33.684  36.320  28.817  1.00  0.00    -0.237 OA
ATOM     84  O   UNL A   1      32.507  34.236  28.247  1.00  0.00    -0.744 OA
ENDBRANCH  80  81
ENDBRANCH  52  75
BRANCH  64  85
ATOM     85  C   UNL A   1      43.286  34.827  32.451  1.00  0.00    -0.014 A 
ATOM     86  C   UNL A   1      43.919  35.836  31.706  1.00  0.00     0.010 A 
ATOM     87  C   UNL A   1      43.029  35.033  33.817  1.00  0.00     0.010 A 
ATOM     88  C   UNL A   1      44.307  37.029  32.322  1.00  0.00     0.020 A 
ATOM     89  C   UNL A   1      43.411  36.225  34.436  1.00  0.00     0.020 A 
ATOM     90  C   UNL A   1      44.060  37.212  33.687  1.00  0.00     0.054 A 
BRANCH  90  91
ATOM     91  S   UNL A   1      44.534  38.773  34.481  1.00  0.00     0.124 S 
ATOM     92  O   UNL A   1      44.720  38.363  35.870  1.00  0.00    -0.237 OA
ATOM     93  O   UNL A   1      45.753  39.153  33.770  1.00  0.00    -0.237 OA
ATOM     94  O   UNL A   1      43.384  39.639  34.231  1.00  0.00    -0.744 OA
ENDBRANCH  90  91
ENDBRANCH  64  85
ENDBRANCH  38  39
ENDBRANCH  30  33
ENDBRANCH  28  29
ENDBRANCH  27  28
ENDBRANCH   1  27
TORSDOF 17
ENDMDL
MODEL 3
REMARK VINA RESULT:     -11.5      4.926      6.477
REMARK SMILES [NH3+]Cc1ccc(C(=O)N2[C@@H](C(=O)NCCCNC(=O)c3ccc(-c4c5nc(c(-c6ccc(S(=O)(=O)[O-])cc6)c6ccc([nH]6)c(-c6ccc(S(=O)(=O)[O-])cc6)c6nc(c(-c7ccc(S(=O)(=O)[O-])cc7)c7ccc4[nH]7)C=C6)C=C5)cc3)C[C@H]3CCCC[C@@H]32)o1
REMARK SMILES IDX 14 1 13 2 11 3 12 4 10 6 9 7 86 8 80 9 81 10 85 11 82 12
REMARK SMILES IDX 84 13 83 14 7 15 8 16 6 17 3 18 4 19 87 20 5 21 2 22 1 23
REMARK SMILES IDX 15 27 16 28 17 29 18 30 19 32 20 33 21 34 79 35 22 36 78 37
REMARK SMILES IDX 23 38 24 39 25 40 72 41 26 42 77 43 71 44 73 45 27 46 76 47
REMARK SMILES IDX 70 48 69 49 28 51 58 52 39 53 57 54 40 55 43 56 56 57 74 58
REMARK SMILES IDX 41 59 42 60 55 62 75 63 44 64 29 65 30 66 38 67 31 68 37 69
REMARK SMILES IDX 32 70 33 71 34 72 35 73 36 74 59 75 60 76 68 77 61 78 67 79
REMARK SMILES IDX 62 80 63 81 64 82 65 83 66 84 45 85 46 86 54 87 47 88 53 89
REMARK SMILES IDX 48 90 49 91 50 92 51 93 52 94
REMARK H PARENT 13 5 1 24 1 25 1 26 17 31 73 50 43 61
REMARK Flexibility Score: inf
ROOT
ATOM      1  C   UNL A   1      33.628  24.277  25.268  1.00  0.00     0.117 C 
ENDROOT
BRANCH   1   2
ATOM      2  N   UNL A   1      32.531  24.897  25.988  1.00  0.00    -0.354 N 
ATOM      3  C   UNL A   1      31.495  25.670  25.564  1.00  0.00     0.242 C 
ATOM      4  O   UNL A   1      30.729  26.096  26.434  1.00  0.00    -0.273 OA
ATOM      5  H   UNL A   1      32.538  24.727  26.958  1.00  0.00     0.163 HD
BRANCH   3   6
ATOM      6  C   UNL A   1      31.323  26.046  24.069  1.00  0.00     0.175 C 
ATOM      7  N   UNL A   1      31.634  27.477  23.888  1.00  0.00    -0.321 N 
ATOM      8  C   UNL A   1      30.419  28.254  24.007  1.00  0.00     0.089 C 
ATOM      9  C   UNL A   1      29.814  25.946  23.712  1.00  0.00     0.041 C 
ATOM     10  C   UNL A   1      29.452  27.352  23.237  1.00  0.00     0.014 C 
ATOM     11  C   UNL A   1      30.366  29.655  23.401  1.00  0.00     0.025 C 
ATOM     12  C   UNL A   1      28.017  27.816  23.412  1.00  0.00     0.006 C 
ATOM     13  C   UNL A   1      28.935  30.202  23.485  1.00  0.00     0.002 C 
ATOM     14  C   UNL A   1      27.890  29.252  22.886  1.00  0.00     0.000 C 
BRANCH   7  15
ATOM     15  C   UNL A   1      32.898  28.041  23.905  1.00  0.00     0.290 C 
ATOM     16  O   UNL A   1      33.585  28.071  22.885  1.00  0.00    -0.265 OA
BRANCH  15  17
ATOM     17  C   UNL A   1      33.403  28.469  25.199  1.00  0.00     0.192 A 
ATOM     18  C   UNL A   1      33.752  29.957  26.802  1.00  0.00     0.159 A 
ATOM     19  C   UNL A   1      34.463  28.828  27.154  1.00  0.00     0.052 A 
ATOM     20  O   UNL A   1      33.103  29.737  25.622  1.00  0.00    -0.450 OA
ATOM     21  C   UNL A   1      34.255  27.883  26.120  1.00  0.00     0.057 A 
BRANCH  18  22
ATOM     22  C   UNL A   1      33.567  31.308  27.400  1.00  0.00     0.335 C 
BRANCH  22  23
ATOM     23  N   UNL A   1      34.204  31.431  28.707  1.00  0.00    -0.351 N 
ATOM     24  H   UNL A   1      33.508  31.704  29.400  1.00  0.00     0.344 HD
ATOM     25  H   UNL A   1      34.937  32.138  28.663  1.00  0.00     0.344 HD
ATOM     26  H   UNL A   1      34.612  30.534  28.972  1.00  0.00     0.344 HD
ENDBRANCH  22  23
ENDBRANCH  18  22
ENDBRANCH  15  17
ENDBRANCH   7  15
ENDBRANCH   3   6
ENDBRANCH   1   2
BRANCH   1  27
ATOM     27  C   UNL A   1      34.675  23.678  26.204  1.00  0.00     0.042 C 
BRANCH  27  28
ATOM     28  C   UNL A   1      36.125  24.038  25.881  1.00  0.00     0.118 C 
BRANCH  28  29
ATOM     29  N   UNL A   1      37.021  22.895  25.926  1.00  0.00    -0.352 N 
ATOM     30  C   UNL A   1      38.357  22.845  26.249  1.00  0.00     0.251 C 
ATOM     31  H   UNL A   1      36.614  22.031  25.691  1.00  0.00     0.163 HD
ATOM     32  O   UNL A   1      38.969  21.789  26.101  1.00  0.00    -0.269 OA
BRANCH  30  33
ATOM     33  C   UNL A   1      39.067  24.046  26.744  1.00  0.00     0.039 A 
ATOM     34  C   UNL A   1      39.769  24.832  25.822  1.00  0.00     0.014 A 
ATOM     35  C   UNL A   1      39.084  24.383  28.101  1.00  0.00     0.014 A 
ATOM     36  C   UNL A   1      40.433  25.985  26.248  1.00  0.00     0.010 A 
ATOM     37  C   UNL A   1      39.724  25.551  28.522  1.00  0.00     0.010 A 
ATOM     38  C   UNL A   1      40.397  26.364  27.597  1.00  0.00    -0.014 A 
BRANCH  38  39
ATOM     39  C   UNL A   1      41.047  27.615  28.055  1.00  0.00     0.031 A 
ATOM     40  C   UNL A   1      42.537  27.775  27.972  1.00  0.00     0.074 A 
ATOM     41  C   UNL A   1      40.297  28.596  28.595  1.00  0.00     0.049 A 
ATOM     42  N   UNL A   1      43.286  28.755  28.411  1.00  0.00    -0.248 NA
ATOM     43  C   UNL A   1      43.282  26.686  27.322  1.00  0.00     0.031 C 
ATOM     44  C   UNL A   1      38.842  28.563  28.747  1.00  0.00     0.029 A 
ATOM     45  N   UNL A   1      40.665  29.808  29.120  1.00  0.00    -0.354 N 
ATOM     46  C   UNL A   1      44.594  28.388  28.123  1.00  0.00     0.074 A 
ATOM     47  C   UNL A   1      44.534  27.099  27.464  1.00  0.00     0.031 C 
ATOM     48  C   UNL A   1      38.438  29.712  29.314  1.00  0.00     0.029 A 
ATOM     49  C   UNL A   1      39.605  30.546  29.587  1.00  0.00     0.049 A 
ATOM     50  H   UNL A   1      41.598  30.119  29.159  1.00  0.00     0.167 HD
ATOM     51  C   UNL A   1      45.741  29.057  28.386  1.00  0.00     0.031 A 
ATOM     52  C   UNL A   1      39.574  31.757  30.176  1.00  0.00     0.031 A 
ATOM     53  C   UNL A   1      45.812  30.347  29.015  1.00  0.00     0.049 A 
ATOM     54  C   UNL A   1      40.854  32.499  30.422  1.00  0.00     0.074 A 
ATOM     55  C   UNL A   1      46.933  31.106  29.310  1.00  0.00     0.029 A 
ATOM     56  N   UNL A   1      44.713  31.076  29.442  1.00  0.00    -0.354 N 
ATOM     57  N   UNL A   1      42.082  32.131  30.147  1.00  0.00    -0.248 NA
ATOM     58  C   UNL A   1      40.742  33.819  31.058  1.00  0.00     0.031 C 
ATOM     59  C   UNL A   1      46.509  32.296  29.917  1.00  0.00     0.029 A 
ATOM     60  C   UNL A   1      45.126  32.278  29.993  1.00  0.00     0.049 A 
ATOM     61  H   UNL A   1      43.777  30.782  29.364  1.00  0.00     0.167 HD
ATOM     62  C   UNL A   1      42.891  33.176  30.576  1.00  0.00     0.074 A 
ATOM     63  C   UNL A   1      42.014  34.194  31.121  1.00  0.00     0.031 C 
ATOM     64  C   UNL A   1      44.241  33.280  30.525  1.00  0.00     0.031 A 
BRANCH  51  65
ATOM     65  C   UNL A   1      47.017  28.370  27.999  1.00  0.00    -0.014 A 
ATOM     66  C   UNL A   1      47.638  28.646  26.770  1.00  0.00     0.010 A 
ATOM     67  C   UNL A   1      47.580  27.412  28.861  1.00  0.00     0.010 A 
ATOM     68  C   UNL A   1      48.779  27.937  26.383  1.00  0.00     0.020 A 
ATOM     69  C   UNL A   1      48.726  26.709  28.481  1.00  0.00     0.020 A 
ATOM     70  C   UNL A   1      49.304  26.959  27.233  1.00  0.00     0.054 A 
BRANCH  70  71
ATOM     71  S   UNL A   1      50.763  26.011  26.721  1.00  0.00     0.124 S 
ATOM     72  O   UNL A   1      51.852  26.867  27.183  1.00  0.00    -0.237 OA
ATOM     73  O   UNL A   1      50.613  24.748  27.442  1.00  0.00    -0.237 OA
ATOM     74  O   UNL A   1      50.610  25.917  25.272  1.00  0.00    -0.744 OA
ENDBRANCH  70  71
ENDBRANCH  51  65
BRANCH  52  75
ATOM     75  C   UNL A   1      38.269  32.343  30.563  1.00  0.00    -0.014 A 
ATOM     76  C   UNL A   1      37.752  32.115  31.850  1.00  0.00     0.010 A 
ATOM     77  C   UNL A   1      37.564  33.167  29.669  1.00  0.00     0.010 A 
ATOM     78  C   UNL A   1      36.549  32.706  32.240  1.00  0.00     0.020 A 
ATOM     79  C   UNL A   1      36.364  33.765  30.061  1.00  0.00     0.020 A 
ATOM     80  C   UNL A   1      35.861  33.527  31.342  1.00  0.00     0.054 A 
BRANCH  80  81
ATOM     81  S   UNL A   1      34.341  34.361  31.880  1.00  0.00     0.124 S 
ATOM     82  O   UNL A   1      33.652  34.580  30.612  1.00  0.00    -0.237 OA
ATOM     83  O   UNL A   1      33.726  33.382  32.772  1.00  0.00    -0.237 OA
ATOM     84  O   UNL A   1      34.839  35.564  32.542  1.00  0.00    -0.744 OA
ENDBRANCH  80  81
ENDBRANCH  52  75
BRANCH  64  85
ATOM     85  C   UNL A   1      44.844  34.544  31.061  1.00  0.00    -0.014 A 
ATOM     86  C   UNL A   1      45.258  34.624  32.401  1.00  0.00     0.010 A 
ATOM     87  C   UNL A   1      45.019  35.652  30.215  1.00  0.00     0.010 A 
ATOM     88  C   UNL A   1      45.823  35.803  32.895  1.00  0.00     0.020 A 
ATOM     89  C   UNL A   1      45.588  36.831  30.704  1.00  0.00     0.020 A 
ATOM     90  C   UNL A   1      45.975  36.903  32.045  1.00  0.00     0.054 A 
BRANCH  90  91
ATOM     91  S   UNL A   1      46.738  38.424  32.677  1.00  0.00     0.124 S 
ATOM     92  O   UNL A   1      48.050  38.393  32.038  1.00  0.00    -0.237 OA
ATOM     93  O   UNL A   1      45.835  39.472  32.207  1.00  0.00    -0.237 OA
ATOM     94  O   UNL A   1      46.741  38.220  34.124  1.00  0.00    -0.744 OA
ENDBRANCH  90  91
ENDBRANCH  64  85
ENDBRANCH  38  39
ENDBRANCH  30  33
ENDBRANCH  28  29
ENDBRANCH  27  28
ENDBRANCH   1  27
TORSDOF 17
ENDMDL
