MODEL 1
REMARK VINA RESULT:     -11.0      0.000      0.000
REMARK SMILES Cc1[nH]c2ccccc2c1[C@H]([NH3+])CC(=O)NCCCNC(=O)c1ccc(-c2c3nc(c(-c4ccc(S(=O)(=O)[O-])cc4)c4ccc([nH]4)c(-c4ccc(S(=O)(=O)[O-])cc4)c4nc(c(-c5ccc(S(=O)(=O)[O-])cc5)c5ccc2[nH]5)C=C4)C=C3)cc1
REMARK SMILES IDX 18 1 17 2 16 3 14 4 15 5 13 7 11 8 10 9 1 10 2 11 3 12 4 13
REMARK SMILES IDX 9 15 5 16 8 17 6 18 7 19 12 20 19 24 20 25 21 26 22 28 23 29
REMARK SMILES IDX 24 30 82 31 25 32 81 33 26 34 27 35 28 36 75 37 29 38 80 39
REMARK SMILES IDX 74 40 76 41 30 42 79 43 73 44 72 45 31 47 61 48 42 49 60 50
REMARK SMILES IDX 43 51 46 52 59 53 77 54 44 55 45 56 58 58 78 59 47 60 32 61
REMARK SMILES IDX 33 62 41 63 34 64 40 65 35 66 36 67 37 68 38 69 39 70 62 71
REMARK SMILES IDX 63 72 71 73 64 74 70 75 65 76 66 77 67 78 68 79 69 80 48 81
REMARK SMILES IDX 49 82 57 83 50 84 56 85 51 86 52 87 53 88 54 89 55 90
REMARK H PARENT 16 6 3 14 12 21 12 22 12 23 20 27 76 46 46 57
REMARK Flexibility Score: inf
ROOT
ATOM      1  C   UNL A   1      35.688  22.938  24.722  1.00  0.00     0.042 C 
ENDROOT
BRANCH   1   2
ATOM      2  C   UNL A   1      34.475  23.846  24.554  1.00  0.00     0.117 C 
BRANCH   2   3
ATOM      3  N   UNL A   1      34.159  24.096  23.157  1.00  0.00    -0.356 N 
ATOM      4  C   UNL A   1      33.353  25.049  22.604  1.00  0.00     0.226 C 
ATOM      5  O   UNL A   1      33.185  25.042  21.382  1.00  0.00    -0.275 OA
ATOM      6  H   UNL A   1      34.589  23.487  22.515  1.00  0.00     0.163 HD
BRANCH   4   7
ATOM      7  C   UNL A   1      32.729  26.114  23.473  1.00  0.00     0.170 C 
BRANCH   7   8
ATOM      8  C   UNL A   1      33.348  27.496  23.248  1.00  0.00     0.223 C 
BRANCH   8   9
ATOM      9  C   UNL A   1      32.558  28.560  23.988  1.00  0.00     0.038 A 
ATOM     10  C   UNL A   1      30.257  28.926  22.697  1.00  0.00     0.065 C 
ATOM     11  C   UNL A   1      31.303  29.119  23.740  1.00  0.00     0.022 A 
ATOM     12  N   UNL A   1      31.072  30.060  24.717  1.00  0.00    -0.358 N 
ATOM     13  C   UNL A   1      32.092  30.088  25.631  1.00  0.00     0.046 A 
ATOM     14  H   UNL A   1      30.277  30.639  24.755  1.00  0.00     0.166 HD
ATOM     15  C   UNL A   1      33.038  29.163  25.207  1.00  0.00     0.009 A 
ATOM     16  C   UNL A   1      32.244  30.859  26.789  1.00  0.00     0.027 A 
ATOM     17  C   UNL A   1      34.200  28.988  25.991  1.00  0.00     0.011 A 
ATOM     18  C   UNL A   1      33.403  30.667  27.547  1.00  0.00     0.002 A 
ATOM     19  C   UNL A   1      34.369  29.743  27.157  1.00  0.00     0.001 A 
ENDBRANCH   8   9
BRANCH   8  20
ATOM     20  N   UNL A   1      33.479  27.869  21.843  1.00  0.00    -0.351 N 
ATOM     21  H   UNL A   1      32.590  28.243  21.507  1.00  0.00     0.345 HD
ATOM     22  H   UNL A   1      33.731  27.048  21.295  1.00  0.00     0.345 HD
ATOM     23  H   UNL A   1      34.203  28.580  21.746  1.00  0.00     0.345 HD
ENDBRANCH   8  20
ENDBRANCH   7   8
ENDBRANCH   4   7
ENDBRANCH   2   3
ENDBRANCH   1   2
BRANCH   1  24
ATOM     24  C   UNL A   1      36.526  23.255  25.953  1.00  0.00     0.118 C 
BRANCH  24  25
ATOM     25  N   UNL A   1      37.719  22.425  26.034  1.00  0.00    -0.352 N 
ATOM     26  C   UNL A   1      39.019  22.765  26.326  1.00  0.00     0.251 C 
ATOM     27  H   UNL A   1      37.572  21.469  25.851  1.00  0.00     0.163 HD
ATOM     28  O   UNL A   1      39.911  21.948  26.115  1.00  0.00    -0.269 OA
BRANCH  26  29
ATOM     29  C   UNL A   1      39.355  24.103  26.865  1.00  0.00     0.039 A 
ATOM     30  C   UNL A   1      38.981  24.414  28.176  1.00  0.00     0.014 A 
ATOM     31  C   UNL A   1      40.002  25.065  26.086  1.00  0.00     0.014 A 
ATOM     32  C   UNL A   1      39.318  25.655  28.724  1.00  0.00     0.010 A 
ATOM     33  C   UNL A   1      40.411  26.269  26.657  1.00  0.00     0.010 A 
ATOM     34  C   UNL A   1      40.073  26.579  27.982  1.00  0.00    -0.014 A 
BRANCH  34  35
ATOM     35  C   UNL A   1      40.530  27.862  28.577  1.00  0.00     0.031 A 
ATOM     36  C   UNL A   1      41.936  28.007  29.091  1.00  0.00     0.074 A 
ATOM     37  C   UNL A   1      39.656  28.879  28.716  1.00  0.00     0.049 A 
ATOM     38  N   UNL A   1      42.493  29.029  29.690  1.00  0.00    -0.248 NA
ATOM     39  C   UNL A   1      42.826  26.846  28.933  1.00  0.00     0.031 C 
ATOM     40  C   UNL A   1      38.255  28.855  28.291  1.00  0.00     0.029 A 
ATOM     41  N   UNL A   1      39.816  30.129  29.260  1.00  0.00    -0.354 N 
ATOM     42  C   UNL A   1      43.790  28.630  29.994  1.00  0.00     0.074 A 
ATOM     43  C   UNL A   1      43.921  27.258  29.555  1.00  0.00     0.031 C 
ATOM     44  C   UNL A   1      37.694  30.044  28.560  1.00  0.00     0.029 A 
ATOM     45  C   UNL A   1      38.678  30.898  29.217  1.00  0.00     0.049 A 
ATOM     46  H   UNL A   1      40.666  30.444  29.645  1.00  0.00     0.167 HD
ATOM     47  C   UNL A   1      44.788  29.345  30.569  1.00  0.00     0.031 A 
ATOM     48  C   UNL A   1      38.445  32.148  29.663  1.00  0.00     0.031 A 
ATOM     49  C   UNL A   1      44.658  30.710  31.005  1.00  0.00     0.049 A 
ATOM     50  C   UNL A   1      39.554  32.910  30.330  1.00  0.00     0.074 A 
ATOM     51  C   UNL A   1      45.626  31.539  31.543  1.00  0.00     0.029 A 
ATOM     52  N   UNL A   1      43.481  31.445  30.963  1.00  0.00    -0.354 N 
ATOM     53  N   UNL A   1      40.792  32.539  30.547  1.00  0.00    -0.248 NA
ATOM     54  C   UNL A   1      39.233  34.262  30.811  1.00  0.00     0.031 C 
ATOM     55  C   UNL A   1      45.023  32.758  31.875  1.00  0.00     0.029 A 
ATOM     56  C   UNL A   1      43.690  32.705  31.497  1.00  0.00     0.049 A 
ATOM     57  H   UNL A   1      42.625  31.118  30.606  1.00  0.00     0.167 HD
ATOM     58  C   UNL A   1      41.404  33.614  31.180  1.00  0.00     0.074 A 
ATOM     59  C   UNL A   1      40.404  34.657  31.294  1.00  0.00     0.031 C 
ATOM     60  C   UNL A   1      42.682  33.727  31.624  1.00  0.00     0.031 A 
BRANCH  47  61
ATOM     61  C   UNL A   1      46.106  28.644  30.773  1.00  0.00    -0.014 A 
ATOM     62  C   UNL A   1      47.057  28.567  29.738  1.00  0.00     0.010 A 
ATOM     63  C   UNL A   1      46.401  28.055  32.017  1.00  0.00     0.010 A 
ATOM     64  C   UNL A   1      48.249  27.861  29.922  1.00  0.00     0.020 A 
ATOM     65  C   UNL A   1      47.605  27.373  32.214  1.00  0.00     0.020 A 
ATOM     66  C   UNL A   1      48.511  27.258  31.156  1.00  0.00     0.054 A 
BRANCH  66  67
ATOM     67  S   UNL A   1      50.056  26.333  31.364  1.00  0.00     0.124 S 
ATOM     68  O   UNL A   1      50.571  26.298  29.997  1.00  0.00    -0.237 OA
ATOM     69  O   UNL A   1      50.809  27.169  32.297  1.00  0.00    -0.237 OA
ATOM     70  O   UNL A   1      49.621  25.046  31.899  1.00  0.00    -0.744 OA
ENDBRANCH  66  67
ENDBRANCH  47  61
BRANCH  48  71
ATOM     71  C   UNL A   1      37.101  32.756  29.469  1.00  0.00    -0.014 A 
ATOM     72  C   UNL A   1      36.211  32.862  30.551  1.00  0.00     0.010 A 
ATOM     73  C   UNL A   1      36.727  33.278  28.218  1.00  0.00     0.010 A 
ATOM     74  C   UNL A   1      34.971  33.488  30.388  1.00  0.00     0.020 A 
ATOM     75  C   UNL A   1      35.497  33.925  28.057  1.00  0.00     0.020 A 
ATOM     76  C   UNL A   1      34.625  34.022  29.144  1.00  0.00     0.054 A 
BRANCH  76  77
ATOM     77  S   UNL A   1      33.053  34.913  28.980  1.00  0.00     0.124 S 
ATOM     78  O   UNL A   1      33.491  36.225  28.519  1.00  0.00    -0.237 OA
ATOM     79  O   UNL A   1      32.332  34.104  28.000  1.00  0.00    -0.237 OA
ATOM     80  O   UNL A   1      32.496  34.874  30.332  1.00  0.00    -0.744 OA
ENDBRANCH  76  77
ENDBRANCH  48  71
BRANCH  60  81
ATOM     81  C   UNL A   1      43.073  35.025  32.274  1.00  0.00    -0.014 A 
ATOM     82  C   UNL A   1      43.627  36.075  31.518  1.00  0.00     0.010 A 
ATOM     83  C   UNL A   1      42.830  35.222  33.645  1.00  0.00     0.010 A 
ATOM     84  C   UNL A   1      43.951  37.289  32.128  1.00  0.00     0.020 A 
ATOM     85  C   UNL A   1      43.129  36.444  34.254  1.00  0.00     0.020 A 
ATOM     86  C   UNL A   1      43.698  37.467  33.493  1.00  0.00     0.054 A 
BRANCH  86  87
ATOM     87  S   UNL A   1      44.077  39.072  34.249  1.00  0.00     0.124 S 
ATOM     88  O   UNL A   1      42.974  39.901  33.771  1.00  0.00    -0.237 OA
ATOM     89  O   UNL A   1      44.062  38.766  35.677  1.00  0.00    -0.237 OA
ATOM     90  O   UNL A   1      45.391  39.409  33.705  1.00  0.00    -0.744 OA
ENDBRANCH  86  87
ENDBRANCH  60  81
ENDBRANCH  34  35
ENDBRANCH  26  29
ENDBRANCH  24  25
ENDBRANCH   1  24
TORSDOF 16
ENDMDL
MODEL 2
REMARK VINA RESULT:     -10.9      2.687      9.607
REMARK SMILES Cc1[nH]c2ccccc2c1[C@H]([NH3+])CC(=O)NCCCNC(=O)c1ccc(-c2c3nc(c(-c4ccc(S(=O)(=O)[O-])cc4)c4ccc([nH]4)c(-c4ccc(S(=O)(=O)[O-])cc4)c4nc(c(-c5ccc(S(=O)(=O)[O-])cc5)c5ccc2[nH]5)C=C4)C=C3)cc1
REMARK SMILES IDX 18 1 17 2 16 3 14 4 15 5 13 7 11 8 10 9 1 10 2 11 3 12 4 13
REMARK SMILES IDX 9 15 5 16 8 17 6 18 7 19 12 20 19 24 20 25 21 26 22 28 23 29
REMARK SMILES IDX 24 30 82 31 25 32 81 33 26 34 27 35 28 36 75 37 29 38 80 39
REMARK SMILES IDX 74 40 76 41 30 42 79 43 73 44 72 45 31 47 61 48 42 49 60 50
REMARK SMILES IDX 43 51 46 52 59 53 77 54 44 55 45 56 58 58 78 59 47 60 32 61
REMARK SMILES IDX 33 62 41 63 34 64 40 65 35 66 36 67 37 68 38 69 39 70 62 71
REMARK SMILES IDX 63 72 71 73 64 74 70 75 65 76 66 77 67 78 68 79 69 80 48 81
REMARK SMILES IDX 49 82 57 83 50 84 56 85 51 86 52 87 53 88 54 89 55 90
REMARK H PARENT 16 6 3 14 12 21 12 22 12 23 20 27 76 46 46 57
REMARK Flexibility Score: inf
ROOT
ATOM      1  C   UNL A   1      31.924  27.791  26.866  1.00  0.00     0.042 C 
ENDROOT
BRANCH   1   2
ATOM      2  C   UNL A   1      31.924  26.540  25.994  1.00  0.00     0.117 C 
BRANCH   2   3
ATOM      3  N   UNL A   1      31.293  25.406  26.652  1.00  0.00    -0.356 N 
ATOM      4  C   UNL A   1      31.777  24.150  26.874  1.00  0.00     0.226 C 
ATOM      5  O   UNL A   1      31.038  23.320  27.410  1.00  0.00    -0.275 OA
ATOM      6  H   UNL A   1      30.382  25.570  26.985  1.00  0.00     0.163 HD
BRANCH   4   7
ATOM      7  C   UNL A   1      33.203  23.810  26.514  1.00  0.00     0.170 C 
BRANCH   7   8
ATOM      8  C   UNL A   1      33.311  23.046  25.191  1.00  0.00     0.223 C 
BRANCH   8   9
ATOM      9  C   UNL A   1      34.477  22.074  25.230  1.00  0.00     0.038 A 
ATOM     10  C   UNL A   1      33.550  19.651  24.627  1.00  0.00     0.065 C 
ATOM     11  C   UNL A   1      34.541  20.700  24.994  1.00  0.00     0.022 A 
ATOM     12  N   UNL A   1      35.849  20.313  25.183  1.00  0.00    -0.358 N 
ATOM     13  C   UNL A   1      36.650  21.388  25.462  1.00  0.00     0.046 A 
ATOM     14  H   UNL A   1      36.167  19.382  25.125  1.00  0.00     0.166 HD
ATOM     15  C   UNL A   1      35.826  22.505  25.498  1.00  0.00     0.009 A 
ATOM     16  C   UNL A   1      38.030  21.449  25.684  1.00  0.00     0.027 A 
ATOM     17  C   UNL A   1      36.416  23.762  25.761  1.00  0.00     0.011 A 
ATOM     18  C   UNL A   1      38.589  22.705  25.942  1.00  0.00     0.002 A 
ATOM     19  C   UNL A   1      37.795  23.848  25.978  1.00  0.00     0.001 A 
ENDBRANCH   8   9
BRANCH   8  20
ATOM     20  N   UNL A   1      33.426  23.903  24.015  1.00  0.00    -0.351 N 
ATOM     21  H   UNL A   1      34.225  24.528  24.127  1.00  0.00     0.345 HD
ATOM     22  H   UNL A   1      32.575  24.455  23.912  1.00  0.00     0.345 HD
ATOM     23  H   UNL A   1      33.560  23.326  23.185  1.00  0.00     0.345 HD
ENDBRANCH   8  20
ENDBRANCH   7   8
ENDBRANCH   4   7
ENDBRANCH   2   3
ENDBRANCH   1   2
BRANCH   1  24
ATOM     24  C   UNL A   1      33.313  28.360  27.120  1.00  0.00     0.118 C 
BRANCH  24  25
ATOM     25  N   UNL A   1      33.283  29.797  27.353  1.00  0.00    -0.352 N 
ATOM     26  C   UNL A   1      34.207  30.619  27.953  1.00  0.00     0.251 C 
ATOM     27  H   UNL A   1      32.473  30.252  27.029  1.00  0.00     0.163 HD
ATOM     28  O   UNL A   1      33.883  31.764  28.252  1.00  0.00    -0.269 OA
BRANCH  26  29
ATOM     29  C   UNL A   1      35.573  30.133  28.263  1.00  0.00     0.039 A 
ATOM     30  C   UNL A   1      36.543  30.167  27.256  1.00  0.00     0.014 A 
ATOM     31  C   UNL A   1      35.899  29.615  29.518  1.00  0.00     0.014 A 
ATOM     32  C   UNL A   1      37.850  29.750  27.530  1.00  0.00     0.010 A 
ATOM     33  C   UNL A   1      37.218  29.279  29.816  1.00  0.00     0.010 A 
ATOM     34  C   UNL A   1      38.208  29.341  28.825  1.00  0.00    -0.014 A 
BRANCH  34  35
ATOM     35  C   UNL A   1      39.612  28.991  29.165  1.00  0.00     0.031 A 
ATOM     36  C   UNL A   1      40.509  29.996  29.836  1.00  0.00     0.074 A 
ATOM     37  C   UNL A   1      40.102  27.786  28.810  1.00  0.00     0.049 A 
ATOM     38  N   UNL A   1      41.773  29.887  30.157  1.00  0.00    -0.248 NA
ATOM     39  C   UNL A   1      39.915  31.300  30.168  1.00  0.00     0.031 C 
ATOM     40  C   UNL A   1      39.348  26.735  28.124  1.00  0.00     0.029 A 
ATOM     41  N   UNL A   1      41.354  27.245  28.971  1.00  0.00    -0.354 N 
ATOM     42  C   UNL A   1      42.130  31.110  30.713  1.00  0.00     0.074 A 
ATOM     43  C   UNL A   1      40.961  31.960  30.642  1.00  0.00     0.031 C 
ATOM     44  C   UNL A   1      40.141  25.666  27.953  1.00  0.00     0.029 A 
ATOM     45  C   UNL A   1      41.470  25.969  28.473  1.00  0.00     0.049 A 
ATOM     46  H   UNL A   1      42.097  27.727  29.401  1.00  0.00     0.167 HD
ATOM     47  C   UNL A   1      43.316  31.488  31.250  1.00  0.00     0.031 A 
ATOM     48  C   UNL A   1      42.529  25.137  28.429  1.00  0.00     0.031 A 
ATOM     49  C   UNL A   1      44.477  30.642  31.321  1.00  0.00     0.049 A 
ATOM     50  C   UNL A   1      43.844  25.588  28.998  1.00  0.00     0.074 A 
ATOM     51  C   UNL A   1      45.705  30.911  31.900  1.00  0.00     0.029 A 
ATOM     52  N   UNL A   1      44.559  29.365  30.786  1.00  0.00    -0.354 N 
ATOM     53  N   UNL A   1      44.142  26.724  29.580  1.00  0.00    -0.248 NA
ATOM     54  C   UNL A   1      44.965  24.642  28.905  1.00  0.00     0.031 C 
ATOM     55  C   UNL A   1      46.547  29.817  31.668  1.00  0.00     0.029 A 
ATOM     56  C   UNL A   1      45.827  28.846  30.989  1.00  0.00     0.049 A 
ATOM     57  H   UNL A   1      43.825  28.897  30.328  1.00  0.00     0.167 HD
ATOM     58  C   UNL A   1      45.482  26.627  29.934  1.00  0.00     0.074 A 
ATOM     59  C   UNL A   1      45.932  25.315  29.516  1.00  0.00     0.031 C 
ATOM     60  C   UNL A   1      46.268  27.545  30.551  1.00  0.00     0.031 A 
BRANCH  47  61
ATOM     61  C   UNL A   1      43.411  32.892  31.788  1.00  0.00    -0.014 A 
ATOM     62  C   UNL A   1      43.831  33.958  30.970  1.00  0.00     0.010 A 
ATOM     63  C   UNL A   1      43.073  33.153  33.129  1.00  0.00     0.010 A 
ATOM     64  C   UNL A   1      43.974  35.243  31.498  1.00  0.00     0.020 A 
ATOM     65  C   UNL A   1      43.186  34.444  33.654  1.00  0.00     0.020 A 
ATOM     66  C   UNL A   1      43.661  35.476  32.841  1.00  0.00     0.054 A 
BRANCH  66  67
ATOM     67  S   UNL A   1      43.870  37.150  33.508  1.00  0.00     0.124 S 
ATOM     68  O   UNL A   1      43.876  37.958  32.291  1.00  0.00    -0.237 OA
ATOM     69  O   UNL A   1      42.693  37.307  34.359  1.00  0.00    -0.237 OA
ATOM     70  O   UNL A   1      45.145  37.084  34.218  1.00  0.00    -0.744 OA
ENDBRANCH  66  67
ENDBRANCH  47  61
BRANCH  48  71
ATOM     71  C   UNL A   1      42.370  23.782  27.837  1.00  0.00    -0.014 A 
ATOM     72  C   UNL A   1      42.625  23.573  26.471  1.00  0.00     0.010 A 
ATOM     73  C   UNL A   1      42.016  22.686  28.645  1.00  0.00     0.010 A 
ATOM     74  C   UNL A   1      42.537  22.289  25.923  1.00  0.00     0.020 A 
ATOM     75  C   UNL A   1      41.949  21.397  28.106  1.00  0.00     0.020 A 
ATOM     76  C   UNL A   1      42.207  21.208  26.746  1.00  0.00     0.054 A 
BRANCH  76  77
ATOM     77  S   UNL A   1      42.191  19.540  26.033  1.00  0.00     0.124 S 
ATOM     78  O   UNL A   1      40.776  19.349  25.733  1.00  0.00    -0.237 OA
ATOM     79  O   UNL A   1      43.072  19.681  24.877  1.00  0.00    -0.237 OA
ATOM     80  O   UNL A   1      42.724  18.704  27.108  1.00  0.00    -0.744 OA
ENDBRANCH  76  77
ENDBRANCH  48  71
BRANCH  60  81
ATOM     81  C   UNL A   1      47.698  27.161  30.816  1.00  0.00    -0.014 A 
ATOM     82  C   UNL A   1      48.046  26.407  31.951  1.00  0.00     0.010 A 
ATOM     83  C   UNL A   1      48.698  27.507  29.889  1.00  0.00     0.010 A 
ATOM     84  C   UNL A   1      49.373  26.024  32.165  1.00  0.00     0.020 A 
ATOM     85  C   UNL A   1      50.022  27.105  30.086  1.00  0.00     0.020 A 
ATOM     86  C   UNL A   1      50.353  26.375  31.230  1.00  0.00     0.054 A 
BRANCH  86  87
ATOM     87  S   UNL A   1      52.058  25.819  31.503  1.00  0.00     0.124 S 
ATOM     88  O   UNL A   1      52.518  26.744  32.535  1.00  0.00    -0.237 OA
ATOM     89  O   UNL A   1      51.880  24.435  31.932  1.00  0.00    -0.237 OA
ATOM     90  O   UNL A   1      52.688  25.982  30.194  1.00  0.00    -0.744 OA
ENDBRANCH  86  87
ENDBRANCH  60  81
ENDBRANCH  34  35
ENDBRANCH  26  29
ENDBRANCH  24  25
ENDBRANCH   1  24
TORSDOF 16
ENDMDL
MODEL 3
REMARK VINA RESULT:     -10.4      2.593      9.324
REMARK SMILES Cc1[nH]c2ccccc2c1[C@H]([NH3+])CC(=O)NCCCNC(=O)c1ccc(-c2c3nc(c(-c4ccc(S(=O)(=O)[O-])cc4)c4ccc([nH]4)c(-c4ccc(S(=O)(=O)[O-])cc4)c4nc(c(-c5ccc(S(=O)(=O)[O-])cc5)c5ccc2[nH]5)C=C4)C=C3)cc1
REMARK SMILES IDX 18 1 17 2 16 3 14 4 15 5 13 7 11 8 10 9 1 10 2 11 3 12 4 13
REMARK SMILES IDX 9 15 5 16 8 17 6 18 7 19 12 20 19 24 20 25 21 26 22 28 23 29
REMARK SMILES IDX 24 30 82 31 25 32 81 33 26 34 27 35 28 36 75 37 29 38 80 39
REMARK SMILES IDX 74 40 76 41 30 42 79 43 73 44 72 45 31 47 61 48 42 49 60 50
REMARK SMILES IDX 43 51 46 52 59 53 77 54 44 55 45 56 58 58 78 59 47 60 32 61
REMARK SMILES IDX 33 62 41 63 34 64 40 65 35 66 36 67 37 68 38 69 39 70 62 71
REMARK SMILES IDX 63 72 71 73 64 74 70 75 65 76 66 77 67 78 68 79 69 80 48 81
REMARK SMILES IDX 49 82 57 83 50 84 56 85 51 86 52 87 53 88 54 89 55 90
REMARK H PARENT 16 6 3 14 12 21 12 22 12 23 20 27 76 46 46 57
REMARK Flexibility Score: inf
ROOT
ATOM      1  C   UNL A   1      33.874  27.927  26.024  1.00  0.00     0.042 C 
ENDROOT
BRANCH   1   2
ATOM      2  C   UNL A   1      33.162  28.607  24.860  1.00  0.00     0.117 C 
BRANCH   2   3
ATOM      3  N   UNL A   1      33.736  28.248  23.573  1.00  0.00    -0.356 N 
ATOM      4  C   UNL A   1      33.186  27.543  22.542  1.00  0.00     0.226 C 
ATOM      5  O   UNL A   1      33.882  27.306  21.552  1.00  0.00    -0.275 OA
ATOM      6  H   UNL A   1      34.657  28.558  23.424  1.00  0.00     0.163 HD
BRANCH   4   7
ATOM      7  C   UNL A   1      31.740  27.112  22.602  1.00  0.00     0.170 C 
BRANCH   7   8
ATOM      8  C   UNL A   1      31.582  25.598  22.763  1.00  0.00     0.223 C 
BRANCH   8   9
ATOM      9  C   UNL A   1      32.029  25.160  24.145  1.00  0.00     0.038 A 
ATOM     10  C   UNL A   1      30.019  25.596  25.839  1.00  0.00     0.065 C 
ATOM     11  C   UNL A   1      31.370  25.170  25.376  1.00  0.00     0.022 A 
ATOM     12  N   UNL A   1      32.245  24.675  26.315  1.00  0.00    -0.358 N 
ATOM     13  C   UNL A   1      33.421  24.277  25.737  1.00  0.00     0.046 A 
ATOM     14  H   UNL A   1      32.052  24.615  27.279  1.00  0.00     0.166 HD
ATOM     15  C   UNL A   1      33.321  24.564  24.381  1.00  0.00     0.009 A 
ATOM     16  C   UNL A   1      34.555  23.691  26.311  1.00  0.00     0.027 A 
ATOM     17  C   UNL A   1      34.413  24.238  23.546  1.00  0.00     0.011 A 
ATOM     18  C   UNL A   1      35.621  23.377  25.462  1.00  0.00     0.002 A 
ATOM     19  C   UNL A   1      35.553  23.644  24.098  1.00  0.00     0.001 A 
ENDBRANCH   8   9
BRANCH   8  20
ATOM     20  N   UNL A   1      32.281  24.814  21.750  1.00  0.00    -0.351 N 
ATOM     21  H   UNL A   1      31.599  24.366  21.136  1.00  0.00     0.345 HD
ATOM     22  H   UNL A   1      32.851  24.101  22.204  1.00  0.00     0.345 HD
ATOM     23  H   UNL A   1      32.880  25.428  21.198  1.00  0.00     0.345 HD
ENDBRANCH   8  20
ENDBRANCH   7   8
ENDBRANCH   4   7
ENDBRANCH   2   3
ENDBRANCH   1   2
BRANCH   1  24
ATOM     24  C   UNL A   1      33.447  28.444  27.391  1.00  0.00     0.118 C 
BRANCH  24  25
ATOM     25  N   UNL A   1      33.520  29.895  27.476  1.00  0.00    -0.352 N 
ATOM     26  C   UNL A   1      34.513  30.707  27.972  1.00  0.00     0.251 C 
ATOM     27  H   UNL A   1      32.735  30.371  27.123  1.00  0.00     0.163 HD
ATOM     28  O   UNL A   1      34.274  31.896  28.159  1.00  0.00    -0.269 OA
BRANCH  26  29
ATOM     29  C   UNL A   1      35.850  30.161  28.304  1.00  0.00     0.039 A 
ATOM     30  C   UNL A   1      36.847  30.180  27.323  1.00  0.00     0.014 A 
ATOM     31  C   UNL A   1      36.123  29.600  29.554  1.00  0.00     0.014 A 
ATOM     32  C   UNL A   1      38.129  29.705  27.620  1.00  0.00     0.010 A 
ATOM     33  C   UNL A   1      37.419  29.206  29.877  1.00  0.00     0.010 A 
ATOM     34  C   UNL A   1      38.437  29.252  28.913  1.00  0.00    -0.014 A 
BRANCH  34  35
ATOM     35  C   UNL A   1      39.817  28.839  29.280  1.00  0.00     0.031 A 
ATOM     36  C   UNL A   1      40.731  29.788  30.005  1.00  0.00     0.074 A 
ATOM     37  C   UNL A   1      40.272  27.628  28.900  1.00  0.00     0.049 A 
ATOM     38  N   UNL A   1      41.981  29.622  30.357  1.00  0.00    -0.248 NA
ATOM     39  C   UNL A   1      40.177  31.103  30.362  1.00  0.00     0.031 C 
ATOM     40  C   UNL A   1      39.499  26.627  28.162  1.00  0.00     0.029 A 
ATOM     41  N   UNL A   1      41.498  27.035  29.077  1.00  0.00    -0.354 N 
ATOM     42  C   UNL A   1      42.367  30.814  30.960  1.00  0.00     0.074 A 
ATOM     43  C   UNL A   1      41.233  31.709  30.884  1.00  0.00     0.031 C 
ATOM     44  C   UNL A   1      40.256  25.534  27.978  1.00  0.00     0.029 A 
ATOM     45  C   UNL A   1      41.581  25.772  28.543  1.00  0.00     0.049 A 
ATOM     46  H   UNL A   1      42.246  27.475  29.543  1.00  0.00     0.167 HD
ATOM     47  C   UNL A   1      43.551  31.130  31.541  1.00  0.00     0.031 A 
ATOM     48  C   UNL A   1      42.609  24.902  28.502  1.00  0.00     0.031 A 
ATOM     49  C   UNL A   1      44.677  30.239  31.616  1.00  0.00     0.049 A 
ATOM     50  C   UNL A   1      43.923  25.285  29.120  1.00  0.00     0.074 A 
ATOM     51  C   UNL A   1      45.898  30.443  32.236  1.00  0.00     0.029 A 
ATOM     52  N   UNL A   1      44.727  28.976  31.043  1.00  0.00    -0.354 N 
ATOM     53  N   UNL A   1      44.246  26.391  29.745  1.00  0.00    -0.248 NA
ATOM     54  C   UNL A   1      45.011  24.301  29.027  1.00  0.00     0.031 C 
ATOM     55  C   UNL A   1      46.705  29.325  31.993  1.00  0.00     0.029 A 
ATOM     56  C   UNL A   1      45.969  28.404  31.265  1.00  0.00     0.049 A 
ATOM     57  H   UNL A   1      43.989  28.550  30.552  1.00  0.00     0.167 HD
ATOM     58  C   UNL A   1      45.572  26.233  30.131  1.00  0.00     0.074 A 
ATOM     59  C   UNL A   1      45.984  24.917  29.685  1.00  0.00     0.031 C 
ATOM     60  C   UNL A   1      46.374  27.101  30.798  1.00  0.00     0.031 A 
BRANCH  47  61
ATOM     61  C   UNL A   1      43.682  32.513  32.124  1.00  0.00    -0.014 A 
ATOM     62  C   UNL A   1      43.425  32.755  33.487  1.00  0.00     0.010 A 
ATOM     63  C   UNL A   1      44.070  33.586  31.301  1.00  0.00     0.010 A 
ATOM     64  C   UNL A   1      43.491  34.053  34.000  1.00  0.00     0.020 A 
ATOM     65  C   UNL A   1      44.166  34.882  31.818  1.00  0.00     0.020 A 
ATOM     66  C   UNL A   1      43.851  35.110  33.160  1.00  0.00     0.054 A 
BRANCH  66  67
ATOM     67  S   UNL A   1      43.913  36.788  33.846  1.00  0.00     0.124 S 
ATOM     68  O   UNL A   1      44.433  37.554  32.716  1.00  0.00    -0.237 OA
ATOM     69  O   UNL A   1      42.516  37.048  34.189  1.00  0.00    -0.237 OA
ATOM     70  O   UNL A   1      44.818  36.664  34.985  1.00  0.00    -0.744 OA
ENDBRANCH  66  67
ENDBRANCH  47  61
BRANCH  48  71
ATOM     71  C   UNL A   1      42.417  23.572  27.864  1.00  0.00    -0.014 A 
ATOM     72  C   UNL A   1      42.969  23.308  26.599  1.00  0.00     0.010 A 
ATOM     73  C   UNL A   1      41.729  22.547  28.539  1.00  0.00     0.010 A 
ATOM     74  C   UNL A   1      42.843  22.041  26.022  1.00  0.00     0.020 A 
ATOM     75  C   UNL A   1      41.621  21.272  27.976  1.00  0.00     0.020 A 
ATOM     76  C   UNL A   1      42.177  21.028  26.718  1.00  0.00     0.054 A 
BRANCH  76  77
ATOM     77  S   UNL A   1      42.109  19.367  25.992  1.00  0.00     0.124 S 
ATOM     78  O   UNL A   1      42.664  18.543  27.061  1.00  0.00    -0.237 OA
ATOM     79  O   UNL A   1      40.681  19.193  25.733  1.00  0.00    -0.237 OA
ATOM     80  O   UNL A   1      42.937  19.483  24.793  1.00  0.00    -0.744 OA
ENDBRANCH  76  77
ENDBRANCH  48  71
BRANCH  60  81
ATOM     81  C   UNL A   1      47.780  26.656  31.089  1.00  0.00    -0.014 A 
ATOM     82  C   UNL A   1      48.845  27.025  30.247  1.00  0.00     0.010 A 
ATOM     83  C   UNL A   1      48.051  25.909  32.250  1.00  0.00     0.010 A 
ATOM     84  C   UNL A   1      50.152  26.636  30.550  1.00  0.00     0.020 A 
ATOM     85  C   UNL A   1      49.361  25.539  32.570  1.00  0.00     0.020 A 
ATOM     86  C   UNL A   1      50.402  25.896  31.711  1.00  0.00     0.054 A 
BRANCH  86  87
ATOM     87  S   UNL A   1      52.115  25.451  32.110  1.00  0.00     0.124 S 
ATOM     88  O   UNL A   1      51.999  24.024  32.398  1.00  0.00    -0.237 OA
ATOM     89  O   UNL A   1      52.829  25.789  30.882  1.00  0.00    -0.237 OA
ATOM     90  O   UNL A   1      52.433  26.296  33.260  1.00  0.00    -0.744 OA
ENDBRANCH  86  87
ENDBRANCH  60  81
ENDBRANCH  34  35
ENDBRANCH  26  29
ENDBRANCH  24  25
ENDBRANCH   1  24
TORSDOF 16
ENDMDL
