MODEL 1
REMARK VINA RESULT:     -11.6      0.000      0.000
REMARK SMILES CC(C)Oc1ccc(-c2ccc(/C(=C\c3ccc(S(C)(=O)=O)cc3)C(=O)NCCCNC(=O)c3ccc(-c4c5nc(c(-c6ccc(S(=O)(=O)[O-])cc6)c6ccc([nH]6)c(-c6ccc(S(=O)(=O)[O-])cc6)c6nc(c(-c7ccc(S(=O)(=O)[O-])cc7)c7ccc4[nH]7)C=C6)C=C5)cc3)cc2)cc1
REMARK SMILES IDX 28 1 27 2 25 3 26 4 13 6 14 7 12 8 9 9 10 10 95 11 11 12
REMARK SMILES IDX 94 13 8 14 5 15 6 16 97 17 7 18 96 19 4 20 2 21 1 22 3 23
REMARK SMILES IDX 15 24 16 25 24 26 17 27 23 28 18 29 19 30 20 31 21 32 22 33
REMARK SMILES IDX 29 34 30 35 31 36 32 37 33 39 34 40 35 41 93 42 36 43 92 44
REMARK SMILES IDX 37 45 38 46 39 47 86 48 40 49 91 50 85 51 87 52 41 53 90 54
REMARK SMILES IDX 84 55 83 56 42 58 72 59 53 60 71 61 54 62 57 63 70 64 88 65
REMARK SMILES IDX 55 66 56 67 69 69 89 70 58 71 43 72 44 73 52 74 45 75 51 76
REMARK SMILES IDX 46 77 47 78 48 79 49 80 50 81 73 82 74 83 82 84 75 85 81 86
REMARK SMILES IDX 76 87 77 88 78 89 79 90 80 91 59 92 60 93 68 94 61 95 67 96
REMARK SMILES IDX 62 97 63 98 64 99 65 100 66 101
REMARK H PARENT 27 5 31 38 87 57 57 68
REMARK Flexibility Score: inf
ROOT
ATOM      1  C   UNL A   1      34.374  32.808  31.222  1.00  0.00     0.118 C 
ENDROOT
BRANCH   1   2
ATOM      2  N   UNL A   1      34.071  33.509  29.990  1.00  0.00    -0.352 N 
ATOM      3  C   UNL A   1      33.947  33.161  28.682  1.00  0.00     0.251 C 
ATOM      4  O   UNL A   1      33.623  34.099  27.950  1.00  0.00    -0.269 OA
ATOM      5  H   UNL A   1      33.918  34.470  30.135  1.00  0.00     0.163 HD
BRANCH   3   6
ATOM      6  C   UNL A   1      34.121  31.745  28.136  1.00  0.00     0.047 C 
ATOM      7  C   UNL A   1      33.042  31.103  27.626  1.00  0.00     0.022 C 
BRANCH   6   8
ATOM      8  C   UNL A   1      35.436  31.030  28.339  1.00  0.00    -0.013 A 
ATOM      9  C   UNL A   1      37.798  29.381  28.493  1.00  0.00    -0.018 A 
ATOM     10  C   UNL A   1      37.717  30.471  27.620  1.00  0.00     0.009 A 
ATOM     11  C   UNL A   1      36.706  29.191  29.350  1.00  0.00     0.009 A 
ATOM     12  C   UNL A   1      36.587  31.309  27.588  1.00  0.00     0.009 A 
ATOM     13  C   UNL A   1      35.546  29.970  29.249  1.00  0.00     0.009 A 
BRANCH   9  14
ATOM     14  C   UNL A   1      38.965  28.467  28.521  1.00  0.00    -0.018 A 
ATOM     15  C   UNL A   1      41.139  26.636  28.526  1.00  0.00     0.119 A 
ATOM     16  C   UNL A   1      40.490  26.969  29.712  1.00  0.00     0.047 A 
ATOM     17  C   UNL A   1      40.708  27.208  27.337  1.00  0.00     0.047 A 
ATOM     18  C   UNL A   1      39.420  27.875  29.711  1.00  0.00     0.012 A 
ATOM     19  C   UNL A   1      39.654  28.129  27.342  1.00  0.00     0.012 A 
BRANCH  15  20
ATOM     20  O   UNL A   1      42.074  25.647  28.602  1.00  0.00    -0.491 OA
BRANCH  20  21
ATOM     21  C   UNL A   1      41.949  24.489  27.763  1.00  0.00     0.167 C 
ATOM     22  C   UNL A   1      40.528  23.940  27.670  1.00  0.00     0.052 C 
ATOM     23  C   UNL A   1      42.619  24.644  26.401  1.00  0.00     0.052 C 
ENDBRANCH  20  21
ENDBRANCH  15  20
ENDBRANCH   9  14
ENDBRANCH   6   8
BRANCH   7  24
ATOM     24  C   UNL A   1      32.966  29.796  26.958  1.00  0.00    -0.025 A 
ATOM     25  C   UNL A   1      33.749  29.588  25.809  1.00  0.00     0.009 A 
ATOM     26  C   UNL A   1      32.202  28.745  27.474  1.00  0.00     0.009 A 
ATOM     27  C   UNL A   1      33.812  28.327  25.215  1.00  0.00     0.021 A 
ATOM     28  C   UNL A   1      32.262  27.480  26.885  1.00  0.00     0.021 A 
ATOM     29  C   UNL A   1      33.071  27.278  25.763  1.00  0.00     0.067 A 
BRANCH  29  30
ATOM     30  S   UNL A   1      33.243  25.649  25.073  1.00  0.00     0.175 S 
ATOM     31  C   UNL A   1      33.500  25.952  23.345  1.00  0.00     0.163 C 
ATOM     32  O   UNL A   1      34.457  25.076  25.622  1.00  0.00    -0.224 OA
ATOM     33  O   UNL A   1      31.970  24.967  25.225  1.00  0.00    -0.224 OA
ENDBRANCH  29  30
ENDBRANCH   7  24
ENDBRANCH   3   6
ENDBRANCH   1   2
BRANCH   1  34
ATOM     34  C   UNL A   1      35.857  32.933  31.579  1.00  0.00     0.042 C 
BRANCH  34  35
ATOM     35  C   UNL A   1      36.164  32.637  33.047  1.00  0.00     0.118 C 
BRANCH  35  36
ATOM     36  N   UNL A   1      36.347  31.214  33.286  1.00  0.00    -0.352 N 
ATOM     37  C   UNL A   1      37.276  30.338  32.789  1.00  0.00     0.251 C 
ATOM     38  H   UNL A   1      35.697  30.814  33.906  1.00  0.00     0.163 HD
ATOM     39  O   UNL A   1      37.051  29.133  32.867  1.00  0.00    -0.269 OA
BRANCH  37  40
ATOM     40  C   UNL A   1      38.536  30.818  32.178  1.00  0.00     0.039 A 
ATOM     41  C   UNL A   1      38.464  31.537  30.982  1.00  0.00     0.014 A 
ATOM     42  C   UNL A   1      39.784  30.497  32.721  1.00  0.00     0.014 A 
ATOM     43  C   UNL A   1      39.636  31.960  30.354  1.00  0.00     0.010 A 
ATOM     44  C   UNL A   1      40.951  30.992  32.138  1.00  0.00     0.010 A 
ATOM     45  C   UNL A   1      40.891  31.715  30.940  1.00  0.00    -0.014 A 
BRANCH  45  46
ATOM     46  C   UNL A   1      42.128  32.237  30.305  1.00  0.00     0.031 A 
ATOM     47  C   UNL A   1      42.561  33.664  30.503  1.00  0.00     0.074 A 
ATOM     48  C   UNL A   1      42.859  31.410  29.532  1.00  0.00     0.049 A 
ATOM     49  N   UNL A   1      43.657  34.256  30.095  1.00  0.00    -0.248 NA
ATOM     50  C   UNL A   1      41.640  34.551  31.232  1.00  0.00     0.031 C 
ATOM     51  C   UNL A   1      42.513  30.020  29.220  1.00  0.00     0.029 A 
ATOM     52  N   UNL A   1      44.053  31.606  28.885  1.00  0.00    -0.354 N 
ATOM     53  C   UNL A   1      43.551  35.581  30.505  1.00  0.00     0.074 A 
ATOM     54  C   UNL A   1      42.261  35.719  31.146  1.00  0.00     0.031 C 
ATOM     55  C   UNL A   1      43.502  29.471  28.501  1.00  0.00     0.029 A 
ATOM     56  C   UNL A   1      44.532  30.477  28.263  1.00  0.00     0.049 A 
ATOM     57  H   UNL A   1      44.522  32.471  28.869  1.00  0.00     0.167 HD
ATOM     58  C   UNL A   1      44.450  36.586  30.374  1.00  0.00     0.031 A 
ATOM     59  C   UNL A   1      45.679  30.267  27.591  1.00  0.00     0.031 A 
ATOM     60  C   UNL A   1      45.730  36.439  29.729  1.00  0.00     0.049 A 
ATOM     61  C   UNL A   1      46.665  31.395  27.465  1.00  0.00     0.074 A 
ATOM     62  C   UNL A   1      46.743  37.374  29.600  1.00  0.00     0.029 A 
ATOM     63  N   UNL A   1      46.169  35.288  29.091  1.00  0.00    -0.354 N 
ATOM     64  N   UNL A   1      46.585  32.617  27.937  1.00  0.00    -0.248 NA
ATOM     65  C   UNL A   1      47.903  31.105  26.733  1.00  0.00     0.031 C 
ATOM     66  C   UNL A   1      47.764  36.809  28.826  1.00  0.00     0.029 A 
ATOM     67  C   UNL A   1      47.422  35.499  28.537  1.00  0.00     0.049 A 
ATOM     68  H   UNL A   1      45.665  34.444  29.040  1.00  0.00     0.167 HD
ATOM     69  C   UNL A   1      47.778  33.236  27.580  1.00  0.00     0.074 A 
ATOM     70  C   UNL A   1      48.567  32.244  26.876  1.00  0.00     0.031 C 
ATOM     71  C   UNL A   1      48.185  34.510  27.814  1.00  0.00     0.031 A 
BRANCH  58  72
ATOM     72  C   UNL A   1      44.067  37.942  30.917  1.00  0.00    -0.014 A 
ATOM     73  C   UNL A   1      44.112  38.222  32.296  1.00  0.00     0.010 A 
ATOM     74  C   UNL A   1      43.679  38.963  30.030  1.00  0.00     0.010 A 
ATOM     75  C   UNL A   1      43.724  39.475  32.780  1.00  0.00     0.020 A 
ATOM     76  C   UNL A   1      43.321  40.228  30.507  1.00  0.00     0.020 A 
ATOM     77  C   UNL A   1      43.325  40.469  31.882  1.00  0.00     0.054 A 
BRANCH  77  78
ATOM     78  S   UNL A   1      42.829  42.086  32.537  1.00  0.00     0.124 S 
ATOM     79  O   UNL A   1      41.936  41.707  33.629  1.00  0.00    -0.237 OA
ATOM     80  O   UNL A   1      44.105  42.671  32.942  1.00  0.00    -0.237 OA
ATOM     81  O   UNL A   1      42.181  42.738  31.400  1.00  0.00    -0.744 OA
ENDBRANCH  77  78
ENDBRANCH  58  72
BRANCH  59  82
ATOM     82  C   UNL A   1      45.973  28.920  27.030  1.00  0.00    -0.014 A 
ATOM     83  C   UNL A   1      46.702  27.980  27.778  1.00  0.00     0.010 A 
ATOM     84  C   UNL A   1      45.499  28.558  25.756  1.00  0.00     0.010 A 
ATOM     85  C   UNL A   1      46.963  26.708  27.260  1.00  0.00     0.020 A 
ATOM     86  C   UNL A   1      45.729  27.278  25.246  1.00  0.00     0.020 A 
ATOM     87  C   UNL A   1      46.469  26.364  25.999  1.00  0.00     0.054 A 
BRANCH  87  88
ATOM     88  S   UNL A   1      46.760  24.685  25.375  1.00  0.00     0.124 S 
ATOM     89  O   UNL A   1      48.000  24.850  24.623  1.00  0.00    -0.237 OA
ATOM     90  O   UNL A   1      46.865  23.906  26.606  1.00  0.00    -0.237 OA
ATOM     91  O   UNL A   1      45.572  24.408  24.572  1.00  0.00    -0.744 OA
ENDBRANCH  87  88
ENDBRANCH  59  82
BRANCH  71  92
ATOM     92  C   UNL A   1      49.559  34.886  27.323  1.00  0.00    -0.014 A 
ATOM     93  C   UNL A   1      50.698  34.733  28.137  1.00  0.00     0.010 A 
ATOM     94  C   UNL A   1      49.713  35.407  26.025  1.00  0.00     0.010 A 
ATOM     95  C   UNL A   1      51.949  35.161  27.688  1.00  0.00     0.020 A 
ATOM     96  C   UNL A   1      50.969  35.801  25.559  1.00  0.00     0.020 A 
ATOM     97  C   UNL A   1      52.075  35.701  26.405  1.00  0.00     0.054 A 
BRANCH  97  98
ATOM     98  S   UNL A   1      53.707  36.265  25.851  1.00  0.00     0.124 S 
ATOM     99  O   UNL A   1      53.953  35.396  24.703  1.00  0.00    -0.237 OA
ATOM    100  O   UNL A   1      53.471  37.672  25.535  1.00  0.00    -0.237 OA
ATOM    101  O   UNL A   1      54.567  36.027  27.008  1.00  0.00    -0.744 OA
ENDBRANCH  97  98
ENDBRANCH  71  92
ENDBRANCH  45  46
ENDBRANCH  37  40
ENDBRANCH  35  36
ENDBRANCH  34  35
ENDBRANCH   1  34
TORSDOF 19
ENDMDL
MODEL 2
REMARK VINA RESULT:     -11.6      3.866      6.753
REMARK SMILES CC(C)Oc1ccc(-c2ccc(/C(=C\c3ccc(S(C)(=O)=O)cc3)C(=O)NCCCNC(=O)c3ccc(-c4c5nc(c(-c6ccc(S(=O)(=O)[O-])cc6)c6ccc([nH]6)c(-c6ccc(S(=O)(=O)[O-])cc6)c6nc(c(-c7ccc(S(=O)(=O)[O-])cc7)c7ccc4[nH]7)C=C6)C=C5)cc3)cc2)cc1
REMARK SMILES IDX 28 1 27 2 25 3 26 4 13 6 14 7 12 8 9 9 10 10 95 11 11 12
REMARK SMILES IDX 94 13 8 14 5 15 6 16 97 17 7 18 96 19 4 20 2 21 1 22 3 23
REMARK SMILES IDX 15 24 16 25 24 26 17 27 23 28 18 29 19 30 20 31 21 32 22 33
REMARK SMILES IDX 29 34 30 35 31 36 32 37 33 39 34 40 35 41 93 42 36 43 92 44
REMARK SMILES IDX 37 45 38 46 39 47 86 48 40 49 91 50 85 51 87 52 41 53 90 54
REMARK SMILES IDX 84 55 83 56 42 58 72 59 53 60 71 61 54 62 57 63 70 64 88 65
REMARK SMILES IDX 55 66 56 67 69 69 89 70 58 71 43 72 44 73 52 74 45 75 51 76
REMARK SMILES IDX 46 77 47 78 48 79 49 80 50 81 73 82 74 83 82 84 75 85 81 86
REMARK SMILES IDX 76 87 77 88 78 89 79 90 80 91 59 92 60 93 68 94 61 95 67 96
REMARK SMILES IDX 62 97 63 98 64 99 65 100 66 101
REMARK H PARENT 27 5 31 38 87 57 57 68
REMARK Flexibility Score: inf
ROOT
ATOM      1  C   UNL A   1      34.365  31.743  28.655  1.00  0.00     0.118 C 
ENDROOT
BRANCH   1   2
ATOM      2  N   UNL A   1      35.071  30.501  28.408  1.00  0.00    -0.352 N 
ATOM      3  C   UNL A   1      34.876  29.417  27.613  1.00  0.00     0.251 C 
ATOM      4  O   UNL A   1      35.780  28.582  27.687  1.00  0.00    -0.269 OA
ATOM      5  H   UNL A   1      35.891  30.425  28.947  1.00  0.00     0.163 HD
BRANCH   3   6
ATOM      6  C   UNL A   1      33.698  29.236  26.658  1.00  0.00     0.047 C 
ATOM      7  C   UNL A   1      32.912  30.304  26.378  1.00  0.00     0.022 C 
BRANCH   6   8
ATOM      8  C   UNL A   1      33.328  27.846  26.195  1.00  0.00    -0.013 A 
ATOM      9  C   UNL A   1      32.923  25.067  25.538  1.00  0.00    -0.018 A 
ATOM     10  C   UNL A   1      32.155  25.713  26.514  1.00  0.00     0.009 A 
ATOM     11  C   UNL A   1      33.834  25.867  24.837  1.00  0.00     0.009 A 
ATOM     12  C   UNL A   1      32.314  27.082  26.792  1.00  0.00     0.009 A 
ATOM     13  C   UNL A   1      34.056  27.207  25.182  1.00  0.00     0.009 A 
BRANCH   9  14
ATOM     14  C   UNL A   1      32.793  23.618  25.251  1.00  0.00    -0.018 A 
ATOM     15  C   UNL A   1      32.486  20.867  24.608  1.00  0.00     0.119 A 
ATOM     16  C   UNL A   1      31.796  21.426  25.681  1.00  0.00     0.047 A 
ATOM     17  C   UNL A   1      33.327  21.672  23.853  1.00  0.00     0.047 A 
ATOM     18  C   UNL A   1      31.949  22.782  26.000  1.00  0.00     0.012 A 
ATOM     19  C   UNL A   1      33.496  23.021  24.189  1.00  0.00     0.012 A 
BRANCH  15  20
ATOM     20  O   UNL A   1      32.172  19.580  24.288  1.00  0.00    -0.491 OA
BRANCH  20  21
ATOM     21  C   UNL A   1      33.061  18.519  24.669  1.00  0.00     0.167 C 
ATOM     22  C   UNL A   1      32.552  17.668  25.830  1.00  0.00     0.052 C 
ATOM     23  C   UNL A   1      33.560  17.686  23.492  1.00  0.00     0.052 C 
ENDBRANCH  20  21
ENDBRANCH  15  20
ENDBRANCH   9  14
ENDBRANCH   6   8
BRANCH   7  24
ATOM     24  C   UNL A   1      31.795  30.415  25.429  1.00  0.00    -0.025 A 
ATOM     25  C   UNL A   1      31.697  29.461  24.401  1.00  0.00     0.009 A 
ATOM     26  C   UNL A   1      30.801  31.388  25.568  1.00  0.00     0.009 A 
ATOM     27  C   UNL A   1      30.587  29.445  23.556  1.00  0.00     0.021 A 
ATOM     28  C   UNL A   1      29.687  31.377  24.725  1.00  0.00     0.021 A 
ATOM     29  C   UNL A   1      29.584  30.402  23.728  1.00  0.00     0.067 A 
BRANCH  29  30
ATOM     30  S   UNL A   1      28.121  30.307  22.725  1.00  0.00     0.175 S 
ATOM     31  C   UNL A   1      27.517  28.667  23.019  1.00  0.00     0.163 C 
ATOM     32  O   UNL A   1      27.164  31.251  23.269  1.00  0.00    -0.224 OA
ATOM     33  O   UNL A   1      28.531  30.391  21.334  1.00  0.00    -0.224 OA
ENDBRANCH  29  30
ENDBRANCH   7  24
ENDBRANCH   3   6
ENDBRANCH   1   2
BRANCH   1  34
ATOM     34  C   UNL A   1      35.226  32.952  28.283  1.00  0.00     0.042 C 
BRANCH  34  35
ATOM     35  C   UNL A   1      36.331  33.257  29.294  1.00  0.00     0.118 C 
BRANCH  35  36
ATOM     36  N   UNL A   1      36.129  32.547  30.548  1.00  0.00    -0.352 N 
ATOM     37  C   UNL A   1      36.761  31.445  31.061  1.00  0.00     0.251 C 
ATOM     38  H   UNL A   1      35.421  32.919  31.121  1.00  0.00     0.163 HD
ATOM     39  O   UNL A   1      36.219  30.827  31.974  1.00  0.00    -0.269 OA
BRANCH  37  40
ATOM     40  C   UNL A   1      38.076  31.003  30.547  1.00  0.00     0.039 A 
ATOM     41  C   UNL A   1      38.168  30.606  29.210  1.00  0.00     0.014 A 
ATOM     42  C   UNL A   1      39.193  30.896  31.380  1.00  0.00     0.014 A 
ATOM     43  C   UNL A   1      39.382  30.136  28.706  1.00  0.00     0.010 A 
ATOM     44  C   UNL A   1      40.426  30.506  30.856  1.00  0.00     0.010 A 
ATOM     45  C   UNL A   1      40.530  30.107  29.518  1.00  0.00    -0.014 A 
BRANCH  45  46
ATOM     46  C   UNL A   1      41.835  29.680  28.952  1.00  0.00     0.031 A 
ATOM     47  C   UNL A   1      42.989  30.640  28.847  1.00  0.00     0.074 A 
ATOM     48  C   UNL A   1      41.971  28.411  28.519  1.00  0.00     0.049 A 
ATOM     49  N   UNL A   1      44.219  30.409  28.462  1.00  0.00    -0.248 NA
ATOM     50  C   UNL A   1      42.727  32.046  29.196  1.00  0.00     0.031 C 
ATOM     51  C   UNL A   1      40.907  27.402  28.518  1.00  0.00     0.029 A 
ATOM     52  N   UNL A   1      43.060  27.744  28.017  1.00  0.00    -0.354 N 
ATOM     53  C   UNL A   1      44.872  31.636  28.510  1.00  0.00     0.074 A 
ATOM     54  C   UNL A   1      43.888  32.619  28.909  1.00  0.00     0.031 C 
ATOM     55  C   UNL A   1      41.413  26.231  28.104  1.00  0.00     0.029 A 
ATOM     56  C   UNL A   1      42.821  26.413  27.769  1.00  0.00     0.049 A 
ATOM     57  H   UNL A   1      43.928  28.177  27.852  1.00  0.00     0.167 HD
ATOM     58  C   UNL A   1      46.174  31.918  28.259  1.00  0.00     0.031 A 
ATOM     59  C   UNL A   1      43.647  25.441  27.338  1.00  0.00     0.031 A 
ATOM     60  C   UNL A   1      47.145  30.933  27.856  1.00  0.00     0.049 A 
ATOM     61  C   UNL A   1      45.088  25.775  27.074  1.00  0.00     0.074 A 
ATOM     62  C   UNL A   1      48.503  31.098  27.641  1.00  0.00     0.029 A 
ATOM     63  N   UNL A   1      46.861  29.600  27.593  1.00  0.00    -0.354 N 
ATOM     64  N   UNL A   1      45.707  26.924  27.211  1.00  0.00    -0.248 NA
ATOM     65  C   UNL A   1      45.944  24.674  26.617  1.00  0.00     0.031 C 
ATOM     66  C   UNL A   1      49.025  29.882  27.183  1.00  0.00     0.029 A 
ATOM     67  C   UNL A   1      48.009  28.940  27.184  1.00  0.00     0.049 A 
ATOM     68  H   UNL A   1      45.974  29.184  27.685  1.00  0.00     0.167 HD
ATOM     69  C   UNL A   1      47.035  26.677  26.881  1.00  0.00     0.074 A 
ATOM     70  C   UNL A   1      47.129  25.266  26.565  1.00  0.00     0.031 C 
ATOM     71  C   UNL A   1      48.084  27.540  26.845  1.00  0.00     0.031 A 
BRANCH  58  72
ATOM     72  C   UNL A   1      46.615  33.356  28.389  1.00  0.00    -0.014 A 
ATOM     73  C   UNL A   1      47.311  33.813  29.524  1.00  0.00     0.010 A 
ATOM     74  C   UNL A   1      46.351  34.262  27.344  1.00  0.00     0.010 A 
ATOM     75  C   UNL A   1      47.684  35.156  29.636  1.00  0.00     0.020 A 
ATOM     76  C   UNL A   1      46.751  35.599  27.438  1.00  0.00     0.020 A 
ATOM     77  C   UNL A   1      47.396  36.042  28.594  1.00  0.00     0.054 A 
BRANCH  77  78
ATOM     78  S   UNL A   1      47.893  37.779  28.764  1.00  0.00     0.124 S 
ATOM     79  O   UNL A   1      47.684  38.012  30.191  1.00  0.00    -0.237 OA
ATOM     80  O   UNL A   1      49.287  37.756  28.329  1.00  0.00    -0.237 OA
ATOM     81  O   UNL A   1      46.977  38.492  27.876  1.00  0.00    -0.744 OA
ENDBRANCH  77  78
ENDBRANCH  58  72
BRANCH  59  82
ATOM     82  C   UNL A   1      43.136  24.052  27.177  1.00  0.00    -0.014 A 
ATOM     83  C   UNL A   1      43.099  23.174  28.274  1.00  0.00     0.010 A 
ATOM     84  C   UNL A   1      42.653  23.609  25.932  1.00  0.00     0.010 A 
ATOM     85  C   UNL A   1      42.602  21.876  28.128  1.00  0.00     0.020 A 
ATOM     86  C   UNL A   1      42.126  22.323  25.788  1.00  0.00     0.020 A 
ATOM     87  C   UNL A   1      42.112  21.461  26.887  1.00  0.00     0.054 A 
BRANCH  87  88
ATOM     88  S   UNL A   1      41.409  19.796  26.738  1.00  0.00     0.124 S 
ATOM     89  O   UNL A   1      40.360  19.996  25.742  1.00  0.00    -0.237 OA
ATOM     90  O   UNL A   1      42.558  19.007  26.300  1.00  0.00    -0.237 OA
ATOM     91  O   UNL A   1      40.941  19.500  28.090  1.00  0.00    -0.744 OA
ENDBRANCH  87  88
ENDBRANCH  59  82
BRANCH  71  92
ATOM     92  C   UNL A   1      49.425  26.964  26.473  1.00  0.00    -0.014 A 
ATOM     93  C   UNL A   1      50.293  26.435  27.447  1.00  0.00     0.010 A 
ATOM     94  C   UNL A   1      49.827  26.959  25.125  1.00  0.00     0.010 A 
ATOM     95  C   UNL A   1      51.563  25.978  27.087  1.00  0.00     0.020 A 
ATOM     96  C   UNL A   1      51.082  26.468  24.757  1.00  0.00     0.020 A 
ATOM     97  C   UNL A   1      51.953  26.007  25.745  1.00  0.00     0.054 A 
BRANCH  97  98
ATOM     98  S   UNL A   1      53.613  25.424  25.305  1.00  0.00     0.124 S 
ATOM     99  O   UNL A   1      53.522  25.323  23.851  1.00  0.00    -0.237 OA
ATOM    100  O   UNL A   1      54.473  26.493  25.808  1.00  0.00    -0.237 OA
ATOM    101  O   UNL A   1      53.732  24.151  26.011  1.00  0.00    -0.744 OA
ENDBRANCH  97  98
ENDBRANCH  71  92
ENDBRANCH  45  46
ENDBRANCH  37  40
ENDBRANCH  35  36
ENDBRANCH  34  35
ENDBRANCH   1  34
TORSDOF 19
ENDMDL
MODEL 3
REMARK VINA RESULT:     -11.3      4.335     11.616
REMARK SMILES CC(C)Oc1ccc(-c2ccc(/C(=C\c3ccc(S(C)(=O)=O)cc3)C(=O)NCCCNC(=O)c3ccc(-c4c5nc(c(-c6ccc(S(=O)(=O)[O-])cc6)c6ccc([nH]6)c(-c6ccc(S(=O)(=O)[O-])cc6)c6nc(c(-c7ccc(S(=O)(=O)[O-])cc7)c7ccc4[nH]7)C=C6)C=C5)cc3)cc2)cc1
REMARK SMILES IDX 28 1 27 2 25 3 26 4 13 6 14 7 12 8 9 9 10 10 95 11 11 12
REMARK SMILES IDX 94 13 8 14 5 15 6 16 97 17 7 18 96 19 4 20 2 21 1 22 3 23
REMARK SMILES IDX 15 24 16 25 24 26 17 27 23 28 18 29 19 30 20 31 21 32 22 33
REMARK SMILES IDX 29 34 30 35 31 36 32 37 33 39 34 40 35 41 93 42 36 43 92 44
REMARK SMILES IDX 37 45 38 46 39 47 86 48 40 49 91 50 85 51 87 52 41 53 90 54
REMARK SMILES IDX 84 55 83 56 42 58 72 59 53 60 71 61 54 62 57 63 70 64 88 65
REMARK SMILES IDX 55 66 56 67 69 69 89 70 58 71 43 72 44 73 52 74 45 75 51 76
REMARK SMILES IDX 46 77 47 78 48 79 49 80 50 81 73 82 74 83 82 84 75 85 81 86
REMARK SMILES IDX 76 87 77 88 78 89 79 90 80 91 59 92 60 93 68 94 61 95 67 96
REMARK SMILES IDX 62 97 63 98 64 99 65 100 66 101
REMARK H PARENT 27 5 31 38 87 57 57 68
REMARK Flexibility Score: inf
ROOT
ATOM      1  C   UNL A   1      43.115  42.450  30.654  1.00  0.00     0.118 C 
ENDROOT
BRANCH   1   2
ATOM      2  N   UNL A   1      41.762  41.947  30.522  1.00  0.00    -0.352 N 
ATOM      3  C   UNL A   1      41.137  41.047  29.719  1.00  0.00     0.251 C 
ATOM      4  O   UNL A   1      39.944  40.887  29.992  1.00  0.00    -0.269 OA
ATOM      5  H   UNL A   1      41.147  42.357  31.172  1.00  0.00     0.163 HD
BRANCH   3   6
ATOM      6  C   UNL A   1      41.818  40.242  28.614  1.00  0.00     0.047 C 
ATOM      7  C   UNL A   1      42.219  38.976  28.880  1.00  0.00     0.022 C 
BRANCH   6   8
ATOM      8  C   UNL A   1      42.191  40.929  27.321  1.00  0.00    -0.013 A 
ATOM      9  C   UNL A   1      43.102  41.907  24.765  1.00  0.00    -0.018 A 
ATOM     10  C   UNL A   1      41.820  41.372  24.934  1.00  0.00     0.009 A 
ATOM     11  C   UNL A   1      43.882  42.024  25.922  1.00  0.00     0.009 A 
ATOM     12  C   UNL A   1      41.357  40.949  26.193  1.00  0.00     0.009 A 
ATOM     13  C   UNL A   1      43.453  41.515  27.156  1.00  0.00     0.009 A 
BRANCH   9  14
ATOM     14  C   UNL A   1      43.622  42.329  23.442  1.00  0.00    -0.018 A 
ATOM     15  C   UNL A   1      44.603  43.033  20.870  1.00  0.00     0.119 A 
ATOM     16  C   UNL A   1      45.468  42.939  21.957  1.00  0.00     0.047 A 
ATOM     17  C   UNL A   1      43.252  42.777  21.057  1.00  0.00     0.047 A 
ATOM     18  C   UNL A   1      44.985  42.595  23.226  1.00  0.00     0.012 A 
ATOM     19  C   UNL A   1      42.768  42.456  22.331  1.00  0.00     0.012 A 
BRANCH  15  20
ATOM     20  O   UNL A   1      45.178  43.238  19.651  1.00  0.00    -0.491 OA
BRANCH  20  21
ATOM     21  C   UNL A   1      45.428  44.579  19.203  1.00  0.00     0.167 C 
ATOM     22  C   UNL A   1      44.892  45.657  20.140  1.00  0.00     0.052 C 
ATOM     23  C   UNL A   1      46.873  44.823  18.777  1.00  0.00     0.052 C 
ENDBRANCH  20  21
ENDBRANCH  15  20
ENDBRANCH   9  14
ENDBRANCH   6   8
BRANCH   7  24
ATOM     24  C   UNL A   1      42.798  37.973  27.974  1.00  0.00    -0.025 A 
ATOM     25  C   UNL A   1      44.198  37.866  27.906  1.00  0.00     0.009 A 
ATOM     26  C   UNL A   1      42.000  37.087  27.245  1.00  0.00     0.009 A 
ATOM     27  C   UNL A   1      44.793  36.847  27.162  1.00  0.00     0.021 A 
ATOM     28  C   UNL A   1      42.590  36.064  26.500  1.00  0.00     0.021 A 
ATOM     29  C   UNL A   1      43.983  35.947  26.467  1.00  0.00     0.067 A 
BRANCH  29  30
ATOM     30  S   UNL A   1      44.741  34.584  25.615  1.00  0.00     0.175 S 
ATOM     31  C   UNL A   1      46.417  35.113  25.388  1.00  0.00     0.163 C 
ATOM     32  O   UNL A   1      44.737  33.454  26.524  1.00  0.00    -0.224 OA
ATOM     33  O   UNL A   1      44.122  34.480  24.306  1.00  0.00    -0.224 OA
ENDBRANCH  29  30
ENDBRANCH   7  24
ENDBRANCH   3   6
ENDBRANCH   1   2
BRANCH   1  34
ATOM     34  C   UNL A   1      43.410  42.873  32.095  1.00  0.00     0.042 C 
BRANCH  34  35
ATOM     35  C   UNL A   1      42.730  41.994  33.146  1.00  0.00     0.118 C 
BRANCH  35  36
ATOM     36  N   UNL A   1      43.601  41.740  34.284  1.00  0.00    -0.352 N 
ATOM     37  C   UNL A   1      44.202  40.584  34.707  1.00  0.00     0.251 C 
ATOM     38  H   UNL A   1      43.787  42.528  34.843  1.00  0.00     0.163 HD
ATOM     39  O   UNL A   1      44.624  40.527  35.859  1.00  0.00    -0.269 OA
BRANCH  37  40
ATOM     40  C   UNL A   1      44.361  39.424  33.802  1.00  0.00     0.039 A 
ATOM     41  C   UNL A   1      45.265  38.420  34.159  1.00  0.00     0.014 A 
ATOM     42  C   UNL A   1      43.697  39.354  32.573  1.00  0.00     0.014 A 
ATOM     43  C   UNL A   1      45.476  37.338  33.304  1.00  0.00     0.010 A 
ATOM     44  C   UNL A   1      43.844  38.232  31.758  1.00  0.00     0.010 A 
ATOM     45  C   UNL A   1      44.747  37.220  32.107  1.00  0.00    -0.014 A 
BRANCH  45  46
ATOM     46  C   UNL A   1      44.920  36.025  31.241  1.00  0.00     0.031 A 
ATOM     47  C   UNL A   1      46.166  35.833  30.420  1.00  0.00     0.074 A 
ATOM     48  C   UNL A   1      43.930  35.111  31.191  1.00  0.00     0.049 A 
ATOM     49  N   UNL A   1      46.516  34.809  29.682  1.00  0.00    -0.248 NA
ATOM     50  C   UNL A   1      47.137  36.940  30.404  1.00  0.00     0.031 C 
ATOM     51  C   UNL A   1      42.650  35.213  31.898  1.00  0.00     0.029 A 
ATOM     52  N   UNL A   1      43.850  33.909  30.535  1.00  0.00    -0.354 N 
ATOM     53  C   UNL A   1      47.735  35.151  29.107  1.00  0.00     0.074 A 
ATOM     54  C   UNL A   1      48.039  36.498  29.539  1.00  0.00     0.031 C 
ATOM     55  C   UNL A   1      41.944  34.092  31.694  1.00  0.00     0.029 A 
ATOM     56  C   UNL A   1      42.697  33.211  30.807  1.00  0.00     0.049 A 
ATOM     57  H   UNL A   1      44.551  33.578  29.928  1.00  0.00     0.167 HD
ATOM     58  C   UNL A   1      48.536  34.407  28.305  1.00  0.00     0.031 A 
ATOM     59  C   UNL A   1      42.296  31.990  30.405  1.00  0.00     0.031 A 
ATOM     60  C   UNL A   1      48.221  33.068  27.876  1.00  0.00     0.049 A 
ATOM     61  C   UNL A   1      43.205  31.181  29.523  1.00  0.00     0.074 A 
ATOM     62  C   UNL A   1      48.992  32.202  27.119  1.00  0.00     0.029 A 
ATOM     63  N   UNL A   1      47.035  32.404  28.154  1.00  0.00    -0.354 N 
ATOM     64  N   UNL A   1      44.394  31.487  29.062  1.00  0.00    -0.248 NA
ATOM     65  C   UNL A   1      42.721  29.854  29.126  1.00  0.00     0.031 C 
ATOM     66  C   UNL A   1      48.243  31.043  26.883  1.00  0.00     0.029 A 
ATOM     67  C   UNL A   1      47.037  31.155  27.555  1.00  0.00     0.049 A 
ATOM     68  H   UNL A   1      46.299  32.768  28.698  1.00  0.00     0.167 HD
ATOM     69  C   UNL A   1      44.815  30.376  28.340  1.00  0.00     0.074 A 
ATOM     70  C   UNL A   1      43.761  29.386  28.449  1.00  0.00     0.031 C 
ATOM     71  C   UNL A   1      45.969  30.189  27.649  1.00  0.00     0.031 A 
BRANCH  58  72
ATOM     72  C   UNL A   1      49.818  35.038  27.819  1.00  0.00    -0.014 A 
ATOM     73  C   UNL A   1      51.025  34.894  28.528  1.00  0.00     0.010 A 
ATOM     74  C   UNL A   1      49.822  35.771  26.617  1.00  0.00     0.010 A 
ATOM     75  C   UNL A   1      52.195  35.512  28.076  1.00  0.00     0.020 A 
ATOM     76  C   UNL A   1      50.997  36.363  26.143  1.00  0.00     0.020 A 
ATOM     77  C   UNL A   1      52.172  36.249  26.888  1.00  0.00     0.054 A 
BRANCH  77  78
ATOM     78  S   UNL A   1      53.703  37.039  26.322  1.00  0.00     0.124 S 
ATOM     79  O   UNL A   1      54.549  35.883  26.036  1.00  0.00    -0.237 OA
ATOM     80  O   UNL A   1      53.259  37.796  25.155  1.00  0.00    -0.237 OA
ATOM     81  O   UNL A   1      54.120  37.848  27.465  1.00  0.00    -0.744 OA
ENDBRANCH  77  78
ENDBRANCH  58  72
BRANCH  59  82
ATOM     82  C   UNL A   1      40.993  31.446  30.876  1.00  0.00    -0.014 A 
ATOM     83  C   UNL A   1      39.800  31.778  30.212  1.00  0.00     0.010 A 
ATOM     84  C   UNL A   1      40.941  30.567  31.973  1.00  0.00     0.010 A 
ATOM     85  C   UNL A   1      38.578  31.253  30.641  1.00  0.00     0.020 A 
ATOM     86  C   UNL A   1      39.727  30.014  32.388  1.00  0.00     0.020 A 
ATOM     87  C   UNL A   1      38.551  30.369  31.723  1.00  0.00     0.054 A 
BRANCH  87  88
ATOM     88  S   UNL A   1      36.963  29.646  32.221  1.00  0.00     0.124 S 
ATOM     89  O   UNL A   1      37.383  28.587  33.134  1.00  0.00    -0.237 OA
ATOM     90  O   UNL A   1      36.280  30.780  32.837  1.00  0.00    -0.237 OA
ATOM     91  O   UNL A   1      36.383  29.192  30.959  1.00  0.00    -0.744 OA
ENDBRANCH  87  88
ENDBRANCH  59  82
BRANCH  71  92
ATOM     92  C   UNL A   1      46.154  28.851  26.982  1.00  0.00    -0.014 A 
ATOM     93  C   UNL A   1      45.647  28.595  25.694  1.00  0.00     0.010 A 
ATOM     94  C   UNL A   1      46.842  27.828  27.660  1.00  0.00     0.010 A 
ATOM     95  C   UNL A   1      45.763  27.323  25.129  1.00  0.00     0.020 A 
ATOM     96  C   UNL A   1      46.993  26.565  27.082  1.00  0.00     0.020 A 
ATOM     97  C   UNL A   1      46.427  26.313  25.831  1.00  0.00     0.054 A 
BRANCH  97  98
ATOM     98  S   UNL A   1      46.551  24.666  25.085  1.00  0.00     0.124 S 
ATOM     99  O   UNL A   1      45.180  24.432  24.640  1.00  0.00    -0.237 OA
ATOM    100  O   UNL A   1      47.532  24.867  24.021  1.00  0.00    -0.237 OA
ATOM    101  O   UNL A   1      47.001  23.819  26.187  1.00  0.00    -0.744 OA
ENDBRANCH  97  98
ENDBRANCH  71  92
ENDBRANCH  45  46
ENDBRANCH  37  40
ENDBRANCH  35  36
ENDBRANCH  34  35
ENDBRANCH   1  34
TORSDOF 19
ENDMDL
