MODEL 1
REMARK VINA RESULT:     -12.3      0.000      0.000
REMARK SMILES CCn1nc(-c2cccnc2)c2cc(C(=O)NCCCNC(=O)c3ccc(-c4c5nc(c(-c6ccc(S(=O)(=O)[O-])cc6)c6ccc([nH]6)c(-c6ccc(S(=O)(=O)[O-])cc6)c6nc(c(-c7ccc(S(=O)(=O)[O-])cc7)c7ccc4[nH]7)C=C6)C=C5)cc3)sc21
REMARK SMILES IDX 20 1 19 2 18 3 17 4 15 5 16 6 14 8 3 9 4 10 85 11 5 12 12 13
REMARK SMILES IDX 84 14 13 15 2 16 1 17 6 18 7 19 11 20 8 21 10 22 9 23 21 24
REMARK SMILES IDX 22 25 23 27 24 28 25 29 83 30 26 31 82 32 27 33 28 34 29 35
REMARK SMILES IDX 76 36 30 37 81 38 75 39 77 40 31 41 80 42 74 43 73 44 32 46
REMARK SMILES IDX 62 47 43 48 61 49 44 50 47 51 60 52 78 53 45 54 46 55 59 57
REMARK SMILES IDX 79 58 48 59 33 60 34 61 42 62 35 63 41 64 36 65 37 66 38 67
REMARK SMILES IDX 39 68 40 69 63 70 64 71 72 72 65 73 71 74 66 75 67 76 68 77
REMARK SMILES IDX 69 78 70 79 49 80 50 81 58 82 51 83 57 84 52 85 53 86 54 87
REMARK SMILES IDX 55 88 56 89
REMARK H PARENT 17 7 21 26 77 45 47 56
REMARK Flexibility Score: inf
ROOT
ATOM      1  C   UNL A   1      40.161  22.650  27.036  1.00  0.00     0.118 C 
ENDROOT
BRANCH   1   2
ATOM      2  C   UNL A   1      38.918  22.115  26.336  1.00  0.00     0.042 C 
BRANCH   2   3
ATOM      3  C   UNL A   1      37.996  23.232  25.817  1.00  0.00     0.118 C 
BRANCH   3   4
ATOM      4  N   UNL A   1      37.463  22.993  24.474  1.00  0.00    -0.351 N 
ATOM      5  C   UNL A   1      36.244  23.236  23.865  1.00  0.00     0.261 C 
ATOM      6  O   UNL A   1      36.219  23.036  22.648  1.00  0.00    -0.268 OA
ATOM      7  H   UNL A   1      38.114  22.567  23.873  1.00  0.00     0.163 HD
BRANCH   5   8
ATOM      8  C   UNL A   1      35.043  23.666  24.579  1.00  0.00     0.095 A 
ATOM      9  N   UNL A   1      31.573  23.961  25.981  1.00  0.00    -0.254 N 
ATOM     10  N   UNL A   1      31.370  25.243  26.402  1.00  0.00    -0.171 NA
ATOM     11  C   UNL A   1      32.828  23.803  25.529  1.00  0.00     0.122 A 
ATOM     12  C   UNL A   1      32.531  25.895  26.119  1.00  0.00     0.103 A 
ATOM     13  C   UNL A   1      33.427  24.994  25.537  1.00  0.00     0.040 A 
ATOM     14  S   UNL A   1      33.774  22.576  24.990  1.00  0.00    -0.110 S 
ATOM     15  C   UNL A   1      34.723  24.975  25.005  1.00  0.00     0.038 A 
BRANCH   9  16
ATOM     16  C   UNL A   1      30.467  23.023  26.001  1.00  0.00     0.142 C 
ATOM     17  C   UNL A   1      29.711  22.867  27.315  1.00  0.00     0.029 C 
ENDBRANCH   9  16
BRANCH  12  18
ATOM     18  C   UNL A   1      32.682  27.288  26.500  1.00  0.00     0.021 A 
ATOM     19  C   UNL A   1      33.956  27.869  26.508  1.00  0.00     0.013 A 
ATOM     20  C   UNL A   1      31.617  28.073  26.916  1.00  0.00     0.121 A 
ATOM     21  C   UNL A   1      34.114  29.190  26.913  1.00  0.00     0.021 A 
ATOM     22  N   UNL A   1      31.743  29.364  27.323  1.00  0.00    -0.264 NA
ATOM     23  C   UNL A   1      32.988  29.889  27.310  1.00  0.00     0.111 A 
ENDBRANCH  12  18
ENDBRANCH   5   8
ENDBRANCH   3   4
ENDBRANCH   2   3
ENDBRANCH   1   2
BRANCH   1  24
ATOM     24  N   UNL A   1      41.394  22.323  26.306  1.00  0.00    -0.352 N 
ATOM     25  C   UNL A   1      42.337  23.169  25.756  1.00  0.00     0.251 C 
ATOM     26  H   UNL A   1      41.574  21.362  26.191  1.00  0.00     0.163 HD
ATOM     27  O   UNL A   1      43.125  22.760  24.907  1.00  0.00    -0.269 OA
BRANCH  25  28
ATOM     28  C   UNL A   1      42.371  24.572  26.198  1.00  0.00     0.039 A 
ATOM     29  C   UNL A   1      41.594  25.559  25.584  1.00  0.00     0.014 A 
ATOM     30  C   UNL A   1      43.133  24.861  27.323  1.00  0.00     0.014 A 
ATOM     31  C   UNL A   1      41.499  26.810  26.191  1.00  0.00     0.010 A 
ATOM     32  C   UNL A   1      42.881  26.016  28.015  1.00  0.00     0.010 A 
ATOM     33  C   UNL A   1      42.117  27.023  27.432  1.00  0.00    -0.014 A 
BRANCH  33  34
ATOM     34  C   UNL A   1      41.905  28.251  28.191  1.00  0.00     0.031 A 
ATOM     35  C   UNL A   1      42.927  29.317  27.996  1.00  0.00     0.074 A 
ATOM     36  C   UNL A   1      40.746  28.523  28.831  1.00  0.00     0.049 A 
ATOM     37  N   UNL A   1      43.799  29.743  28.849  1.00  0.00    -0.248 NA
ATOM     38  C   UNL A   1      43.078  29.902  26.653  1.00  0.00     0.031 C 
ATOM     39  C   UNL A   1      39.500  27.742  28.853  1.00  0.00     0.029 A 
ATOM     40  N   UNL A   1      40.391  29.651  29.498  1.00  0.00    -0.354 N 
ATOM     41  C   UNL A   1      44.462  30.801  28.232  1.00  0.00     0.074 A 
ATOM     42  C   UNL A   1      44.111  30.729  26.836  1.00  0.00     0.031 C 
ATOM     43  C   UNL A   1      38.478  28.528  29.255  1.00  0.00     0.029 A 
ATOM     44  C   UNL A   1      39.025  29.787  29.717  1.00  0.00     0.049 A 
ATOM     45  H   UNL A   1      41.049  30.319  29.803  1.00  0.00     0.167 HD
ATOM     46  C   UNL A   1      45.059  31.796  28.950  1.00  0.00     0.031 A 
ATOM     47  C   UNL A   1      38.390  30.869  30.226  1.00  0.00     0.031 A 
ATOM     48  C   UNL A   1      45.155  31.460  30.349  1.00  0.00     0.049 A 
ATOM     49  C   UNL A   1      39.410  31.659  30.956  1.00  0.00     0.074 A 
ATOM     50  C   UNL A   1      45.738  30.434  31.066  1.00  0.00     0.029 A 
ATOM     51  N   UNL A   1      44.232  32.031  31.194  1.00  0.00    -0.354 N 
ATOM     52  N   UNL A   1      40.015  31.230  32.028  1.00  0.00    -0.248 NA
ATOM     53  C   UNL A   1      40.088  32.732  30.244  1.00  0.00     0.031 C 
ATOM     54  C   UNL A   1      44.794  30.126  32.091  1.00  0.00     0.029 A 
ATOM     55  C   UNL A   1      43.734  31.029  31.986  1.00  0.00     0.049 A 
ATOM     56  H   UNL A   1      43.977  32.981  31.225  1.00  0.00     0.167 HD
ATOM     57  C   UNL A   1      41.328  31.659  31.891  1.00  0.00     0.074 A 
ATOM     58  C   UNL A   1      41.287  32.663  30.829  1.00  0.00     0.031 C 
ATOM     59  C   UNL A   1      42.363  30.964  32.451  1.00  0.00     0.031 A 
BRANCH  46  60
ATOM     60  C   UNL A   1      45.193  33.225  28.475  1.00  0.00    -0.014 A 
ATOM     61  C   UNL A   1      46.389  33.924  28.746  1.00  0.00     0.010 A 
ATOM     62  C   UNL A   1      44.099  33.989  28.024  1.00  0.00     0.010 A 
ATOM     63  C   UNL A   1      46.458  35.320  28.646  1.00  0.00     0.020 A 
ATOM     64  C   UNL A   1      44.170  35.377  27.876  1.00  0.00     0.020 A 
ATOM     65  C   UNL A   1      45.338  36.038  28.226  1.00  0.00     0.054 A 
BRANCH  65  66
ATOM     66  S   UNL A   1      45.397  37.846  28.212  1.00  0.00     0.124 S 
ATOM     67  O   UNL A   1      45.471  38.132  26.782  1.00  0.00    -0.237 OA
ATOM     68  O   UNL A   1      44.140  38.201  28.866  1.00  0.00    -0.237 OA
ATOM     69  O   UNL A   1      46.601  38.155  28.978  1.00  0.00    -0.744 OA
ENDBRANCH  65  66
ENDBRANCH  46  60
BRANCH  47  70
ATOM     70  C   UNL A   1      37.048  31.401  29.891  1.00  0.00    -0.014 A 
ATOM     71  C   UNL A   1      36.231  31.955  30.893  1.00  0.00     0.010 A 
ATOM     72  C   UNL A   1      36.693  31.640  28.546  1.00  0.00     0.010 A 
ATOM     73  C   UNL A   1      35.151  32.791  30.566  1.00  0.00     0.020 A 
ATOM     74  C   UNL A   1      35.613  32.466  28.212  1.00  0.00     0.020 A 
ATOM     75  C   UNL A   1      34.867  33.065  29.226  1.00  0.00     0.054 A 
BRANCH  75  76
ATOM     76  S   UNL A   1      33.612  34.318  28.822  1.00  0.00     0.124 S 
ATOM     77  O   UNL A   1      34.410  35.361  28.184  1.00  0.00    -0.237 OA
ATOM     78  O   UNL A   1      32.707  33.586  27.941  1.00  0.00    -0.237 OA
ATOM     79  O   UNL A   1      33.051  34.673  30.124  1.00  0.00    -0.744 OA
ENDBRANCH  75  76
ENDBRANCH  47  70
BRANCH  59  80
ATOM     80  C   UNL A   1      42.049  29.876  33.456  1.00  0.00    -0.014 A 
ATOM     81  C   UNL A   1      41.743  28.546  33.105  1.00  0.00     0.010 A 
ATOM     82  C   UNL A   1      42.233  30.182  34.816  1.00  0.00     0.010 A 
ATOM     83  C   UNL A   1      41.601  27.558  34.093  1.00  0.00     0.020 A 
ATOM     84  C   UNL A   1      42.112  29.201  35.801  1.00  0.00     0.020 A 
ATOM     85  C   UNL A   1      41.787  27.894  35.437  1.00  0.00     0.054 A 
BRANCH  85  86
ATOM     86  S   UNL A   1      41.652  26.605  36.710  1.00  0.00     0.124 S 
ATOM     87  O   UNL A   1      41.548  25.385  35.916  1.00  0.00    -0.237 OA
ATOM     88  O   UNL A   1      42.894  26.761  37.463  1.00  0.00    -0.237 OA
ATOM     89  O   UNL A   1      40.442  26.967  37.447  1.00  0.00    -0.744 OA
ENDBRANCH  85  86
ENDBRANCH  59  80
ENDBRANCH  33  34
ENDBRANCH  25  28
ENDBRANCH   1  24
TORSDOF 15
ENDMDL
MODEL 2
REMARK VINA RESULT:     -12.1      2.051      2.856
REMARK SMILES CCn1nc(-c2cccnc2)c2cc(C(=O)NCCCNC(=O)c3ccc(-c4c5nc(c(-c6ccc(S(=O)(=O)[O-])cc6)c6ccc([nH]6)c(-c6ccc(S(=O)(=O)[O-])cc6)c6nc(c(-c7ccc(S(=O)(=O)[O-])cc7)c7ccc4[nH]7)C=C6)C=C5)cc3)sc21
REMARK SMILES IDX 20 1 19 2 18 3 17 4 15 5 16 6 14 8 3 9 4 10 85 11 5 12 12 13
REMARK SMILES IDX 84 14 13 15 2 16 1 17 6 18 7 19 11 20 8 21 10 22 9 23 21 24
REMARK SMILES IDX 22 25 23 27 24 28 25 29 83 30 26 31 82 32 27 33 28 34 29 35
REMARK SMILES IDX 76 36 30 37 81 38 75 39 77 40 31 41 80 42 74 43 73 44 32 46
REMARK SMILES IDX 62 47 43 48 61 49 44 50 47 51 60 52 78 53 45 54 46 55 59 57
REMARK SMILES IDX 79 58 48 59 33 60 34 61 42 62 35 63 41 64 36 65 37 66 38 67
REMARK SMILES IDX 39 68 40 69 63 70 64 71 72 72 65 73 71 74 66 75 67 76 68 77
REMARK SMILES IDX 69 78 70 79 49 80 50 81 58 82 51 83 57 84 52 85 53 86 54 87
REMARK SMILES IDX 55 88 56 89
REMARK H PARENT 17 7 21 26 77 45 47 56
REMARK Flexibility Score: inf
ROOT
ATOM      1  C   UNL A   1      37.493  22.921  25.465  1.00  0.00     0.118 C 
ENDROOT
BRANCH   1   2
ATOM      2  C   UNL A   1      36.485  22.240  24.547  1.00  0.00     0.042 C 
BRANCH   2   3
ATOM      3  C   UNL A   1      35.185  23.046  24.383  1.00  0.00     0.118 C 
BRANCH   3   4
ATOM      4  N   UNL A   1      34.175  22.769  25.406  1.00  0.00    -0.351 N 
ATOM      5  C   UNL A   1      33.082  23.464  25.894  1.00  0.00     0.261 C 
ATOM      6  O   UNL A   1      32.359  22.828  26.664  1.00  0.00    -0.268 OA
ATOM      7  H   UNL A   1      34.301  21.897  25.845  1.00  0.00     0.163 HD
BRANCH   5   8
ATOM      8  C   UNL A   1      32.788  24.860  25.570  1.00  0.00     0.095 A 
ATOM      9  N   UNL A   1      31.757  28.044  23.871  1.00  0.00    -0.254 N 
ATOM     10  N   UNL A   1      32.328  29.101  24.520  1.00  0.00    -0.171 NA
ATOM     11  C   UNL A   1      32.055  26.890  24.490  1.00  0.00     0.122 A 
ATOM     12  C   UNL A   1      33.058  28.544  25.525  1.00  0.00     0.103 A 
ATOM     13  C   UNL A   1      32.912  27.155  25.477  1.00  0.00     0.040 A 
ATOM     14  S   UNL A   1      31.656  25.305  24.351  1.00  0.00    -0.110 S 
ATOM     15  C   UNL A   1      33.366  26.012  26.148  1.00  0.00     0.038 A 
BRANCH   9  16
ATOM     16  C   UNL A   1      31.022  28.278  22.643  1.00  0.00     0.142 C 
ATOM     17  C   UNL A   1      30.117  29.503  22.597  1.00  0.00     0.029 C 
ENDBRANCH   9  16
BRANCH  12  18
ATOM     18  C   UNL A   1      33.757  29.403  26.464  1.00  0.00     0.021 A 
ATOM     19  C   UNL A   1      34.963  28.974  27.029  1.00  0.00     0.013 A 
ATOM     20  C   UNL A   1      33.256  30.628  26.879  1.00  0.00     0.121 A 
ATOM     21  C   UNL A   1      35.617  29.772  27.962  1.00  0.00     0.021 A 
ATOM     22  N   UNL A   1      33.869  31.426  27.792  1.00  0.00    -0.264 NA
ATOM     23  C   UNL A   1      35.034  30.978  28.310  1.00  0.00     0.111 A 
ENDBRANCH  12  18
ENDBRANCH   5   8
ENDBRANCH   3   4
ENDBRANCH   2   3
ENDBRANCH   1   2
BRANCH   1  24
ATOM     24  N   UNL A   1      38.363  21.954  26.149  1.00  0.00    -0.352 N 
ATOM     25  C   UNL A   1      39.604  22.147  26.725  1.00  0.00     0.251 C 
ATOM     26  H   UNL A   1      38.012  21.036  26.204  1.00  0.00     0.163 HD
ATOM     27  O   UNL A   1      40.338  21.191  26.962  1.00  0.00    -0.269 OA
BRANCH  25  28
ATOM     28  C   UNL A   1      40.032  23.519  27.039  1.00  0.00     0.039 A 
ATOM     29  C   UNL A   1      39.293  24.634  26.632  1.00  0.00     0.014 A 
ATOM     30  C   UNL A   1      41.152  23.661  27.848  1.00  0.00     0.014 A 
ATOM     31  C   UNL A   1      39.626  25.883  27.153  1.00  0.00     0.010 A 
ATOM     32  C   UNL A   1      41.348  24.846  28.505  1.00  0.00     0.010 A 
ATOM     33  C   UNL A   1      40.635  25.979  28.122  1.00  0.00    -0.014 A 
BRANCH  33  34
ATOM     34  C   UNL A   1      40.904  27.230  28.826  1.00  0.00     0.031 A 
ATOM     35  C   UNL A   1      42.114  27.976  28.379  1.00  0.00     0.074 A 
ATOM     36  C   UNL A   1      40.002  27.815  29.645  1.00  0.00     0.049 A 
ATOM     37  N   UNL A   1      43.214  28.162  29.031  1.00  0.00    -0.248 NA
ATOM     38  C   UNL A   1      42.153  28.479  26.996  1.00  0.00     0.031 C 
ATOM     39  C   UNL A   1      38.623  27.401  29.942  1.00  0.00     0.029 A 
ATOM     40  N   UNL A   1      40.092  29.006  30.290  1.00  0.00    -0.354 N 
ATOM     41  C   UNL A   1      44.001  28.991  28.236  1.00  0.00     0.074 A 
ATOM     42  C   UNL A   1      43.382  28.997  26.934  1.00  0.00     0.031 C 
ATOM     43  C   UNL A   1      37.941  28.440  30.471  1.00  0.00     0.029 A 
ATOM     44  C   UNL A   1      38.878  29.511  30.742  1.00  0.00     0.049 A 
ATOM     45  H   UNL A   1      40.948  29.475  30.427  1.00  0.00     0.167 HD
ATOM     46  C   UNL A   1      44.965  29.798  28.768  1.00  0.00     0.031 A 
ATOM     47  C   UNL A   1      38.660  30.732  31.286  1.00  0.00     0.031 A 
ATOM     48  C   UNL A   1      45.236  29.468  30.145  1.00  0.00     0.049 A 
ATOM     49  C   UNL A   1      39.973  31.226  31.766  1.00  0.00     0.074 A 
ATOM     50  C   UNL A   1      45.654  28.333  30.811  1.00  0.00     0.029 A 
ATOM     51  N   UNL A   1      44.675  30.280  31.105  1.00  0.00    -0.354 N 
ATOM     52  N   UNL A   1      40.637  30.664  32.737  1.00  0.00    -0.248 NA
ATOM     53  C   UNL A   1      40.759  32.064  30.875  1.00  0.00     0.031 C 
ATOM     54  C   UNL A   1      44.877  28.307  32.008  1.00  0.00     0.029 A 
ATOM     55  C   UNL A   1      44.092  29.462  32.037  1.00  0.00     0.049 A 
ATOM     56  H   UNL A   1      44.690  31.265  31.119  1.00  0.00     0.167 HD
ATOM     57  C   UNL A   1      41.965  30.719  32.337  1.00  0.00     0.074 A 
ATOM     58  C   UNL A   1      41.987  31.681  31.237  1.00  0.00     0.031 C 
ATOM     59  C   UNL A   1      42.868  29.778  32.745  1.00  0.00     0.031 A 
BRANCH  46  60
ATOM     60  C   UNL A   1      45.377  31.130  28.184  1.00  0.00    -0.014 A 
ATOM     61  C   UNL A   1      44.424  32.169  28.115  1.00  0.00     0.010 A 
ATOM     62  C   UNL A   1      46.569  31.311  27.455  1.00  0.00     0.010 A 
ATOM     63  C   UNL A   1      44.622  33.289  27.296  1.00  0.00     0.020 A 
ATOM     64  C   UNL A   1      46.797  32.446  26.672  1.00  0.00     0.020 A 
ATOM     65  C   UNL A   1      45.804  33.410  26.566  1.00  0.00     0.054 A 
BRANCH  65  66
ATOM     66  S   UNL A   1      46.004  34.796  25.422  1.00  0.00     0.124 S 
ATOM     67  O   UNL A   1      47.433  34.740  25.130  1.00  0.00    -0.237 OA
ATOM     68  O   UNL A   1      45.117  34.422  24.324  1.00  0.00    -0.237 OA
ATOM     69  O   UNL A   1      45.567  35.950  26.204  1.00  0.00    -0.744 OA
ENDBRANCH  65  66
ENDBRANCH  46  60
BRANCH  47  70
ATOM     70  C   UNL A   1      37.467  31.602  31.165  1.00  0.00    -0.014 A 
ATOM     71  C   UNL A   1      36.318  31.347  31.935  1.00  0.00     0.010 A 
ATOM     72  C   UNL A   1      37.563  32.854  30.521  1.00  0.00     0.010 A 
ATOM     73  C   UNL A   1      35.343  32.339  32.130  1.00  0.00     0.020 A 
ATOM     74  C   UNL A   1      36.591  33.845  30.704  1.00  0.00     0.020 A 
ATOM     75  C   UNL A   1      35.501  33.594  31.535  1.00  0.00     0.054 A 
BRANCH  75  76
ATOM     76  S   UNL A   1      34.352  34.934  31.971  1.00  0.00     0.124 S 
ATOM     77  O   UNL A   1      35.183  35.794  32.808  1.00  0.00    -0.237 OA
ATOM     78  O   UNL A   1      33.992  35.479  30.665  1.00  0.00    -0.237 OA
ATOM     79  O   UNL A   1      33.269  34.244  32.670  1.00  0.00    -0.744 OA
ENDBRANCH  75  76
ENDBRANCH  47  70
BRANCH  59  80
ATOM     80  C   UNL A   1      42.478  28.830  33.859  1.00  0.00    -0.014 A 
ATOM     81  C   UNL A   1      41.790  27.617  33.655  1.00  0.00     0.010 A 
ATOM     82  C   UNL A   1      42.973  29.109  35.146  1.00  0.00     0.010 A 
ATOM     83  C   UNL A   1      41.585  26.721  34.717  1.00  0.00     0.020 A 
ATOM     84  C   UNL A   1      42.789  28.213  36.201  1.00  0.00     0.020 A 
ATOM     85  C   UNL A   1      42.087  27.027  35.985  1.00  0.00     0.054 A 
BRANCH  85  86
ATOM     86  S   UNL A   1      41.865  25.845  37.346  1.00  0.00     0.124 S 
ATOM     87  O   UNL A   1      40.476  26.067  37.736  1.00  0.00    -0.237 OA
ATOM     88  O   UNL A   1      42.140  24.559  36.709  1.00  0.00    -0.237 OA
ATOM     89  O   UNL A   1      42.859  26.260  38.335  1.00  0.00    -0.744 OA
ENDBRANCH  85  86
ENDBRANCH  59  80
ENDBRANCH  33  34
ENDBRANCH  25  28
ENDBRANCH   1  24
TORSDOF 15
ENDMDL
MODEL 3
REMARK VINA RESULT:     -12.0      2.267      3.706
REMARK SMILES CCn1nc(-c2cccnc2)c2cc(C(=O)NCCCNC(=O)c3ccc(-c4c5nc(c(-c6ccc(S(=O)(=O)[O-])cc6)c6ccc([nH]6)c(-c6ccc(S(=O)(=O)[O-])cc6)c6nc(c(-c7ccc(S(=O)(=O)[O-])cc7)c7ccc4[nH]7)C=C6)C=C5)cc3)sc21
REMARK SMILES IDX 20 1 19 2 18 3 17 4 15 5 16 6 14 8 3 9 4 10 85 11 5 12 12 13
REMARK SMILES IDX 84 14 13 15 2 16 1 17 6 18 7 19 11 20 8 21 10 22 9 23 21 24
REMARK SMILES IDX 22 25 23 27 24 28 25 29 83 30 26 31 82 32 27 33 28 34 29 35
REMARK SMILES IDX 76 36 30 37 81 38 75 39 77 40 31 41 80 42 74 43 73 44 32 46
REMARK SMILES IDX 62 47 43 48 61 49 44 50 47 51 60 52 78 53 45 54 46 55 59 57
REMARK SMILES IDX 79 58 48 59 33 60 34 61 42 62 35 63 41 64 36 65 37 66 38 67
REMARK SMILES IDX 39 68 40 69 63 70 64 71 72 72 65 73 71 74 66 75 67 76 68 77
REMARK SMILES IDX 69 78 70 79 49 80 50 81 58 82 51 83 57 84 52 85 53 86 54 87
REMARK SMILES IDX 55 88 56 89
REMARK H PARENT 17 7 21 26 77 45 47 56
REMARK Flexibility Score: inf
ROOT
ATOM      1  C   UNL A   1      40.967  20.908  26.579  1.00  0.00     0.118 C 
ENDROOT
BRANCH   1   2
ATOM      2  C   UNL A   1      40.071  19.841  25.963  1.00  0.00     0.042 C 
BRANCH   2   3
ATOM      3  C   UNL A   1      38.859  20.433  25.222  1.00  0.00     0.118 C 
BRANCH   3   4
ATOM      4  N   UNL A   1      38.623  21.852  25.494  1.00  0.00    -0.351 N 
ATOM      5  C   UNL A   1      37.487  22.627  25.649  1.00  0.00     0.261 C 
ATOM      6  O   UNL A   1      37.691  23.781  26.034  1.00  0.00    -0.268 OA
ATOM      7  H   UNL A   1      39.455  22.368  25.588  1.00  0.00     0.163 HD
BRANCH   5   8
ATOM      8  C   UNL A   1      36.132  22.162  25.357  1.00  0.00     0.095 A 
ATOM      9  N   UNL A   1      32.412  21.875  24.942  1.00  0.00    -0.254 N 
ATOM     10  N   UNL A   1      32.074  20.555  24.859  1.00  0.00    -0.171 NA
ATOM     11  C   UNL A   1      33.745  22.018  25.029  1.00  0.00     0.122 A 
ATOM     12  C   UNL A   1      33.251  19.881  24.979  1.00  0.00     0.103 A 
ATOM     13  C   UNL A   1      34.290  20.805  25.122  1.00  0.00     0.040 A 
ATOM     14  S   UNL A   1      34.831  23.248  25.052  1.00  0.00    -0.110 S 
ATOM     15  C   UNL A   1      35.679  20.825  25.305  1.00  0.00     0.038 A 
BRANCH   9  16
ATOM     16  C   UNL A   1      31.364  22.875  24.998  1.00  0.00     0.142 C 
ATOM     17  C   UNL A   1      31.065  23.644  23.716  1.00  0.00     0.029 C 
ENDBRANCH   9  16
BRANCH  12  18
ATOM     18  C   UNL A   1      33.261  18.434  24.872  1.00  0.00     0.021 A 
ATOM     19  C   UNL A   1      33.949  17.823  23.816  1.00  0.00     0.013 A 
ATOM     20  C   UNL A   1      32.569  17.610  25.746  1.00  0.00     0.121 A 
ATOM     21  C   UNL A   1      33.928  16.438  23.681  1.00  0.00     0.021 A 
ATOM     22  N   UNL A   1      32.526  16.256  25.636  1.00  0.00    -0.264 NA
ATOM     23  C   UNL A   1      33.207  15.705  24.607  1.00  0.00     0.111 A 
ENDBRANCH  12  18
ENDBRANCH   5   8
ENDBRANCH   3   4
ENDBRANCH   2   3
ENDBRANCH   1   2
BRANCH   1  24
ATOM     24  N   UNL A   1      42.040  21.327  25.667  1.00  0.00    -0.352 N 
ATOM     25  C   UNL A   1      42.570  22.586  25.457  1.00  0.00     0.251 C 
ATOM     26  H   UNL A   1      42.439  20.607  25.126  1.00  0.00     0.163 HD
ATOM     27  O   UNL A   1      43.222  22.828  24.444  1.00  0.00    -0.269 OA
BRANCH  25  28
ATOM     28  C   UNL A   1      42.328  23.631  26.463  1.00  0.00     0.039 A 
ATOM     29  C   UNL A   1      43.215  23.857  27.520  1.00  0.00     0.014 A 
ATOM     30  C   UNL A   1      41.231  24.459  26.263  1.00  0.00     0.014 A 
ATOM     31  C   UNL A   1      43.050  25.001  28.300  1.00  0.00     0.010 A 
ATOM     32  C   UNL A   1      41.191  25.672  26.898  1.00  0.00     0.010 A 
ATOM     33  C   UNL A   1      42.054  25.929  27.959  1.00  0.00    -0.014 A 
BRANCH  33  34
ATOM     34  C   UNL A   1      41.952  27.221  28.630  1.00  0.00     0.031 A 
ATOM     35  C   UNL A   1      43.046  28.190  28.340  1.00  0.00     0.074 A 
ATOM     36  C   UNL A   1      40.831  27.626  29.269  1.00  0.00     0.049 A 
ATOM     37  N   UNL A   1      43.966  28.608  29.144  1.00  0.00    -0.248 NA
ATOM     38  C   UNL A   1      43.209  28.664  26.956  1.00  0.00     0.031 C 
ATOM     39  C   UNL A   1      39.531  26.946  29.369  1.00  0.00     0.029 A 
ATOM     40  N   UNL A   1      40.577  28.822  29.858  1.00  0.00    -0.354 N 
ATOM     41  C   UNL A   1      44.692  29.565  28.440  1.00  0.00     0.074 A 
ATOM     42  C   UNL A   1      44.305  29.420  27.059  1.00  0.00     0.031 C 
ATOM     43  C   UNL A   1      38.580  27.834  29.731  1.00  0.00     0.029 A 
ATOM     44  C   UNL A   1      39.230  29.077  30.089  1.00  0.00     0.049 A 
ATOM     45  H   UNL A   1      41.289  29.458  30.102  1.00  0.00     0.167 HD
ATOM     46  C   UNL A   1      45.378  30.561  29.074  1.00  0.00     0.031 A 
ATOM     47  C   UNL A   1      38.689  30.238  30.529  1.00  0.00     0.031 A 
ATOM     48  C   UNL A   1      45.481  30.319  30.491  1.00  0.00     0.049 A 
ATOM     49  C   UNL A   1      39.782  30.998  31.182  1.00  0.00     0.074 A 
ATOM     50  C   UNL A   1      46.002  29.306  31.271  1.00  0.00     0.029 A 
ATOM     51  N   UNL A   1      44.622  31.018  31.309  1.00  0.00    -0.354 N 
ATOM     52  N   UNL A   1      40.378  30.602  32.271  1.00  0.00    -0.248 NA
ATOM     53  C   UNL A   1      40.521  31.963  30.382  1.00  0.00     0.031 C 
ATOM     54  C   UNL A   1      45.061  29.144  32.332  1.00  0.00     0.029 A 
ATOM     55  C   UNL A   1      44.070  30.116  32.180  1.00  0.00     0.049 A 
ATOM     56  H   UNL A   1      44.440  31.985  31.274  1.00  0.00     0.167 HD
ATOM     57  C   UNL A   1      41.716  30.918  32.081  1.00  0.00     0.074 A 
ATOM     58  C   UNL A   1      41.725  31.845  30.950  1.00  0.00     0.031 C 
ATOM     59  C   UNL A   1      42.709  30.189  32.672  1.00  0.00     0.031 A 
BRANCH  46  60
ATOM     60  C   UNL A   1      45.608  31.938  28.493  1.00  0.00    -0.014 A 
ATOM     61  C   UNL A   1      46.900  32.500  28.563  1.00  0.00     0.010 A 
ATOM     62  C   UNL A   1      44.556  32.805  28.136  1.00  0.00     0.010 A 
ATOM     63  C   UNL A   1      47.112  33.872  28.364  1.00  0.00     0.020 A 
ATOM     64  C   UNL A   1      44.762  34.165  27.890  1.00  0.00     0.020 A 
ATOM     65  C   UNL A   1      46.035  34.697  28.044  1.00  0.00     0.054 A 
BRANCH  65  66
ATOM     66  S   UNL A   1      46.294  36.482  27.906  1.00  0.00     0.124 S 
ATOM     67  O   UNL A   1      47.658  36.547  27.389  1.00  0.00    -0.237 OA
ATOM     68  O   UNL A   1      45.242  36.876  26.973  1.00  0.00    -0.237 OA
ATOM     69  O   UNL A   1      46.117  36.960  29.275  1.00  0.00    -0.744 OA
ENDBRANCH  65  66
ENDBRANCH  46  60
BRANCH  47  70
ATOM     70  C   UNL A   1      37.384  30.845  30.180  1.00  0.00    -0.014 A 
ATOM     71  C   UNL A   1      36.629  31.522  31.155  1.00  0.00     0.010 A 
ATOM     72  C   UNL A   1      37.021  31.022  28.828  1.00  0.00     0.010 A 
ATOM     73  C   UNL A   1      35.607  32.413  30.789  1.00  0.00     0.020 A 
ATOM     74  C   UNL A   1      35.997  31.903  28.456  1.00  0.00     0.020 A 
ATOM     75  C   UNL A   1      35.317  32.620  29.438  1.00  0.00     0.054 A 
BRANCH  75  76
ATOM     76  S   UNL A   1      34.150  33.934  28.971  1.00  0.00     0.124 S 
ATOM     77  O   UNL A   1      33.319  33.269  27.972  1.00  0.00    -0.237 OA
ATOM     78  O   UNL A   1      33.494  34.238  30.239  1.00  0.00    -0.237 OA
ATOM     79  O   UNL A   1      35.014  34.993  28.455  1.00  0.00    -0.744 OA
ENDBRANCH  75  76
ENDBRANCH  47  70
BRANCH  59  80
ATOM     80  C   UNL A   1      42.337  29.203  33.759  1.00  0.00    -0.014 A 
ATOM     81  C   UNL A   1      41.890  27.890  33.510  1.00  0.00     0.010 A 
ATOM     82  C   UNL A   1      42.610  29.574  35.087  1.00  0.00     0.010 A 
ATOM     83  C   UNL A   1      41.698  26.984  34.566  1.00  0.00     0.020 A 
ATOM     84  C   UNL A   1      42.440  28.673  36.140  1.00  0.00     0.020 A 
ATOM     85  C   UNL A   1      41.975  27.384  35.877  1.00  0.00     0.054 A 
BRANCH  85  86
ATOM     86  S   UNL A   1      41.775  26.198  37.237  1.00  0.00     0.124 S 
ATOM     87  O   UNL A   1      40.432  26.495  37.723  1.00  0.00    -0.237 OA
ATOM     88  O   UNL A   1      41.931  24.907  36.569  1.00  0.00    -0.237 OA
ATOM     89  O   UNL A   1      42.856  26.540  38.161  1.00  0.00    -0.744 OA
ENDBRANCH  85  86
ENDBRANCH  59  80
ENDBRANCH  33  34
ENDBRANCH  25  28
ENDBRANCH   1  24
TORSDOF 15
ENDMDL
