MODEL 1
REMARK VINA RESULT:      -9.8      0.000      0.000
REMARK SMILES [NH3+][C@]1(C(=O)NCCCNC(=O)c2ccc(-c3c4nc(c(-c5ccc(S(=O)(=O)[O-])cc5)c5ccc([nH]5)c(-c5ccc(S(=O)(=O)[O-])cc5)c5nc(c(-c6ccc(S(=O)(=O)[O-])cc6)c6ccc3[nH]6)C=C5)C=C4)cc2)CC[C@@H](Sc2cc3ccccc3[nH]2)C1
REMARK SMILES IDX 7 1 6 2 5 3 3 4 4 5 2 7 72 8 85 9 73 10 74 11 1 12 75 16
REMARK SMILES IDX 76 17 77 18 84 19 78 20 83 21 79 23 82 24 80 25 81 26 8 27
REMARK SMILES IDX 9 28 10 29 11 31 12 32 13 33 71 34 14 35 70 36 15 37 16 38
REMARK SMILES IDX 17 39 64 40 18 41 69 42 63 43 65 44 19 45 68 46 62 47 61 48
REMARK SMILES IDX 20 50 50 51 31 52 49 53 32 54 35 55 48 56 66 57 33 58 34 59
REMARK SMILES IDX 47 61 67 62 36 63 21 64 22 65 30 66 23 67 29 68 24 69 25 70
REMARK SMILES IDX 26 71 27 72 28 73 51 74 52 75 60 76 53 77 59 78 54 79 55 80
REMARK SMILES IDX 56 81 57 82 58 83 37 84 38 85 46 86 39 87 45 88 40 89 41 90
REMARK SMILES IDX 42 91 43 92 44 93
REMARK H PARENT 5 6 1 13 1 14 1 15 84 22 9 30 65 49 35 60
REMARK Flexibility Score: inf
ROOT
ATOM      1  C   UNL A   1      34.167  34.151  28.281  1.00  0.00     0.042 C 
ENDROOT
BRANCH   1   2
ATOM      2  C   UNL A   1      34.344  34.676  29.706  1.00  0.00     0.118 C 
BRANCH   2   3
ATOM      3  N   UNL A   1      33.969  33.692  30.705  1.00  0.00    -0.351 N 
ATOM      4  C   UNL A   1      34.415  33.521  31.983  1.00  0.00     0.281 C 
ATOM      5  O   UNL A   1      33.846  32.663  32.666  1.00  0.00    -0.268 OA
ATOM      6  H   UNL A   1      33.285  33.046  30.414  1.00  0.00     0.163 HD
BRANCH   4   7
ATOM      7  C   UNL A   1      35.533  34.415  32.581  1.00  0.00     0.175 C 
ATOM      8  C   UNL A   1      35.811  34.004  34.043  1.00  0.00     0.080 C 
ATOM      9  C   UNL A   1      36.904  34.198  31.942  1.00  0.00     0.094 C 
ATOM     10  C   UNL A   1      37.208  34.522  34.359  1.00  0.00     0.022 C 
ATOM     11  C   UNL A   1      37.927  34.541  33.016  1.00  0.00     0.060 C 
BRANCH   7  12
ATOM     12  N   UNL A   1      35.121  35.835  32.502  1.00  0.00    -0.345 N 
ATOM     13  H   UNL A   1      35.940  36.418  32.338  1.00  0.00     0.345 HD
ATOM     14  H   UNL A   1      34.677  36.109  33.378  1.00  0.00     0.345 HD
ATOM     15  H   UNL A   1      34.459  35.954  31.734  1.00  0.00     0.345 HD
ENDBRANCH   7  12
BRANCH  11  16
ATOM     16  S   UNL A   1      39.392  33.533  32.800  1.00  0.00    -0.105 SA
BRANCH  16  17
ATOM     17  C   UNL A   1      39.174  32.075  33.716  1.00  0.00     0.073 A 
ATOM     18  C   UNL A   1      38.530  30.895  33.395  1.00  0.00     0.043 A 
ATOM     19  N   UNL A   1      40.216  31.738  34.540  1.00  0.00    -0.350 N 
ATOM     20  C   UNL A   1      39.575  29.908  33.464  1.00  0.00     0.001 A 
ATOM     21  C   UNL A   1      40.659  30.506  34.109  1.00  0.00     0.046 A 
ATOM     22  H   UNL A   1      40.575  32.268  35.288  1.00  0.00     0.167 HD
ATOM     23  C   UNL A   1      39.762  28.643  32.873  1.00  0.00     0.010 A 
ATOM     24  C   UNL A   1      41.942  29.958  34.137  1.00  0.00     0.027 A 
ATOM     25  C   UNL A   1      41.059  28.112  32.828  1.00  0.00     0.001 A 
ATOM     26  C   UNL A   1      42.131  28.771  33.432  1.00  0.00     0.002 A 
ENDBRANCH  16  17
ENDBRANCH  11  16
ENDBRANCH   4   7
ENDBRANCH   2   3
ENDBRANCH   1   2
BRANCH   1  27
ATOM     27  C   UNL A   1      35.009  32.914  27.977  1.00  0.00     0.118 C 
BRANCH  27  28
ATOM     28  N   UNL A   1      34.196  31.707  27.896  1.00  0.00    -0.352 N 
ATOM     29  C   UNL A   1      34.575  30.395  27.859  1.00  0.00     0.251 C 
ATOM     30  H   UNL A   1      33.225  31.861  27.861  1.00  0.00     0.163 HD
ATOM     31  O   UNL A   1      33.733  29.538  27.547  1.00  0.00    -0.269 OA
BRANCH  29  32
ATOM     32  C   UNL A   1      35.955  29.984  28.178  1.00  0.00     0.039 A 
ATOM     33  C   UNL A   1      36.938  30.089  27.190  1.00  0.00     0.014 A 
ATOM     34  C   UNL A   1      36.278  29.448  29.428  1.00  0.00     0.014 A 
ATOM     35  C   UNL A   1      38.250  29.701  27.469  1.00  0.00     0.010 A 
ATOM     36  C   UNL A   1      37.600  29.130  29.729  1.00  0.00     0.010 A 
ATOM     37  C   UNL A   1      38.598  29.243  28.750  1.00  0.00    -0.014 A 
BRANCH  37  38
ATOM     38  C   UNL A   1      39.999  28.877  29.080  1.00  0.00     0.031 A 
ATOM     39  C   UNL A   1      40.915  29.882  29.725  1.00  0.00     0.074 A 
ATOM     40  C   UNL A   1      40.461  27.656  28.747  1.00  0.00     0.049 A 
ATOM     41  N   UNL A   1      42.179  29.761  30.042  1.00  0.00    -0.248 NA
ATOM     42  C   UNL A   1      40.344  31.203  30.034  1.00  0.00     0.031 C 
ATOM     43  C   UNL A   1      39.683  26.608  28.082  1.00  0.00     0.029 A 
ATOM     44  N   UNL A   1      41.701  27.091  28.916  1.00  0.00    -0.354 N 
ATOM     45  C   UNL A   1      42.558  30.990  30.570  1.00  0.00     0.074 A 
ATOM     46  C   UNL A   1      41.404  31.858  30.486  1.00  0.00     0.031 C 
ATOM     47  C   UNL A   1      40.453  25.520  27.924  1.00  0.00     0.029 A 
ATOM     48  C   UNL A   1      41.789  25.804  28.437  1.00  0.00     0.049 A 
ATOM     49  H   UNL A   1      42.454  27.561  29.340  1.00  0.00     0.167 HD
ATOM     50  C   UNL A   1      43.752  31.358  31.093  1.00  0.00     0.031 A 
ATOM     51  C   UNL A   1      42.831  24.951  28.406  1.00  0.00     0.031 A 
ATOM     52  C   UNL A   1      44.895  30.487  31.181  1.00  0.00     0.049 A 
ATOM     53  C   UNL A   1      44.149  25.385  28.986  1.00  0.00     0.074 A 
ATOM     54  C   UNL A   1      46.134  30.747  31.743  1.00  0.00     0.029 A 
ATOM     55  N   UNL A   1      44.942  29.190  30.693  1.00  0.00    -0.354 N 
ATOM     56  N   UNL A   1      44.469  26.530  29.539  1.00  0.00    -0.248 NA
ATOM     57  C   UNL A   1      45.244  24.405  28.949  1.00  0.00     0.031 C 
ATOM     58  C   UNL A   1      46.945  29.625  31.548  1.00  0.00     0.029 A 
ATOM     59  C   UNL A   1      46.194  28.644  30.920  1.00  0.00     0.049 A 
ATOM     60  H   UNL A   1      44.195  28.725  30.252  1.00  0.00     0.167 HD
ATOM     61  C   UNL A   1      45.793  26.400  29.940  1.00  0.00     0.074 A 
ATOM     62  C   UNL A   1      46.209  25.059  29.581  1.00  0.00     0.031 C 
ATOM     63  C   UNL A   1      46.593  27.308  30.552  1.00  0.00     0.031 A 
BRANCH  50  64
ATOM     64  C   UNL A   1      43.886  32.770  31.603  1.00  0.00    -0.014 A 
ATOM     65  C   UNL A   1      43.538  33.102  32.925  1.00  0.00     0.010 A 
ATOM     66  C   UNL A   1      44.403  33.772  30.762  1.00  0.00     0.010 A 
ATOM     67  C   UNL A   1      43.664  34.415  33.384  1.00  0.00     0.020 A 
ATOM     68  C   UNL A   1      44.558  35.083  31.226  1.00  0.00     0.020 A 
ATOM     69  C   UNL A   1      44.171  35.398  32.529  1.00  0.00     0.054 A 
BRANCH  69  70
ATOM     70  S   UNL A   1      44.343  37.091  33.158  1.00  0.00     0.124 S 
ATOM     71  O   UNL A   1      43.006  37.353  33.686  1.00  0.00    -0.237 OA
ATOM     72  O   UNL A   1      45.397  36.956  34.160  1.00  0.00    -0.237 OA
ATOM     73  O   UNL A   1      44.708  37.866  31.975  1.00  0.00    -0.744 OA
ENDBRANCH  69  70
ENDBRANCH  50  64
BRANCH  51  74
ATOM     74  C   UNL A   1      42.662  23.594  27.817  1.00  0.00    -0.014 A 
ATOM     75  C   UNL A   1      43.069  23.333  26.496  1.00  0.00     0.010 A 
ATOM     76  C   UNL A   1      42.110  22.550  28.581  1.00  0.00     0.010 A 
ATOM     77  C   UNL A   1      42.908  22.060  25.944  1.00  0.00     0.020 A 
ATOM     78  C   UNL A   1      41.975  21.267  28.042  1.00  0.00     0.020 A 
ATOM     79  C   UNL A   1      42.364  21.033  26.722  1.00  0.00     0.054 A 
BRANCH  79  80
ATOM     80  S   UNL A   1      42.211  19.376  25.999  1.00  0.00     0.124 S 
ATOM     81  O   UNL A   1      42.728  18.529  27.069  1.00  0.00    -0.237 OA
ATOM     82  O   UNL A   1      40.776  19.274  25.746  1.00  0.00    -0.237 OA
ATOM     83  O   UNL A   1      43.043  19.448  24.800  1.00  0.00    -0.744 OA
ENDBRANCH  79  80
ENDBRANCH  51  74
BRANCH  63  84
ATOM     84  C   UNL A   1      47.991  26.871  30.904  1.00  0.00    -0.014 A 
ATOM     85  C   UNL A   1      49.097  27.269  30.132  1.00  0.00     0.010 A 
ATOM     86  C   UNL A   1      48.204  26.090  32.056  1.00  0.00     0.010 A 
ATOM     87  C   UNL A   1      50.387  26.861  30.485  1.00  0.00     0.020 A 
ATOM     88  C   UNL A   1      49.494  25.706  32.428  1.00  0.00     0.020 A 
ATOM     89  C   UNL A   1      50.576  26.081  31.631  1.00  0.00     0.054 A 
BRANCH  89  90
ATOM     90  S   UNL A   1      52.264  25.598  32.087  1.00  0.00     0.124 S 
ATOM     91  O   UNL A   1      52.971  25.728  30.817  1.00  0.00    -0.237 OA
ATOM     92  O   UNL A   1      52.616  26.583  33.107  1.00  0.00    -0.237 OA
ATOM     93  O   UNL A   1      52.111  24.230  32.578  1.00  0.00    -0.744 OA
ENDBRANCH  89  90
ENDBRANCH  63  84
ENDBRANCH  37  38
ENDBRANCH  29  32
ENDBRANCH  27  28
ENDBRANCH   1  27
TORSDOF 16
ENDMDL
MODEL 2
REMARK VINA RESULT:      -9.6      3.736      6.645
REMARK SMILES [NH3+][C@]1(C(=O)NCCCNC(=O)c2ccc(-c3c4nc(c(-c5ccc(S(=O)(=O)[O-])cc5)c5ccc([nH]5)c(-c5ccc(S(=O)(=O)[O-])cc5)c5nc(c(-c6ccc(S(=O)(=O)[O-])cc6)c6ccc3[nH]6)C=C5)C=C4)cc2)CC[C@@H](Sc2cc3ccccc3[nH]2)C1
REMARK SMILES IDX 7 1 6 2 5 3 3 4 4 5 2 7 72 8 85 9 73 10 74 11 1 12 75 16
REMARK SMILES IDX 76 17 77 18 84 19 78 20 83 21 79 23 82 24 80 25 81 26 8 27
REMARK SMILES IDX 9 28 10 29 11 31 12 32 13 33 71 34 14 35 70 36 15 37 16 38
REMARK SMILES IDX 17 39 64 40 18 41 69 42 63 43 65 44 19 45 68 46 62 47 61 48
REMARK SMILES IDX 20 50 50 51 31 52 49 53 32 54 35 55 48 56 66 57 33 58 34 59
REMARK SMILES IDX 47 61 67 62 36 63 21 64 22 65 30 66 23 67 29 68 24 69 25 70
REMARK SMILES IDX 26 71 27 72 28 73 51 74 52 75 60 76 53 77 59 78 54 79 55 80
REMARK SMILES IDX 56 81 57 82 58 83 37 84 38 85 46 86 39 87 45 88 40 89 41 90
REMARK SMILES IDX 42 91 43 92 44 93
REMARK H PARENT 5 6 1 13 1 14 1 15 84 22 9 30 65 49 35 60
REMARK Flexibility Score: inf
ROOT
ATOM      1  C   UNL A   1      33.709  27.833  25.430  1.00  0.00     0.042 C 
ENDROOT
BRANCH   1   2
ATOM      2  C   UNL A   1      33.202  26.437  25.068  1.00  0.00     0.118 C 
BRANCH   2   3
ATOM      3  N   UNL A   1      32.506  25.802  26.173  1.00  0.00    -0.351 N 
ATOM      4  C   UNL A   1      31.848  24.609  26.230  1.00  0.00     0.281 C 
ATOM      5  O   UNL A   1      31.430  24.250  27.336  1.00  0.00    -0.268 OA
ATOM      6  H   UNL A   1      32.508  26.315  27.013  1.00  0.00     0.163 HD
BRANCH   4   7
ATOM      7  C   UNL A   1      31.699  23.702  24.979  1.00  0.00     0.175 C 
ATOM      8  C   UNL A   1      33.056  23.581  24.251  1.00  0.00     0.080 C 
ATOM      9  C   UNL A   1      31.404  22.240  25.311  1.00  0.00     0.094 C 
ATOM     10  C   UNL A   1      32.962  22.315  23.410  1.00  0.00     0.022 C 
ATOM     11  C   UNL A   1      31.978  21.425  24.159  1.00  0.00     0.060 C 
BRANCH   7  12
ATOM     12  N   UNL A   1      30.668  24.270  24.082  1.00  0.00    -0.345 N 
ATOM     13  H   UNL A   1      30.304  25.132  24.484  1.00  0.00     0.345 HD
ATOM     14  H   UNL A   1      29.908  23.599  23.970  1.00  0.00     0.345 HD
ATOM     15  H   UNL A   1      31.083  24.467  23.171  1.00  0.00     0.345 HD
ENDBRANCH   7  12
BRANCH  11  16
ATOM     16  S   UNL A   1      32.532  19.832  24.762  1.00  0.00    -0.105 SA
BRANCH  16  17
ATOM     17  C   UNL A   1      34.157  20.020  25.345  1.00  0.00     0.073 A 
ATOM     18  C   UNL A   1      35.350  20.156  24.663  1.00  0.00     0.043 A 
ATOM     19  N   UNL A   1      34.284  20.743  26.503  1.00  0.00    -0.350 N 
ATOM     20  C   UNL A   1      35.836  21.444  25.081  1.00  0.00     0.001 A 
ATOM     21  C   UNL A   1      35.076  21.827  26.188  1.00  0.00     0.046 A 
ATOM     22  H   UNL A   1      33.891  20.532  27.380  1.00  0.00     0.167 HD
ATOM     23  C   UNL A   1      36.709  22.390  24.509  1.00  0.00     0.010 A 
ATOM     24  C   UNL A   1      35.072  23.118  26.716  1.00  0.00     0.027 A 
ATOM     25  C   UNL A   1      36.664  23.711  24.980  1.00  0.00     0.001 A 
ATOM     26  C   UNL A   1      35.844  24.070  26.051  1.00  0.00     0.002 A 
ENDBRANCH  16  17
ENDBRANCH  11  16
ENDBRANCH   4   7
ENDBRANCH   2   3
ENDBRANCH   1   2
BRANCH   1  27
ATOM     27  C   UNL A   1      33.625  28.147  26.921  1.00  0.00     0.118 C 
BRANCH  27  28
ATOM     28  N   UNL A   1      33.517  29.579  27.173  1.00  0.00    -0.352 N 
ATOM     29  C   UNL A   1      34.377  30.425  27.812  1.00  0.00     0.251 C 
ATOM     30  H   UNL A   1      32.697  30.001  26.829  1.00  0.00     0.163 HD
ATOM     31  O   UNL A   1      33.981  31.558  28.126  1.00  0.00    -0.269 OA
BRANCH  29  32
ATOM     32  C   UNL A   1      35.758  30.017  28.136  1.00  0.00     0.039 A 
ATOM     33  C   UNL A   1      36.733  30.077  27.138  1.00  0.00     0.014 A 
ATOM     34  C   UNL A   1      36.087  29.529  29.405  1.00  0.00     0.014 A 
ATOM     35  C   UNL A   1      38.045  29.690  27.422  1.00  0.00     0.010 A 
ATOM     36  C   UNL A   1      37.410  29.214  29.708  1.00  0.00     0.010 A 
ATOM     37  C   UNL A   1      38.400  29.282  28.718  1.00  0.00    -0.014 A 
BRANCH  37  38
ATOM     38  C   UNL A   1      39.801  28.920  29.051  1.00  0.00     0.031 A 
ATOM     39  C   UNL A   1      40.714  29.929  29.694  1.00  0.00     0.074 A 
ATOM     40  C   UNL A   1      40.267  27.699  28.723  1.00  0.00     0.049 A 
ATOM     41  N   UNL A   1      41.978  29.812  30.014  1.00  0.00    -0.248 NA
ATOM     42  C   UNL A   1      40.140  31.250  29.998  1.00  0.00     0.031 C 
ATOM     43  C   UNL A   1      39.491  26.647  28.060  1.00  0.00     0.029 A 
ATOM     44  N   UNL A   1      41.507  27.137  28.895  1.00  0.00    -0.354 N 
ATOM     45  C   UNL A   1      42.354  31.043  30.538  1.00  0.00     0.074 A 
ATOM     46  C   UNL A   1      41.198  31.909  30.449  1.00  0.00     0.031 C 
ATOM     47  C   UNL A   1      40.264  25.560  27.908  1.00  0.00     0.029 A 
ATOM     48  C   UNL A   1      41.599  25.849  28.421  1.00  0.00     0.049 A 
ATOM     49  H   UNL A   1      42.259  27.610  29.319  1.00  0.00     0.167 HD
ATOM     50  C   UNL A   1      43.547  31.416  31.061  1.00  0.00     0.031 A 
ATOM     51  C   UNL A   1      42.643  24.997  28.395  1.00  0.00     0.031 A 
ATOM     52  C   UNL A   1      44.691  30.547  31.154  1.00  0.00     0.049 A 
ATOM     53  C   UNL A   1      43.959  25.436  28.976  1.00  0.00     0.074 A 
ATOM     54  C   UNL A   1      45.928  30.811  31.717  1.00  0.00     0.029 A 
ATOM     55  N   UNL A   1      44.741  29.248  30.671  1.00  0.00    -0.354 N 
ATOM     56  N   UNL A   1      44.275  26.584  29.525  1.00  0.00    -0.248 NA
ATOM     57  C   UNL A   1      45.056  24.458  28.944  1.00  0.00     0.031 C 
ATOM     58  C   UNL A   1      46.742  29.690  31.527  1.00  0.00     0.029 A 
ATOM     59  C   UNL A   1      45.994  28.706  30.901  1.00  0.00     0.049 A 
ATOM     60  H   UNL A   1      43.996  28.781  30.230  1.00  0.00     0.167 HD
ATOM     61  C   UNL A   1      45.600  26.458  29.929  1.00  0.00     0.074 A 
ATOM     62  C   UNL A   1      46.018  25.116  29.575  1.00  0.00     0.031 C 
ATOM     63  C   UNL A   1      46.397  27.370  30.539  1.00  0.00     0.031 A 
BRANCH  50  64
ATOM     64  C   UNL A   1      43.676  32.829  31.567  1.00  0.00    -0.014 A 
ATOM     65  C   UNL A   1      44.172  33.855  30.742  1.00  0.00     0.010 A 
ATOM     66  C   UNL A   1      43.260  33.145  32.873  1.00  0.00     0.010 A 
ATOM     67  C   UNL A   1      44.289  35.161  31.226  1.00  0.00     0.020 A 
ATOM     68  C   UNL A   1      43.349  34.457  33.352  1.00  0.00     0.020 A 
ATOM     69  C   UNL A   1      43.879  35.452  32.530  1.00  0.00     0.054 A 
BRANCH  69  70
ATOM     70  S   UNL A   1      44.024  37.160  33.125  1.00  0.00     0.124 S 
ATOM     71  O   UNL A   1      45.390  37.182  33.643  1.00  0.00    -0.237 OA
ATOM     72  O   UNL A   1      43.800  37.942  31.913  1.00  0.00    -0.237 OA
ATOM     73  O   UNL A   1      42.974  37.266  34.135  1.00  0.00    -0.744 OA
ENDBRANCH  69  70
ENDBRANCH  50  64
BRANCH  51  74
ATOM     74  C   UNL A   1      42.478  23.638  27.811  1.00  0.00    -0.014 A 
ATOM     75  C   UNL A   1      42.878  23.376  26.488  1.00  0.00     0.010 A 
ATOM     76  C   UNL A   1      41.936  22.592  28.580  1.00  0.00     0.010 A 
ATOM     77  C   UNL A   1      42.720  22.100  25.940  1.00  0.00     0.020 A 
ATOM     78  C   UNL A   1      41.805  21.308  28.046  1.00  0.00     0.020 A 
ATOM     79  C   UNL A   1      42.187  21.073  26.723  1.00  0.00     0.054 A 
BRANCH  79  80
ATOM     80  S   UNL A   1      42.038  19.413  26.006  1.00  0.00     0.124 S 
ATOM     81  O   UNL A   1      42.899  19.511  24.832  1.00  0.00    -0.237 OA
ATOM     82  O   UNL A   1      42.531  18.558  27.084  1.00  0.00    -0.237 OA
ATOM     83  O   UNL A   1      40.610  19.287  25.727  1.00  0.00    -0.744 OA
ENDBRANCH  79  80
ENDBRANCH  51  74
BRANCH  63  84
ATOM     84  C   UNL A   1      47.795  26.937  30.895  1.00  0.00    -0.014 A 
ATOM     85  C   UNL A   1      48.880  27.197  30.040  1.00  0.00     0.010 A 
ATOM     86  C   UNL A   1      48.031  26.302  32.129  1.00  0.00     0.010 A 
ATOM     87  C   UNL A   1      50.171  26.797  30.396  1.00  0.00     0.020 A 
ATOM     88  C   UNL A   1      49.324  25.928  32.502  1.00  0.00     0.020 A 
ATOM     89  C   UNL A   1      50.384  26.164  31.625  1.00  0.00     0.054 A 
BRANCH  89  90
ATOM     90  S   UNL A   1      52.074  25.690  32.080  1.00  0.00     0.124 S 
ATOM     91  O   UNL A   1      51.903  24.293  32.471  1.00  0.00    -0.237 OA
ATOM     92  O   UNL A   1      52.815  25.909  30.841  1.00  0.00    -0.237 OA
ATOM     93  O   UNL A   1      52.409  26.604  33.170  1.00  0.00    -0.744 OA
ENDBRANCH  89  90
ENDBRANCH  63  84
ENDBRANCH  37  38
ENDBRANCH  29  32
ENDBRANCH  27  28
ENDBRANCH   1  27
TORSDOF 16
ENDMDL
MODEL 3
REMARK VINA RESULT:      -9.5      4.925     12.005
REMARK SMILES [NH3+][C@]1(C(=O)NCCCNC(=O)c2ccc(-c3c4nc(c(-c5ccc(S(=O)(=O)[O-])cc5)c5ccc([nH]5)c(-c5ccc(S(=O)(=O)[O-])cc5)c5nc(c(-c6ccc(S(=O)(=O)[O-])cc6)c6ccc3[nH]6)C=C5)C=C4)cc2)CC[C@@H](Sc2cc3ccccc3[nH]2)C1
REMARK SMILES IDX 7 1 6 2 5 3 3 4 4 5 2 7 72 8 85 9 73 10 74 11 1 12 75 16
REMARK SMILES IDX 76 17 77 18 84 19 78 20 83 21 79 23 82 24 80 25 81 26 8 27
REMARK SMILES IDX 9 28 10 29 11 31 12 32 13 33 71 34 14 35 70 36 15 37 16 38
REMARK SMILES IDX 17 39 64 40 18 41 69 42 63 43 65 44 19 45 68 46 62 47 61 48
REMARK SMILES IDX 20 50 50 51 31 52 49 53 32 54 35 55 48 56 66 57 33 58 34 59
REMARK SMILES IDX 47 61 67 62 36 63 21 64 22 65 30 66 23 67 29 68 24 69 25 70
REMARK SMILES IDX 26 71 27 72 28 73 51 74 52 75 60 76 53 77 59 78 54 79 55 80
REMARK SMILES IDX 56 81 57 82 58 83 37 84 38 85 46 86 39 87 45 88 40 89 41 90
REMARK SMILES IDX 42 91 43 92 44 93
REMARK H PARENT 5 6 1 13 1 14 1 15 84 22 9 30 65 49 35 60
REMARK Flexibility Score: inf
ROOT
ATOM      1  C   UNL A   1      37.385  23.729  25.503  1.00  0.00     0.042 C 
ENDROOT
BRANCH   1   2
ATOM      2  C   UNL A   1      36.899  22.280  25.570  1.00  0.00     0.118 C 
BRANCH   2   3
ATOM      3  N   UNL A   1      35.946  22.070  26.644  1.00  0.00    -0.351 N 
ATOM      4  C   UNL A   1      34.589  21.937  26.603  1.00  0.00     0.281 C 
ATOM      5  O   UNL A   1      34.019  21.655  27.663  1.00  0.00    -0.268 OA
ATOM      6  H   UNL A   1      36.341  22.015  27.544  1.00  0.00     0.163 HD
BRANCH   4   7
ATOM      7  C   UNL A   1      33.800  22.056  25.272  1.00  0.00     0.175 C 
ATOM      8  C   UNL A   1      32.297  22.253  25.566  1.00  0.00     0.080 C 
ATOM      9  C   UNL A   1      34.119  23.322  24.479  1.00  0.00     0.094 C 
ATOM     10  C   UNL A   1      31.707  22.877  24.308  1.00  0.00     0.022 C 
ATOM     11  C   UNL A   1      32.864  23.643  23.678  1.00  0.00     0.060 C 
BRANCH   7  12
ATOM     12  N   UNL A   1      34.023  20.840  24.459  1.00  0.00    -0.345 N 
ATOM     13  H   UNL A   1      33.422  20.865  23.637  1.00  0.00     0.345 HD
ATOM     14  H   UNL A   1      33.802  20.014  25.016  1.00  0.00     0.345 HD
ATOM     15  H   UNL A   1      35.000  20.801  24.166  1.00  0.00     0.345 HD
ENDBRANCH   7  12
BRANCH  11  16
ATOM     16  S   UNL A   1      32.718  25.416  23.467  1.00  0.00    -0.105 SA
BRANCH  16  17
ATOM     17  C   UNL A   1      31.697  26.020  24.734  1.00  0.00     0.073 A 
ATOM     18  C   UNL A   1      31.919  26.137  26.093  1.00  0.00     0.043 A 
ATOM     19  N   UNL A   1      30.878  27.061  24.381  1.00  0.00    -0.350 N 
ATOM     20  C   UNL A   1      31.807  27.551  26.335  1.00  0.00     0.001 A 
ATOM     21  C   UNL A   1      31.234  28.116  25.195  1.00  0.00     0.046 A 
ATOM     22  H   UNL A   1      30.179  27.057  23.689  1.00  0.00     0.167 HD
ATOM     23  C   UNL A   1      32.313  28.414  27.327  1.00  0.00     0.010 A 
ATOM     24  C   UNL A   1      31.200  29.488  24.943  1.00  0.00     0.027 A 
ATOM     25  C   UNL A   1      32.354  29.790  27.059  1.00  0.00     0.001 A 
ATOM     26  C   UNL A   1      31.825  30.312  25.878  1.00  0.00     0.002 A 
ENDBRANCH  16  17
ENDBRANCH  11  16
ENDBRANCH   4   7
ENDBRANCH   2   3
ENDBRANCH   1   2
BRANCH   1  27
ATOM     27  C   UNL A   1      38.375  24.094  26.606  1.00  0.00     0.118 C 
BRANCH  27  28
ATOM     28  N   UNL A   1      39.750  24.103  26.124  1.00  0.00    -0.352 N 
ATOM     29  C   UNL A   1      40.776  24.956  26.413  1.00  0.00     0.251 C 
ATOM     30  H   UNL A   1      39.975  23.382  25.493  1.00  0.00     0.163 HD
ATOM     31  O   UNL A   1      41.798  24.925  25.710  1.00  0.00    -0.269 OA
BRANCH  29  32
ATOM     32  C   UNL A   1      40.690  25.910  27.537  1.00  0.00     0.039 A 
ATOM     33  C   UNL A   1      41.626  26.943  27.620  1.00  0.00     0.014 A 
ATOM     34  C   UNL A   1      39.722  25.762  28.536  1.00  0.00     0.014 A 
ATOM     35  C   UNL A   1      41.566  27.853  28.678  1.00  0.00     0.010 A 
ATOM     36  C   UNL A   1      39.618  26.712  29.549  1.00  0.00     0.010 A 
ATOM     37  C   UNL A   1      40.544  27.761  29.637  1.00  0.00    -0.014 A 
BRANCH  37  38
ATOM     38  C   UNL A   1      40.433  28.752  30.737  1.00  0.00     0.031 A 
ATOM     39  C   UNL A   1      41.304  28.631  31.959  1.00  0.00     0.074 A 
ATOM     40  C   UNL A   1      39.509  29.729  30.659  1.00  0.00     0.049 A 
ATOM     41  N   UNL A   1      41.316  29.371  33.039  1.00  0.00    -0.248 NA
ATOM     42  C   UNL A   1      42.270  27.521  31.982  1.00  0.00     0.031 C 
ATOM     43  C   UNL A   1      38.579  29.928  29.544  1.00  0.00     0.029 A 
ATOM     44  N   UNL A   1      39.193  30.736  31.537  1.00  0.00    -0.354 N 
ATOM     45  C   UNL A   1      42.274  28.808  33.874  1.00  0.00     0.074 A 
ATOM     46  C   UNL A   1      42.788  27.638  33.197  1.00  0.00     0.031 C 
ATOM     47  C   UNL A   1      37.818  31.005  29.792  1.00  0.00     0.029 A 
ATOM     48  C   UNL A   1      38.173  31.549  31.099  1.00  0.00     0.049 A 
ATOM     49  H   UNL A   1      39.653  30.865  32.397  1.00  0.00     0.167 HD
ATOM     50  C   UNL A   1      42.701  29.236  35.087  1.00  0.00     0.031 A 
ATOM     51  C   UNL A   1      37.584  32.609  31.685  1.00  0.00     0.031 A 
ATOM     52  C   UNL A   1      42.191  30.407  35.752  1.00  0.00     0.049 A 
ATOM     53  C   UNL A   1      38.071  33.061  33.035  1.00  0.00     0.074 A 
ATOM     54  C   UNL A   1      42.595  30.956  36.957  1.00  0.00     0.029 A 
ATOM     55  N   UNL A   1      41.166  31.208  35.272  1.00  0.00    -0.354 N 
ATOM     56  N   UNL A   1      39.023  32.553  33.780  1.00  0.00    -0.248 NA
ATOM     57  C   UNL A   1      37.410  34.238  33.618  1.00  0.00     0.031 C 
ATOM     58  C   UNL A   1      41.779  32.058  37.231  1.00  0.00     0.029 A 
ATOM     59  C   UNL A   1      40.907  32.232  36.168  1.00  0.00     0.049 A 
ATOM     60  H   UNL A   1      40.692  31.068  34.421  1.00  0.00     0.167 HD
ATOM     61  C   UNL A   1      39.095  33.364  34.907  1.00  0.00     0.074 A 
ATOM     62  C   UNL A   1      38.100  34.404  34.737  1.00  0.00     0.031 C 
ATOM     63  C   UNL A   1      39.911  33.258  35.985  1.00  0.00     0.031 A 
BRANCH  50  64
ATOM     64  C   UNL A   1      43.768  28.427  35.777  1.00  0.00    -0.014 A 
ATOM     65  C   UNL A   1      45.131  28.741  35.627  1.00  0.00     0.010 A 
ATOM     66  C   UNL A   1      43.403  27.360  36.619  1.00  0.00     0.010 A 
ATOM     67  C   UNL A   1      46.110  27.980  36.271  1.00  0.00     0.020 A 
ATOM     68  C   UNL A   1      44.378  26.613  37.288  1.00  0.00     0.020 A 
ATOM     69  C   UNL A   1      45.727  26.918  37.095  1.00  0.00     0.054 A 
BRANCH  69  70
ATOM     70  S   UNL A   1      47.018  25.960  37.935  1.00  0.00     0.124 S 
ATOM     71  O   UNL A   1      48.236  26.593  37.433  1.00  0.00    -0.237 OA
ATOM     72  O   UNL A   1      46.725  26.194  39.346  1.00  0.00    -0.237 OA
ATOM     73  O   UNL A   1      46.792  24.593  37.473  1.00  0.00    -0.744 OA
ENDBRANCH  69  70
ENDBRANCH  50  64
BRANCH  51  74
ATOM     74  C   UNL A   1      36.479  33.324  30.990  1.00  0.00    -0.014 A 
ATOM     75  C   UNL A   1      35.215  33.444  31.595  1.00  0.00     0.010 A 
ATOM     76  C   UNL A   1      36.690  33.905  29.727  1.00  0.00     0.010 A 
ATOM     77  C   UNL A   1      34.178  34.113  30.940  1.00  0.00     0.020 A 
ATOM     78  C   UNL A   1      35.664  34.601  29.082  1.00  0.00     0.020 A 
ATOM     79  C   UNL A   1      34.410  34.690  29.688  1.00  0.00     0.054 A 
BRANCH  79  80
ATOM     80  S   UNL A   1      33.062  35.597  28.880  1.00  0.00     0.124 S 
ATOM     81  O   UNL A   1      33.788  36.617  28.130  1.00  0.00    -0.237 OA
ATOM     82  O   UNL A   1      32.420  34.558  28.077  1.00  0.00    -0.237 OA
ATOM     83  O   UNL A   1      32.263  36.091  29.998  1.00  0.00    -0.744 OA
ENDBRANCH  79  80
ENDBRANCH  51  74
BRANCH  63  84
ATOM     84  C   UNL A   1      39.787  34.314  37.052  1.00  0.00    -0.014 A 
ATOM     85  C   UNL A   1      40.397  35.572  36.907  1.00  0.00     0.010 A 
ATOM     86  C   UNL A   1      39.007  34.057  38.195  1.00  0.00     0.010 A 
ATOM     87  C   UNL A   1      40.260  36.542  37.905  1.00  0.00     0.020 A 
ATOM     88  C   UNL A   1      38.843  35.034  39.180  1.00  0.00     0.020 A 
ATOM     89  C   UNL A   1      39.483  36.266  39.035  1.00  0.00     0.054 A 
BRANCH  89  90
ATOM     90  S   UNL A   1      39.289  37.554  40.297  1.00  0.00     0.124 S 
ATOM     91  O   UNL A   1      38.804  36.787  41.442  1.00  0.00    -0.237 OA
ATOM     92  O   UNL A   1      40.643  38.086  40.425  1.00  0.00    -0.237 OA
ATOM     93  O   UNL A   1      38.318  38.473  39.707  1.00  0.00    -0.744 OA
ENDBRANCH  89  90
ENDBRANCH  63  84
ENDBRANCH  37  38
ENDBRANCH  29  32
ENDBRANCH  27  28
ENDBRANCH   1  27
TORSDOF 16
ENDMDL
