MODEL 1
REMARK VINA RESULT:     -11.4      0.000      0.000
REMARK SMILES Cc1cc(SCC(=O)NCCCNC(=O)c2ccc(-c3c4nc(c(-c5ccc(S(=O)(=O)[O-])cc5)c5ccc([nH]5)c(-c5ccc(S(=O)(=O)[O-])cc5)c5nc(c(-c6ccc(S(=O)(=O)[O-])cc6)c6ccc3[nH]6)C=C5)C=C4)cc2)c2cc(I)ccc2n1
REMARK SMILES IDX 11 1 10 2 9 3 7 4 8 5 6 7 5 8 4 9 1 10 2 11 3 12 83 13 82 14
REMARK SMILES IDX 76 15 81 16 77 17 80 18 78 19 79 20 12 21 13 22 14 23 15 25
REMARK SMILES IDX 16 26 17 27 75 28 18 29 74 30 19 31 20 32 21 33 68 34 22 35
REMARK SMILES IDX 73 36 67 37 69 38 23 39 72 40 66 41 65 42 24 44 54 45 35 46
REMARK SMILES IDX 53 47 36 48 39 49 52 50 70 51 37 52 38 53 51 55 71 56 40 57
REMARK SMILES IDX 25 58 26 59 34 60 27 61 33 62 28 63 29 64 30 65 31 66 32 67
REMARK SMILES IDX 55 68 56 69 64 70 57 71 63 72 58 73 59 74 60 75 61 76 62 77
REMARK SMILES IDX 41 78 42 79 50 80 43 81 49 82 44 83 45 84 46 85 47 86 48 87
REMARK H PARENT 9 6 13 24 69 43 39 54
REMARK Flexibility Score: inf
ROOT
ATOM      1  C   UNL A   1      32.339  28.133  26.403  1.00  0.00     0.042 C 
ENDROOT
BRANCH   1   2
ATOM      2  C   UNL A   1      32.553  26.662  26.065  1.00  0.00     0.117 C 
BRANCH   2   3
ATOM      3  N   UNL A   1      31.534  25.812  26.652  1.00  0.00    -0.355 N 
ATOM      4  C   UNL A   1      31.059  24.605  26.239  1.00  0.00     0.230 C 
ATOM      5  O   UNL A   1      30.169  24.079  26.914  1.00  0.00    -0.274 OA
ATOM      6  H   UNL A   1      31.123  26.162  27.475  1.00  0.00     0.163 HD
BRANCH   4   7
ATOM      7  C   UNL A   1      31.662  23.879  25.053  1.00  0.00     0.174 C 
BRANCH   7   8
ATOM      8  S   UNL A   1      32.061  22.128  25.346  1.00  0.00    -0.115 SA
BRANCH   8   9
ATOM      9  C   UNL A   1      33.864  22.005  25.361  1.00  0.00     0.019 A 
ATOM     10  C   UNL A   1      36.930  24.127  25.962  1.00  0.00     0.067 C 
ATOM     11  C   UNL A   1      36.047  22.960  25.632  1.00  0.00     0.039 A 
ATOM     12  C   UNL A   1      34.672  23.117  25.595  1.00  0.00     0.039 A 
ATOM     13  N   UNL A   1      36.652  21.779  25.395  1.00  0.00    -0.253 NA
ATOM     14  C   UNL A   1      35.896  20.706  25.127  1.00  0.00     0.072 A 
ATOM     15  C   UNL A   1      34.484  20.746  25.100  1.00  0.00     0.015 A 
ATOM     16  C   UNL A   1      36.552  19.510  24.868  1.00  0.00     0.030 A 
ATOM     17  C   UNL A   1      33.792  19.536  24.812  1.00  0.00     0.026 A 
ATOM     18  C   UNL A   1      35.862  18.331  24.581  1.00  0.00     0.017 A 
ATOM     19  C   UNL A   1      34.477  18.348  24.557  1.00  0.00     0.014 A 
ATOM     20  I   UNL A   1      33.424  16.607  24.144  1.00  0.00    -0.044 I 
ENDBRANCH   8   9
ENDBRANCH   7   8
ENDBRANCH   4   7
ENDBRANCH   2   3
ENDBRANCH   1   2
BRANCH   1  21
ATOM     21  C   UNL A   1      33.151  28.633  27.596  1.00  0.00     0.118 C 
BRANCH  21  22
ATOM     22  N   UNL A   1      33.312  30.081  27.619  1.00  0.00    -0.352 N 
ATOM     23  C   UNL A   1      34.410  30.841  27.951  1.00  0.00     0.251 C 
ATOM     24  H   UNL A   1      32.513  30.595  27.355  1.00  0.00     0.163 HD
ATOM     25  O   UNL A   1      34.300  32.063  28.032  1.00  0.00    -0.269 OA
BRANCH  23  26
ATOM     26  C   UNL A   1      35.705  30.191  28.249  1.00  0.00     0.039 A 
ATOM     27  C   UNL A   1      35.967  29.651  29.510  1.00  0.00     0.014 A 
ATOM     28  C   UNL A   1      36.683  30.136  27.250  1.00  0.00     0.014 A 
ATOM     29  C   UNL A   1      37.254  29.224  29.824  1.00  0.00     0.010 A 
ATOM     30  C   UNL A   1      37.953  29.631  27.545  1.00  0.00     0.010 A 
ATOM     31  C   UNL A   1      38.266  29.224  28.850  1.00  0.00    -0.014 A 
BRANCH  31  32
ATOM     32  C   UNL A   1      39.643  28.809  29.227  1.00  0.00     0.031 A 
ATOM     33  C   UNL A   1      40.487  29.673  30.127  1.00  0.00     0.074 A 
ATOM     34  C   UNL A   1      40.116  27.620  28.806  1.00  0.00     0.049 A 
ATOM     35  N   UNL A   1      41.687  29.442  30.598  1.00  0.00    -0.248 NA
ATOM     36  C   UNL A   1      39.919  30.963  30.554  1.00  0.00     0.031 C 
ATOM     37  C   UNL A   1      39.389  26.688  27.942  1.00  0.00     0.029 A 
ATOM     38  N   UNL A   1      41.299  26.977  29.070  1.00  0.00    -0.354 N 
ATOM     39  C   UNL A   1      42.022  30.557  31.357  1.00  0.00     0.074 A 
ATOM     40  C   UNL A   1      40.912  31.480  31.264  1.00  0.00     0.031 C 
ATOM     41  C   UNL A   1      40.115  25.570  27.797  1.00  0.00     0.029 A 
ATOM     42  C   UNL A   1      41.382  25.726  28.505  1.00  0.00     0.049 A 
ATOM     43  H   UNL A   1      42.019  27.372  29.612  1.00  0.00     0.167 HD
ATOM     44  C   UNL A   1      43.147  30.784  32.075  1.00  0.00     0.031 A 
ATOM     45  C   UNL A   1      42.363  24.801  28.545  1.00  0.00     0.031 A 
ATOM     46  C   UNL A   1      44.239  29.853  32.184  1.00  0.00     0.049 A 
ATOM     47  C   UNL A   1      43.611  25.085  29.327  1.00  0.00     0.074 A 
ATOM     48  C   UNL A   1      45.403  29.985  32.922  1.00  0.00     0.029 A 
ATOM     49  N   UNL A   1      44.308  28.624  31.546  1.00  0.00    -0.354 N 
ATOM     50  N   UNL A   1      43.902  26.139  30.050  1.00  0.00    -0.248 NA
ATOM     51  C   UNL A   1      44.666  24.062  29.299  1.00  0.00     0.031 C 
ATOM     52  C   UNL A   1      46.201  28.864  32.684  1.00  0.00     0.029 A 
ATOM     53  C   UNL A   1      45.507  28.003  31.848  1.00  0.00     0.049 A 
ATOM     54  H   UNL A   1      43.607  28.250  30.964  1.00  0.00     0.167 HD
ATOM     55  C   UNL A   1      45.172  25.909  30.565  1.00  0.00     0.074 A 
ATOM     56  C   UNL A   1      45.587  24.605  30.088  1.00  0.00     0.031 C 
ATOM     57  C   UNL A   1      45.922  26.711  31.357  1.00  0.00     0.031 A 
BRANCH  44  58
ATOM     58  C   UNL A   1      43.275  32.096  32.804  1.00  0.00    -0.014 A 
ATOM     59  C   UNL A   1      42.806  32.202  34.128  1.00  0.00     0.010 A 
ATOM     60  C   UNL A   1      43.755  33.247  32.154  1.00  0.00     0.010 A 
ATOM     61  C   UNL A   1      42.792  33.439  34.779  1.00  0.00     0.020 A 
ATOM     62  C   UNL A   1      43.765  34.481  32.812  1.00  0.00     0.020 A 
ATOM     63  C   UNL A   1      43.265  34.572  34.113  1.00  0.00     0.054 A 
BRANCH  63  64
ATOM     64  S   UNL A   1      43.233  36.170  34.971  1.00  0.00     0.124 S 
ATOM     65  O   UNL A   1      42.543  35.840  36.214  1.00  0.00    -0.237 OA
ATOM     66  O   UNL A   1      44.652  36.494  35.103  1.00  0.00    -0.237 OA
ATOM     67  O   UNL A   1      42.491  37.034  34.054  1.00  0.00    -0.744 OA
ENDBRANCH  63  64
ENDBRANCH  44  58
BRANCH  45  68
ATOM     68  C   UNL A   1      42.160  23.515  27.826  1.00  0.00    -0.014 A 
ATOM     69  C   UNL A   1      41.473  22.457  28.450  1.00  0.00     0.010 A 
ATOM     70  C   UNL A   1      42.759  23.299  26.574  1.00  0.00     0.010 A 
ATOM     71  C   UNL A   1      41.451  21.186  27.871  1.00  0.00     0.020 A 
ATOM     72  C   UNL A   1      42.716  22.035  25.977  1.00  0.00     0.020 A 
ATOM     73  C   UNL A   1      42.093  20.979  26.648  1.00  0.00     0.054 A 
BRANCH  73  74
ATOM     74  S   UNL A   1      42.133  19.302  25.955  1.00  0.00     0.124 S 
ATOM     75  O   UNL A   1      40.723  19.070  25.656  1.00  0.00    -0.237 OA
ATOM     76  O   UNL A   1      43.007  19.455  24.795  1.00  0.00    -0.237 OA
ATOM     77  O   UNL A   1      42.684  18.497  27.043  1.00  0.00    -0.744 OA
ENDBRANCH  73  74
ENDBRANCH  45  68
BRANCH  57  78
ATOM     78  C   UNL A   1      47.291  26.233  31.762  1.00  0.00    -0.014 A 
ATOM     79  C   UNL A   1      48.380  26.410  30.888  1.00  0.00     0.010 A 
ATOM     80  C   UNL A   1      47.469  25.484  32.937  1.00  0.00     0.010 A 
ATOM     81  C   UNL A   1      49.614  25.816  31.164  1.00  0.00     0.020 A 
ATOM     82  C   UNL A   1      48.709  24.907  33.229  1.00  0.00     0.020 A 
ATOM     83  C   UNL A   1      49.766  25.055  32.326  1.00  0.00     0.054 A 
BRANCH  83  84
ATOM     84  S   UNL A   1      51.361  24.255  32.650  1.00  0.00     0.124 S 
ATOM     85  O   UNL A   1      51.548  24.509  34.075  1.00  0.00    -0.237 OA
ATOM     86  O   UNL A   1      51.103  22.863  32.287  1.00  0.00    -0.237 OA
ATOM     87  O   UNL A   1      52.283  24.960  31.762  1.00  0.00    -0.744 OA
ENDBRANCH  83  84
ENDBRANCH  57  78
ENDBRANCH  31  32
ENDBRANCH  23  26
ENDBRANCH  21  22
ENDBRANCH   1  21
TORSDOF 15
ENDMDL
MODEL 2
REMARK VINA RESULT:     -10.9      3.321     10.071
REMARK SMILES Cc1cc(SCC(=O)NCCCNC(=O)c2ccc(-c3c4nc(c(-c5ccc(S(=O)(=O)[O-])cc5)c5ccc([nH]5)c(-c5ccc(S(=O)(=O)[O-])cc5)c5nc(c(-c6ccc(S(=O)(=O)[O-])cc6)c6ccc3[nH]6)C=C5)C=C4)cc2)c2cc(I)ccc2n1
REMARK SMILES IDX 11 1 10 2 9 3 7 4 8 5 6 7 5 8 4 9 1 10 2 11 3 12 83 13 82 14
REMARK SMILES IDX 76 15 81 16 77 17 80 18 78 19 79 20 12 21 13 22 14 23 15 25
REMARK SMILES IDX 16 26 17 27 75 28 18 29 74 30 19 31 20 32 21 33 68 34 22 35
REMARK SMILES IDX 73 36 67 37 69 38 23 39 72 40 66 41 65 42 24 44 54 45 35 46
REMARK SMILES IDX 53 47 36 48 39 49 52 50 70 51 37 52 38 53 51 55 71 56 40 57
REMARK SMILES IDX 25 58 26 59 34 60 27 61 33 62 28 63 29 64 30 65 31 66 32 67
REMARK SMILES IDX 55 68 56 69 64 70 57 71 63 72 58 73 59 74 60 75 61 76 62 77
REMARK SMILES IDX 41 78 42 79 50 80 43 81 49 82 44 83 45 84 46 85 47 86 48 87
REMARK H PARENT 9 6 13 24 69 43 39 54
REMARK Flexibility Score: inf
ROOT
ATOM      1  C   UNL A   1      35.789  23.414  25.538  1.00  0.00     0.042 C 
ENDROOT
BRANCH   1   2
ATOM      2  C   UNL A   1      34.616  24.071  24.819  1.00  0.00     0.117 C 
BRANCH   2   3
ATOM      3  N   UNL A   1      33.730  24.763  25.738  1.00  0.00    -0.355 N 
ATOM      4  C   UNL A   1      32.596  25.474  25.489  1.00  0.00     0.230 C 
ATOM      5  O   UNL A   1      32.018  25.985  26.453  1.00  0.00    -0.274 OA
ATOM      6  H   UNL A   1      33.990  24.712  26.685  1.00  0.00     0.163 HD
BRANCH   4   7
ATOM      7  C   UNL A   1      32.002  25.558  24.097  1.00  0.00     0.174 C 
BRANCH   7   8
ATOM      8  S   UNL A   1      32.592  26.958  23.095  1.00  0.00    -0.115 SA
BRANCH   8   9
ATOM      9  C   UNL A   1      31.403  28.298  23.330  1.00  0.00     0.019 A 
ATOM     10  C   UNL A   1      28.174  29.623  21.886  1.00  0.00     0.067 C 
ATOM     11  C   UNL A   1      29.403  29.481  22.733  1.00  0.00     0.039 A 
ATOM     12  C   UNL A   1      30.305  28.459  22.486  1.00  0.00     0.039 A 
ATOM     13  N   UNL A   1      29.569  30.372  23.731  1.00  0.00    -0.253 NA
ATOM     14  C   UNL A   1      30.640  30.261  24.529  1.00  0.00     0.072 A 
ATOM     15  C   UNL A   1      31.601  29.235  24.388  1.00  0.00     0.015 A 
ATOM     16  C   UNL A   1      30.790  31.207  25.534  1.00  0.00     0.030 A 
ATOM     17  C   UNL A   1      32.690  29.217  25.305  1.00  0.00     0.026 A 
ATOM     18  C   UNL A   1      31.865  31.182  26.423  1.00  0.00     0.017 A 
ATOM     19  C   UNL A   1      32.815  30.180  26.306  1.00  0.00     0.014 A 
ATOM     20  I   UNL A   1      34.420  30.112  27.621  1.00  0.00    -0.044 I 
ENDBRANCH   8   9
ENDBRANCH   7   8
ENDBRANCH   4   7
ENDBRANCH   2   3
ENDBRANCH   1   2
BRANCH   1  21
ATOM     21  C   UNL A   1      37.119  23.504  24.793  1.00  0.00     0.118 C 
BRANCH  21  22
ATOM     22  N   UNL A   1      38.121  22.566  25.283  1.00  0.00    -0.352 N 
ATOM     23  C   UNL A   1      39.211  22.785  26.093  1.00  0.00     0.251 C 
ATOM     24  H   UNL A   1      37.998  21.633  24.990  1.00  0.00     0.163 HD
ATOM     25  O   UNL A   1      40.015  21.874  26.285  1.00  0.00    -0.269 OA
BRANCH  23  26
ATOM     26  C   UNL A   1      39.440  24.116  26.696  1.00  0.00     0.039 A 
ATOM     27  C   UNL A   1      40.101  25.122  25.989  1.00  0.00     0.014 A 
ATOM     28  C   UNL A   1      38.996  24.356  28.000  1.00  0.00     0.014 A 
ATOM     29  C   UNL A   1      40.476  26.293  26.642  1.00  0.00     0.010 A 
ATOM     30  C   UNL A   1      39.303  25.566  28.629  1.00  0.00     0.010 A 
ATOM     31  C   UNL A   1      40.095  26.522  27.975  1.00  0.00    -0.014 A 
BRANCH  31  32
ATOM     32  C   UNL A   1      40.551  27.758  28.664  1.00  0.00     0.031 A 
ATOM     33  C   UNL A   1      41.990  27.921  29.079  1.00  0.00     0.074 A 
ATOM     34  C   UNL A   1      39.679  28.766  28.863  1.00  0.00     0.049 A 
ATOM     35  N   UNL A   1      42.570  28.952  29.641  1.00  0.00    -0.248 NA
ATOM     36  C   UNL A   1      42.897  26.786  28.838  1.00  0.00     0.031 C 
ATOM     37  C   UNL A   1      38.263  28.734  28.493  1.00  0.00     0.029 A 
ATOM     38  N   UNL A   1      39.857  30.019  29.393  1.00  0.00    -0.354 N 
ATOM     39  C   UNL A   1      43.896  28.585  29.836  1.00  0.00     0.074 A 
ATOM     40  C   UNL A   1      44.033  27.227  29.358  1.00  0.00     0.031 C 
ATOM     41  C   UNL A   1      37.716  29.931  28.751  1.00  0.00     0.029 A 
ATOM     42  C   UNL A   1      38.723  30.796  29.359  1.00  0.00     0.049 A 
ATOM     43  H   UNL A   1      40.714  30.332  29.762  1.00  0.00     0.167 HD
ATOM     44  C   UNL A   1      44.909  29.318  30.354  1.00  0.00     0.031 A 
ATOM     45  C   UNL A   1      38.507  32.062  29.770  1.00  0.00     0.031 A 
ATOM     46  C   UNL A   1      44.774  30.677  30.808  1.00  0.00     0.049 A 
ATOM     47  C   UNL A   1      39.638  32.848  30.364  1.00  0.00     0.074 A 
ATOM     48  C   UNL A   1      45.758  31.511  31.313  1.00  0.00     0.029 A 
ATOM     49  N   UNL A   1      43.594  31.405  30.812  1.00  0.00    -0.354 N 
ATOM     50  N   UNL A   1      40.888  32.487  30.525  1.00  0.00    -0.248 NA
ATOM     51  C   UNL A   1      39.335  34.207  30.836  1.00  0.00     0.031 C 
ATOM     52  C   UNL A   1      45.162  32.720  31.677  1.00  0.00     0.029 A 
ATOM     53  C   UNL A   1      43.818  32.665  31.340  1.00  0.00     0.049 A 
ATOM     54  H   UNL A   1      42.726  31.074  30.488  1.00  0.00     0.167 HD
ATOM     55  C   UNL A   1      41.523  33.573  31.116  1.00  0.00     0.074 A 
ATOM     56  C   UNL A   1      40.525  34.612  31.265  1.00  0.00     0.031 C 
ATOM     57  C   UNL A   1      42.817  33.690  31.501  1.00  0.00     0.031 A 
BRANCH  44  58
ATOM     58  C   UNL A   1      46.266  28.675  30.475  1.00  0.00    -0.014 A 
ATOM     59  C   UNL A   1      46.541  27.835  31.571  1.00  0.00     0.010 A 
ATOM     60  C   UNL A   1      47.300  28.983  29.573  1.00  0.00     0.010 A 
ATOM     61  C   UNL A   1      47.829  27.334  31.776  1.00  0.00     0.020 A 
ATOM     62  C   UNL A   1      48.585  28.463  29.761  1.00  0.00     0.020 A 
ATOM     63  C   UNL A   1      48.845  27.658  30.873  1.00  0.00     0.054 A 
BRANCH  63  64
ATOM     64  S   UNL A   1      50.513  27.005  31.159  1.00  0.00     0.124 S 
ATOM     65  O   UNL A   1      50.701  27.250  32.585  1.00  0.00    -0.237 OA
ATOM     66  O   UNL A   1      50.381  25.602  30.772  1.00  0.00    -0.237 OA
ATOM     67  O   UNL A   1      51.350  27.808  30.270  1.00  0.00    -0.744 OA
ENDBRANCH  63  64
ENDBRANCH  44  58
BRANCH  45  68
ATOM     68  C   UNL A   1      37.149  32.645  29.596  1.00  0.00    -0.014 A 
ATOM     69  C   UNL A   1      36.821  33.332  28.411  1.00  0.00     0.010 A 
ATOM     70  C   UNL A   1      36.227  32.630  30.656  1.00  0.00     0.010 A 
ATOM     71  C   UNL A   1      35.629  34.053  28.317  1.00  0.00     0.020 A 
ATOM     72  C   UNL A   1      35.020  33.329  30.555  1.00  0.00     0.020 A 
ATOM     73  C   UNL A   1      34.746  34.065  29.399  1.00  0.00     0.054 A 
BRANCH  73  74
ATOM     74  S   UNL A   1      33.247  35.081  29.293  1.00  0.00     0.124 S 
ATOM     75  O   UNL A   1      32.469  34.359  28.292  1.00  0.00    -0.237 OA
ATOM     76  O   UNL A   1      32.725  35.026  30.656  1.00  0.00    -0.237 OA
ATOM     77  O   UNL A   1      33.750  36.388  28.875  1.00  0.00    -0.744 OA
ENDBRANCH  73  74
ENDBRANCH  45  68
BRANCH  57  78
ATOM     78  C   UNL A   1      43.253  34.978  32.147  1.00  0.00    -0.014 A 
ATOM     79  C   UNL A   1      43.119  35.143  33.538  1.00  0.00     0.010 A 
ATOM     80  C   UNL A   1      43.659  36.070  31.361  1.00  0.00     0.010 A 
ATOM     81  C   UNL A   1      43.347  36.388  34.128  1.00  0.00     0.020 A 
ATOM     82  C   UNL A   1      43.911  37.312  31.952  1.00  0.00     0.020 A 
ATOM     83  C   UNL A   1      43.728  37.469  33.328  1.00  0.00     0.054 A 
BRANCH  83  84
ATOM     84  S   UNL A   1      43.980  39.090  34.104  1.00  0.00     0.124 S 
ATOM     85  O   UNL A   1      45.227  39.534  33.489  1.00  0.00    -0.237 OA
ATOM     86  O   UNL A   1      42.783  39.828  33.705  1.00  0.00    -0.237 OA
ATOM     87  O   UNL A   1      44.061  38.777  35.529  1.00  0.00    -0.744 OA
ENDBRANCH  83  84
ENDBRANCH  57  78
ENDBRANCH  31  32
ENDBRANCH  23  26
ENDBRANCH  21  22
ENDBRANCH   1  21
TORSDOF 15
ENDMDL
MODEL 3
REMARK VINA RESULT:     -10.9      1.687      2.332
REMARK SMILES Cc1cc(SCC(=O)NCCCNC(=O)c2ccc(-c3c4nc(c(-c5ccc(S(=O)(=O)[O-])cc5)c5ccc([nH]5)c(-c5ccc(S(=O)(=O)[O-])cc5)c5nc(c(-c6ccc(S(=O)(=O)[O-])cc6)c6ccc3[nH]6)C=C5)C=C4)cc2)c2cc(I)ccc2n1
REMARK SMILES IDX 11 1 10 2 9 3 7 4 8 5 6 7 5 8 4 9 1 10 2 11 3 12 83 13 82 14
REMARK SMILES IDX 76 15 81 16 77 17 80 18 78 19 79 20 12 21 13 22 14 23 15 25
REMARK SMILES IDX 16 26 17 27 75 28 18 29 74 30 19 31 20 32 21 33 68 34 22 35
REMARK SMILES IDX 73 36 67 37 69 38 23 39 72 40 66 41 65 42 24 44 54 45 35 46
REMARK SMILES IDX 53 47 36 48 39 49 52 50 70 51 37 52 38 53 51 55 71 56 40 57
REMARK SMILES IDX 25 58 26 59 34 60 27 61 33 62 28 63 29 64 30 65 31 66 32 67
REMARK SMILES IDX 55 68 56 69 64 70 57 71 63 72 58 73 59 74 60 75 61 76 62 77
REMARK SMILES IDX 41 78 42 79 50 80 43 81 49 82 44 83 45 84 46 85 47 86 48 87
REMARK H PARENT 9 6 13 24 69 43 39 54
REMARK Flexibility Score: inf
ROOT
ATOM      1  C   UNL A   1      32.629  28.142  26.810  1.00  0.00     0.042 C 
ENDROOT
BRANCH   1   2
ATOM      2  C   UNL A   1      32.518  26.913  25.915  1.00  0.00     0.117 C 
BRANCH   2   3
ATOM      3  N   UNL A   1      31.399  27.005  24.994  1.00  0.00    -0.355 N 
ATOM      4  C   UNL A   1      31.282  26.556  23.715  1.00  0.00     0.230 C 
ATOM      5  O   UNL A   1      30.216  26.771  23.129  1.00  0.00    -0.274 OA
ATOM      6  H   UNL A   1      30.604  27.463  25.350  1.00  0.00     0.163 HD
BRANCH   4   7
ATOM      7  C   UNL A   1      32.375  25.736  23.058  1.00  0.00     0.174 C 
BRANCH   7   8
ATOM      8  S   UNL A   1      32.108  23.936  23.090  1.00  0.00    -0.115 SA
BRANCH   8   9
ATOM      9  C   UNL A   1      31.860  23.482  24.821  1.00  0.00     0.019 A 
ATOM     10  C   UNL A   1      29.085  22.820  27.297  1.00  0.00     0.067 C 
ATOM     11  C   UNL A   1      30.450  23.002  26.702  1.00  0.00     0.039 A 
ATOM     12  C   UNL A   1      30.585  23.391  25.379  1.00  0.00     0.039 A 
ATOM     13  N   UNL A   1      31.507  22.758  27.500  1.00  0.00    -0.253 NA
ATOM     14  C   UNL A   1      32.743  22.880  26.997  1.00  0.00     0.072 A 
ATOM     15  C   UNL A   1      32.994  23.234  25.652  1.00  0.00     0.015 A 
ATOM     16  C   UNL A   1      33.809  22.640  27.852  1.00  0.00     0.030 A 
ATOM     17  C   UNL A   1      34.352  23.322  25.233  1.00  0.00     0.026 A 
ATOM     18  C   UNL A   1      35.136  22.735  27.431  1.00  0.00     0.017 A 
ATOM     19  C   UNL A   1      35.404  23.075  26.115  1.00  0.00     0.014 A 
ATOM     20  I   UNL A   1      37.368  23.213  25.456  1.00  0.00    -0.044 I 
ENDBRANCH   8   9
ENDBRANCH   7   8
ENDBRANCH   4   7
ENDBRANCH   2   3
ENDBRANCH   1   2
BRANCH   1  21
ATOM     21  C   UNL A   1      33.644  29.180  26.338  1.00  0.00     0.118 C 
BRANCH  21  22
ATOM     22  N   UNL A   1      33.561  30.441  27.063  1.00  0.00    -0.352 N 
ATOM     23  C   UNL A   1      34.430  30.990  27.977  1.00  0.00     0.251 C 
ATOM     24  H   UNL A   1      32.762  30.983  26.868  1.00  0.00     0.163 HD
ATOM     25  O   UNL A   1      34.110  32.014  28.579  1.00  0.00    -0.269 OA
BRANCH  23  26
ATOM     26  C   UNL A   1      35.723  30.333  28.268  1.00  0.00     0.039 A 
ATOM     27  C   UNL A   1      36.001  29.820  29.536  1.00  0.00     0.014 A 
ATOM     28  C   UNL A   1      36.682  30.243  27.254  1.00  0.00     0.014 A 
ATOM     29  C   UNL A   1      37.289  29.386  29.839  1.00  0.00     0.010 A 
ATOM     30  C   UNL A   1      37.952  29.730  27.538  1.00  0.00     0.010 A 
ATOM     31  C   UNL A   1      38.283  29.350  28.847  1.00  0.00    -0.014 A 
BRANCH  31  32
ATOM     32  C   UNL A   1      39.662  28.929  29.210  1.00  0.00     0.031 A 
ATOM     33  C   UNL A   1      40.528  29.799  30.083  1.00  0.00     0.074 A 
ATOM     34  C   UNL A   1      40.117  27.728  28.800  1.00  0.00     0.049 A 
ATOM     35  N   UNL A   1      41.733  29.563  30.539  1.00  0.00    -0.248 NA
ATOM     36  C   UNL A   1      39.979  31.101  30.497  1.00  0.00     0.031 C 
ATOM     37  C   UNL A   1      39.369  26.789  27.963  1.00  0.00     0.029 A 
ATOM     38  N   UNL A   1      41.299  27.078  29.057  1.00  0.00    -0.354 N 
ATOM     39  C   UNL A   1      42.090  30.688  31.274  1.00  0.00     0.074 A 
ATOM     40  C   UNL A   1      40.988  31.619  31.184  1.00  0.00     0.031 C 
ATOM     41  C   UNL A   1      40.082  25.662  27.825  1.00  0.00     0.029 A 
ATOM     42  C   UNL A   1      41.362  25.818  28.511  1.00  0.00     0.049 A 
ATOM     43  H   UNL A   1      42.031  27.476  29.581  1.00  0.00     0.167 HD
ATOM     44  C   UNL A   1      43.227  30.916  31.971  1.00  0.00     0.031 A 
ATOM     45  C   UNL A   1      42.334  24.885  28.551  1.00  0.00     0.031 A 
ATOM     46  C   UNL A   1      44.313  29.976  32.079  1.00  0.00     0.049 A 
ATOM     47  C   UNL A   1      43.597  25.169  29.309  1.00  0.00     0.074 A 
ATOM     48  C   UNL A   1      45.490  30.109  32.796  1.00  0.00     0.029 A 
ATOM     49  N   UNL A   1      44.361  28.737  31.459  1.00  0.00    -0.354 N 
ATOM     50  N   UNL A   1      43.909  26.232  30.010  1.00  0.00    -0.248 NA
ATOM     51  C   UNL A   1      44.642  24.136  29.281  1.00  0.00     0.031 C 
ATOM     52  C   UNL A   1      46.273  28.977  32.564  1.00  0.00     0.029 A 
ATOM     53  C   UNL A   1      45.559  28.109  31.753  1.00  0.00     0.049 A 
ATOM     54  H   UNL A   1      43.648  28.360  30.895  1.00  0.00     0.167 HD
ATOM     55  C   UNL A   1      45.184  25.998  30.509  1.00  0.00     0.074 A 
ATOM     56  C   UNL A   1      45.580  24.683  30.047  1.00  0.00     0.031 C 
ATOM     57  C   UNL A   1      45.954  26.806  31.277  1.00  0.00     0.031 A 
BRANCH  44  58
ATOM     58  C   UNL A   1      43.379  32.238  32.677  1.00  0.00    -0.014 A 
ATOM     59  C   UNL A   1      42.900  32.379  33.994  1.00  0.00     0.010 A 
ATOM     60  C   UNL A   1      43.891  33.365  32.010  1.00  0.00     0.010 A 
ATOM     61  C   UNL A   1      42.909  33.628  34.622  1.00  0.00     0.020 A 
ATOM     62  C   UNL A   1      43.924  34.611  32.645  1.00  0.00     0.020 A 
ATOM     63  C   UNL A   1      43.414  34.738  33.940  1.00  0.00     0.054 A 
BRANCH  63  64
ATOM     64  S   UNL A   1      43.411  36.352  34.767  1.00  0.00     0.124 S 
ATOM     65  O   UNL A   1      43.425  37.278  33.639  1.00  0.00    -0.237 OA
ATOM     66  O   UNL A   1      42.171  36.316  35.540  1.00  0.00    -0.237 OA
ATOM     67  O   UNL A   1      44.632  36.324  35.570  1.00  0.00    -0.744 OA
ENDBRANCH  63  64
ENDBRANCH  44  58
BRANCH  45  68
ATOM     68  C   UNL A   1      42.108  23.589  27.855  1.00  0.00    -0.014 A 
ATOM     69  C   UNL A   1      41.448  22.537  28.518  1.00  0.00     0.010 A 
ATOM     70  C   UNL A   1      42.662  23.359  26.585  1.00  0.00     0.010 A 
ATOM     71  C   UNL A   1      41.408  21.259  27.955  1.00  0.00     0.020 A 
ATOM     72  C   UNL A   1      42.600  22.087  26.006  1.00  0.00     0.020 A 
ATOM     73  C   UNL A   1      42.005  21.038  26.712  1.00  0.00     0.054 A 
BRANCH  73  74
ATOM     74  S   UNL A   1      42.024  19.353  26.040  1.00  0.00     0.124 S 
ATOM     75  O   UNL A   1      42.568  18.592  27.160  1.00  0.00    -0.237 OA
ATOM     76  O   UNL A   1      40.615  19.112  25.739  1.00  0.00    -0.237 OA
ATOM     77  O   UNL A   1      42.897  19.462  24.873  1.00  0.00    -0.744 OA
ENDBRANCH  73  74
ENDBRANCH  45  68
BRANCH  57  78
ATOM     78  C   UNL A   1      47.325  26.321  31.668  1.00  0.00    -0.014 A 
ATOM     79  C   UNL A   1      48.389  26.424  30.754  1.00  0.00     0.010 A 
ATOM     80  C   UNL A   1      47.523  25.637  32.879  1.00  0.00     0.010 A 
ATOM     81  C   UNL A   1      49.619  25.819  31.028  1.00  0.00     0.020 A 
ATOM     82  C   UNL A   1      48.759  25.050  33.167  1.00  0.00     0.020 A 
ATOM     83  C   UNL A   1      49.791  25.123  32.227  1.00  0.00     0.054 A 
BRANCH  83  84
ATOM     84  S   UNL A   1      51.378  24.307  32.549  1.00  0.00     0.124 S 
ATOM     85  O   UNL A   1      52.291  25.067  31.701  1.00  0.00    -0.237 OA
ATOM     86  O   UNL A   1      51.552  24.496  33.988  1.00  0.00    -0.237 OA
ATOM     87  O   UNL A   1      51.143  22.926  32.135  1.00  0.00    -0.744 OA
ENDBRANCH  83  84
ENDBRANCH  57  78
ENDBRANCH  31  32
ENDBRANCH  23  26
ENDBRANCH  21  22
ENDBRANCH   1  21
TORSDOF 15
ENDMDL
