MODEL 1
REMARK VINA RESULT:     -12.1      0.000      0.000
REMARK SMILES CC1CCN(S(=O)(=O)c2ccc3c(ccn3CC(=O)NCCCNC(=O)c3ccc(-c4c5nc(c(-c6ccc(S(=O)(=O)[O-])cc6)c6ccc([nH]6)c(-c6ccc(S(=O)(=O)[O-])cc6)c6nc(c(-c7ccc(S(=O)(=O)[O-])cc7)c7ccc4[nH]7)C=C6)C=C5)cc3)c2)CC1
REMARK SMILES IDX 22 1 21 2 20 3 18 4 19 5 17 7 16 8 9 9 10 10 87 11 11 12
REMARK SMILES IDX 13 13 12 14 14 15 15 16 6 17 7 18 8 19 5 20 1 21 2 22 3 23
REMARK SMILES IDX 89 24 4 25 88 26 23 27 24 28 25 29 26 31 27 32 28 33 86 34
REMARK SMILES IDX 29 35 85 36 30 37 31 38 32 39 79 40 33 41 84 42 78 43 80 44
REMARK SMILES IDX 34 45 83 46 77 47 76 48 35 50 65 51 46 52 64 53 47 54 50 55
REMARK SMILES IDX 63 56 81 57 48 58 49 59 62 61 82 62 51 63 36 64 37 65 45 66
REMARK SMILES IDX 38 67 44 68 39 69 40 70 41 71 42 72 43 73 66 74 67 75 75 76
REMARK SMILES IDX 68 77 74 78 69 79 70 80 71 81 72 82 73 83 52 84 53 85 61 86
REMARK SMILES IDX 54 87 60 88 55 89 56 90 57 91 58 92 59 93
REMARK H PARENT 20 6 24 30 80 49 50 60
REMARK Flexibility Score: inf
ROOT
ATOM      1  C   UNL A   1      40.280  20.812  26.416  1.00  0.00     0.042 C 
ENDROOT
BRANCH   1   2
ATOM      2  C   UNL A   1      39.368  22.037  26.313  1.00  0.00     0.117 C 
BRANCH   2   3
ATOM      3  N   UNL A   1      38.577  22.061  25.092  1.00  0.00    -0.354 N 
ATOM      4  C   UNL A   1      37.225  22.089  24.904  1.00  0.00     0.239 C 
ATOM      5  O   UNL A   1      36.810  22.129  23.741  1.00  0.00    -0.273 OA
ATOM      6  H   UNL A   1      39.105  22.058  24.262  1.00  0.00     0.163 HD
BRANCH   4   7
ATOM      7  C   UNL A   1      36.260  22.133  26.068  1.00  0.00     0.222 C 
BRANCH   7   8
ATOM      8  N   UNL A   1      34.869  22.173  25.654  1.00  0.00    -0.338 N 
ATOM      9  C   UNL A   1      32.244  25.273  25.069  1.00  0.00     0.083 A 
ATOM     10  C   UNL A   1      33.553  25.624  25.393  1.00  0.00     0.024 A 
ATOM     11  C   UNL A   1      31.858  23.935  24.940  1.00  0.00     0.032 A 
ATOM     12  C   UNL A   1      34.546  24.665  25.478  1.00  0.00     0.028 A 
ATOM     13  C   UNL A   1      32.832  22.941  25.151  1.00  0.00     0.001 A 
ATOM     14  C   UNL A   1      34.151  23.325  25.414  1.00  0.00     0.049 A 
ATOM     15  C   UNL A   1      32.798  21.521  25.184  1.00  0.00     0.028 A 
ATOM     16  C   UNL A   1      34.065  21.075  25.481  1.00  0.00     0.087 A 
BRANCH   9  17
ATOM     17  S   UNL A   1      31.033  26.565  24.980  1.00  0.00     0.243 S 
ATOM     18  O   UNL A   1      31.119  27.242  26.265  1.00  0.00    -0.207 OA
ATOM     19  O   UNL A   1      29.800  25.970  24.538  1.00  0.00    -0.207 OA
BRANCH  17  20
ATOM     20  N   UNL A   1      31.602  27.593  23.730  1.00  0.00    -0.198 NA
ATOM     21  C   UNL A   1      28.430  30.508  23.504  1.00  0.00     0.008 C 
ATOM     22  C   UNL A   1      29.725  29.791  23.126  1.00  0.00    -0.012 C 
ATOM     23  C   UNL A   1      29.468  28.335  22.709  1.00  0.00     0.020 C 
ATOM     24  C   UNL A   1      30.713  29.857  24.289  1.00  0.00     0.020 C 
ATOM     25  C   UNL A   1      30.749  27.533  22.500  1.00  0.00     0.103 C 
ATOM     26  C   UNL A   1      31.944  29.013  24.000  1.00  0.00     0.103 C 
ENDBRANCH  17  20
ENDBRANCH   9  17
ENDBRANCH   7   8
ENDBRANCH   4   7
ENDBRANCH   2   3
ENDBRANCH   1   2
BRANCH   1  27
ATOM     27  C   UNL A   1      41.759  21.159  26.593  1.00  0.00     0.118 C 
BRANCH  27  28
ATOM     28  N   UNL A   1      42.396  21.695  25.404  1.00  0.00    -0.352 N 
ATOM     29  C   UNL A   1      42.949  22.894  25.051  1.00  0.00     0.251 C 
ATOM     30  H   UNL A   1      42.440  21.033  24.676  1.00  0.00     0.163 HD
ATOM     31  O   UNL A   1      43.544  22.901  23.968  1.00  0.00    -0.269 OA
BRANCH  29  32
ATOM     32  C   UNL A   1      42.830  24.168  25.810  1.00  0.00     0.039 A 
ATOM     33  C   UNL A   1      43.598  24.533  26.914  1.00  0.00     0.014 A 
ATOM     34  C   UNL A   1      41.793  25.033  25.400  1.00  0.00     0.014 A 
ATOM     35  C   UNL A   1      43.268  25.670  27.651  1.00  0.00     0.010 A 
ATOM     36  C   UNL A   1      41.467  26.175  26.126  1.00  0.00     0.010 A 
ATOM     37  C   UNL A   1      42.176  26.467  27.284  1.00  0.00    -0.014 A 
BRANCH  37  38
ATOM     38  C   UNL A   1      41.886  27.646  28.098  1.00  0.00     0.031 A 
ATOM     39  C   UNL A   1      42.925  28.710  28.038  1.00  0.00     0.074 A 
ATOM     40  C   UNL A   1      40.756  27.837  28.809  1.00  0.00     0.049 A 
ATOM     41  N   UNL A   1      43.708  29.099  28.988  1.00  0.00    -0.248 NA
ATOM     42  C   UNL A   1      43.208  29.330  26.735  1.00  0.00     0.031 C 
ATOM     43  C   UNL A   1      39.513  27.064  28.769  1.00  0.00     0.029 A 
ATOM     44  N   UNL A   1      40.451  28.853  29.669  1.00  0.00    -0.354 N 
ATOM     45  C   UNL A   1      44.469  30.141  28.464  1.00  0.00     0.074 A 
ATOM     46  C   UNL A   1      44.219  30.145  27.043  1.00  0.00     0.031 C 
ATOM     47  C   UNL A   1      38.527  27.773  29.368  1.00  0.00     0.029 A 
ATOM     48  C   UNL A   1      39.098  28.972  29.963  1.00  0.00     0.049 A 
ATOM     49  H   UNL A   1      41.134  29.452  30.049  1.00  0.00     0.167 HD
ATOM     50  C   UNL A   1      45.110  31.038  29.265  1.00  0.00     0.031 A 
ATOM     51  C   UNL A   1      38.488  30.015  30.583  1.00  0.00     0.031 A 
ATOM     52  C   UNL A   1      45.191  30.576  30.625  1.00  0.00     0.049 A 
ATOM     53  C   UNL A   1      39.522  30.788  31.312  1.00  0.00     0.074 A 
ATOM     54  C   UNL A   1      45.737  29.465  31.239  1.00  0.00     0.029 A 
ATOM     55  N   UNL A   1      44.318  31.120  31.537  1.00  0.00    -0.354 N 
ATOM     56  N   UNL A   1      40.119  30.366  32.388  1.00  0.00    -0.248 NA
ATOM     57  C   UNL A   1      40.203  31.854  30.596  1.00  0.00     0.031 C 
ATOM     58  C   UNL A   1      44.809  29.117  32.260  1.00  0.00     0.029 A 
ATOM     59  C   UNL A   1      43.804  30.085  32.276  1.00  0.00     0.049 A 
ATOM     60  H   UNL A   1      44.103  32.075  31.639  1.00  0.00     0.167 HD
ATOM     61  C   UNL A   1      41.438  30.771  32.243  1.00  0.00     0.074 A 
ATOM     62  C   UNL A   1      41.410  31.748  31.154  1.00  0.00     0.031 C 
ATOM     63  C   UNL A   1      42.467  30.090  32.831  1.00  0.00     0.031 A 
BRANCH  50  64
ATOM     64  C   UNL A   1      45.370  32.477  28.890  1.00  0.00    -0.014 A 
ATOM     65  C   UNL A   1      46.356  32.864  27.961  1.00  0.00     0.010 A 
ATOM     66  C   UNL A   1      44.440  33.465  29.280  1.00  0.00     0.010 A 
ATOM     67  C   UNL A   1      46.423  34.163  27.450  1.00  0.00     0.020 A 
ATOM     68  C   UNL A   1      44.469  34.758  28.737  1.00  0.00     0.020 A 
ATOM     69  C   UNL A   1      45.468  35.098  27.829  1.00  0.00     0.054 A 
BRANCH  69  70
ATOM     70  S   UNL A   1      45.526  36.734  27.058  1.00  0.00     0.124 S 
ATOM     71  O   UNL A   1      45.762  37.599  28.212  1.00  0.00    -0.237 OA
ATOM     72  O   UNL A   1      46.644  36.604  26.128  1.00  0.00    -0.237 OA
ATOM     73  O   UNL A   1      44.211  36.868  26.437  1.00  0.00    -0.744 OA
ENDBRANCH  69  70
ENDBRANCH  50  64
BRANCH  51  74
ATOM     74  C   UNL A   1      37.174  30.630  30.261  1.00  0.00    -0.014 A 
ATOM     75  C   UNL A   1      36.853  30.907  28.918  1.00  0.00     0.010 A 
ATOM     76  C   UNL A   1      36.415  31.261  31.267  1.00  0.00     0.010 A 
ATOM     77  C   UNL A   1      35.881  31.858  28.588  1.00  0.00     0.020 A 
ATOM     78  C   UNL A   1      35.438  32.218  30.942  1.00  0.00     0.020 A 
ATOM     79  C   UNL A   1      35.212  32.541  29.603  1.00  0.00     0.054 A 
BRANCH  79  80
ATOM     80  S   UNL A   1      34.134  33.926  29.135  1.00  0.00     0.124 S 
ATOM     81  O   UNL A   1      33.235  33.296  28.170  1.00  0.00    -0.237 OA
ATOM     82  O   UNL A   1      33.522  34.293  30.411  1.00  0.00    -0.237 OA
ATOM     83  O   UNL A   1      35.056  34.914  28.583  1.00  0.00    -0.744 OA
ENDBRANCH  79  80
ENDBRANCH  51  74
BRANCH  63  84
ATOM     84  C   UNL A   1      42.190  29.182  34.014  1.00  0.00    -0.014 A 
ATOM     85  C   UNL A   1      41.845  27.846  33.724  1.00  0.00     0.010 A 
ATOM     86  C   UNL A   1      42.249  29.554  35.370  1.00  0.00     0.010 A 
ATOM     87  C   UNL A   1      41.653  26.900  34.731  1.00  0.00     0.020 A 
ATOM     88  C   UNL A   1      42.114  28.596  36.389  1.00  0.00     0.020 A 
ATOM     89  C   UNL A   1      41.848  27.265  36.061  1.00  0.00     0.054 A 
BRANCH  89  90
ATOM     90  S   UNL A   1      41.687  25.981  37.338  1.00  0.00     0.124 S 
ATOM     91  O   UNL A   1      42.726  26.348  38.301  1.00  0.00    -0.237 OA
ATOM     92  O   UNL A   1      40.315  26.165  37.797  1.00  0.00    -0.237 OA
ATOM     93  O   UNL A   1      41.943  24.731  36.628  1.00  0.00    -0.744 OA
ENDBRANCH  89  90
ENDBRANCH  63  84
ENDBRANCH  37  38
ENDBRANCH  29  32
ENDBRANCH  27  28
ENDBRANCH   1  27
TORSDOF 16
ENDMDL
MODEL 2
REMARK VINA RESULT:     -12.1      2.621      9.501
REMARK SMILES CC1CCN(S(=O)(=O)c2ccc3c(ccn3CC(=O)NCCCNC(=O)c3ccc(-c4c5nc(c(-c6ccc(S(=O)(=O)[O-])cc6)c6ccc([nH]6)c(-c6ccc(S(=O)(=O)[O-])cc6)c6nc(c(-c7ccc(S(=O)(=O)[O-])cc7)c7ccc4[nH]7)C=C6)C=C5)cc3)c2)CC1
REMARK SMILES IDX 22 1 21 2 20 3 18 4 19 5 17 7 16 8 9 9 10 10 87 11 11 12
REMARK SMILES IDX 13 13 12 14 14 15 15 16 6 17 7 18 8 19 5 20 1 21 2 22 3 23
REMARK SMILES IDX 89 24 4 25 88 26 23 27 24 28 25 29 26 31 27 32 28 33 86 34
REMARK SMILES IDX 29 35 85 36 30 37 31 38 32 39 79 40 33 41 84 42 78 43 80 44
REMARK SMILES IDX 34 45 83 46 77 47 76 48 35 50 65 51 46 52 64 53 47 54 50 55
REMARK SMILES IDX 63 56 81 57 48 58 49 59 62 61 82 62 51 63 36 64 37 65 45 66
REMARK SMILES IDX 38 67 44 68 39 69 40 70 41 71 42 72 43 73 66 74 67 75 75 76
REMARK SMILES IDX 68 77 74 78 69 79 70 80 71 81 72 82 73 83 52 84 53 85 61 86
REMARK SMILES IDX 54 87 60 88 55 89 56 90 57 91 58 92 59 93
REMARK H PARENT 20 6 24 30 80 49 50 60
REMARK Flexibility Score: inf
ROOT
ATOM      1  C   UNL A   1      34.507  33.689  27.911  1.00  0.00     0.042 C 
ENDROOT
BRANCH   1   2
ATOM      2  C   UNL A   1      33.482  32.560  28.042  1.00  0.00     0.117 C 
BRANCH   2   3
ATOM      3  N   UNL A   1      34.087  31.237  28.076  1.00  0.00    -0.354 N 
ATOM      4  C   UNL A   1      33.734  30.077  27.449  1.00  0.00     0.239 C 
ATOM      5  O   UNL A   1      34.446  29.085  27.637  1.00  0.00    -0.273 OA
ATOM      6  H   UNL A   1      34.886  31.167  28.647  1.00  0.00     0.163 HD
BRANCH   4   7
ATOM      7  C   UNL A   1      32.553  30.009  26.507  1.00  0.00     0.222 C 
BRANCH   7   8
ATOM      8  N   UNL A   1      32.740  29.056  25.427  1.00  0.00    -0.338 N 
ATOM      9  C   UNL A   1      32.141  25.004  25.176  1.00  0.00     0.083 A 
ATOM     10  C   UNL A   1      31.766  25.612  26.373  1.00  0.00     0.024 A 
ATOM     11  C   UNL A   1      32.679  25.745  24.118  1.00  0.00     0.032 A 
ATOM     12  C   UNL A   1      31.799  26.987  26.512  1.00  0.00     0.028 A 
ATOM     13  C   UNL A   1      32.839  27.132  24.296  1.00  0.00     0.001 A 
ATOM     14  C   UNL A   1      32.397  27.722  25.484  1.00  0.00     0.049 A 
ATOM     15  C   UNL A   1      33.404  28.166  23.502  1.00  0.00     0.028 A 
ATOM     16  C   UNL A   1      33.318  29.340  24.215  1.00  0.00     0.087 A 
BRANCH   9  17
ATOM     17  S   UNL A   1      32.067  23.235  25.082  1.00  0.00     0.243 S 
ATOM     18  O   UNL A   1      32.384  22.924  23.696  1.00  0.00    -0.207 OA
ATOM     19  O   UNL A   1      30.817  22.825  25.664  1.00  0.00    -0.207 OA
BRANCH  17  20
ATOM     20  N   UNL A   1      33.330  22.703  26.112  1.00  0.00    -0.198 NA
ATOM     21  C   UNL A   1      36.686  22.647  23.402  1.00  0.00     0.008 C 
ATOM     22  C   UNL A   1      35.910  22.436  24.701  1.00  0.00    -0.012 C 
ATOM     23  C   UNL A   1      34.752  21.443  24.519  1.00  0.00     0.020 C 
ATOM     24  C   UNL A   1      35.399  23.779  25.222  1.00  0.00     0.020 C 
ATOM     25  C   UNL A   1      33.845  21.346  25.741  1.00  0.00     0.103 C 
ATOM     26  C   UNL A   1      34.488  23.579  26.424  1.00  0.00     0.103 C 
ENDBRANCH  17  20
ENDBRANCH   9  17
ENDBRANCH   7   8
ENDBRANCH   4   7
ENDBRANCH   2   3
ENDBRANCH   1   2
BRANCH   1  27
ATOM     27  C   UNL A   1      34.168  34.928  28.742  1.00  0.00     0.118 C 
BRANCH  27  28
ATOM     28  N   UNL A   1      33.752  34.641  30.103  1.00  0.00    -0.352 N 
ATOM     29  C   UNL A   1      34.324  34.043  31.191  1.00  0.00     0.251 C 
ATOM     30  H   UNL A   1      32.837  34.954  30.286  1.00  0.00     0.163 HD
ATOM     31  O   UNL A   1      33.681  34.137  32.242  1.00  0.00    -0.269 OA
BRANCH  29  32
ATOM     32  C   UNL A   1      35.583  33.249  31.191  1.00  0.00     0.039 A 
ATOM     33  C   UNL A   1      36.868  33.760  31.017  1.00  0.00     0.014 A 
ATOM     34  C   UNL A   1      35.428  31.851  31.306  1.00  0.00     0.014 A 
ATOM     35  C   UNL A   1      37.948  32.894  30.852  1.00  0.00     0.010 A 
ATOM     36  C   UNL A   1      36.505  30.984  31.154  1.00  0.00     0.010 A 
ATOM     37  C   UNL A   1      37.762  31.506  30.876  1.00  0.00    -0.014 A 
BRANCH  37  38
ATOM     38  C   UNL A   1      38.937  30.656  30.699  1.00  0.00     0.031 A 
ATOM     39  C   UNL A   1      39.689  30.370  31.952  1.00  0.00     0.074 A 
ATOM     40  C   UNL A   1      39.317  30.091  29.534  1.00  0.00     0.049 A 
ATOM     41  N   UNL A   1      40.878  30.767  32.264  1.00  0.00    -0.248 NA
ATOM     42  C   UNL A   1      38.989  29.663  33.035  1.00  0.00     0.031 C 
ATOM     43  C   UNL A   1      38.570  30.007  28.277  1.00  0.00     0.029 A 
ATOM     44  N   UNL A   1      40.446  29.374  29.263  1.00  0.00    -0.354 N 
ATOM     45  C   UNL A   1      41.159  30.214  33.510  1.00  0.00     0.074 A 
ATOM     46  C   UNL A   1      39.916  29.665  33.995  1.00  0.00     0.031 C 
ATOM     47  C   UNL A   1      39.150  29.082  27.476  1.00  0.00     0.029 A 
ATOM     48  C   UNL A   1      40.385  28.625  28.094  1.00  0.00     0.049 A 
ATOM     49  H   UNL A   1      41.239  29.386  29.847  1.00  0.00     0.167 HD
ATOM     50  C   UNL A   1      42.435  30.090  33.971  1.00  0.00     0.031 A 
ATOM     51  C   UNL A   1      41.247  27.650  27.705  1.00  0.00     0.031 A 
ATOM     52  C   UNL A   1      43.358  30.890  33.209  1.00  0.00     0.049 A 
ATOM     53  C   UNL A   1      42.509  27.818  28.466  1.00  0.00     0.074 A 
ATOM     54  C   UNL A   1      43.468  32.238  32.930  1.00  0.00     0.029 A 
ATOM     55  N   UNL A   1      44.146  30.247  32.285  1.00  0.00    -0.354 N 
ATOM     56  N   UNL A   1      43.354  28.786  28.264  1.00  0.00    -0.248 NA
ATOM     57  C   UNL A   1      42.621  27.146  29.750  1.00  0.00     0.031 C 
ATOM     58  C   UNL A   1      43.894  32.298  31.573  1.00  0.00     0.029 A 
ATOM     59  C   UNL A   1      44.113  30.992  31.133  1.00  0.00     0.049 A 
ATOM     60  H   UNL A   1      44.642  29.408  32.424  1.00  0.00     0.167 HD
ATOM     61  C   UNL A   1      43.786  29.148  29.532  1.00  0.00     0.074 A 
ATOM     62  C   UNL A   1      43.356  28.051  30.400  1.00  0.00     0.031 C 
ATOM     63  C   UNL A   1      44.216  30.416  29.809  1.00  0.00     0.031 A 
BRANCH  50  64
ATOM     64  C   UNL A   1      42.900  28.994  34.899  1.00  0.00    -0.014 A 
ATOM     65  C   UNL A   1      42.858  27.627  34.557  1.00  0.00     0.010 A 
ATOM     66  C   UNL A   1      43.637  29.339  36.051  1.00  0.00     0.010 A 
ATOM     67  C   UNL A   1      43.507  26.653  35.319  1.00  0.00     0.020 A 
ATOM     68  C   UNL A   1      44.331  28.374  36.797  1.00  0.00     0.020 A 
ATOM     69  C   UNL A   1      44.254  27.034  36.427  1.00  0.00     0.054 A 
BRANCH  69  70
ATOM     70  S   UNL A   1      45.168  25.753  37.320  1.00  0.00     0.124 S 
ATOM     71  O   UNL A   1      46.120  26.549  38.091  1.00  0.00    -0.237 OA
ATOM     72  O   UNL A   1      44.117  25.101  38.095  1.00  0.00    -0.237 OA
ATOM     73  O   UNL A   1      45.751  24.942  36.255  1.00  0.00    -0.744 OA
ENDBRANCH  69  70
ENDBRANCH  50  64
BRANCH  51  74
ATOM     74  C   UNL A   1      40.929  26.354  27.050  1.00  0.00    -0.014 A 
ATOM     75  C   UNL A   1      39.749  25.673  27.405  1.00  0.00     0.010 A 
ATOM     76  C   UNL A   1      41.931  25.633  26.370  1.00  0.00     0.010 A 
ATOM     77  C   UNL A   1      39.614  24.298  27.186  1.00  0.00     0.020 A 
ATOM     78  C   UNL A   1      41.801  24.252  26.147  1.00  0.00     0.020 A 
ATOM     79  C   UNL A   1      40.661  23.587  26.599  1.00  0.00     0.054 A 
BRANCH  79  80
ATOM     80  S   UNL A   1      40.540  21.776  26.547  1.00  0.00     0.124 S 
ATOM     81  O   UNL A   1      41.713  21.418  25.752  1.00  0.00    -0.237 OA
ATOM     82  O   UNL A   1      40.611  21.415  27.961  1.00  0.00    -0.237 OA
ATOM     83  O   UNL A   1      39.250  21.529  25.908  1.00  0.00    -0.744 OA
ENDBRANCH  79  80
ENDBRANCH  51  74
BRANCH  63  84
ATOM     84  C   UNL A   1      44.676  31.319  28.680  1.00  0.00    -0.014 A 
ATOM     85  C   UNL A   1      43.764  32.298  28.236  1.00  0.00     0.010 A 
ATOM     86  C   UNL A   1      45.929  31.266  28.042  1.00  0.00     0.010 A 
ATOM     87  C   UNL A   1      44.109  33.238  27.265  1.00  0.00     0.020 A 
ATOM     88  C   UNL A   1      46.305  32.243  27.105  1.00  0.00     0.020 A 
ATOM     89  C   UNL A   1      45.401  33.245  26.745  1.00  0.00     0.054 A 
BRANCH  89  90
ATOM     90  S   UNL A   1      45.844  34.547  25.556  1.00  0.00     0.124 S 
ATOM     91  O   UNL A   1      45.024  34.214  24.390  1.00  0.00    -0.237 OA
ATOM     92  O   UNL A   1      45.461  35.763  26.264  1.00  0.00    -0.237 OA
ATOM     93  O   UNL A   1      47.279  34.373  25.349  1.00  0.00    -0.744 OA
ENDBRANCH  89  90
ENDBRANCH  63  84
ENDBRANCH  37  38
ENDBRANCH  29  32
ENDBRANCH  27  28
ENDBRANCH   1  27
TORSDOF 16
ENDMDL
MODEL 3
REMARK VINA RESULT:     -12.1      1.626      2.106
REMARK SMILES CC1CCN(S(=O)(=O)c2ccc3c(ccn3CC(=O)NCCCNC(=O)c3ccc(-c4c5nc(c(-c6ccc(S(=O)(=O)[O-])cc6)c6ccc([nH]6)c(-c6ccc(S(=O)(=O)[O-])cc6)c6nc(c(-c7ccc(S(=O)(=O)[O-])cc7)c7ccc4[nH]7)C=C6)C=C5)cc3)c2)CC1
REMARK SMILES IDX 22 1 21 2 20 3 18 4 19 5 17 7 16 8 9 9 10 10 87 11 11 12
REMARK SMILES IDX 13 13 12 14 14 15 15 16 6 17 7 18 8 19 5 20 1 21 2 22 3 23
REMARK SMILES IDX 89 24 4 25 88 26 23 27 24 28 25 29 26 31 27 32 28 33 86 34
REMARK SMILES IDX 29 35 85 36 30 37 31 38 32 39 79 40 33 41 84 42 78 43 80 44
REMARK SMILES IDX 34 45 83 46 77 47 76 48 35 50 65 51 46 52 64 53 47 54 50 55
REMARK SMILES IDX 63 56 81 57 48 58 49 59 62 61 82 62 51 63 36 64 37 65 45 66
REMARK SMILES IDX 38 67 44 68 39 69 40 70 41 71 42 72 43 73 66 74 67 75 75 76
REMARK SMILES IDX 68 77 74 78 69 79 70 80 71 81 72 82 73 83 52 84 53 85 61 86
REMARK SMILES IDX 54 87 60 88 55 89 56 90 57 91 58 92 59 93
REMARK H PARENT 20 6 24 30 80 49 50 60
REMARK Flexibility Score: inf
ROOT
ATOM      1  C   UNL A   1      41.050  20.213  26.886  1.00  0.00     0.042 C 
ENDROOT
BRANCH   1   2
ATOM      2  C   UNL A   1      40.365  20.711  25.611  1.00  0.00     0.117 C 
BRANCH   2   3
ATOM      3  N   UNL A   1      39.220  19.900  25.221  1.00  0.00    -0.354 N 
ATOM      4  C   UNL A   1      37.880  20.138  25.325  1.00  0.00     0.239 C 
ATOM      5  O   UNL A   1      37.110  19.276  24.888  1.00  0.00    -0.273 OA
ATOM      6  H   UNL A   1      39.452  19.034  24.814  1.00  0.00     0.163 HD
BRANCH   4   7
ATOM      7  C   UNL A   1      37.343  21.432  25.895  1.00  0.00     0.222 C 
BRANCH   7   8
ATOM      8  N   UNL A   1      36.713  22.276  24.895  1.00  0.00    -0.338 N 
ATOM      9  C   UNL A   1      33.563  24.901  25.077  1.00  0.00     0.083 A 
ATOM     10  C   UNL A   1      33.952  24.316  26.281  1.00  0.00     0.024 A 
ATOM     11  C   UNL A   1      34.225  24.612  23.878  1.00  0.00     0.032 A 
ATOM     12  C   UNL A   1      35.083  23.525  26.354  1.00  0.00     0.028 A 
ATOM     13  C   UNL A   1      35.301  23.705  23.918  1.00  0.00     0.001 A 
ATOM     14  C   UNL A   1      35.706  23.182  25.150  1.00  0.00     0.049 A 
ATOM     15  C   UNL A   1      36.136  23.126  22.925  1.00  0.00     0.028 A 
ATOM     16  C   UNL A   1      37.003  22.262  23.554  1.00  0.00     0.087 A 
BRANCH   9  17
ATOM     17  S   UNL A   1      32.100  25.903  25.072  1.00  0.00     0.243 S 
ATOM     18  O   UNL A   1      32.561  27.233  25.440  1.00  0.00    -0.207 OA
ATOM     19  O   UNL A   1      31.108  25.219  25.858  1.00  0.00    -0.207 OA
BRANCH  17  20
ATOM     20  N   UNL A   1      31.582  25.888  23.437  1.00  0.00    -0.198 NA
ATOM     21  C   UNL A   1      29.250  29.512  23.241  1.00  0.00     0.008 C 
ATOM     22  C   UNL A   1      29.860  28.192  22.771  1.00  0.00    -0.012 C 
ATOM     23  C   UNL A   1      29.377  27.007  23.621  1.00  0.00     0.020 C 
ATOM     24  C   UNL A   1      31.385  28.291  22.790  1.00  0.00     0.020 C 
ATOM     25  C   UNL A   1      30.102  25.703  23.303  1.00  0.00     0.103 C 
ATOM     26  C   UNL A   1      32.016  26.941  22.484  1.00  0.00     0.103 C 
ENDBRANCH  17  20
ENDBRANCH   9  17
ENDBRANCH   7   8
ENDBRANCH   4   7
ENDBRANCH   2   3
ENDBRANCH   1   2
BRANCH   1  27
ATOM     27  C   UNL A   1      42.270  19.327  26.623  1.00  0.00     0.118 C 
BRANCH  27  28
ATOM     28  N   UNL A   1      43.075  19.740  25.489  1.00  0.00    -0.352 N 
ATOM     29  C   UNL A   1      43.754  20.873  25.135  1.00  0.00     0.251 C 
ATOM     30  H   UNL A   1      43.153  19.031  24.810  1.00  0.00     0.163 HD
ATOM     31  O   UNL A   1      44.466  20.770  24.131  1.00  0.00    -0.269 OA
BRANCH  29  32
ATOM     32  C   UNL A   1      43.645  22.200  25.802  1.00  0.00     0.039 A 
ATOM     33  C   UNL A   1      44.194  22.539  27.036  1.00  0.00     0.014 A 
ATOM     34  C   UNL A   1      42.849  23.158  25.137  1.00  0.00     0.014 A 
ATOM     35  C   UNL A   1      43.867  23.754  27.638  1.00  0.00     0.010 A 
ATOM     36  C   UNL A   1      42.530  24.376  25.729  1.00  0.00     0.010 A 
ATOM     37  C   UNL A   1      43.000  24.653  27.006  1.00  0.00    -0.014 A 
BRANCH  37  38
ATOM     38  C   UNL A   1      42.701  25.909  27.690  1.00  0.00     0.031 A 
ATOM     39  C   UNL A   1      43.730  26.971  27.514  1.00  0.00     0.074 A 
ATOM     40  C   UNL A   1      41.571  26.166  28.381  1.00  0.00     0.049 A 
ATOM     41  N   UNL A   1      44.512  27.466  28.414  1.00  0.00    -0.248 NA
ATOM     42  C   UNL A   1      44.004  27.451  26.151  1.00  0.00     0.031 C 
ATOM     43  C   UNL A   1      40.335  25.381  28.427  1.00  0.00     0.029 A 
ATOM     44  N   UNL A   1      41.259  27.265  29.128  1.00  0.00    -0.354 N 
ATOM     45  C   UNL A   1      45.262  28.453  27.779  1.00  0.00     0.074 A 
ATOM     46  C   UNL A   1      45.008  28.303  26.366  1.00  0.00     0.031 C 
ATOM     47  C   UNL A   1      39.344  26.142  28.950  1.00  0.00     0.029 A 
ATOM     48  C   UNL A   1      39.906  27.402  29.412  1.00  0.00     0.049 A 
ATOM     49  H   UNL A   1      41.937  27.907  29.439  1.00  0.00     0.167 HD
ATOM     50  C   UNL A   1      45.896  29.436  28.477  1.00  0.00     0.031 A 
ATOM     51  C   UNL A   1      39.288  28.500  29.919  1.00  0.00     0.031 A 
ATOM     52  C   UNL A   1      45.985  29.123  29.879  1.00  0.00     0.049 A 
ATOM     53  C   UNL A   1      40.315  29.356  30.558  1.00  0.00     0.074 A 
ATOM     54  C   UNL A   1      46.543  28.089  30.606  1.00  0.00     0.029 A 
ATOM     55  N   UNL A   1      45.109  29.753  30.730  1.00  0.00    -0.354 N 
ATOM     56  N   UNL A   1      40.919  29.057  31.671  1.00  0.00    -0.248 NA
ATOM     57  C   UNL A   1      40.985  30.346  29.730  1.00  0.00     0.031 C 
ATOM     58  C   UNL A   1      45.620  27.843  31.662  1.00  0.00     0.029 A 
ATOM     59  C   UNL A   1      44.606  28.798  31.578  1.00  0.00     0.049 A 
ATOM     60  H   UNL A   1      44.885  30.711  30.731  1.00  0.00     0.167 HD
ATOM     61  C   UNL A   1      42.234  29.456  31.479  1.00  0.00     0.074 A 
ATOM     62  C   UNL A   1      42.194  30.311  30.292  1.00  0.00     0.031 C 
ATOM     63  C   UNL A   1      43.270  28.851  32.134  1.00  0.00     0.031 A 
BRANCH  50  64
ATOM     64  C   UNL A   1      46.141  30.829  27.950  1.00  0.00    -0.014 A 
ATOM     65  C   UNL A   1      47.372  31.237  27.397  1.00  0.00     0.010 A 
ATOM     66  C   UNL A   1      45.042  31.695  27.765  1.00  0.00     0.010 A 
ATOM     67  C   UNL A   1      47.509  32.441  26.702  1.00  0.00     0.020 A 
ATOM     68  C   UNL A   1      45.158  32.883  27.028  1.00  0.00     0.020 A 
ATOM     69  C   UNL A   1      46.395  33.250  26.508  1.00  0.00     0.054 A 
BRANCH  69  70
ATOM     70  S   UNL A   1      46.594  34.745  25.508  1.00  0.00     0.124 S 
ATOM     71  O   UNL A   1      47.964  34.600  25.023  1.00  0.00    -0.237 OA
ATOM     72  O   UNL A   1      45.548  34.590  24.501  1.00  0.00    -0.237 OA
ATOM     73  O   UNL A   1      46.382  35.828  26.465  1.00  0.00    -0.744 OA
ENDBRANCH  69  70
ENDBRANCH  50  64
BRANCH  51  74
ATOM     74  C   UNL A   1      37.967  29.065  29.537  1.00  0.00    -0.014 A 
ATOM     75  C   UNL A   1      37.689  29.311  28.179  1.00  0.00     0.010 A 
ATOM     76  C   UNL A   1      37.149  29.685  30.504  1.00  0.00     0.010 A 
ATOM     77  C   UNL A   1      36.699  30.224  27.798  1.00  0.00     0.020 A 
ATOM     78  C   UNL A   1      36.154  30.602  30.127  1.00  0.00     0.020 A 
ATOM     79  C   UNL A   1      35.968  30.898  28.775  1.00  0.00     0.054 A 
BRANCH  79  80
ATOM     80  S   UNL A   1      34.864  32.238  28.245  1.00  0.00     0.124 S 
ATOM     81  O   UNL A   1      33.905  31.525  27.404  1.00  0.00    -0.237 OA
ATOM     82  O   UNL A   1      34.335  32.732  29.515  1.00  0.00    -0.237 OA
ATOM     83  O   UNL A   1      35.749  33.163  27.542  1.00  0.00    -0.744 OA
ENDBRANCH  79  80
ENDBRANCH  51  74
BRANCH  63  84
ATOM     84  C   UNL A   1      43.004  28.071  33.408  1.00  0.00    -0.014 A 
ATOM     85  C   UNL A   1      42.470  28.793  34.495  1.00  0.00     0.010 A 
ATOM     86  C   UNL A   1      43.240  26.697  33.597  1.00  0.00     0.010 A 
ATOM     87  C   UNL A   1      42.105  28.165  35.686  1.00  0.00     0.020 A 
ATOM     88  C   UNL A   1      42.823  26.047  34.771  1.00  0.00     0.020 A 
ATOM     89  C   UNL A   1      42.227  26.782  35.798  1.00  0.00     0.054 A 
BRANCH  89  90
ATOM     90  S   UNL A   1      41.648  25.987  37.327  1.00  0.00     0.124 S 
ATOM     91  O   UNL A   1      42.785  26.159  38.233  1.00  0.00    -0.237 OA
ATOM     92  O   UNL A   1      40.461  26.769  37.658  1.00  0.00    -0.237 OA
ATOM     93  O   UNL A   1      41.393  24.602  36.940  1.00  0.00    -0.744 OA
ENDBRANCH  89  90
ENDBRANCH  63  84
ENDBRANCH  37  38
ENDBRANCH  29  32
ENDBRANCH  27  28
ENDBRANCH   1  27
TORSDOF 16
ENDMDL
