MODEL 1
REMARK VINA RESULT:     -12.9      0.000      0.000
REMARK SMILES O=C(NCCCNC(=O)[C@H]1[C@H]2CC[C@H](CC2)[C@H]1C(=O)Nc1ccc(C(=O)N2CCCC2)cc1)c1ccc(-c2c3nc(c(-c4ccc(S(=O)(=O)[O-])cc4)c4ccc([nH]4)c(-c4ccc(S(=O)(=O)[O-])cc4)c4nc(c(-c5ccc(S(=O)(=O)[O-])cc5)c5ccc2[nH]5)C=C4)C=C3)cc1
REMARK SMILES IDX 5 1 4 2 3 3 1 4 2 5 34 7 35 8 93 9 36 10 92 11 37 12 38 13
REMARK SMILES IDX 39 14 86 15 40 16 91 17 85 18 87 19 41 20 90 21 84 22 83 23
REMARK SMILES IDX 42 25 72 26 53 27 71 28 54 29 57 30 70 31 88 32 55 33 56 34
REMARK SMILES IDX 69 36 89 37 58 38 43 39 44 40 52 41 45 42 51 43 46 44 47 45
REMARK SMILES IDX 48 46 49 47 50 48 73 49 74 50 82 51 75 52 81 53 76 54 77 55
REMARK SMILES IDX 78 56 79 57 80 58 59 59 60 60 68 61 61 62 67 63 62 64 63 65
REMARK SMILES IDX 64 66 65 67 66 68 6 69 7 70 8 71 9 73 10 74 11 75 17 76
REMARK SMILES IDX 16 77 12 78 14 79 15 80 13 81 18 82 19 83 20 84 21 86 22 87
REMARK SMILES IDX 33 88 23 89 32 90 24 91 25 92 26 93 27 94 28 95 31 96 29 97
REMARK SMILES IDX 30 98
REMARK H PARENT 3 6 87 24 57 35 7 72 20 85
REMARK Flexibility Score: inf
ROOT
ATOM      1  C   UNL A   1      34.003  30.862  27.677  1.00  0.00     0.042 C 
ENDROOT
BRANCH   1   2
ATOM      2  C   UNL A   1      35.305  31.189  28.434  1.00  0.00     0.118 C 
BRANCH   2   3
ATOM      3  N   UNL A   1      35.374  30.809  29.851  1.00  0.00    -0.352 N 
ATOM      4  O   UNL A   1      36.105  30.301  31.909  1.00  0.00    -0.269 OA
ATOM      5  C   UNL A   1      36.394  30.496  30.726  1.00  0.00     0.251 C 
ATOM      6  H   UNL A   1      34.487  30.767  30.276  1.00  0.00     0.163 HD
BRANCH   5   7
ATOM      7  C   UNL A   1      37.794  30.290  30.290  1.00  0.00     0.039 A 
ATOM      8  C   UNL A   1      38.187  30.501  28.977  1.00  0.00     0.014 A 
ATOM      9  C   UNL A   1      38.749  29.851  31.223  1.00  0.00     0.014 A 
ATOM     10  C   UNL A   1      39.429  30.054  28.544  1.00  0.00     0.010 A 
ATOM     11  C   UNL A   1      40.046  29.515  30.809  1.00  0.00     0.010 A 
ATOM     12  C   UNL A   1      40.382  29.568  29.452  1.00  0.00    -0.014 A 
BRANCH  12  13
ATOM     13  C   UNL A   1      41.733  29.212  28.941  1.00  0.00     0.031 A 
ATOM     14  C   UNL A   1      42.880  30.185  28.988  1.00  0.00     0.074 A 
ATOM     15  C   UNL A   1      41.934  27.956  28.496  1.00  0.00     0.049 A 
ATOM     16  N   UNL A   1      44.131  29.991  28.652  1.00  0.00    -0.248 NA
ATOM     17  C   UNL A   1      42.593  31.546  29.468  1.00  0.00     0.031 C 
ATOM     18  C   UNL A   1      40.897  26.923  28.401  1.00  0.00     0.029 A 
ATOM     19  N   UNL A   1      43.073  27.316  28.080  1.00  0.00    -0.354 N 
ATOM     20  C   UNL A   1      44.775  31.207  28.851  1.00  0.00     0.074 A 
ATOM     21  C   UNL A   1      43.772  32.138  29.325  1.00  0.00     0.031 C 
ATOM     22  C   UNL A   1      41.459  25.765  28.031  1.00  0.00     0.029 A 
ATOM     23  C   UNL A   1      42.876  25.990  27.774  1.00  0.00     0.049 A 
ATOM     24  H   UNL A   1      43.947  27.763  28.007  1.00  0.00     0.167 HD
ATOM     25  C   UNL A   1      46.079  31.520  28.651  1.00  0.00     0.031 A 
ATOM     26  C   UNL A   1      43.726  25.054  27.313  1.00  0.00     0.031 A 
ATOM     27  C   UNL A   1      47.069  30.589  28.168  1.00  0.00     0.049 A 
ATOM     28  C   UNL A   1      45.158  25.429  27.078  1.00  0.00     0.074 A 
ATOM     29  C   UNL A   1      48.418  30.807  27.946  1.00  0.00     0.029 A 
ATOM     30  N   UNL A   1      46.817  29.269  27.824  1.00  0.00    -0.354 N 
ATOM     31  N   UNL A   1      45.747  26.581  27.289  1.00  0.00    -0.248 NA
ATOM     32  C   UNL A   1      46.037  24.385  26.540  1.00  0.00     0.031 C 
ATOM     33  C   UNL A   1      48.969  29.632  27.421  1.00  0.00     0.029 A 
ATOM     34  C   UNL A   1      47.978  28.666  27.372  1.00  0.00     0.049 A 
ATOM     35  H   UNL A   1      45.939  28.826  27.892  1.00  0.00     0.167 HD
ATOM     36  C   UNL A   1      47.073  26.399  26.920  1.00  0.00     0.074 A 
ATOM     37  C   UNL A   1      47.201  25.020  26.488  1.00  0.00     0.031 C 
ATOM     38  C   UNL A   1      48.091  27.294  26.941  1.00  0.00     0.031 A 
BRANCH  25  39
ATOM     39  C   UNL A   1      46.501  32.945  28.908  1.00  0.00    -0.014 A 
ATOM     40  C   UNL A   1      46.975  33.355  30.166  1.00  0.00     0.010 A 
ATOM     41  C   UNL A   1      46.436  33.887  27.863  1.00  0.00     0.010 A 
ATOM     42  C   UNL A   1      47.320  34.692  30.392  1.00  0.00     0.020 A 
ATOM     43  C   UNL A   1      46.806  35.219  28.077  1.00  0.00     0.020 A 
ATOM     44  C   UNL A   1      47.221  35.618  29.348  1.00  0.00     0.054 A 
BRANCH  44  45
ATOM     45  S   UNL A   1      47.649  37.350  29.675  1.00  0.00     0.124 S 
ATOM     46  O   UNL A   1      49.108  37.298  29.695  1.00  0.00    -0.237 OA
ATOM     47  O   UNL A   1      47.063  38.047  28.533  1.00  0.00    -0.237 OA
ATOM     48  O   UNL A   1      47.017  37.628  30.962  1.00  0.00    -0.744 OA
ENDBRANCH  44  45
ENDBRANCH  25  39
BRANCH  26  49
ATOM     49  C   UNL A   1      43.211  23.689  27.027  1.00  0.00    -0.014 A 
ATOM     50  C   UNL A   1      42.936  23.284  25.711  1.00  0.00     0.010 A 
ATOM     51  C   UNL A   1      43.081  22.757  28.075  1.00  0.00     0.010 A 
ATOM     52  C   UNL A   1      42.553  21.965  25.446  1.00  0.00     0.020 A 
ATOM     53  C   UNL A   1      42.728  21.433  27.810  1.00  0.00     0.020 A 
ATOM     54  C   UNL A   1      42.461  21.046  26.496  1.00  0.00     0.054 A 
BRANCH  54  55
ATOM     55  S   UNL A   1      42.064  19.316  26.117  1.00  0.00     0.124 S 
ATOM     56  O   UNL A   1      42.882  19.070  24.935  1.00  0.00    -0.237 OA
ATOM     57  O   UNL A   1      42.480  18.623  27.334  1.00  0.00    -0.237 OA
ATOM     58  O   UNL A   1      40.621  19.341  25.887  1.00  0.00    -0.744 OA
ENDBRANCH  54  55
ENDBRANCH  26  49
BRANCH  38  59
ATOM     59  C   UNL A   1      49.447  26.805  26.515  1.00  0.00    -0.014 A 
ATOM     60  C   UNL A   1      50.245  26.027  27.371  1.00  0.00     0.010 A 
ATOM     61  C   UNL A   1      49.897  27.074  25.210  1.00  0.00     0.010 A 
ATOM     62  C   UNL A   1      51.480  25.541  26.934  1.00  0.00     0.020 A 
ATOM     63  C   UNL A   1      51.120  26.569  24.761  1.00  0.00     0.020 A 
ATOM     64  C   UNL A   1      51.908  25.812  25.630  1.00  0.00     0.054 A 
BRANCH  64  65
ATOM     65  S   UNL A   1      53.482  25.113  25.064  1.00  0.00     0.124 S 
ATOM     66  O   UNL A   1      53.291  23.688  25.316  1.00  0.00    -0.237 OA
ATOM     67  O   UNL A   1      53.519  25.504  23.657  1.00  0.00    -0.237 OA
ATOM     68  O   UNL A   1      54.476  25.769  25.912  1.00  0.00    -0.744 OA
ENDBRANCH  64  65
ENDBRANCH  38  59
ENDBRANCH  12  13
ENDBRANCH   5   7
ENDBRANCH   2   3
ENDBRANCH   1   2
BRANCH   1  69
ATOM     69  C   UNL A   1      33.737  29.379  27.492  1.00  0.00     0.117 C 
BRANCH  69  70
ATOM     70  N   UNL A   1      32.373  28.936  27.388  1.00  0.00    -0.356 N 
ATOM     71  C   UNL A   1      31.892  27.977  26.551  1.00  0.00     0.224 C 
ATOM     72  H   UNL A   1      31.721  29.371  27.985  1.00  0.00     0.163 HD
ATOM     73  O   UNL A   1      30.999  27.267  27.036  1.00  0.00    -0.275 OA
BRANCH  71  74
ATOM     74  C   UNL A   1      32.261  27.766  25.052  1.00  0.00     0.094 C 
ATOM     75  C   UNL A   1      33.648  27.405  24.379  1.00  0.00     0.002 C 
ATOM     76  C   UNL A   1      31.092  27.435  24.086  1.00  0.00     0.094 C 
ATOM     77  C   UNL A   1      33.709  26.141  23.461  1.00  0.00     0.005 C 
ATOM     78  C   UNL A   1      33.875  28.515  23.313  1.00  0.00     0.005 C 
ATOM     79  C   UNL A   1      31.679  27.330  22.642  1.00  0.00     0.002 C 
ATOM     80  C   UNL A   1      32.513  26.060  22.506  1.00  0.00     0.005 C 
ATOM     81  C   UNL A   1      32.652  28.526  22.357  1.00  0.00     0.005 C 
BRANCH  76  82
ATOM     82  C   UNL A   1      29.891  26.457  24.386  1.00  0.00     0.228 C 
ATOM     83  O   UNL A   1      28.747  26.914  24.196  1.00  0.00    -0.274 OA
ATOM     84  N   UNL A   1      29.891  25.116  24.684  1.00  0.00    -0.326 N 
ATOM     85  H   UNL A   1      29.009  24.699  24.547  1.00  0.00     0.169 HD
BRANCH  84  86
ATOM     86  C   UNL A   1      30.852  24.200  25.138  1.00  0.00     0.041 A 
ATOM     87  C   UNL A   1      31.427  23.198  24.355  1.00  0.00     0.027 A 
ATOM     88  C   UNL A   1      31.265  24.259  26.429  1.00  0.00     0.027 A 
ATOM     89  C   UNL A   1      32.501  22.408  24.866  1.00  0.00     0.016 A 
ATOM     90  C   UNL A   1      32.293  23.490  26.954  1.00  0.00     0.016 A 
ATOM     91  C   UNL A   1      32.971  22.582  26.178  1.00  0.00     0.040 A 
BRANCH  91  92
ATOM     92  C   UNL A   1      34.296  22.086  26.683  1.00  0.00     0.253 C 
ATOM     93  O   UNL A   1      34.296  21.302  27.629  1.00  0.00    -0.269 OA
ATOM     94  N   UNL A   1      35.420  22.290  25.880  1.00  0.00    -0.339 N 
ATOM     95  C   UNL A   1      35.956  23.539  25.365  1.00  0.00     0.120 C 
ATOM     96  C   UNL A   1      36.226  21.174  25.419  1.00  0.00     0.120 C 
ATOM     97  C   UNL A   1      36.627  23.144  24.062  1.00  0.00     0.023 C 
ATOM     98  C   UNL A   1      37.188  21.763  24.383  1.00  0.00     0.023 C 
ENDBRANCH  91  92
ENDBRANCH  84  86
ENDBRANCH  76  82
ENDBRANCH  71  74
ENDBRANCH  69  70
ENDBRANCH   1  69
TORSDOF 16
ENDMDL
MODEL 2
REMARK VINA RESULT:     -12.7      0.634      7.892
REMARK SMILES O=C(NCCCNC(=O)[C@H]1[C@H]2CC[C@H](CC2)[C@H]1C(=O)Nc1ccc(C(=O)N2CCCC2)cc1)c1ccc(-c2c3nc(c(-c4ccc(S(=O)(=O)[O-])cc4)c4ccc([nH]4)c(-c4ccc(S(=O)(=O)[O-])cc4)c4nc(c(-c5ccc(S(=O)(=O)[O-])cc5)c5ccc2[nH]5)C=C4)C=C3)cc1
REMARK SMILES IDX 5 1 4 2 3 3 1 4 2 5 34 7 35 8 93 9 36 10 92 11 37 12 38 13
REMARK SMILES IDX 39 14 86 15 40 16 91 17 85 18 87 19 41 20 90 21 84 22 83 23
REMARK SMILES IDX 42 25 72 26 53 27 71 28 54 29 57 30 70 31 88 32 55 33 56 34
REMARK SMILES IDX 69 36 89 37 58 38 43 39 44 40 52 41 45 42 51 43 46 44 47 45
REMARK SMILES IDX 48 46 49 47 50 48 73 49 74 50 82 51 75 52 81 53 76 54 77 55
REMARK SMILES IDX 78 56 79 57 80 58 59 59 60 60 68 61 61 62 67 63 62 64 63 65
REMARK SMILES IDX 64 66 65 67 66 68 6 69 7 70 8 71 9 73 10 74 11 75 17 76
REMARK SMILES IDX 16 77 12 78 14 79 15 80 13 81 18 82 19 83 20 84 21 86 22 87
REMARK SMILES IDX 33 88 23 89 32 90 24 91 25 92 26 93 27 94 28 95 31 96 29 97
REMARK SMILES IDX 30 98
REMARK H PARENT 3 6 87 24 57 35 7 72 20 85
REMARK Flexibility Score: inf
ROOT
ATOM      1  C   UNL A   1      34.446  30.109  27.109  1.00  0.00     0.042 C 
ENDROOT
BRANCH   1   2
ATOM      2  C   UNL A   1      35.472  30.795  28.032  1.00  0.00     0.118 C 
BRANCH   2   3
ATOM      3  N   UNL A   1      35.501  30.374  29.439  1.00  0.00    -0.352 N 
ATOM      4  O   UNL A   1      36.174  29.805  31.500  1.00  0.00    -0.269 OA
ATOM      5  C   UNL A   1      36.496  30.034  30.333  1.00  0.00     0.251 C 
ATOM      6  H   UNL A   1      34.602  30.321  29.837  1.00  0.00     0.163 HD
BRANCH   5   7
ATOM      7  C   UNL A   1      37.907  29.838  29.930  1.00  0.00     0.039 A 
ATOM      8  C   UNL A   1      38.281  29.758  28.597  1.00  0.00     0.014 A 
ATOM      9  C   UNL A   1      38.896  29.711  30.922  1.00  0.00     0.014 A 
ATOM     10  C   UNL A   1      39.554  29.318  28.258  1.00  0.00     0.010 A 
ATOM     11  C   UNL A   1      40.214  29.387  30.575  1.00  0.00     0.010 A 
ATOM     12  C   UNL A   1      40.544  29.139  29.237  1.00  0.00    -0.014 A 
BRANCH  12  13
ATOM     13  C   UNL A   1      41.918  28.777  28.799  1.00  0.00     0.031 A 
ATOM     14  C   UNL A   1      42.251  27.401  28.287  1.00  0.00     0.074 A 
ATOM     15  C   UNL A   1      42.861  29.741  28.798  1.00  0.00     0.049 A 
ATOM     16  N   UNL A   1      43.383  26.962  27.798  1.00  0.00    -0.248 NA
ATOM     17  C   UNL A   1      41.184  26.389  28.330  1.00  0.00     0.031 C 
ATOM     18  C   UNL A   1      42.658  31.114  29.273  1.00  0.00     0.029 A 
ATOM     19  N   UNL A   1      44.157  29.737  28.351  1.00  0.00    -0.354 N 
ATOM     20  C   UNL A   1      43.178  25.619  27.501  1.00  0.00     0.074 A 
ATOM     21  C   UNL A   1      41.815  25.312  27.878  1.00  0.00     0.031 C 
ATOM     22  C   UNL A   1      43.758  31.835  29.022  1.00  0.00     0.029 A 
ATOM     23  C   UNL A   1      44.776  30.960  28.455  1.00  0.00     0.049 A 
ATOM     24  H   UNL A   1      44.601  28.935  27.991  1.00  0.00     0.167 HD
ATOM     25  C   UNL A   1      44.048  24.725  26.970  1.00  0.00     0.031 A 
ATOM     26  C   UNL A   1      46.030  31.343  28.154  1.00  0.00     0.031 A 
ATOM     27  C   UNL A   1      45.408  25.037  26.607  1.00  0.00     0.049 A 
ATOM     28  C   UNL A   1      46.981  30.332  27.588  1.00  0.00     0.074 A 
ATOM     29  C   UNL A   1      46.363  24.204  26.049  1.00  0.00     0.029 A 
ATOM     30  N   UNL A   1      46.010  26.276  26.773  1.00  0.00    -0.354 N 
ATOM     31  N   UNL A   1      46.759  29.072  27.301  1.00  0.00    -0.248 NA
ATOM     32  C   UNL A   1      48.347  30.789  27.311  1.00  0.00     0.031 C 
ATOM     33  C   UNL A   1      47.555  24.927  25.925  1.00  0.00     0.029 A 
ATOM     34  C   UNL A   1      47.327  26.225  26.350  1.00  0.00     0.049 A 
ATOM     35  H   UNL A   1      45.565  27.075  27.140  1.00  0.00     0.167 HD
ATOM     36  C   UNL A   1      47.958  28.585  26.797  1.00  0.00     0.074 A 
ATOM     37  C   UNL A   1      48.895  29.691  26.804  1.00  0.00     0.031 C 
ATOM     38  C   UNL A   1      48.251  27.334  26.366  1.00  0.00     0.031 A 
BRANCH  25  39
ATOM     39  C   UNL A   1      43.568  23.306  26.795  1.00  0.00    -0.014 A 
ATOM     40  C   UNL A   1      43.018  22.579  27.865  1.00  0.00     0.010 A 
ATOM     41  C   UNL A   1      43.654  22.696  25.529  1.00  0.00     0.010 A 
ATOM     42  C   UNL A   1      42.619  21.250  27.687  1.00  0.00     0.020 A 
ATOM     43  C   UNL A   1      43.232  21.376  25.340  1.00  0.00     0.020 A 
ATOM     44  C   UNL A   1      42.740  20.653  26.428  1.00  0.00     0.054 A 
BRANCH  44  45
ATOM     45  S   UNL A   1      42.241  18.921  26.232  1.00  0.00     0.124 S 
ATOM     46  O   UNL A   1      40.856  19.058  25.789  1.00  0.00    -0.237 OA
ATOM     47  O   UNL A   1      43.175  18.428  25.223  1.00  0.00    -0.237 OA
ATOM     48  O   UNL A   1      42.415  18.355  27.567  1.00  0.00    -0.744 OA
ENDBRANCH  44  45
ENDBRANCH  25  39
BRANCH  26  49
ATOM     49  C   UNL A   1      46.439  32.749  28.417  1.00  0.00    -0.014 A 
ATOM     50  C   UNL A   1      46.970  33.123  29.662  1.00  0.00     0.010 A 
ATOM     51  C   UNL A   1      46.378  33.700  27.381  1.00  0.00     0.010 A 
ATOM     52  C   UNL A   1      47.447  34.422  29.861  1.00  0.00     0.020 A 
ATOM     53  C   UNL A   1      46.880  34.989  27.567  1.00  0.00     0.020 A 
ATOM     54  C   UNL A   1      47.409  35.344  28.809  1.00  0.00     0.054 A 
BRANCH  54  55
ATOM     55  S   UNL A   1      48.127  36.991  29.058  1.00  0.00     0.124 S 
ATOM     56  O   UNL A   1      48.134  37.526  27.701  1.00  0.00    -0.237 OA
ATOM     57  O   UNL A   1      47.179  37.613  29.980  1.00  0.00    -0.237 OA
ATOM     58  O   UNL A   1      49.442  36.708  29.628  1.00  0.00    -0.744 OA
ENDBRANCH  54  55
ENDBRANCH  26  49
BRANCH  38  59
ATOM     59  C   UNL A   1      49.635  27.096  25.832  1.00  0.00    -0.014 A 
ATOM     60  C   UNL A   1      50.661  26.603  26.657  1.00  0.00     0.010 A 
ATOM     61  C   UNL A   1      49.893  27.307  24.465  1.00  0.00     0.010 A 
ATOM     62  C   UNL A   1      51.927  26.341  26.126  1.00  0.00     0.020 A 
ATOM     63  C   UNL A   1      51.149  27.022  23.926  1.00  0.00     0.020 A 
ATOM     64  C   UNL A   1      52.161  26.549  24.762  1.00  0.00     0.054 A 
BRANCH  64  65
ATOM     65  S   UNL A   1      53.792  26.137  24.083  1.00  0.00     0.124 S 
ATOM     66  O   UNL A   1      53.521  26.092  22.648  1.00  0.00    -0.237 OA
ATOM     67  O   UNL A   1      54.618  27.254  24.533  1.00  0.00    -0.237 OA
ATOM     68  O   UNL A   1      54.107  24.849  24.699  1.00  0.00    -0.744 OA
ENDBRANCH  64  65
ENDBRANCH  38  59
ENDBRANCH  12  13
ENDBRANCH   5   7
ENDBRANCH   2   3
ENDBRANCH   1   2
BRANCH   1  69
ATOM     69  C   UNL A   1      33.855  28.827  27.668  1.00  0.00     0.117 C 
BRANCH  69  70
ATOM     70  N   UNL A   1      32.442  28.605  27.519  1.00  0.00    -0.356 N 
ATOM     71  C   UNL A   1      31.836  27.821  26.586  1.00  0.00     0.224 C 
ATOM     72  H   UNL A   1      31.852  29.066  28.160  1.00  0.00     0.163 HD
ATOM     73  O   UNL A   1      30.842  27.204  26.994  1.00  0.00    -0.275 OA
BRANCH  71  74
ATOM     74  C   UNL A   1      32.193  27.715  25.073  1.00  0.00     0.094 C 
ATOM     75  C   UNL A   1      33.577  27.417  24.364  1.00  0.00     0.002 C 
ATOM     76  C   UNL A   1      31.017  27.436  24.098  1.00  0.00     0.094 C 
ATOM     77  C   UNL A   1      33.642  26.219  23.362  1.00  0.00     0.005 C 
ATOM     78  C   UNL A   1      33.780  28.600  23.372  1.00  0.00     0.005 C 
ATOM     79  C   UNL A   1      31.590  27.435  22.644  1.00  0.00     0.002 C 
ATOM     80  C   UNL A   1      32.437  26.188  22.415  1.00  0.00     0.005 C 
ATOM     81  C   UNL A   1      32.546  28.660  22.432  1.00  0.00     0.005 C 
BRANCH  76  82
ATOM     82  C   UNL A   1      29.830  26.426  24.343  1.00  0.00     0.228 C 
ATOM     83  O   UNL A   1      28.683  26.861  24.129  1.00  0.00    -0.274 OA
ATOM     84  N   UNL A   1      29.852  25.080  24.614  1.00  0.00    -0.326 N 
ATOM     85  H   UNL A   1      28.985  24.646  24.443  1.00  0.00     0.169 HD
BRANCH  84  86
ATOM     86  C   UNL A   1      30.821  24.176  25.078  1.00  0.00     0.041 A 
ATOM     87  C   UNL A   1      31.430  23.194  24.297  1.00  0.00     0.027 A 
ATOM     88  C   UNL A   1      31.205  24.227  26.379  1.00  0.00     0.027 A 
ATOM     89  C   UNL A   1      32.508  22.418  24.821  1.00  0.00     0.016 A 
ATOM     90  C   UNL A   1      32.236  23.472  26.916  1.00  0.00     0.016 A 
ATOM     91  C   UNL A   1      32.947  22.585  26.145  1.00  0.00     0.040 A 
BRANCH  91  92
ATOM     92  C   UNL A   1      34.269  22.107  26.672  1.00  0.00     0.253 C 
ATOM     93  O   UNL A   1      34.264  21.297  27.596  1.00  0.00    -0.269 OA
ATOM     94  N   UNL A   1      35.409  22.362  25.907  1.00  0.00    -0.339 N 
ATOM     95  C   UNL A   1      35.928  23.638  25.443  1.00  0.00     0.120 C 
ATOM     96  C   UNL A   1      36.256  21.280  25.437  1.00  0.00     0.120 C 
ATOM     97  C   UNL A   1      36.643  23.298  24.148  1.00  0.00     0.023 C 
ATOM     98  C   UNL A   1      37.230  21.922  24.445  1.00  0.00     0.023 C 
ENDBRANCH  91  92
ENDBRANCH  84  86
ENDBRANCH  76  82
ENDBRANCH  71  74
ENDBRANCH  69  70
ENDBRANCH   1  69
TORSDOF 16
ENDMDL
MODEL 3
REMARK VINA RESULT:     -12.6      4.761      5.969
REMARK SMILES O=C(NCCCNC(=O)[C@H]1[C@H]2CC[C@H](CC2)[C@H]1C(=O)Nc1ccc(C(=O)N2CCCC2)cc1)c1ccc(-c2c3nc(c(-c4ccc(S(=O)(=O)[O-])cc4)c4ccc([nH]4)c(-c4ccc(S(=O)(=O)[O-])cc4)c4nc(c(-c5ccc(S(=O)(=O)[O-])cc5)c5ccc2[nH]5)C=C4)C=C3)cc1
REMARK SMILES IDX 5 1 4 2 3 3 1 4 2 5 34 7 35 8 93 9 36 10 92 11 37 12 38 13
REMARK SMILES IDX 39 14 86 15 40 16 91 17 85 18 87 19 41 20 90 21 84 22 83 23
REMARK SMILES IDX 42 25 72 26 53 27 71 28 54 29 57 30 70 31 88 32 55 33 56 34
REMARK SMILES IDX 69 36 89 37 58 38 43 39 44 40 52 41 45 42 51 43 46 44 47 45
REMARK SMILES IDX 48 46 49 47 50 48 73 49 74 50 82 51 75 52 81 53 76 54 77 55
REMARK SMILES IDX 78 56 79 57 80 58 59 59 60 60 68 61 61 62 67 63 62 64 63 65
REMARK SMILES IDX 64 66 65 67 66 68 6 69 7 70 8 71 9 73 10 74 11 75 17 76
REMARK SMILES IDX 16 77 12 78 14 79 15 80 13 81 18 82 19 83 20 84 21 86 22 87
REMARK SMILES IDX 33 88 23 89 32 90 24 91 25 92 26 93 27 94 28 95 31 96 29 97
REMARK SMILES IDX 30 98
REMARK H PARENT 3 6 87 24 57 35 7 72 20 85
REMARK Flexibility Score: inf
ROOT
ATOM      1  C   UNL A   1      31.934  29.264  26.478  1.00  0.00     0.042 C 
ENDROOT
BRANCH   1   2
ATOM      2  C   UNL A   1      33.242  30.066  26.622  1.00  0.00     0.118 C 
BRANCH   2   3
ATOM      3  N   UNL A   1      33.157  31.387  27.260  1.00  0.00    -0.352 N 
ATOM      4  O   UNL A   1      33.653  33.302  28.313  1.00  0.00    -0.269 OA
ATOM      5  C   UNL A   1      34.026  32.173  27.988  1.00  0.00     0.251 C 
ATOM      6  H   UNL A   1      32.275  31.808  27.142  1.00  0.00     0.163 HD
BRANCH   5   7
ATOM      7  C   UNL A   1      35.336  31.686  28.475  1.00  0.00     0.039 A 
ATOM      8  C   UNL A   1      35.456  30.504  29.190  1.00  0.00     0.014 A 
ATOM      9  C   UNL A   1      36.491  32.448  28.225  1.00  0.00     0.014 A 
ATOM     10  C   UNL A   1      36.640  30.209  29.852  1.00  0.00     0.010 A 
ATOM     11  C   UNL A   1      37.720  32.084  28.792  1.00  0.00     0.010 A 
ATOM     12  C   UNL A   1      37.795  30.983  29.653  1.00  0.00    -0.014 A 
BRANCH  12  13
ATOM     13  C   UNL A   1      39.061  30.549  30.301  1.00  0.00     0.031 A 
ATOM     14  C   UNL A   1      39.559  31.182  31.572  1.00  0.00     0.074 A 
ATOM     15  C   UNL A   1      39.728  29.510  29.760  1.00  0.00     0.049 A 
ATOM     16  N   UNL A   1      40.603  30.857  32.293  1.00  0.00    -0.248 NA
ATOM     17  C   UNL A   1      38.797  32.323  32.103  1.00  0.00     0.031 C 
ATOM     18  C   UNL A   1      39.343  28.815  28.527  1.00  0.00     0.029 A 
ATOM     19  N   UNL A   1      40.838  28.827  30.188  1.00  0.00    -0.354 N 
ATOM     20  C   UNL A   1      40.642  31.766  33.345  1.00  0.00     0.074 A 
ATOM     21  C   UNL A   1      39.523  32.666  33.159  1.00  0.00     0.031 C 
ATOM     22  C   UNL A   1      40.151  27.764  28.341  1.00  0.00     0.029 A 
ATOM     23  C   UNL A   1      41.168  27.761  29.386  1.00  0.00     0.049 A 
ATOM     24  H   UNL A   1      41.348  29.078  30.992  1.00  0.00     0.167 HD
ATOM     25  C   UNL A   1      41.532  31.847  34.365  1.00  0.00     0.031 A 
ATOM     26  C   UNL A   1      42.186  26.884  29.458  1.00  0.00     0.031 A 
ATOM     27  C   UNL A   1      42.650  30.953  34.535  1.00  0.00     0.049 A 
ATOM     28  C   UNL A   1      43.169  27.006  30.582  1.00  0.00     0.074 A 
ATOM     29  C   UNL A   1      43.599  30.944  35.543  1.00  0.00     0.029 A 
ATOM     30  N   UNL A   1      42.976  29.915  33.673  1.00  0.00    -0.354 N 
ATOM     31  N   UNL A   1      43.176  27.864  31.574  1.00  0.00    -0.248 NA
ATOM     32  C   UNL A   1      44.282  26.050  30.596  1.00  0.00     0.031 C 
ATOM     33  C   UNL A   1      44.526  29.934  35.262  1.00  0.00     0.029 A 
ATOM     34  C   UNL A   1      44.121  29.274  34.113  1.00  0.00     0.049 A 
ATOM     35  H   UNL A   1      42.466  29.671  32.865  1.00  0.00     0.167 HD
ATOM     36  C   UNL A   1      44.289  27.545  32.339  1.00  0.00     0.074 A 
ATOM     37  C   UNL A   1      44.922  26.405  31.704  1.00  0.00     0.031 C 
ATOM     38  C   UNL A   1      44.742  28.143  33.468  1.00  0.00     0.031 A 
BRANCH  25  39
ATOM     39  C   UNL A   1      41.359  32.974  35.351  1.00  0.00    -0.014 A 
ATOM     40  C   UNL A   1      41.943  34.235  35.136  1.00  0.00     0.010 A 
ATOM     41  C   UNL A   1      40.583  32.770  36.508  1.00  0.00     0.010 A 
ATOM     42  C   UNL A   1      41.804  35.251  36.087  1.00  0.00     0.020 A 
ATOM     43  C   UNL A   1      40.419  33.792  37.449  1.00  0.00     0.020 A 
ATOM     44  C   UNL A   1      41.052  35.018  37.244  1.00  0.00     0.054 A 
BRANCH  44  45
ATOM     45  S   UNL A   1      40.911  36.344  38.474  1.00  0.00     0.124 S 
ATOM     46  O   UNL A   1      42.147  37.091  38.250  1.00  0.00    -0.237 OA
ATOM     47  O   UNL A   1      39.685  37.028  38.070  1.00  0.00    -0.237 OA
ATOM     48  O   UNL A   1      40.834  35.632  39.746  1.00  0.00    -0.744 OA
ENDBRANCH  44  45
ENDBRANCH  25  39
BRANCH  26  49
ATOM     49  C   UNL A   1      42.316  25.841  28.406  1.00  0.00    -0.014 A 
ATOM     50  C   UNL A   1      43.111  26.059  27.269  1.00  0.00     0.010 A 
ATOM     51  C   UNL A   1      41.710  24.583  28.590  1.00  0.00     0.010 A 
ATOM     52  C   UNL A   1      43.308  25.033  26.341  1.00  0.00     0.020 A 
ATOM     53  C   UNL A   1      41.929  23.547  27.680  1.00  0.00     0.020 A 
ATOM     54  C   UNL A   1      42.725  23.780  26.558  1.00  0.00     0.054 A 
BRANCH  54  55
ATOM     55  S   UNL A   1      43.078  22.433  25.395  1.00  0.00     0.124 S 
ATOM     56  O   UNL A   1      41.848  21.651  25.454  1.00  0.00    -0.237 OA
ATOM     57  O   UNL A   1      43.315  23.149  24.144  1.00  0.00    -0.237 OA
ATOM     58  O   UNL A   1      44.259  21.789  25.967  1.00  0.00    -0.744 OA
ENDBRANCH  54  55
ENDBRANCH  26  49
BRANCH  38  59
ATOM     59  C   UNL A   1      45.966  27.557  34.114  1.00  0.00    -0.014 A 
ATOM     60  C   UNL A   1      47.253  28.033  33.807  1.00  0.00     0.010 A 
ATOM     61  C   UNL A   1      45.818  26.559  35.094  1.00  0.00     0.010 A 
ATOM     62  C   UNL A   1      48.372  27.509  34.459  1.00  0.00     0.020 A 
ATOM     63  C   UNL A   1      46.932  26.050  35.766  1.00  0.00     0.020 A 
ATOM     64  C   UNL A   1      48.204  26.522  35.437  1.00  0.00     0.054 A 
BRANCH  64  65
ATOM     65  S   UNL A   1      49.665  25.906  36.317  1.00  0.00     0.124 S 
ATOM     66  O   UNL A   1      49.940  26.995  37.250  1.00  0.00    -0.237 OA
ATOM     67  O   UNL A   1      49.177  24.668  36.920  1.00  0.00    -0.237 OA
ATOM     68  O   UNL A   1      50.656  25.726  35.258  1.00  0.00    -0.744 OA
ENDBRANCH  64  65
ENDBRANCH  38  59
ENDBRANCH  12  13
ENDBRANCH   5   7
ENDBRANCH   2   3
ENDBRANCH   1   2
BRANCH   1  69
ATOM     69  C   UNL A   1      31.686  28.260  27.591  1.00  0.00     0.117 C 
BRANCH  69  70
ATOM     70  N   UNL A   1      31.617  26.865  27.249  1.00  0.00    -0.356 N 
ATOM     71  C   UNL A   1      32.259  26.248  26.220  1.00  0.00     0.224 C 
ATOM     72  H   UNL A   1      31.047  26.299  27.819  1.00  0.00     0.163 HD
ATOM     73  O   UNL A   1      32.663  25.105  26.474  1.00  0.00    -0.275 OA
BRANCH  71  74
ATOM     74  C   UNL A   1      32.431  26.779  24.765  1.00  0.00     0.094 C 
ATOM     75  C   UNL A   1      33.709  26.817  23.832  1.00  0.00     0.002 C 
ATOM     76  C   UNL A   1      31.139  26.911  23.915  1.00  0.00     0.094 C 
ATOM     77  C   UNL A   1      33.610  26.138  22.427  1.00  0.00     0.005 C 
ATOM     78  C   UNL A   1      33.841  28.305  23.396  1.00  0.00     0.005 C 
ATOM     79  C   UNL A   1      31.537  27.516  22.530  1.00  0.00     0.002 C 
ATOM     80  C   UNL A   1      32.302  26.484  21.707  1.00  0.00     0.005 C 
ATOM     81  C   UNL A   1      32.509  28.732  22.722  1.00  0.00     0.005 C 
BRANCH  76  82
ATOM     82  C   UNL A   1      29.951  25.874  23.868  1.00  0.00     0.228 C 
ATOM     83  O   UNL A   1      28.802  26.355  23.824  1.00  0.00    -0.274 OA
ATOM     84  N   UNL A   1      29.969  24.510  23.716  1.00  0.00    -0.326 N 
ATOM     85  H   UNL A   1      29.095  24.149  23.440  1.00  0.00     0.169 HD
BRANCH  84  86
ATOM     86  C   UNL A   1      30.940  23.508  23.859  1.00  0.00     0.041 A 
ATOM     87  C   UNL A   1      31.892  23.180  22.893  1.00  0.00     0.027 A 
ATOM     88  C   UNL A   1      30.976  22.779  25.003  1.00  0.00     0.027 A 
ATOM     89  C   UNL A   1      32.930  22.244  23.188  1.00  0.00     0.016 A 
ATOM     90  C   UNL A   1      31.963  21.852  25.306  1.00  0.00     0.016 A 
ATOM     91  C   UNL A   1      32.991  21.595  24.432  1.00  0.00     0.040 A 
BRANCH  91  92
ATOM     92  C   UNL A   1      34.207  20.898  24.973  1.00  0.00     0.253 C 
ATOM     93  O   UNL A   1      34.287  19.681  24.828  1.00  0.00    -0.269 OA
ATOM     94  N   UNL A   1      35.304  21.683  25.333  1.00  0.00    -0.339 N 
ATOM     95  C   UNL A   1      35.367  22.778  26.288  1.00  0.00     0.120 C 
ATOM     96  C   UNL A   1      36.604  21.482  24.719  1.00  0.00     0.120 C 
ATOM     97  C   UNL A   1      36.469  23.674  25.752  1.00  0.00     0.023 C 
ATOM     98  C   UNL A   1      37.460  22.670  25.172  1.00  0.00     0.023 C 
ENDBRANCH  91  92
ENDBRANCH  84  86
ENDBRANCH  76  82
ENDBRANCH  71  74
ENDBRANCH  69  70
ENDBRANCH   1  69
TORSDOF 16
ENDMDL
