MODEL 1
REMARK VINA RESULT:     -10.9      0.000      0.000
REMARK SMILES Cc1cccc(Nc2nc(C)c(CCO)c(OCC(=O)NCCCNC(=O)c3ccc(-c4c5nc(c(-c6ccc(S(=O)(=O)[O-])cc6)c6ccc([nH]6)c(-c6ccc(S(=O)(=O)[O-])cc6)c6nc(c(-c7ccc(S(=O)(=O)[O-])cc7)c7ccc4[nH]7)C=C6)C=C5)cc3)n2)c1
REMARK SMILES IDX 22 1 21 2 19 3 20 4 18 6 17 7 16 8 8 9 9 10 88 11 10 12
REMARK SMILES IDX 11 13 12 14 7 15 6 17 1 18 2 19 3 20 89 21 4 22 5 23 13 24
REMARK SMILES IDX 14 25 15 26 23 28 24 29 25 30 26 31 27 33 28 34 29 35 87 36
REMARK SMILES IDX 30 37 86 38 31 39 32 40 33 41 80 42 34 43 85 44 79 45 81 46
REMARK SMILES IDX 35 47 84 48 78 49 77 50 36 52 66 53 47 54 65 55 48 56 51 57
REMARK SMILES IDX 64 58 82 59 49 60 50 61 63 63 83 64 52 65 37 66 38 67 46 68
REMARK SMILES IDX 39 69 45 70 40 71 41 72 42 73 43 74 44 75 67 76 68 77 76 78
REMARK SMILES IDX 69 79 75 80 70 81 71 82 72 83 73 84 74 85 53 86 54 87 62 88
REMARK SMILES IDX 55 89 61 90 56 91 57 92 58 93 59 94 60 95
REMARK H PARENT 21 5 7 16 15 27 25 32 81 51 51 62
REMARK Flexibility Score: inf
ROOT
ATOM      1  C   UNL A   1      32.175  30.648  26.342  1.00  0.00     0.117 C 
ENDROOT
BRANCH   1   2
ATOM      2  N   UNL A   1      33.446  30.362  27.001  1.00  0.00    -0.353 N 
ATOM      3  C   UNL A   1      34.326  29.317  27.015  1.00  0.00     0.258 C 
ATOM      4  O   UNL A   1      35.488  29.513  27.397  1.00  0.00    -0.271 OA
ATOM      5  H   UNL A   1      33.741  31.105  27.576  1.00  0.00     0.163 HD
BRANCH   3   6
ATOM      6  C   UNL A   1      33.959  27.925  26.495  1.00  0.00     0.331 C 
BRANCH   6   7
ATOM      7  O   UNL A   1      33.885  27.599  25.124  1.00  0.00    -0.467 OA
BRANCH   7   8
ATOM      8  C   UNL A   1      32.776  27.115  24.506  1.00  0.00     0.222 A 
ATOM      9  C   UNL A   1      31.149  27.856  23.039  1.00  0.00     0.230 A 
ATOM     10  N   UNL A   1      30.566  26.661  22.986  1.00  0.00    -0.218 NA
ATOM     11  N   UNL A   1      32.219  28.112  23.792  1.00  0.00    -0.177 NA
ATOM     12  C   UNL A   1      31.173  25.637  23.625  1.00  0.00     0.050 A 
ATOM     13  C   UNL A   1      30.512  24.315  23.350  1.00  0.00     0.067 C 
ATOM     14  C   UNL A   1      32.363  25.793  24.351  1.00  0.00     0.038 A 
BRANCH   9  15
ATOM     15  N   UNL A   1      30.666  28.798  22.129  1.00  0.00    -0.324 N 
ATOM     16  H   UNL A   1      30.947  28.675  21.194  1.00  0.00     0.170 HD
BRANCH  15  17
ATOM     17  C   UNL A   1      29.828  29.899  22.378  1.00  0.00     0.041 A 
ATOM     18  C   UNL A   1      27.777  32.414  20.350  1.00  0.00     0.044 C 
ATOM     19  C   UNL A   1      28.407  31.693  21.504  1.00  0.00    -0.049 A 
ATOM     20  C   UNL A   1      28.173  32.141  22.807  1.00  0.00     0.003 A 
ATOM     21  C   UNL A   1      29.226  30.568  21.301  1.00  0.00     0.029 A 
ATOM     22  C   UNL A   1      28.733  31.469  23.889  1.00  0.00     0.002 A 
ATOM     23  C   UNL A   1      29.540  30.352  23.672  1.00  0.00     0.026 A 
ENDBRANCH  15  17
ENDBRANCH   9  15
BRANCH  14  24
ATOM     24  C   UNL A   1      33.154  24.594  24.808  1.00  0.00     0.071 C 
BRANCH  24  25
ATOM     25  C   UNL A   1      34.076  23.956  23.754  1.00  0.00     0.161 C 
BRANCH  25  26
ATOM     26  O   UNL A   1      34.287  24.735  22.585  1.00  0.00    -0.396 OA
ATOM     27  H   UNL A   1      35.231  24.728  22.358  1.00  0.00     0.210 HD
ENDBRANCH  25  26
ENDBRANCH  24  25
ENDBRANCH  14  24
ENDBRANCH   7   8
ENDBRANCH   6   7
ENDBRANCH   3   6
ENDBRANCH   1   2
BRANCH   1  28
ATOM     28  C   UNL A   1      31.312  31.885  26.847  1.00  0.00     0.042 C 
BRANCH  28  29
ATOM     29  C   UNL A   1      31.788  33.355  26.505  1.00  0.00     0.118 C 
BRANCH  29  30
ATOM     30  N   UNL A   1      32.651  34.164  27.502  1.00  0.00    -0.352 N 
ATOM     31  C   UNL A   1      33.954  34.178  28.078  1.00  0.00     0.251 C 
ATOM     32  H   UNL A   1      32.126  34.919  27.855  1.00  0.00     0.163 HD
ATOM     33  O   UNL A   1      34.489  35.301  28.067  1.00  0.00    -0.269 OA
BRANCH  31  34
ATOM     34  C   UNL A   1      34.824  33.092  28.730  1.00  0.00     0.039 A 
ATOM     35  C   UNL A   1      34.332  32.340  29.836  1.00  0.00     0.014 A 
ATOM     36  C   UNL A   1      36.132  32.797  28.368  1.00  0.00     0.014 A 
ATOM     37  C   UNL A   1      35.229  31.739  30.782  1.00  0.00     0.010 A 
ATOM     38  C   UNL A   1      37.025  32.206  29.305  1.00  0.00     0.010 A 
ATOM     39  C   UNL A   1      36.616  31.838  30.594  1.00  0.00    -0.014 A 
BRANCH  39  40
ATOM     40  C   UNL A   1      37.619  31.789  31.713  1.00  0.00     0.031 A 
ATOM     41  C   UNL A   1      37.809  32.884  32.655  1.00  0.00     0.074 A 
ATOM     42  C   UNL A   1      38.363  30.710  32.074  1.00  0.00     0.049 A 
ATOM     43  N   UNL A   1      38.946  33.445  32.914  1.00  0.00    -0.248 NA
ATOM     44  C   UNL A   1      36.704  33.302  33.501  1.00  0.00     0.031 C 
ATOM     45  C   UNL A   1      39.287  30.443  33.184  1.00  0.00     0.029 A 
ATOM     46  N   UNL A   1      38.404  29.500  31.433  1.00  0.00    -0.354 N 
ATOM     47  C   UNL A   1      38.780  34.017  34.156  1.00  0.00     0.074 A 
ATOM     48  C   UNL A   1      37.344  34.086  34.371  1.00  0.00     0.031 C 
ATOM     49  C   UNL A   1      40.025  29.344  32.904  1.00  0.00     0.029 A 
ATOM     50  C   UNL A   1      39.635  28.866  31.593  1.00  0.00     0.049 A 
ATOM     51  H   UNL A   1      37.653  29.124  30.918  1.00  0.00     0.167 HD
ATOM     52  C   UNL A   1      39.794  34.073  35.073  1.00  0.00     0.031 A 
ATOM     53  C   UNL A   1      40.397  28.617  30.481  1.00  0.00     0.031 A 
ATOM     54  C   UNL A   1      40.942  33.225  34.712  1.00  0.00     0.049 A 
ATOM     55  C   UNL A   1      41.563  29.578  30.439  1.00  0.00     0.074 A 
ATOM     56  C   UNL A   1      41.482  32.083  35.293  1.00  0.00     0.029 A 
ATOM     57  N   UNL A   1      41.529  33.314  33.454  1.00  0.00    -0.354 N 
ATOM     58  N   UNL A   1      41.758  30.466  31.372  1.00  0.00    -0.248 NA
ATOM     59  C   UNL A   1      42.591  29.666  29.407  1.00  0.00     0.031 C 
ATOM     60  C   UNL A   1      42.382  31.483  34.370  1.00  0.00     0.029 A 
ATOM     61  C   UNL A   1      42.412  32.270  33.233  1.00  0.00     0.049 A 
ATOM     62  H   UNL A   1      41.341  34.028  32.803  1.00  0.00     0.167 HD
ATOM     63  C   UNL A   1      42.856  31.228  31.121  1.00  0.00     0.074 A 
ATOM     64  C   UNL A   1      43.357  30.679  29.871  1.00  0.00     0.031 C 
ATOM     65  C   UNL A   1      43.204  32.218  32.000  1.00  0.00     0.031 A 
BRANCH  52  66
ATOM     66  C   UNL A   1      39.579  34.642  36.467  1.00  0.00    -0.014 A 
ATOM     67  C   UNL A   1      39.893  35.980  36.772  1.00  0.00     0.010 A 
ATOM     68  C   UNL A   1      39.003  33.892  37.516  1.00  0.00     0.010 A 
ATOM     69  C   UNL A   1      39.736  36.508  38.065  1.00  0.00     0.020 A 
ATOM     70  C   UNL A   1      38.892  34.384  38.824  1.00  0.00     0.020 A 
ATOM     71  C   UNL A   1      39.254  35.697  39.090  1.00  0.00     0.054 A 
BRANCH  71  72
ATOM     72  S   UNL A   1      39.044  36.393  40.750  1.00  0.00     0.124 S 
ATOM     73  O   UNL A   1      40.322  36.089  41.389  1.00  0.00    -0.237 OA
ATOM     74  O   UNL A   1      38.802  37.804  40.466  1.00  0.00    -0.237 OA
ATOM     75  O   UNL A   1      37.897  35.665  41.290  1.00  0.00    -0.744 OA
ENDBRANCH  71  72
ENDBRANCH  52  66
BRANCH  53  76
ATOM     76  C   UNL A   1      39.597  28.027  29.301  1.00  0.00    -0.014 A 
ATOM     77  C   UNL A   1      39.324  28.995  28.296  1.00  0.00     0.010 A 
ATOM     78  C   UNL A   1      40.077  26.807  28.827  1.00  0.00     0.010 A 
ATOM     79  C   UNL A   1      40.127  29.061  27.142  1.00  0.00     0.020 A 
ATOM     80  C   UNL A   1      40.887  26.888  27.675  1.00  0.00     0.020 A 
ATOM     81  C   UNL A   1      41.066  28.069  26.960  1.00  0.00     0.054 A 
BRANCH  81  82
ATOM     82  S   UNL A   1      42.710  28.473  26.103  1.00  0.00     0.124 S 
ATOM     83  O   UNL A   1      43.630  27.653  26.863  1.00  0.00    -0.237 OA
ATOM     84  O   UNL A   1      42.529  28.014  24.727  1.00  0.00    -0.237 OA
ATOM     85  O   UNL A   1      42.911  29.893  26.252  1.00  0.00    -0.744 OA
ENDBRANCH  81  82
ENDBRANCH  53  76
BRANCH  65  86
ATOM     86  C   UNL A   1      44.335  33.220  31.890  1.00  0.00    -0.014 A 
ATOM     87  C   UNL A   1      44.485  34.176  30.882  1.00  0.00     0.010 A 
ATOM     88  C   UNL A   1      45.324  33.220  32.911  1.00  0.00     0.010 A 
ATOM     89  C   UNL A   1      45.557  35.086  30.899  1.00  0.00     0.020 A 
ATOM     90  C   UNL A   1      46.372  34.136  32.960  1.00  0.00     0.020 A 
ATOM     91  C   UNL A   1      46.487  35.064  31.941  1.00  0.00     0.054 A 
BRANCH  91  92
ATOM     92  S   UNL A   1      47.825  36.276  31.963  1.00  0.00     0.124 S 
ATOM     93  O   UNL A   1      47.246  37.352  32.763  1.00  0.00    -0.237 OA
ATOM     94  O   UNL A   1      48.910  35.534  32.601  1.00  0.00    -0.237 OA
ATOM     95  O   UNL A   1      48.039  36.592  30.554  1.00  0.00    -0.744 OA
ENDBRANCH  91  92
ENDBRANCH  65  86
ENDBRANCH  39  40
ENDBRANCH  31  34
ENDBRANCH  29  30
ENDBRANCH  28  29
ENDBRANCH   1  28
TORSDOF 20
ENDMDL
MODEL 2
REMARK VINA RESULT:     -10.9      2.913      5.441
REMARK SMILES Cc1cccc(Nc2nc(C)c(CCO)c(OCC(=O)NCCCNC(=O)c3ccc(-c4c5nc(c(-c6ccc(S(=O)(=O)[O-])cc6)c6ccc([nH]6)c(-c6ccc(S(=O)(=O)[O-])cc6)c6nc(c(-c7ccc(S(=O)(=O)[O-])cc7)c7ccc4[nH]7)C=C6)C=C5)cc3)n2)c1
REMARK SMILES IDX 22 1 21 2 19 3 20 4 18 6 17 7 16 8 8 9 9 10 88 11 10 12
REMARK SMILES IDX 11 13 12 14 7 15 6 17 1 18 2 19 3 20 89 21 4 22 5 23 13 24
REMARK SMILES IDX 14 25 15 26 23 28 24 29 25 30 26 31 27 33 28 34 29 35 87 36
REMARK SMILES IDX 30 37 86 38 31 39 32 40 33 41 80 42 34 43 85 44 79 45 81 46
REMARK SMILES IDX 35 47 84 48 78 49 77 50 36 52 66 53 47 54 65 55 48 56 51 57
REMARK SMILES IDX 64 58 82 59 49 60 50 61 63 63 83 64 52 65 37 66 38 67 46 68
REMARK SMILES IDX 39 69 45 70 40 71 41 72 42 73 43 74 44 75 67 76 68 77 76 78
REMARK SMILES IDX 69 79 75 80 70 81 71 82 72 83 73 84 74 85 53 86 54 87 62 88
REMARK SMILES IDX 55 89 61 90 56 91 57 92 58 93 59 94 60 95
REMARK H PARENT 21 5 7 16 15 27 25 32 81 51 51 62
REMARK Flexibility Score: inf
ROOT
ATOM      1  C   UNL A   1      33.046  26.801  24.678  1.00  0.00     0.117 C 
ENDROOT
BRANCH   1   2
ATOM      2  N   UNL A   1      32.095  26.152  23.780  1.00  0.00    -0.353 N 
ATOM      3  C   UNL A   1      32.155  25.154  22.850  1.00  0.00     0.258 C 
ATOM      4  O   UNL A   1      31.108  24.589  22.503  1.00  0.00    -0.271 OA
ATOM      5  H   UNL A   1      31.188  26.527  23.865  1.00  0.00     0.163 HD
BRANCH   3   6
ATOM      6  C   UNL A   1      33.479  24.640  22.277  1.00  0.00     0.331 C 
BRANCH   6   7
ATOM      7  O   UNL A   1      34.154  23.504  22.772  1.00  0.00    -0.467 OA
BRANCH   7   8
ATOM      8  C   UNL A   1      33.855  22.880  23.942  1.00  0.00     0.222 A 
ATOM      9  C   UNL A   1      32.883  20.905  24.652  1.00  0.00     0.230 A 
ATOM     10  N   UNL A   1      33.112  21.182  25.933  1.00  0.00    -0.218 NA
ATOM     11  N   UNL A   1      33.217  21.729  23.658  1.00  0.00    -0.177 NA
ATOM     12  C   UNL A   1      33.834  22.289  26.218  1.00  0.00     0.050 A 
ATOM     13  C   UNL A   1      34.165  22.398  27.680  1.00  0.00     0.067 C 
ATOM     14  C   UNL A   1      34.320  23.154  25.227  1.00  0.00     0.038 A 
BRANCH   9  15
ATOM     15  N   UNL A   1      32.411  19.617  24.393  1.00  0.00    -0.324 N 
ATOM     16  H   UNL A   1      31.512  19.561  23.997  1.00  0.00     0.170 HD
BRANCH  15  17
ATOM     17  C   UNL A   1      33.057  18.391  24.626  1.00  0.00     0.041 A 
ATOM     18  C   UNL A   1      32.155  14.925  25.975  1.00  0.00     0.044 C 
ATOM     19  C   UNL A   1      32.938  16.074  25.415  1.00  0.00    -0.049 A 
ATOM     20  C   UNL A   1      34.303  15.918  25.158  1.00  0.00     0.003 A 
ATOM     21  C   UNL A   1      32.325  17.308  25.138  1.00  0.00     0.029 A 
ATOM     22  C   UNL A   1      35.038  16.969  24.619  1.00  0.00     0.002 A 
ATOM     23  C   UNL A   1      34.414  18.186  24.344  1.00  0.00     0.026 A 
ENDBRANCH  15  17
ENDBRANCH   9  15
BRANCH  14  24
ATOM     24  C   UNL A   1      35.346  24.209  25.555  1.00  0.00     0.071 C 
BRANCH  24  25
ATOM     25  C   UNL A   1      36.816  23.790  25.385  1.00  0.00     0.161 C 
BRANCH  25  26
ATOM     26  O   UNL A   1      37.533  23.591  26.596  1.00  0.00    -0.396 OA
ATOM     27  H   UNL A   1      37.721  22.646  26.708  1.00  0.00     0.210 HD
ENDBRANCH  25  26
ENDBRANCH  24  25
ENDBRANCH  14  24
ENDBRANCH   7   8
ENDBRANCH   6   7
ENDBRANCH   3   6
ENDBRANCH   1   2
BRANCH   1  28
ATOM     28  C   UNL A   1      33.136  28.389  24.680  1.00  0.00     0.042 C 
BRANCH  28  29
ATOM     29  C   UNL A   1      33.868  29.123  25.876  1.00  0.00     0.118 C 
BRANCH  29  30
ATOM     30  N   UNL A   1      33.121  30.154  26.754  1.00  0.00    -0.352 N 
ATOM     31  C   UNL A   1      33.318  31.416  27.386  1.00  0.00     0.251 C 
ATOM     32  H   UNL A   1      32.209  29.833  26.937  1.00  0.00     0.163 HD
ATOM     33  O   UNL A   1      32.382  32.215  27.201  1.00  0.00    -0.269 OA
BRANCH  31  34
ATOM     34  C   UNL A   1      34.441  31.984  28.269  1.00  0.00     0.039 A 
ATOM     35  C   UNL A   1      35.807  31.716  27.961  1.00  0.00     0.014 A 
ATOM     36  C   UNL A   1      34.244  32.720  29.429  1.00  0.00     0.014 A 
ATOM     37  C   UNL A   1      36.816  31.745  28.982  1.00  0.00     0.010 A 
ATOM     38  C   UNL A   1      35.240  32.747  30.445  1.00  0.00     0.010 A 
ATOM     39  C   UNL A   1      36.474  32.098  30.296  1.00  0.00    -0.014 A 
BRANCH  39  40
ATOM     40  C   UNL A   1      37.228  31.634  31.512  1.00  0.00     0.031 A 
ATOM     41  C   UNL A   1      37.445  32.478  32.679  1.00  0.00     0.074 A 
ATOM     42  C   UNL A   1      37.675  30.371  31.742  1.00  0.00     0.049 A 
ATOM     43  N   UNL A   1      38.600  32.720  33.209  1.00  0.00    -0.248 NA
ATOM     44  C   UNL A   1      36.303  32.976  33.427  1.00  0.00     0.031 C 
ATOM     45  C   UNL A   1      38.311  29.717  32.892  1.00  0.00     0.029 A 
ATOM     46  N   UNL A   1      37.603  29.313  30.875  1.00  0.00    -0.354 N 
ATOM     47  C   UNL A   1      38.320  33.088  34.507  1.00  0.00     0.074 A 
ATOM     48  C   UNL A   1      36.909  33.435  34.524  1.00  0.00     0.031 C 
ATOM     49  C   UNL A   1      38.867  28.547  32.498  1.00  0.00     0.029 A 
ATOM     50  C   UNL A   1      38.642  28.404  31.073  1.00  0.00     0.049 A 
ATOM     51  H   UNL A   1      36.902  29.208  30.191  1.00  0.00     0.167 HD
ATOM     52  C   UNL A   1      39.141  32.758  35.551  1.00  0.00     0.031 A 
ATOM     53  C   UNL A   1      39.534  28.191  30.055  1.00  0.00     0.031 A 
ATOM     54  C   UNL A   1      40.153  31.752  35.189  1.00  0.00     0.049 A 
ATOM     55  C   UNL A   1      40.848  28.862  30.382  1.00  0.00     0.074 A 
ATOM     56  C   UNL A   1      40.351  30.436  35.590  1.00  0.00     0.029 A 
ATOM     57  N   UNL A   1      40.968  31.928  34.075  1.00  0.00    -0.354 N 
ATOM     58  N   UNL A   1      41.032  29.508  31.498  1.00  0.00    -0.248 NA
ATOM     59  C   UNL A   1      42.045  28.899  29.550  1.00  0.00     0.031 C 
ATOM     60  C   UNL A   1      41.276  29.822  34.701  1.00  0.00     0.029 A 
ATOM     61  C   UNL A   1      41.663  30.769  33.769  1.00  0.00     0.049 A 
ATOM     62  H   UNL A   1      41.041  32.768  33.567  1.00  0.00     0.167 HD
ATOM     63  C   UNL A   1      42.281  30.039  31.572  1.00  0.00     0.074 A 
ATOM     64  C   UNL A   1      42.891  29.620  30.320  1.00  0.00     0.031 C 
ATOM     65  C   UNL A   1      42.644  30.759  32.679  1.00  0.00     0.031 A 
BRANCH  52  66
ATOM     66  C   UNL A   1      38.784  33.108  36.988  1.00  0.00    -0.014 A 
ATOM     67  C   UNL A   1      39.220  34.308  37.582  1.00  0.00     0.010 A 
ATOM     68  C   UNL A   1      37.956  32.291  37.788  1.00  0.00     0.010 A 
ATOM     69  C   UNL A   1      38.931  34.625  38.919  1.00  0.00     0.020 A 
ATOM     70  C   UNL A   1      37.705  32.564  39.140  1.00  0.00     0.020 A 
ATOM     71  C   UNL A   1      38.190  33.739  39.699  1.00  0.00     0.054 A 
BRANCH  71  72
ATOM     72  S   UNL A   1      37.814  34.167  41.418  1.00  0.00     0.124 S 
ATOM     73  O   UNL A   1      37.835  35.627  41.397  1.00  0.00    -0.237 OA
ATOM     74  O   UNL A   1      36.502  33.558  41.610  1.00  0.00    -0.237 OA
ATOM     75  O   UNL A   1      38.900  33.547  42.176  1.00  0.00    -0.744 OA
ENDBRANCH  71  72
ENDBRANCH  52  66
BRANCH  53  76
ATOM     76  C   UNL A   1      38.867  28.007  28.675  1.00  0.00    -0.014 A 
ATOM     77  C   UNL A   1      38.966  29.174  27.869  1.00  0.00     0.010 A 
ATOM     78  C   UNL A   1      39.192  26.817  28.027  1.00  0.00     0.010 A 
ATOM     79  C   UNL A   1      39.963  29.268  26.881  1.00  0.00     0.020 A 
ATOM     80  C   UNL A   1      40.198  26.923  27.046  1.00  0.00     0.020 A 
ATOM     81  C   UNL A   1      40.720  28.144  26.629  1.00  0.00     0.054 A 
BRANCH  81  82
ATOM     82  S   UNL A   1      42.539  28.327  26.120  1.00  0.00     0.124 S 
ATOM     83  O   UNL A   1      42.461  28.045  24.702  1.00  0.00    -0.237 OA
ATOM     84  O   UNL A   1      42.864  29.722  26.414  1.00  0.00    -0.237 OA
ATOM     85  O   UNL A   1      43.278  27.353  26.884  1.00  0.00    -0.744 OA
ENDBRANCH  81  82
ENDBRANCH  53  76
BRANCH  65  86
ATOM     86  C   UNL A   1      43.943  31.489  32.944  1.00  0.00    -0.014 A 
ATOM     87  C   UNL A   1      45.083  30.941  33.539  1.00  0.00     0.010 A 
ATOM     88  C   UNL A   1      44.040  32.847  32.532  1.00  0.00     0.010 A 
ATOM     89  C   UNL A   1      46.253  31.701  33.703  1.00  0.00     0.020 A 
ATOM     90  C   UNL A   1      45.203  33.602  32.656  1.00  0.00     0.020 A 
ATOM     91  C   UNL A   1      46.307  33.023  33.254  1.00  0.00     0.054 A 
BRANCH  91  92
ATOM     92  S   UNL A   1      47.840  33.961  33.432  1.00  0.00     0.124 S 
ATOM     93  O   UNL A   1      48.701  33.325  32.439  1.00  0.00    -0.237 OA
ATOM     94  O   UNL A   1      47.413  35.322  33.115  1.00  0.00    -0.237 OA
ATOM     95  O   UNL A   1      48.226  33.744  34.824  1.00  0.00    -0.744 OA
ENDBRANCH  91  92
ENDBRANCH  65  86
ENDBRANCH  39  40
ENDBRANCH  31  34
ENDBRANCH  29  30
ENDBRANCH  28  29
ENDBRANCH   1  28
TORSDOF 20
ENDMDL
MODEL 3
REMARK VINA RESULT:     -10.9      2.258      3.559
REMARK SMILES Cc1cccc(Nc2nc(C)c(CCO)c(OCC(=O)NCCCNC(=O)c3ccc(-c4c5nc(c(-c6ccc(S(=O)(=O)[O-])cc6)c6ccc([nH]6)c(-c6ccc(S(=O)(=O)[O-])cc6)c6nc(c(-c7ccc(S(=O)(=O)[O-])cc7)c7ccc4[nH]7)C=C6)C=C5)cc3)n2)c1
REMARK SMILES IDX 22 1 21 2 19 3 20 4 18 6 17 7 16 8 8 9 9 10 88 11 10 12
REMARK SMILES IDX 11 13 12 14 7 15 6 17 1 18 2 19 3 20 89 21 4 22 5 23 13 24
REMARK SMILES IDX 14 25 15 26 23 28 24 29 25 30 26 31 27 33 28 34 29 35 87 36
REMARK SMILES IDX 30 37 86 38 31 39 32 40 33 41 80 42 34 43 85 44 79 45 81 46
REMARK SMILES IDX 35 47 84 48 78 49 77 50 36 52 66 53 47 54 65 55 48 56 51 57
REMARK SMILES IDX 64 58 82 59 49 60 50 61 63 63 83 64 52 65 37 66 38 67 46 68
REMARK SMILES IDX 39 69 45 70 40 71 41 72 42 73 43 74 44 75 67 76 68 77 76 78
REMARK SMILES IDX 69 79 75 80 70 81 71 82 72 83 73 84 74 85 53 86 54 87 62 88
REMARK SMILES IDX 55 89 61 90 56 91 57 92 58 93 59 94 60 95
REMARK H PARENT 21 5 7 16 15 27 25 32 81 51 51 62
REMARK Flexibility Score: inf
ROOT
ATOM      1  C   UNL A   1      33.173  25.891  26.024  1.00  0.00     0.117 C 
ENDROOT
BRANCH   1   2
ATOM      2  N   UNL A   1      34.352  25.128  25.621  1.00  0.00    -0.353 N 
ATOM      3  C   UNL A   1      34.759  23.829  25.733  1.00  0.00     0.258 C 
ATOM      4  O   UNL A   1      35.653  23.411  24.983  1.00  0.00    -0.271 OA
ATOM      5  H   UNL A   1      35.014  25.687  25.154  1.00  0.00     0.163 HD
BRANCH   3   6
ATOM      6  C   UNL A   1      34.097  22.838  26.694  1.00  0.00     0.331 C 
BRANCH   6   7
ATOM      7  O   UNL A   1      32.878  22.183  26.419  1.00  0.00    -0.467 OA
BRANCH   7   8
ATOM      8  C   UNL A   1      32.425  21.890  25.172  1.00  0.00     0.222 A 
ATOM      9  C   UNL A   1      31.368  22.964  23.417  1.00  0.00     0.230 A 
ATOM     10  N   UNL A   1      31.421  21.883  22.643  1.00  0.00    -0.218 NA
ATOM     11  N   UNL A   1      31.833  22.989  24.667  1.00  0.00    -0.177 NA
ATOM     12  C   UNL A   1      32.096  20.809  23.110  1.00  0.00     0.050 A 
ATOM     13  C   UNL A   1      32.226  19.720  22.081  1.00  0.00     0.067 C 
ATOM     14  C   UNL A   1      32.710  20.786  24.371  1.00  0.00     0.038 A 
BRANCH   9  15
ATOM     15  N   UNL A   1      30.938  24.132  22.784  1.00  0.00    -0.324 N 
ATOM     16  H   UNL A   1      30.056  24.086  22.351  1.00  0.00     0.170 HD
BRANCH  15  17
ATOM     17  C   UNL A   1      31.605  25.365  22.688  1.00  0.00     0.041 A 
ATOM     18  C   UNL A   1      30.813  29.065  23.262  1.00  0.00     0.044 C 
ATOM     19  C   UNL A   1      31.546  27.805  22.914  1.00  0.00    -0.049 A 
ATOM     20  C   UNL A   1      32.871  27.876  22.474  1.00  0.00     0.003 A 
ATOM     21  C   UNL A   1      30.927  26.547  23.026  1.00  0.00     0.029 A 
ATOM     22  C   UNL A   1      33.570  26.713  22.168  1.00  0.00     0.002 A 
ATOM     23  C   UNL A   1      32.944  25.472  22.289  1.00  0.00     0.026 A 
ENDBRANCH  15  17
ENDBRANCH   9  15
BRANCH  14  24
ATOM     24  C   UNL A   1      33.680  19.693  24.740  1.00  0.00     0.071 C 
BRANCH  24  25
ATOM     25  C   UNL A   1      33.059  18.416  25.331  1.00  0.00     0.161 C 
BRANCH  25  26
ATOM     26  O   UNL A   1      32.804  18.458  26.728  1.00  0.00    -0.396 OA
ATOM     27  H   UNL A   1      32.557  19.361  26.984  1.00  0.00     0.210 HD
ENDBRANCH  25  26
ENDBRANCH  24  25
ENDBRANCH  14  24
ENDBRANCH   7   8
ENDBRANCH   6   7
ENDBRANCH   3   6
ENDBRANCH   1   2
BRANCH   1  28
ATOM     28  C   UNL A   1      33.272  27.477  26.083  1.00  0.00     0.042 C 
BRANCH  28  29
ATOM     29  C   UNL A   1      32.895  28.228  27.424  1.00  0.00     0.118 C 
BRANCH  29  30
ATOM     30  N   UNL A   1      32.593  29.746  27.430  1.00  0.00    -0.352 N 
ATOM     31  C   UNL A   1      33.261  31.004  27.434  1.00  0.00     0.251 C 
ATOM     32  H   UNL A   1      31.619  29.889  27.431  1.00  0.00     0.163 HD
ATOM     33  O   UNL A   1      32.800  31.812  26.608  1.00  0.00    -0.269 OA
BRANCH  31  34
ATOM     34  C   UNL A   1      34.419  31.576  28.267  1.00  0.00     0.039 A 
ATOM     35  C   UNL A   1      35.770  31.263  27.936  1.00  0.00     0.014 A 
ATOM     36  C   UNL A   1      34.269  32.358  29.405  1.00  0.00     0.014 A 
ATOM     37  C   UNL A   1      36.805  31.304  28.930  1.00  0.00     0.010 A 
ATOM     38  C   UNL A   1      35.292  32.397  30.393  1.00  0.00     0.010 A 
ATOM     39  C   UNL A   1      36.505  31.713  30.238  1.00  0.00    -0.014 A 
BRANCH  39  40
ATOM     40  C   UNL A   1      37.279  31.275  31.452  1.00  0.00     0.031 A 
ATOM     41  C   UNL A   1      37.461  32.121  32.623  1.00  0.00     0.074 A 
ATOM     42  C   UNL A   1      37.778  30.030  31.675  1.00  0.00     0.049 A 
ATOM     43  N   UNL A   1      38.606  32.408  33.153  1.00  0.00    -0.248 NA
ATOM     44  C   UNL A   1      36.301  32.568  33.373  1.00  0.00     0.031 C 
ATOM     45  C   UNL A   1      38.441  29.397  32.822  1.00  0.00     0.029 A 
ATOM     46  N   UNL A   1      37.749  28.974  30.803  1.00  0.00    -0.354 N 
ATOM     47  C   UNL A   1      38.313  32.758  34.453  1.00  0.00     0.074 A 
ATOM     48  C   UNL A   1      36.888  33.046  34.472  1.00  0.00     0.031 C 
ATOM     49  C   UNL A   1      39.045  28.254  32.422  1.00  0.00     0.029 A 
ATOM     50  C   UNL A   1      38.824  28.108  30.997  1.00  0.00     0.049 A 
ATOM     51  H   UNL A   1      37.052  28.843  30.119  1.00  0.00     0.167 HD
ATOM     52  C   UNL A   1      39.147  32.457  35.495  1.00  0.00     0.031 A 
ATOM     53  C   UNL A   1      39.724  27.937  29.977  1.00  0.00     0.031 A 
ATOM     54  C   UNL A   1      40.200  31.496  35.127  1.00  0.00     0.049 A 
ATOM     55  C   UNL A   1      41.009  28.660  30.307  1.00  0.00     0.074 A 
ATOM     56  C   UNL A   1      40.452  30.187  35.522  1.00  0.00     0.029 A 
ATOM     57  N   UNL A   1      41.006  31.711  34.013  1.00  0.00    -0.354 N 
ATOM     58  N   UNL A   1      41.168  29.307  31.425  1.00  0.00    -0.248 NA
ATOM     59  C   UNL A   1      42.203  28.751  29.473  1.00  0.00     0.031 C 
ATOM     60  C   UNL A   1      41.401  29.617  34.629  1.00  0.00     0.029 A 
ATOM     61  C   UNL A   1      41.747  30.583  33.702  1.00  0.00     0.049 A 
ATOM     62  H   UNL A   1      41.043  32.556  33.510  1.00  0.00     0.167 HD
ATOM     63  C   UNL A   1      42.394  29.890  31.501  1.00  0.00     0.074 A 
ATOM     64  C   UNL A   1      43.019  29.502  30.247  1.00  0.00     0.031 C 
ATOM     65  C   UNL A   1      42.727  30.619  32.611  1.00  0.00     0.031 A 
BRANCH  52  66
ATOM     66  C   UNL A   1      38.777  32.785  36.934  1.00  0.00    -0.014 A 
ATOM     67  C   UNL A   1      37.867  31.993  37.658  1.00  0.00     0.010 A 
ATOM     68  C   UNL A   1      39.360  33.857  37.645  1.00  0.00     0.010 A 
ATOM     69  C   UNL A   1      37.487  32.306  38.974  1.00  0.00     0.020 A 
ATOM     70  C   UNL A   1      38.951  34.218  38.936  1.00  0.00     0.020 A 
ATOM     71  C   UNL A   1      38.018  33.433  39.599  1.00  0.00     0.054 A 
BRANCH  71  72
ATOM     72  S   UNL A   1      37.529  33.819  41.300  1.00  0.00     0.124 S 
ATOM     73  O   UNL A   1      36.092  33.558  41.288  1.00  0.00    -0.237 OA
ATOM     74  O   UNL A   1      38.334  32.880  42.075  1.00  0.00    -0.237 OA
ATOM     75  O   UNL A   1      37.897  35.225  41.457  1.00  0.00    -0.744 OA
ENDBRANCH  71  72
ENDBRANCH  52  66
BRANCH  53  76
ATOM     76  C   UNL A   1      39.064  27.732  28.597  1.00  0.00    -0.014 A 
ATOM     77  C   UNL A   1      39.136  28.898  27.787  1.00  0.00     0.010 A 
ATOM     78  C   UNL A   1      39.418  26.548  27.954  1.00  0.00     0.010 A 
ATOM     79  C   UNL A   1      40.133  29.013  26.800  1.00  0.00     0.020 A 
ATOM     80  C   UNL A   1      40.424  26.675  26.974  1.00  0.00     0.020 A 
ATOM     81  C   UNL A   1      40.917  27.906  26.553  1.00  0.00     0.054 A 
BRANCH  81  82
ATOM     82  S   UNL A   1      42.732  28.131  26.046  1.00  0.00     0.124 S 
ATOM     83  O   UNL A   1      42.659  27.867  24.625  1.00  0.00    -0.237 OA
ATOM     84  O   UNL A   1      43.030  29.528  26.360  1.00  0.00    -0.237 OA
ATOM     85  O   UNL A   1      43.490  27.161  26.797  1.00  0.00    -0.744 OA
ENDBRANCH  81  82
ENDBRANCH  53  76
BRANCH  65  86
ATOM     86  C   UNL A   1      43.996  31.401  32.879  1.00  0.00    -0.014 A 
ATOM     87  C   UNL A   1      45.152  30.901  33.483  1.00  0.00     0.010 A 
ATOM     88  C   UNL A   1      44.042  32.759  32.459  1.00  0.00     0.010 A 
ATOM     89  C   UNL A   1      46.291  31.707  33.649  1.00  0.00     0.020 A 
ATOM     90  C   UNL A   1      45.173  33.560  32.585  1.00  0.00     0.020 A 
ATOM     91  C   UNL A   1      46.295  33.027  33.192  1.00  0.00     0.054 A 
BRANCH  91  92
ATOM     92  S   UNL A   1      47.789  34.026  33.374  1.00  0.00     0.124 S 
ATOM     93  O   UNL A   1      47.238  35.338  33.702  1.00  0.00    -0.237 OA
ATOM     94  O   UNL A   1      48.489  33.349  34.462  1.00  0.00    -0.237 OA
ATOM     95  O   UNL A   1      48.438  33.931  32.069  1.00  0.00    -0.744 OA
ENDBRANCH  91  92
ENDBRANCH  65  86
ENDBRANCH  39  40
ENDBRANCH  31  34
ENDBRANCH  29  30
ENDBRANCH  28  29
ENDBRANCH   1  28
TORSDOF 20
ENDMDL
