MODEL 1
REMARK VINA RESULT:     -11.4      0.000      0.000
REMARK SMILES O=C(NCCCNC(=O)c1cccnc1C(=O)Nc1ccc(Cl)cn1)c1ccc(-c2c3nc(c(-c4ccc(S(=O)(=O)[O-])cc4)c4ccc([nH]4)c(-c4ccc(S(=O)(=O)[O-])cc4)c4nc(c(-c5ccc(S(=O)(=O)[O-])cc5)c5ccc2[nH]5)C=C4)C=C3)cc1
REMARK SMILES IDX 4 1 3 2 1 3 2 4 26 6 27 7 85 8 28 9 84 10 29 11 30 12 31 13
REMARK SMILES IDX 78 14 32 15 83 16 77 17 79 18 33 19 82 20 76 21 75 22 34 24
REMARK SMILES IDX 64 25 45 26 63 27 46 28 49 29 62 30 80 31 47 32 48 33 61 35
REMARK SMILES IDX 81 36 50 37 35 38 36 39 44 40 37 41 43 42 38 43 39 44 40 45
REMARK SMILES IDX 41 46 42 47 65 48 66 49 74 50 67 51 73 52 68 53 69 54 70 55
REMARK SMILES IDX 71 56 72 57 51 58 52 59 60 60 53 61 59 62 54 63 55 64 56 65
REMARK SMILES IDX 57 66 58 67 5 68 6 69 7 70 8 71 9 73 10 74 11 75 15 76 12 77
REMARK SMILES IDX 14 78 13 79 16 80 17 81 18 82 19 84 20 85 25 86 21 87 24 88
REMARK SMILES IDX 22 89 23 90
REMARK H PARENT 3 5 79 23 49 34 7 72 18 83
REMARK Flexibility Score: inf
ROOT
ATOM      1  C   UNL A   1      33.700  28.289  26.976  1.00  0.00     0.118 C 
ENDROOT
BRANCH   1   2
ATOM      2  N   UNL A   1      33.498  29.656  27.427  1.00  0.00    -0.352 N 
ATOM      3  O   UNL A   1      33.966  31.601  28.453  1.00  0.00    -0.269 OA
ATOM      4  C   UNL A   1      34.369  30.510  28.054  1.00  0.00     0.251 C 
ATOM      5  H   UNL A   1      32.601  30.024  27.257  1.00  0.00     0.163 HD
BRANCH   4   6
ATOM      6  C   UNL A   1      35.774  30.110  28.273  1.00  0.00     0.039 A 
ATOM      7  C   UNL A   1      36.717  30.208  27.245  1.00  0.00     0.014 A 
ATOM      8  C   UNL A   1      36.155  29.653  29.537  1.00  0.00     0.014 A 
ATOM      9  C   UNL A   1      38.013  29.747  27.452  1.00  0.00     0.010 A 
ATOM     10  C   UNL A   1      37.474  29.254  29.763  1.00  0.00     0.010 A 
ATOM     11  C   UNL A   1      38.410  29.284  28.717  1.00  0.00    -0.014 A 
BRANCH  11  12
ATOM     12  C   UNL A   1      39.833  28.946  28.965  1.00  0.00     0.031 A 
ATOM     13  C   UNL A   1      40.402  27.612  28.573  1.00  0.00     0.074 A 
ATOM     14  C   UNL A   1      40.607  29.864  29.579  1.00  0.00     0.049 A 
ATOM     15  N   UNL A   1      41.616  27.157  28.750  1.00  0.00    -0.248 NA
ATOM     16  C   UNL A   1      39.498  26.661  27.903  1.00  0.00     0.031 C 
ATOM     17  C   UNL A   1      40.153  31.187  30.024  1.00  0.00     0.029 A 
ATOM     18  N   UNL A   1      41.928  29.829  29.939  1.00  0.00    -0.354 N 
ATOM     19  C   UNL A   1      41.621  25.866  28.236  1.00  0.00     0.074 A 
ATOM     20  C   UNL A   1      40.284  25.602  27.747  1.00  0.00     0.031 C 
ATOM     21  C   UNL A   1      41.182  31.840  30.582  1.00  0.00     0.029 A 
ATOM     22  C   UNL A   1      42.349  30.966  30.590  1.00  0.00     0.049 A 
ATOM     23  H   UNL A   1      42.520  29.066  29.751  1.00  0.00     0.167 HD
ATOM     24  C   UNL A   1      42.649  24.985  28.182  1.00  0.00     0.031 A 
ATOM     25  C   UNL A   1      43.530  31.263  31.164  1.00  0.00     0.031 A 
ATOM     26  C   UNL A   1      43.979  25.264  28.663  1.00  0.00     0.049 A 
ATOM     27  C   UNL A   1      44.636  30.249  31.119  1.00  0.00     0.074 A 
ATOM     28  C   UNL A   1      45.105  24.462  28.577  1.00  0.00     0.029 A 
ATOM     29  N   UNL A   1      44.359  26.415  29.331  1.00  0.00    -0.354 N 
ATOM     30  N   UNL A   1      44.644  29.067  30.551  1.00  0.00    -0.248 NA
ATOM     31  C   UNL A   1      45.890  30.605  31.796  1.00  0.00     0.031 C 
ATOM     32  C   UNL A   1      46.149  25.102  29.251  1.00  0.00     0.029 A 
ATOM     33  C   UNL A   1      45.688  26.326  29.709  1.00  0.00     0.049 A 
ATOM     34  H   UNL A   1      43.770  27.185  29.512  1.00  0.00     0.167 HD
ATOM     35  C   UNL A   1      45.905  28.540  30.800  1.00  0.00     0.074 A 
ATOM     36  C   UNL A   1      46.641  29.543  31.541  1.00  0.00     0.031 C 
ATOM     37  C   UNL A   1      46.404  27.328  30.455  1.00  0.00     0.031 A 
BRANCH  24  38
ATOM     38  C   UNL A   1      42.393  23.618  27.604  1.00  0.00    -0.014 A 
ATOM     39  C   UNL A   1      42.676  23.332  26.258  1.00  0.00     0.010 A 
ATOM     40  C   UNL A   1      41.981  22.576  28.455  1.00  0.00     0.010 A 
ATOM     41  C   UNL A   1      42.544  22.027  25.771  1.00  0.00     0.020 A 
ATOM     42  C   UNL A   1      41.866  21.267  27.978  1.00  0.00     0.020 A 
ATOM     43  C   UNL A   1      42.145  21.002  26.636  1.00  0.00     0.054 A 
BRANCH  43  44
ATOM     44  S   UNL A   1      42.050  19.307  25.994  1.00  0.00     0.124 S 
ATOM     45  O   UNL A   1      42.889  19.390  24.799  1.00  0.00    -0.237 OA
ATOM     46  O   UNL A   1      42.602  18.518  27.093  1.00  0.00    -0.237 OA
ATOM     47  O   UNL A   1      40.626  19.108  25.742  1.00  0.00    -0.744 OA
ENDBRANCH  43  44
ENDBRANCH  24  38
BRANCH  25  48
ATOM     48  C   UNL A   1      43.702  32.553  31.884  1.00  0.00    -0.014 A 
ATOM     49  C   UNL A   1      43.404  32.660  33.253  1.00  0.00     0.010 A 
ATOM     50  C   UNL A   1      44.161  33.688  31.190  1.00  0.00     0.010 A 
ATOM     51  C   UNL A   1      43.534  33.888  33.908  1.00  0.00     0.020 A 
ATOM     52  C   UNL A   1      44.323  34.909  31.848  1.00  0.00     0.020 A 
ATOM     53  C   UNL A   1      43.988  35.005  33.200  1.00  0.00     0.054 A 
BRANCH  53  54
ATOM     54  S   UNL A   1      44.170  36.585  34.072  1.00  0.00     0.124 S 
ATOM     55  O   UNL A   1      42.860  37.195  33.868  1.00  0.00    -0.237 OA
ATOM     56  O   UNL A   1      44.465  36.161  35.439  1.00  0.00    -0.237 OA
ATOM     57  O   UNL A   1      45.280  37.232  33.376  1.00  0.00    -0.744 OA
ENDBRANCH  53  54
ENDBRANCH  25  48
BRANCH  37  58
ATOM     58  C   UNL A   1      47.814  27.022  30.875  1.00  0.00    -0.014 A 
ATOM     59  C   UNL A   1      48.071  26.270  32.035  1.00  0.00     0.010 A 
ATOM     60  C   UNL A   1      48.891  27.445  30.076  1.00  0.00     0.010 A 
ATOM     61  C   UNL A   1      49.384  25.966  32.402  1.00  0.00     0.020 A 
ATOM     62  C   UNL A   1      50.204  27.119  30.426  1.00  0.00     0.020 A 
ATOM     63  C   UNL A   1      50.443  26.392  31.593  1.00  0.00     0.054 A 
BRANCH  63  64
ATOM     64  S   UNL A   1      52.134  25.939  32.064  1.00  0.00     0.124 S 
ATOM     65  O   UNL A   1      51.994  24.518  32.373  1.00  0.00    -0.237 OA
ATOM     66  O   UNL A   1      52.897  26.248  30.858  1.00  0.00    -0.237 OA
ATOM     67  O   UNL A   1      52.416  26.801  33.211  1.00  0.00    -0.744 OA
ENDBRANCH  63  64
ENDBRANCH  37  58
ENDBRANCH  11  12
ENDBRANCH   4   6
ENDBRANCH   1   2
BRANCH   1  68
ATOM     68  C   UNL A   1      32.411  27.520  26.725  1.00  0.00     0.042 C 
BRANCH  68  69
ATOM     69  C   UNL A   1      32.575  26.048  26.375  1.00  0.00     0.118 C 
BRANCH  69  70
ATOM     70  N   UNL A   1      31.402  25.227  26.645  1.00  0.00    -0.352 N 
ATOM     71  C   UNL A   1      31.292  23.862  26.711  1.00  0.00     0.253 C 
ATOM     72  H   UNL A   1      30.568  25.725  26.804  1.00  0.00     0.163 HD
ATOM     73  O   UNL A   1      30.306  23.339  27.235  1.00  0.00    -0.269 OA
BRANCH  71  74
ATOM     74  C   UNL A   1      32.400  23.021  26.287  1.00  0.00     0.071 A 
ATOM     75  C   UNL A   1      33.318  22.722  27.313  1.00  0.00     0.018 A 
ATOM     76  C   UNL A   1      32.621  22.519  25.008  1.00  0.00     0.141 A 
ATOM     77  C   UNL A   1      34.457  21.987  27.036  1.00  0.00     0.021 A 
ATOM     78  N   UNL A   1      33.755  21.794  24.743  1.00  0.00    -0.250 NA
ATOM     79  C   UNL A   1      34.636  21.554  25.740  1.00  0.00     0.112 A 
BRANCH  76  80
ATOM     80  C   UNL A   1      31.740  22.629  23.770  1.00  0.00     0.276 C 
ATOM     81  O   UNL A   1      31.781  21.741  22.916  1.00  0.00    -0.267 OA
ATOM     82  N   UNL A   1      30.687  23.504  23.771  1.00  0.00    -0.305 N 
ATOM     83  H   UNL A   1      29.818  23.128  24.039  1.00  0.00     0.171 HD
BRANCH  82  84
ATOM     84  C   UNL A   1      30.682  24.856  23.444  1.00  0.00     0.132 A 
ATOM     85  C   UNL A   1      31.686  25.455  22.693  1.00  0.00     0.049 A 
ATOM     86  N   UNL A   1      29.641  25.542  23.958  1.00  0.00    -0.238 NA
ATOM     87  C   UNL A   1      31.700  26.849  22.594  1.00  0.00     0.026 A 
ATOM     88  C   UNL A   1      29.704  26.893  23.884  1.00  0.00     0.134 A 
ATOM     89  C   UNL A   1      30.716  27.584  23.242  1.00  0.00     0.059 A 
ATOM     90  Cl  UNL A   1      30.773  29.298  23.258  1.00  0.00    -0.083 Cl
ENDBRANCH  82  84
ENDBRANCH  76  80
ENDBRANCH  71  74
ENDBRANCH  69  70
ENDBRANCH  68  69
ENDBRANCH   1  68
TORSDOF 15
ENDMDL
MODEL 2
REMARK VINA RESULT:     -11.4      2.087      3.020
REMARK SMILES O=C(NCCCNC(=O)c1cccnc1C(=O)Nc1ccc(Cl)cn1)c1ccc(-c2c3nc(c(-c4ccc(S(=O)(=O)[O-])cc4)c4ccc([nH]4)c(-c4ccc(S(=O)(=O)[O-])cc4)c4nc(c(-c5ccc(S(=O)(=O)[O-])cc5)c5ccc2[nH]5)C=C4)C=C3)cc1
REMARK SMILES IDX 4 1 3 2 1 3 2 4 26 6 27 7 85 8 28 9 84 10 29 11 30 12 31 13
REMARK SMILES IDX 78 14 32 15 83 16 77 17 79 18 33 19 82 20 76 21 75 22 34 24
REMARK SMILES IDX 64 25 45 26 63 27 46 28 49 29 62 30 80 31 47 32 48 33 61 35
REMARK SMILES IDX 81 36 50 37 35 38 36 39 44 40 37 41 43 42 38 43 39 44 40 45
REMARK SMILES IDX 41 46 42 47 65 48 66 49 74 50 67 51 73 52 68 53 69 54 70 55
REMARK SMILES IDX 71 56 72 57 51 58 52 59 60 60 53 61 59 62 54 63 55 64 56 65
REMARK SMILES IDX 57 66 58 67 5 68 6 69 7 70 8 71 9 73 10 74 11 75 15 76 12 77
REMARK SMILES IDX 14 78 13 79 16 80 17 81 18 82 19 84 20 85 25 86 21 87 24 88
REMARK SMILES IDX 22 89 23 90
REMARK H PARENT 3 5 79 23 49 34 7 72 18 83
REMARK Flexibility Score: inf
ROOT
ATOM      1  C   UNL A   1      33.668  28.276  27.192  1.00  0.00     0.118 C 
ENDROOT
BRANCH   1   2
ATOM      2  N   UNL A   1      33.494  29.671  27.561  1.00  0.00    -0.352 N 
ATOM      3  O   UNL A   1      34.009  31.669  28.455  1.00  0.00    -0.269 OA
ATOM      4  C   UNL A   1      34.389  30.550  28.116  1.00  0.00     0.251 C 
ATOM      5  H   UNL A   1      32.599  30.041  27.388  1.00  0.00     0.163 HD
BRANCH   4   6
ATOM      6  C   UNL A   1      35.793  30.144  28.330  1.00  0.00     0.039 A 
ATOM      7  C   UNL A   1      36.737  30.254  27.304  1.00  0.00     0.014 A 
ATOM      8  C   UNL A   1      36.173  29.668  29.587  1.00  0.00     0.014 A 
ATOM      9  C   UNL A   1      38.032  29.788  27.505  1.00  0.00     0.010 A 
ATOM     10  C   UNL A   1      37.491  29.264  29.808  1.00  0.00     0.010 A 
ATOM     11  C   UNL A   1      38.428  29.306  28.763  1.00  0.00    -0.014 A 
BRANCH  11  12
ATOM     12  C   UNL A   1      39.850  28.962  29.006  1.00  0.00     0.031 A 
ATOM     13  C   UNL A   1      40.412  27.626  28.609  1.00  0.00     0.074 A 
ATOM     14  C   UNL A   1      40.629  29.876  29.621  1.00  0.00     0.049 A 
ATOM     15  N   UNL A   1      41.626  27.167  28.782  1.00  0.00    -0.248 NA
ATOM     16  C   UNL A   1      39.504  26.681  27.940  1.00  0.00     0.031 C 
ATOM     17  C   UNL A   1      40.182  31.199  30.070  1.00  0.00     0.029 A 
ATOM     18  N   UNL A   1      41.951  29.835  29.978  1.00  0.00    -0.354 N 
ATOM     19  C   UNL A   1      41.624  25.877  28.265  1.00  0.00     0.074 A 
ATOM     20  C   UNL A   1      40.285  25.619  27.779  1.00  0.00     0.031 C 
ATOM     21  C   UNL A   1      41.215  31.847  30.627  1.00  0.00     0.029 A 
ATOM     22  C   UNL A   1      42.378  30.968  30.630  1.00  0.00     0.049 A 
ATOM     23  H   UNL A   1      42.540  29.069  29.786  1.00  0.00     0.167 HD
ATOM     24  C   UNL A   1      42.648  24.992  28.206  1.00  0.00     0.031 A 
ATOM     25  C   UNL A   1      43.561  31.259  31.201  1.00  0.00     0.031 A 
ATOM     26  C   UNL A   1      43.980  25.264  28.684  1.00  0.00     0.049 A 
ATOM     27  C   UNL A   1      44.664  30.241  31.152  1.00  0.00     0.074 A 
ATOM     28  C   UNL A   1      45.104  24.458  28.594  1.00  0.00     0.029 A 
ATOM     29  N   UNL A   1      44.366  26.412  29.355  1.00  0.00    -0.354 N 
ATOM     30  N   UNL A   1      44.665  29.060  30.580  1.00  0.00    -0.248 NA
ATOM     31  C   UNL A   1      45.920  30.590  31.827  1.00  0.00     0.031 C 
ATOM     32  C   UNL A   1      46.151  25.092  29.267  1.00  0.00     0.029 A 
ATOM     33  C   UNL A   1      45.697  26.317  29.729  1.00  0.00     0.049 A 
ATOM     34  H   UNL A   1      43.782  27.184  29.539  1.00  0.00     0.167 HD
ATOM     35  C   UNL A   1      45.925  28.527  30.825  1.00  0.00     0.074 A 
ATOM     36  C   UNL A   1      46.667  29.526  31.567  1.00  0.00     0.031 C 
ATOM     37  C   UNL A   1      46.418  27.314  30.476  1.00  0.00     0.031 A 
BRANCH  24  38
ATOM     38  C   UNL A   1      42.386  23.627  27.626  1.00  0.00    -0.014 A 
ATOM     39  C   UNL A   1      42.670  23.341  26.280  1.00  0.00     0.010 A 
ATOM     40  C   UNL A   1      41.966  22.586  28.474  1.00  0.00     0.010 A 
ATOM     41  C   UNL A   1      42.531  22.038  25.791  1.00  0.00     0.020 A 
ATOM     42  C   UNL A   1      41.844  21.279  27.995  1.00  0.00     0.020 A 
ATOM     43  C   UNL A   1      42.124  21.014  26.653  1.00  0.00     0.054 A 
BRANCH  43  44
ATOM     44  S   UNL A   1      42.021  19.321  26.008  1.00  0.00     0.124 S 
ATOM     45  O   UNL A   1      42.534  18.540  27.131  1.00  0.00    -0.237 OA
ATOM     46  O   UNL A   1      40.592  19.168  25.739  1.00  0.00    -0.237 OA
ATOM     47  O   UNL A   1      42.875  19.346  24.825  1.00  0.00    -0.744 OA
ENDBRANCH  43  44
ENDBRANCH  24  38
BRANCH  25  48
ATOM     48  C   UNL A   1      43.740  32.546  31.924  1.00  0.00    -0.014 A 
ATOM     49  C   UNL A   1      43.422  32.658  33.288  1.00  0.00     0.010 A 
ATOM     50  C   UNL A   1      44.227  33.675  31.238  1.00  0.00     0.010 A 
ATOM     51  C   UNL A   1      43.559  33.884  33.946  1.00  0.00     0.020 A 
ATOM     52  C   UNL A   1      44.395  34.893  31.899  1.00  0.00     0.020 A 
ATOM     53  C   UNL A   1      44.040  34.995  33.245  1.00  0.00     0.054 A 
BRANCH  53  54
ATOM     54  S   UNL A   1      44.231  36.572  34.120  1.00  0.00     0.124 S 
ATOM     55  O   UNL A   1      42.851  37.039  34.202  1.00  0.00    -0.237 OA
ATOM     56  O   UNL A   1      44.837  36.162  35.384  1.00  0.00    -0.237 OA
ATOM     57  O   UNL A   1      45.105  37.345  33.241  1.00  0.00    -0.744 OA
ENDBRANCH  53  54
ENDBRANCH  25  48
BRANCH  37  58
ATOM     58  C   UNL A   1      47.828  27.002  30.891  1.00  0.00    -0.014 A 
ATOM     59  C   UNL A   1      48.090  26.345  32.107  1.00  0.00     0.010 A 
ATOM     60  C   UNL A   1      48.898  27.320  30.036  1.00  0.00     0.010 A 
ATOM     61  C   UNL A   1      49.402  26.033  32.472  1.00  0.00     0.020 A 
ATOM     62  C   UNL A   1      50.209  26.985  30.386  1.00  0.00     0.020 A 
ATOM     63  C   UNL A   1      50.453  26.354  31.607  1.00  0.00     0.054 A 
BRANCH  63  64
ATOM     64  S   UNL A   1      52.141  25.891  32.081  1.00  0.00     0.124 S 
ATOM     65  O   UNL A   1      51.996  24.466  32.366  1.00  0.00    -0.237 OA
ATOM     66  O   UNL A   1      52.912  26.217  30.884  1.00  0.00    -0.237 OA
ATOM     67  O   UNL A   1      52.418  26.734  33.243  1.00  0.00    -0.744 OA
ENDBRANCH  63  64
ENDBRANCH  37  58
ENDBRANCH  11  12
ENDBRANCH   4   6
ENDBRANCH   1   2
BRANCH   1  68
ATOM     68  C   UNL A   1      32.538  27.711  26.342  1.00  0.00     0.042 C 
BRANCH  68  69
ATOM     69  C   UNL A   1      32.589  26.213  26.084  1.00  0.00     0.118 C 
BRANCH  69  70
ATOM     70  N   UNL A   1      32.525  25.838  24.678  1.00  0.00    -0.352 N 
ATOM     71  C   UNL A   1      33.054  24.744  24.044  1.00  0.00     0.253 C 
ATOM     72  H   UNL A   1      32.028  26.461  24.100  1.00  0.00     0.163 HD
ATOM     73  O   UNL A   1      32.665  24.423  22.919  1.00  0.00    -0.269 OA
BRANCH  71  74
ATOM     74  C   UNL A   1      33.981  23.872  24.749  1.00  0.00     0.071 A 
ATOM     75  C   UNL A   1      35.269  24.417  24.914  1.00  0.00     0.018 A 
ATOM     76  C   UNL A   1      33.712  22.599  25.242  1.00  0.00     0.141 A 
ATOM     77  C   UNL A   1      36.271  23.670  25.506  1.00  0.00     0.021 A 
ATOM     78  N   UNL A   1      34.713  21.864  25.825  1.00  0.00    -0.250 NA
ATOM     79  C   UNL A   1      35.949  22.401  25.937  1.00  0.00     0.112 A 
BRANCH  76  80
ATOM     80  C   UNL A   1      32.393  21.838  25.264  1.00  0.00     0.276 C 
ATOM     81  O   UNL A   1      31.425  22.318  25.858  1.00  0.00    -0.267 OA
ATOM     82  N   UNL A   1      32.187  20.825  24.365  1.00  0.00    -0.305 N 
ATOM     83  H   UNL A   1      31.729  21.080  23.532  1.00  0.00     0.171 HD
BRANCH  82  84
ATOM     84  C   UNL A   1      32.539  19.484  24.473  1.00  0.00     0.132 A 
ATOM     85  C   UNL A   1      32.789  18.678  23.370  1.00  0.00     0.049 A 
ATOM     86  N   UNL A   1      32.571  19.024  25.741  1.00  0.00    -0.238 NA
ATOM     87  C   UNL A   1      32.929  17.302  23.570  1.00  0.00     0.026 A 
ATOM     88  C   UNL A   1      32.666  17.683  25.901  1.00  0.00     0.134 A 
ATOM     89  C   UNL A   1      32.819  16.790  24.855  1.00  0.00     0.059 A 
ATOM     90  Cl  UNL A   1      32.851  15.097  25.128  1.00  0.00    -0.083 Cl
ENDBRANCH  82  84
ENDBRANCH  76  80
ENDBRANCH  71  74
ENDBRANCH  69  70
ENDBRANCH  68  69
ENDBRANCH   1  68
TORSDOF 15
ENDMDL
MODEL 3
REMARK VINA RESULT:     -11.4      2.250      8.797
REMARK SMILES O=C(NCCCNC(=O)c1cccnc1C(=O)Nc1ccc(Cl)cn1)c1ccc(-c2c3nc(c(-c4ccc(S(=O)(=O)[O-])cc4)c4ccc([nH]4)c(-c4ccc(S(=O)(=O)[O-])cc4)c4nc(c(-c5ccc(S(=O)(=O)[O-])cc5)c5ccc2[nH]5)C=C4)C=C3)cc1
REMARK SMILES IDX 4 1 3 2 1 3 2 4 26 6 27 7 85 8 28 9 84 10 29 11 30 12 31 13
REMARK SMILES IDX 78 14 32 15 83 16 77 17 79 18 33 19 82 20 76 21 75 22 34 24
REMARK SMILES IDX 64 25 45 26 63 27 46 28 49 29 62 30 80 31 47 32 48 33 61 35
REMARK SMILES IDX 81 36 50 37 35 38 36 39 44 40 37 41 43 42 38 43 39 44 40 45
REMARK SMILES IDX 41 46 42 47 65 48 66 49 74 50 67 51 73 52 68 53 69 54 70 55
REMARK SMILES IDX 71 56 72 57 51 58 52 59 60 60 53 61 59 62 54 63 55 64 56 65
REMARK SMILES IDX 57 66 58 67 5 68 6 69 7 70 8 71 9 73 10 74 11 75 15 76 12 77
REMARK SMILES IDX 14 78 13 79 16 80 17 81 18 82 19 84 20 85 25 86 21 87 24 88
REMARK SMILES IDX 22 89 23 90
REMARK H PARENT 3 5 79 23 49 34 7 72 18 83
REMARK Flexibility Score: inf
ROOT
ATOM      1  C   UNL A   1      33.548  27.888  26.872  1.00  0.00     0.118 C 
ENDROOT
BRANCH   1   2
ATOM      2  N   UNL A   1      33.307  29.304  27.091  1.00  0.00    -0.352 N 
ATOM      3  O   UNL A   1      33.696  31.395  27.819  1.00  0.00    -0.269 OA
ATOM      4  C   UNL A   1      34.133  30.264  27.617  1.00  0.00     0.251 C 
ATOM      5  H   UNL A   1      32.415  29.622  26.821  1.00  0.00     0.163 HD
BRANCH   4   6
ATOM      6  C   UNL A   1      35.529  29.932  27.966  1.00  0.00     0.039 A 
ATOM      7  C   UNL A   1      36.545  30.001  27.008  1.00  0.00     0.014 A 
ATOM      8  C   UNL A   1      35.827  29.569  29.282  1.00  0.00     0.014 A 
ATOM      9  C   UNL A   1      37.836  29.604  27.340  1.00  0.00     0.010 A 
ATOM     10  C   UNL A   1      37.137  29.236  29.631  1.00  0.00     0.010 A 
ATOM     11  C   UNL A   1      38.150  29.236  28.658  1.00  0.00    -0.014 A 
BRANCH  11  12
ATOM     12  C   UNL A   1      39.559  28.969  29.033  1.00  0.00     0.031 A 
ATOM     13  C   UNL A   1      40.421  30.032  29.655  1.00  0.00     0.074 A 
ATOM     14  C   UNL A   1      40.064  27.744  28.778  1.00  0.00     0.049 A 
ATOM     15  N   UNL A   1      41.678  29.960  30.010  1.00  0.00    -0.248 NA
ATOM     16  C   UNL A   1      39.801  31.343  29.907  1.00  0.00     0.031 C 
ATOM     17  C   UNL A   1      39.323  26.641  28.157  1.00  0.00     0.029 A 
ATOM     18  N   UNL A   1      41.310  27.221  29.003  1.00  0.00    -0.354 N 
ATOM     19  C   UNL A   1      42.008  31.215  30.506  1.00  0.00     0.074 A 
ATOM     20  C   UNL A   1      40.821  32.037  30.399  1.00  0.00     0.031 C 
ATOM     21  C   UNL A   1      40.125  25.570  28.065  1.00  0.00     0.029 A 
ATOM     22  C   UNL A   1      41.448  25.925  28.563  1.00  0.00     0.049 A 
ATOM     23  H   UNL A   1      42.037  27.723  29.437  1.00  0.00     0.167 HD
ATOM     24  C   UNL A   1      43.195  31.639  31.003  1.00  0.00     0.031 A 
ATOM     25  C   UNL A   1      42.526  25.119  28.528  1.00  0.00     0.031 A 
ATOM     26  C   UNL A   1      44.368  30.809  31.115  1.00  0.00     0.049 A 
ATOM     27  C   UNL A   1      43.836  25.634  29.051  1.00  0.00     0.074 A 
ATOM     28  C   UNL A   1      45.592  31.127  31.679  1.00  0.00     0.029 A 
ATOM     29  N   UNL A   1      44.473  29.512  30.641  1.00  0.00    -0.354 N 
ATOM     30  N   UNL A   1      44.102  26.796  29.596  1.00  0.00    -0.248 NA
ATOM     31  C   UNL A   1      44.990  24.731  28.951  1.00  0.00     0.031 C 
ATOM     32  C   UNL A   1      46.456  30.045  31.488  1.00  0.00     0.029 A 
ATOM     33  C   UNL A   1      45.755  29.032  30.855  1.00  0.00     0.049 A 
ATOM     34  H   UNL A   1      43.744  29.004  30.215  1.00  0.00     0.167 HD
ATOM     35  C   UNL A   1      45.456  26.763  29.907  1.00  0.00     0.074 A 
ATOM     36  C   UNL A   1      45.944  25.455  29.519  1.00  0.00     0.031 C 
ATOM     37  C   UNL A   1      46.228  27.733  30.454  1.00  0.00     0.031 A 
BRANCH  24  38
ATOM     38  C   UNL A   1      43.317  33.072  31.450  1.00  0.00    -0.014 A 
ATOM     39  C   UNL A   1      43.070  33.442  32.783  1.00  0.00     0.010 A 
ATOM     40  C   UNL A   1      43.805  34.037  30.550  1.00  0.00     0.010 A 
ATOM     41  C   UNL A   1      43.302  34.755  33.205  1.00  0.00     0.020 A 
ATOM     42  C   UNL A   1      44.056  35.345  30.972  1.00  0.00     0.020 A 
ATOM     43  C   UNL A   1      43.799  35.697  32.298  1.00  0.00     0.054 A 
BRANCH  43  44
ATOM     44  S   UNL A   1      44.158  37.374  32.891  1.00  0.00     0.124 S 
ATOM     45  O   UNL A   1      45.516  37.226  33.411  1.00  0.00    -0.237 OA
ATOM     46  O   UNL A   1      44.036  38.176  31.675  1.00  0.00    -0.237 OA
ATOM     47  O   UNL A   1      43.129  37.616  33.899  1.00  0.00    -0.744 OA
ENDBRANCH  43  44
ENDBRANCH  24  38
BRANCH  25  48
ATOM     48  C   UNL A   1      42.422  23.767  27.918  1.00  0.00    -0.014 A 
ATOM     49  C   UNL A   1      42.142  22.640  28.708  1.00  0.00     0.010 A 
ATOM     50  C   UNL A   1      42.614  23.605  26.533  1.00  0.00     0.010 A 
ATOM     51  C   UNL A   1      42.085  21.369  28.127  1.00  0.00     0.020 A 
ATOM     52  C   UNL A   1      42.526  22.342  25.944  1.00  0.00     0.020 A 
ATOM     53  C   UNL A   1      42.283  21.229  26.749  1.00  0.00     0.054 A 
BRANCH  53  54
ATOM     54  S   UNL A   1      42.185  19.575  26.011  1.00  0.00     0.124 S 
ATOM     55  O   UNL A   1      40.765  19.472  25.689  1.00  0.00    -0.237 OA
ATOM     56  O   UNL A   1      43.087  19.684  24.867  1.00  0.00    -0.237 OA
ATOM     57  O   UNL A   1      42.653  18.697  27.081  1.00  0.00    -0.744 OA
ENDBRANCH  53  54
ENDBRANCH  25  48
BRANCH  37  58
ATOM     58  C   UNL A   1      47.681  27.415  30.667  1.00  0.00    -0.014 A 
ATOM     59  C   UNL A   1      48.103  26.716  31.812  1.00  0.00     0.010 A 
ATOM     60  C   UNL A   1      48.628  27.772  29.690  1.00  0.00     0.010 A 
ATOM     61  C   UNL A   1      49.453  26.400  31.988  1.00  0.00     0.020 A 
ATOM     62  C   UNL A   1      49.974  27.434  29.850  1.00  0.00     0.020 A 
ATOM     63  C   UNL A   1      50.380  26.760  31.004  1.00  0.00     0.054 A 
BRANCH  63  64
ATOM     64  S   UNL A   1      52.116  26.292  31.232  1.00  0.00     0.124 S 
ATOM     65  O   UNL A   1      51.997  24.982  31.867  1.00  0.00    -0.237 OA
ATOM     66  O   UNL A   1      52.629  26.282  29.865  1.00  0.00    -0.237 OA
ATOM     67  O   UNL A   1      52.651  27.351  32.085  1.00  0.00    -0.744 OA
ENDBRANCH  63  64
ENDBRANCH  37  58
ENDBRANCH  11  12
ENDBRANCH   4   6
ENDBRANCH   1   2
BRANCH   1  68
ATOM     68  C   UNL A   1      33.354  27.438  25.431  1.00  0.00     0.042 C 
BRANCH  68  69
ATOM     69  C   UNL A   1      33.202  25.939  25.219  1.00  0.00     0.118 C 
BRANCH  69  70
ATOM     70  N   UNL A   1      33.421  25.495  23.849  1.00  0.00    -0.352 N 
ATOM     71  C   UNL A   1      34.004  24.343  23.389  1.00  0.00     0.253 C 
ATOM     72  H   UNL A   1      33.104  26.114  23.152  1.00  0.00     0.163 HD
ATOM     73  O   UNL A   1      33.848  23.986  22.220  1.00  0.00    -0.269 OA
BRANCH  71  74
ATOM     74  C   UNL A   1      34.696  23.459  24.314  1.00  0.00     0.071 A 
ATOM     75  C   UNL A   1      35.974  23.913  24.693  1.00  0.00     0.018 A 
ATOM     76  C   UNL A   1      34.223  22.253  24.823  1.00  0.00     0.141 A 
ATOM     77  C   UNL A   1      36.774  23.138  25.515  1.00  0.00     0.021 A 
ATOM     78  N   UNL A   1      35.024  21.491  25.635  1.00  0.00    -0.250 NA
ATOM     79  C   UNL A   1      36.261  21.936  25.953  1.00  0.00     0.112 A 
BRANCH  76  80
ATOM     80  C   UNL A   1      32.859  21.603  24.635  1.00  0.00     0.276 C 
ATOM     81  O   UNL A   1      31.841  22.231  24.929  1.00  0.00    -0.267 OA
ATOM     82  N   UNL A   1      32.750  20.491  23.842  1.00  0.00    -0.305 N 
ATOM     83  H   UNL A   1      32.512  20.659  22.901  1.00  0.00     0.171 HD
BRANCH  82  84
ATOM     84  C   UNL A   1      32.930  19.156  24.188  1.00  0.00     0.132 A 
ATOM     85  C   UNL A   1      33.356  18.192  23.283  1.00  0.00     0.049 A 
ATOM     86  N   UNL A   1      32.610  18.872  25.467  1.00  0.00    -0.238 NA
ATOM     87  C   UNL A   1      33.306  16.850  23.669  1.00  0.00     0.026 A 
ATOM     88  C   UNL A   1      32.530  17.562  25.800  1.00  0.00     0.134 A 
ATOM     89  C   UNL A   1      32.840  16.526  24.935  1.00  0.00     0.059 A 
ATOM     90  Cl  UNL A   1      32.636  14.888  25.401  1.00  0.00    -0.083 Cl
ENDBRANCH  82  84
ENDBRANCH  76  80
ENDBRANCH  71  74
ENDBRANCH  69  70
ENDBRANCH  68  69
ENDBRANCH   1  68
TORSDOF 15
ENDMDL
