MODEL 1
REMARK VINA RESULT:     -10.9      0.000      0.000
REMARK SMILES COc1ccc([C@H]2C[NH2+]C[C@@H]2C(=O)NCCCNC(=O)c2ccc(-c3c4nc(c(-c5ccc(S(=O)(=O)[O-])cc5)c5ccc([nH]5)c(-c5ccc(S(=O)(=O)[O-])cc5)c5nc(c(-c6ccc(S(=O)(=O)[O-])cc6)c6ccc3[nH]6)C=C5)C=C4)cc2)cc1OC
REMARK SMILES IDX 16 1 15 2 14 3 12 4 13 5 11 7 7 8 8 9 9 10 10 11 6 14 3 15
REMARK SMILES IDX 4 16 82 17 5 18 81 19 2 20 1 21 83 22 84 23 17 24 18 25
REMARK SMILES IDX 19 26 20 28 21 29 22 30 80 31 23 32 79 33 24 34 25 35 26 36
REMARK SMILES IDX 73 37 27 38 78 39 72 40 74 41 28 42 77 43 71 44 70 45 29 47
REMARK SMILES IDX 59 48 40 49 58 50 41 51 44 52 57 53 75 54 42 55 43 56 56 58
REMARK SMILES IDX 76 59 45 60 30 61 31 62 39 63 32 64 38 65 33 66 34 67 35 68
REMARK SMILES IDX 36 69 37 70 60 71 61 72 69 73 62 74 68 75 63 76 64 77 65 78
REMARK SMILES IDX 66 79 67 80 46 81 47 82 55 83 48 84 54 85 49 86 50 87 51 88
REMARK SMILES IDX 52 89 53 90
REMARK H PARENT 14 6 9 12 9 13 18 27 74 46 44 57
REMARK Flexibility Score: inf
ROOT
ATOM      1  C   UNL A   1      31.836  27.937  27.644  1.00  0.00     0.042 C 
ENDROOT
BRANCH   1   2
ATOM      2  C   UNL A   1      31.284  27.094  26.504  1.00  0.00     0.117 C 
BRANCH   2   3
ATOM      3  N   UNL A   1      31.207  27.820  25.245  1.00  0.00    -0.356 N 
ATOM      4  C   UNL A   1      31.472  27.369  23.977  1.00  0.00     0.229 C 
ATOM      5  O   UNL A   1      31.324  28.135  23.027  1.00  0.00    -0.275 OA
ATOM      6  H   UNL A   1      30.926  28.762  25.312  1.00  0.00     0.163 HD
BRANCH   4   7
ATOM      7  C   UNL A   1      31.969  25.939  23.831  1.00  0.00     0.146 C 
ATOM      8  C   UNL A   1      33.480  25.814  23.566  1.00  0.00     0.092 C 
ATOM      9  C   UNL A   1      33.487  25.871  22.030  1.00  0.00     0.269 C 
ATOM     10  N   UNL A   1      32.362  25.016  21.619  1.00  0.00    -0.345 N 
ATOM     11  C   UNL A   1      31.313  25.266  22.622  1.00  0.00     0.274 C 
ATOM     12  H   UNL A   1      32.636  24.034  21.622  1.00  0.00     0.346 HD
ATOM     13  H   UNL A   1      32.046  25.225  20.671  1.00  0.00     0.346 HD
BRANCH   8  14
ATOM     14  C   UNL A   1      34.144  24.548  24.135  1.00  0.00    -0.034 A 
ATOM     15  C   UNL A   1      35.556  22.339  25.245  1.00  0.00     0.160 A 
ATOM     16  C   UNL A   1      35.663  22.651  23.884  1.00  0.00     0.051 A 
ATOM     17  C   UNL A   1      34.744  23.118  26.063  1.00  0.00     0.161 A 
ATOM     18  C   UNL A   1      34.970  23.745  23.337  1.00  0.00     0.008 A 
ATOM     19  C   UNL A   1      34.053  24.199  25.494  1.00  0.00     0.054 A 
BRANCH  15  20
ATOM     20  O   UNL A   1      36.405  21.391  25.747  1.00  0.00    -0.493 OA
ATOM     21  C   UNL A   1      37.747  21.566  25.298  1.00  0.00     0.278 C 
ENDBRANCH  15  20
BRANCH  17  22
ATOM     22  O   UNL A   1      34.538  23.053  27.412  1.00  0.00    -0.493 OA
ATOM     23  C   UNL A   1      33.478  22.266  27.917  1.00  0.00     0.278 C 
ENDBRANCH  17  22
ENDBRANCH   8  14
ENDBRANCH   4   7
ENDBRANCH   2   3
ENDBRANCH   1   2
BRANCH   1  24
ATOM     24  C   UNL A   1      33.220  28.512  27.376  1.00  0.00     0.118 C 
BRANCH  24  25
ATOM     25  N   UNL A   1      33.266  29.962  27.517  1.00  0.00    -0.352 N 
ATOM     26  C   UNL A   1      34.267  30.778  27.983  1.00  0.00     0.251 C 
ATOM     27  H   UNL A   1      32.449  30.432  27.233  1.00  0.00     0.163 HD
ATOM     28  O   UNL A   1      34.030  31.968  28.184  1.00  0.00    -0.269 OA
BRANCH  26  29
ATOM     29  C   UNL A   1      35.611  30.232  28.267  1.00  0.00     0.039 A 
ATOM     30  C   UNL A   1      36.549  30.176  27.234  1.00  0.00     0.014 A 
ATOM     31  C   UNL A   1      35.948  29.772  29.543  1.00  0.00     0.014 A 
ATOM     32  C   UNL A   1      37.847  29.733  27.500  1.00  0.00     0.010 A 
ATOM     33  C   UNL A   1      37.264  29.417  29.826  1.00  0.00     0.010 A 
ATOM     34  C   UNL A   1      38.229  29.394  28.809  1.00  0.00    -0.014 A 
BRANCH  34  35
ATOM     35  C   UNL A   1      39.632  29.035  29.136  1.00  0.00     0.031 A 
ATOM     36  C   UNL A   1      40.563  30.057  29.730  1.00  0.00     0.074 A 
ATOM     37  C   UNL A   1      40.093  27.808  28.822  1.00  0.00     0.049 A 
ATOM     38  N   UNL A   1      41.833  29.944  30.021  1.00  0.00    -0.248 NA
ATOM     39  C   UNL A   1      40.001  31.389  30.006  1.00  0.00     0.031 C 
ATOM     40  C   UNL A   1      39.305  26.743  28.194  1.00  0.00     0.029 A 
ATOM     41  N   UNL A   1      41.338  27.250  28.974  1.00  0.00    -0.354 N 
ATOM     42  C   UNL A   1      42.228  31.191  30.490  1.00  0.00     0.074 A 
ATOM     43  C   UNL A   1      41.074  32.059  30.401  1.00  0.00     0.031 C 
ATOM     44  C   UNL A   1      40.078  25.658  28.035  1.00  0.00     0.029 A 
ATOM     45  C   UNL A   1      41.428  25.961  28.502  1.00  0.00     0.049 A 
ATOM     46  H   UNL A   1      42.096  27.728  29.383  1.00  0.00     0.167 HD
ATOM     47  C   UNL A   1      43.438  31.577  30.964  1.00  0.00     0.031 A 
ATOM     48  C   UNL A   1      42.477  25.119  28.434  1.00  0.00     0.031 A 
ATOM     49  C   UNL A   1      44.581  30.706  31.053  1.00  0.00     0.049 A 
ATOM     50  C   UNL A   1      43.811  25.567  28.964  1.00  0.00     0.074 A 
ATOM     51  C   UNL A   1      45.827  30.979  31.590  1.00  0.00     0.029 A 
ATOM     52  N   UNL A   1      44.625  29.403  30.582  1.00  0.00    -0.354 N 
ATOM     53  N   UNL A   1      44.141  26.723  29.490  1.00  0.00    -0.248 NA
ATOM     54  C   UNL A   1      44.910  24.595  28.903  1.00  0.00     0.031 C 
ATOM     55  C   UNL A   1      46.646  29.865  31.379  1.00  0.00     0.029 A 
ATOM     56  C   UNL A   1      45.889  28.871  30.778  1.00  0.00     0.049 A 
ATOM     57  H   UNL A   1      43.869  28.925  30.169  1.00  0.00     0.167 HD
ATOM     58  C   UNL A   1      45.482  26.611  29.840  1.00  0.00     0.074 A 
ATOM     59  C   UNL A   1      45.895  25.269  29.484  1.00  0.00     0.031 C 
ATOM     60  C   UNL A   1      46.294  27.536  30.408  1.00  0.00     0.031 A 
BRANCH  47  61
ATOM     61  C   UNL A   1      43.592  33.013  31.398  1.00  0.00    -0.014 A 
ATOM     62  C   UNL A   1      43.999  34.014  30.497  1.00  0.00     0.010 A 
ATOM     63  C   UNL A   1      43.296  33.371  32.727  1.00  0.00     0.010 A 
ATOM     64  C   UNL A   1      44.161  35.333  30.929  1.00  0.00     0.020 A 
ATOM     65  C   UNL A   1      43.423  34.695  33.154  1.00  0.00     0.020 A 
ATOM     66  C   UNL A   1      43.876  35.665  32.257  1.00  0.00     0.054 A 
BRANCH  66  67
ATOM     67  S   UNL A   1      44.091  37.385  32.789  1.00  0.00     0.124 S 
ATOM     68  O   UNL A   1      43.896  38.113  31.538  1.00  0.00    -0.237 OA
ATOM     69  O   UNL A   1      43.031  37.548  33.780  1.00  0.00    -0.237 OA
ATOM     70  O   UNL A   1      45.451  37.418  33.322  1.00  0.00    -0.744 OA
ENDBRANCH  66  67
ENDBRANCH  47  61
BRANCH  48  71
ATOM     71  C   UNL A   1      42.295  23.767  27.838  1.00  0.00    -0.014 A 
ATOM     72  C   UNL A   1      42.580  23.535  26.481  1.00  0.00     0.010 A 
ATOM     73  C   UNL A   1      41.879  22.690  28.643  1.00  0.00     0.010 A 
ATOM     74  C   UNL A   1      42.450  22.252  25.941  1.00  0.00     0.020 A 
ATOM     75  C   UNL A   1      41.777  21.400  28.114  1.00  0.00     0.020 A 
ATOM     76  C   UNL A   1      42.058  21.191  26.762  1.00  0.00     0.054 A 
BRANCH  76  77
ATOM     77  S   UNL A   1      41.979  19.520  26.058  1.00  0.00     0.124 S 
ATOM     78  O   UNL A   1      42.485  18.703  27.156  1.00  0.00    -0.237 OA
ATOM     79  O   UNL A   1      40.556  19.372  25.761  1.00  0.00    -0.237 OA
ATOM     80  O   UNL A   1      42.846  19.602  24.885  1.00  0.00    -0.744 OA
ENDBRANCH  76  77
ENDBRANCH  48  71
BRANCH  60  81
ATOM     81  C   UNL A   1      47.715  27.129  30.704  1.00  0.00    -0.014 A 
ATOM     82  C   UNL A   1      48.778  27.527  29.874  1.00  0.00     0.010 A 
ATOM     83  C   UNL A   1      47.995  26.387  31.867  1.00  0.00     0.010 A 
ATOM     84  C   UNL A   1      50.091  27.169  30.188  1.00  0.00     0.020 A 
ATOM     85  C   UNL A   1      49.309  26.054  32.201  1.00  0.00     0.020 A 
ATOM     86  C   UNL A   1      50.349  26.436  31.351  1.00  0.00     0.054 A 
BRANCH  86  87
ATOM     87  S   UNL A   1      52.068  26.028  31.762  1.00  0.00     0.124 S 
ATOM     88  O   UNL A   1      52.477  27.189  32.549  1.00  0.00    -0.237 OA
ATOM     89  O   UNL A   1      51.931  24.779  32.507  1.00  0.00    -0.237 OA
ATOM     90  O   UNL A   1      52.717  25.902  30.458  1.00  0.00    -0.744 OA
ENDBRANCH  86  87
ENDBRANCH  60  81
ENDBRANCH  34  35
ENDBRANCH  26  29
ENDBRANCH  24  25
ENDBRANCH   1  24
TORSDOF 16
ENDMDL
MODEL 2
REMARK VINA RESULT:     -10.4      3.990     10.781
REMARK SMILES COc1ccc([C@H]2C[NH2+]C[C@@H]2C(=O)NCCCNC(=O)c2ccc(-c3c4nc(c(-c5ccc(S(=O)(=O)[O-])cc5)c5ccc([nH]5)c(-c5ccc(S(=O)(=O)[O-])cc5)c5nc(c(-c6ccc(S(=O)(=O)[O-])cc6)c6ccc3[nH]6)C=C5)C=C4)cc2)cc1OC
REMARK SMILES IDX 16 1 15 2 14 3 12 4 13 5 11 7 7 8 8 9 9 10 10 11 6 14 3 15
REMARK SMILES IDX 4 16 82 17 5 18 81 19 2 20 1 21 83 22 84 23 17 24 18 25
REMARK SMILES IDX 19 26 20 28 21 29 22 30 80 31 23 32 79 33 24 34 25 35 26 36
REMARK SMILES IDX 73 37 27 38 78 39 72 40 74 41 28 42 77 43 71 44 70 45 29 47
REMARK SMILES IDX 59 48 40 49 58 50 41 51 44 52 57 53 75 54 42 55 43 56 56 58
REMARK SMILES IDX 76 59 45 60 30 61 31 62 39 63 32 64 38 65 33 66 34 67 35 68
REMARK SMILES IDX 36 69 37 70 60 71 61 72 69 73 62 74 68 75 63 76 64 77 65 78
REMARK SMILES IDX 66 79 67 80 46 81 47 82 55 83 48 84 54 85 49 86 50 87 51 88
REMARK SMILES IDX 52 89 53 90
REMARK H PARENT 14 6 9 12 9 13 18 27 74 46 44 57
REMARK Flexibility Score: inf
ROOT
ATOM      1  C   UNL A   1      41.225  20.785  27.584  1.00  0.00     0.042 C 
ENDROOT
BRANCH   1   2
ATOM      2  C   UNL A   1      42.571  20.081  27.509  1.00  0.00     0.117 C 
BRANCH   2   3
ATOM      3  N   UNL A   1      42.830  19.485  26.206  1.00  0.00    -0.356 N 
ATOM      4  C   UNL A   1      43.802  19.806  25.293  1.00  0.00     0.229 C 
ATOM      5  O   UNL A   1      43.875  19.165  24.248  1.00  0.00    -0.275 OA
ATOM      6  H   UNL A   1      42.226  18.751  25.945  1.00  0.00     0.163 HD
BRANCH   4   7
ATOM      7  C   UNL A   1      44.718  20.974  25.626  1.00  0.00     0.146 C 
ATOM      8  C   UNL A   1      44.231  22.336  25.098  1.00  0.00     0.092 C 
ATOM      9  C   UNL A   1      44.893  22.336  23.711  1.00  0.00     0.269 C 
ATOM     10  N   UNL A   1      46.253  21.823  23.945  1.00  0.00    -0.345 N 
ATOM     11  C   UNL A   1      46.089  20.781  24.973  1.00  0.00     0.274 C 
ATOM     12  H   UNL A   1      46.865  22.566  24.281  1.00  0.00     0.346 HD
ATOM     13  H   UNL A   1      46.679  21.460  23.093  1.00  0.00     0.346 HD
BRANCH   8  14
ATOM     14  C   UNL A   1      44.615  23.550  25.962  1.00  0.00    -0.034 A 
ATOM     15  C   UNL A   1      45.544  25.772  27.481  1.00  0.00     0.160 A 
ATOM     16  C   UNL A   1      45.524  24.483  28.029  1.00  0.00     0.051 A 
ATOM     17  C   UNL A   1      45.098  25.967  26.177  1.00  0.00     0.161 A 
ATOM     18  C   UNL A   1      45.071  23.385  27.277  1.00  0.00     0.008 A 
ATOM     19  C   UNL A   1      44.640  24.858  25.449  1.00  0.00     0.054 A 
BRANCH  15  20
ATOM     20  O   UNL A   1      46.178  26.753  28.192  1.00  0.00    -0.493 OA
ATOM     21  C   UNL A   1      47.592  26.732  28.012  1.00  0.00     0.278 C 
ENDBRANCH  15  20
BRANCH  17  22
ATOM     22  O   UNL A   1      45.086  27.101  25.415  1.00  0.00    -0.493 OA
ATOM     23  C   UNL A   1      46.227  27.438  24.652  1.00  0.00     0.278 C 
ENDBRANCH  17  22
ENDBRANCH   8  14
ENDBRANCH   4   7
ENDBRANCH   2   3
ENDBRANCH   1   2
BRANCH   1  24
ATOM     24  C   UNL A   1      41.160  22.085  26.795  1.00  0.00     0.118 C 
BRANCH  24  25
ATOM     25  N   UNL A   1      39.903  22.247  26.074  1.00  0.00    -0.352 N 
ATOM     26  C   UNL A   1      38.990  23.272  26.100  1.00  0.00     0.251 C 
ATOM     27  H   UNL A   1      39.672  21.503  25.473  1.00  0.00     0.163 HD
ATOM     28  O   UNL A   1      37.903  23.124  25.544  1.00  0.00    -0.269 OA
BRANCH  26  29
ATOM     29  C   UNL A   1      39.294  24.532  26.810  1.00  0.00     0.039 A 
ATOM     30  C   UNL A   1      38.810  24.709  28.108  1.00  0.00     0.014 A 
ATOM     31  C   UNL A   1      40.047  25.539  26.202  1.00  0.00     0.014 A 
ATOM     32  C   UNL A   1      39.149  25.861  28.822  1.00  0.00     0.010 A 
ATOM     33  C   UNL A   1      40.458  26.642  26.944  1.00  0.00     0.010 A 
ATOM     34  C   UNL A   1      40.014  26.816  28.264  1.00  0.00    -0.014 A 
BRANCH  34  35
ATOM     35  C   UNL A   1      40.482  27.987  29.047  1.00  0.00     0.031 A 
ATOM     36  C   UNL A   1      41.800  27.943  29.773  1.00  0.00     0.074 A 
ATOM     37  C   UNL A   1      39.681  29.064  29.173  1.00  0.00     0.049 A 
ATOM     38  N   UNL A   1      42.341  28.842  30.554  1.00  0.00    -0.248 NA
ATOM     39  C   UNL A   1      42.602  26.717  29.624  1.00  0.00     0.031 C 
ATOM     40  C   UNL A   1      38.356  29.209  28.563  1.00  0.00     0.029 A 
ATOM     41  N   UNL A   1      39.854  30.236  29.866  1.00  0.00    -0.354 N 
ATOM     42  C   UNL A   1      43.530  28.284  31.009  1.00  0.00     0.074 A 
ATOM     43  C   UNL A   1      43.609  26.951  30.453  1.00  0.00     0.031 C 
ATOM     44  C   UNL A   1      37.849  30.406  28.891  1.00  0.00     0.029 A 
ATOM     45  C   UNL A   1      38.785  31.096  29.773  1.00  0.00     0.049 A 
ATOM     46  H   UNL A   1      40.668  30.441  30.381  1.00  0.00     0.167 HD
ATOM     47  C   UNL A   1      44.476  28.836  31.806  1.00  0.00     0.031 A 
ATOM     48  C   UNL A   1      38.569  32.298  30.343  1.00  0.00     0.031 A 
ATOM     49  C   UNL A   1      44.393  30.165  32.353  1.00  0.00     0.049 A 
ATOM     50  C   UNL A   1      39.631  32.891  31.226  1.00  0.00     0.074 A 
ATOM     51  C   UNL A   1      45.334  30.843  33.108  1.00  0.00     0.029 A 
ATOM     52  N   UNL A   1      43.302  31.011  32.219  1.00  0.00    -0.354 N 
ATOM     53  N   UNL A   1      40.792  32.385  31.569  1.00  0.00    -0.248 NA
ATOM     54  C   UNL A   1      39.362  34.221  31.788  1.00  0.00     0.031 C 
ATOM     55  C   UNL A   1      44.783  32.071  33.490  1.00  0.00     0.029 A 
ATOM     56  C   UNL A   1      43.529  32.189  32.911  1.00  0.00     0.049 A 
ATOM     57  H   UNL A   1      42.486  30.805  31.708  1.00  0.00     0.167 HD
ATOM     58  C   UNL A   1      41.401  33.343  32.373  1.00  0.00     0.074 A 
ATOM     59  C   UNL A   1      40.487  34.465  32.447  1.00  0.00     0.031 C 
ATOM     60  C   UNL A   1      42.607  33.296  32.990  1.00  0.00     0.031 A 
BRANCH  47  61
ATOM     61  C   UNL A   1      45.674  27.988  32.156  1.00  0.00    -0.014 A 
ATOM     62  C   UNL A   1      46.875  28.077  31.428  1.00  0.00     0.010 A 
ATOM     63  C   UNL A   1      45.605  27.108  33.251  1.00  0.00     0.010 A 
ATOM     64  C   UNL A   1      47.963  27.263  31.754  1.00  0.00     0.020 A 
ATOM     65  C   UNL A   1      46.702  26.317  33.602  1.00  0.00     0.020 A 
ATOM     66  C   UNL A   1      47.868  26.383  32.837  1.00  0.00     0.054 A 
BRANCH  66  67
ATOM     67  S   UNL A   1      49.297  25.342  33.239  1.00  0.00     0.124 S 
ATOM     68  O   UNL A   1      49.699  24.861  31.920  1.00  0.00    -0.237 OA
ATOM     69  O   UNL A   1      50.215  26.288  33.868  1.00  0.00    -0.237 OA
ATOM     70  O   UNL A   1      48.746  24.324  34.130  1.00  0.00    -0.744 OA
ENDBRANCH  66  67
ENDBRANCH  47  61
BRANCH  48  71
ATOM     71  C   UNL A   1      37.288  33.011  30.087  1.00  0.00    -0.014 A 
ATOM     72  C   UNL A   1      37.091  33.735  28.898  1.00  0.00     0.010 A 
ATOM     73  C   UNL A   1      36.235  32.929  31.018  1.00  0.00     0.010 A 
ATOM     74  C   UNL A   1      35.868  34.364  28.647  1.00  0.00     0.020 A 
ATOM     75  C   UNL A   1      35.001  33.531  30.757  1.00  0.00     0.020 A 
ATOM     76  C   UNL A   1      34.828  34.250  29.573  1.00  0.00     0.054 A 
BRANCH  76  77
ATOM     77  S   UNL A   1      33.223  35.004  29.185  1.00  0.00     0.124 S 
ATOM     78  O   UNL A   1      32.703  34.101  28.163  1.00  0.00    -0.237 OA
ATOM     79  O   UNL A   1      32.538  34.964  30.475  1.00  0.00    -0.237 OA
ATOM     80  O   UNL A   1      33.577  36.343  28.718  1.00  0.00    -0.744 OA
ENDBRANCH  76  77
ENDBRANCH  48  71
BRANCH  60  81
ATOM     81  C   UNL A   1      43.028  34.503  33.788  1.00  0.00    -0.014 A 
ATOM     82  C   UNL A   1      42.764  34.599  35.165  1.00  0.00     0.010 A 
ATOM     83  C   UNL A   1      43.757  35.530  33.159  1.00  0.00     0.010 A 
ATOM     84  C   UNL A   1      43.197  35.710  35.893  1.00  0.00     0.020 A 
ATOM     85  C   UNL A   1      44.219  36.627  33.889  1.00  0.00     0.020 A 
ATOM     86  C   UNL A   1      43.924  36.717  35.251  1.00  0.00     0.054 A 
BRANCH  86  87
ATOM     87  S   UNL A   1      44.518  38.124  36.230  1.00  0.00     0.124 S 
ATOM     88  O   UNL A   1      44.138  39.259  35.392  1.00  0.00    -0.237 OA
ATOM     89  O   UNL A   1      43.770  37.983  37.477  1.00  0.00    -0.237 OA
ATOM     90  O   UNL A   1      45.956  37.887  36.341  1.00  0.00    -0.744 OA
ENDBRANCH  86  87
ENDBRANCH  60  81
ENDBRANCH  34  35
ENDBRANCH  26  29
ENDBRANCH  24  25
ENDBRANCH   1  24
TORSDOF 16
ENDMDL
MODEL 3
REMARK VINA RESULT:     -10.3      2.483      2.970
REMARK SMILES COc1ccc([C@H]2C[NH2+]C[C@@H]2C(=O)NCCCNC(=O)c2ccc(-c3c4nc(c(-c5ccc(S(=O)(=O)[O-])cc5)c5ccc([nH]5)c(-c5ccc(S(=O)(=O)[O-])cc5)c5nc(c(-c6ccc(S(=O)(=O)[O-])cc6)c6ccc3[nH]6)C=C5)C=C4)cc2)cc1OC
REMARK SMILES IDX 16 1 15 2 14 3 12 4 13 5 11 7 7 8 8 9 9 10 10 11 6 14 3 15
REMARK SMILES IDX 4 16 82 17 5 18 81 19 2 20 1 21 83 22 84 23 17 24 18 25
REMARK SMILES IDX 19 26 20 28 21 29 22 30 80 31 23 32 79 33 24 34 25 35 26 36
REMARK SMILES IDX 73 37 27 38 78 39 72 40 74 41 28 42 77 43 71 44 70 45 29 47
REMARK SMILES IDX 59 48 40 49 58 50 41 51 44 52 57 53 75 54 42 55 43 56 56 58
REMARK SMILES IDX 76 59 45 60 30 61 31 62 39 63 32 64 38 65 33 66 34 67 35 68
REMARK SMILES IDX 36 69 37 70 60 71 61 72 69 73 62 74 68 75 63 76 64 77 65 78
REMARK SMILES IDX 66 79 67 80 46 81 47 82 55 83 48 84 54 85 49 86 50 87 51 88
REMARK SMILES IDX 52 89 53 90
REMARK H PARENT 14 6 9 12 9 13 18 27 74 46 44 57
REMARK Flexibility Score: inf
ROOT
ATOM      1  C   UNL A   1      33.507  27.711  26.733  1.00  0.00     0.042 C 
ENDROOT
BRANCH   1   2
ATOM      2  C   UNL A   1      32.011  27.452  26.638  1.00  0.00     0.117 C 
BRANCH   2   3
ATOM      3  N   UNL A   1      31.432  27.913  25.384  1.00  0.00    -0.356 N 
ATOM      4  C   UNL A   1      31.251  27.217  24.216  1.00  0.00     0.229 C 
ATOM      5  O   UNL A   1      30.716  27.779  23.263  1.00  0.00    -0.275 OA
ATOM      6  H   UNL A   1      31.130  28.851  25.373  1.00  0.00     0.163 HD
BRANCH   4   7
ATOM      7  C   UNL A   1      31.760  25.785  24.167  1.00  0.00     0.146 C 
ATOM      8  C   UNL A   1      33.179  25.633  23.591  1.00  0.00     0.092 C 
ATOM      9  C   UNL A   1      32.845  25.463  22.101  1.00  0.00     0.269 C 
ATOM     10  N   UNL A   1      31.692  24.549  22.077  1.00  0.00    -0.345 N 
ATOM     11  C   UNL A   1      30.881  24.937  23.244  1.00  0.00     0.274 C 
ATOM     12  H   UNL A   1      31.999  23.580  22.159  1.00  0.00     0.346 HD
ATOM     13  H   UNL A   1      31.167  24.614  21.205  1.00  0.00     0.346 HD
BRANCH   8  14
ATOM     14  C   UNL A   1      34.002  24.469  24.171  1.00  0.00    -0.034 A 
ATOM     15  C   UNL A   1      35.681  22.475  25.318  1.00  0.00     0.160 A 
ATOM     16  C   UNL A   1      35.826  22.855  23.978  1.00  0.00     0.051 A 
ATOM     17  C   UNL A   1      34.698  23.080  26.097  1.00  0.00     0.161 A 
ATOM     18  C   UNL A   1      35.001  23.843  23.413  1.00  0.00     0.008 A 
ATOM     19  C   UNL A   1      33.879  24.056  25.509  1.00  0.00     0.054 A 
BRANCH  15  20
ATOM     20  O   UNL A   1      36.637  21.658  25.853  1.00  0.00    -0.493 OA
ATOM     21  C   UNL A   1      36.916  20.530  25.027  1.00  0.00     0.278 C 
ENDBRANCH  15  20
BRANCH  17  22
ATOM     22  O   UNL A   1      34.415  22.928  27.424  1.00  0.00    -0.493 OA
ATOM     23  C   UNL A   1      33.137  22.468  27.816  1.00  0.00     0.278 C 
ENDBRANCH  17  22
ENDBRANCH   8  14
ENDBRANCH   4   7
ENDBRANCH   2   3
ENDBRANCH   1   2
BRANCH   1  24
ATOM     24  C   UNL A   1      33.999  28.839  25.836  1.00  0.00     0.118 C 
BRANCH  24  25
ATOM     25  N   UNL A   1      33.746  30.159  26.399  1.00  0.00    -0.352 N 
ATOM     26  C   UNL A   1      34.365  30.818  27.433  1.00  0.00     0.251 C 
ATOM     27  H   UNL A   1      33.015  30.659  25.969  1.00  0.00     0.163 HD
ATOM     28  O   UNL A   1      33.874  31.861  27.862  1.00  0.00    -0.269 OA
BRANCH  26  29
ATOM     29  C   UNL A   1      35.594  30.270  28.046  1.00  0.00     0.039 A 
ATOM     30  C   UNL A   1      36.808  30.422  27.374  1.00  0.00     0.014 A 
ATOM     31  C   UNL A   1      35.553  29.606  29.274  1.00  0.00     0.014 A 
ATOM     32  C   UNL A   1      37.990  29.977  27.970  1.00  0.00     0.010 A 
ATOM     33  C   UNL A   1      36.739  29.245  29.906  1.00  0.00     0.010 A 
ATOM     34  C   UNL A   1      37.972  29.428  29.262  1.00  0.00    -0.014 A 
BRANCH  34  35
ATOM     35  C   UNL A   1      39.227  29.058  29.964  1.00  0.00     0.031 A 
ATOM     36  C   UNL A   1      39.683  29.829  31.173  1.00  0.00     0.074 A 
ATOM     37  C   UNL A   1      40.003  28.077  29.461  1.00  0.00     0.049 A 
ATOM     38  N   UNL A   1      40.778  29.692  31.874  1.00  0.00    -0.248 NA
ATOM     39  C   UNL A   1      38.805  30.916  31.639  1.00  0.00     0.031 C 
ATOM     40  C   UNL A   1      39.701  27.288  28.264  1.00  0.00     0.029 A 
ATOM     41  N   UNL A   1      41.212  27.582  29.885  1.00  0.00    -0.354 N 
ATOM     42  C   UNL A   1      40.735  30.686  32.845  1.00  0.00     0.074 A 
ATOM     43  C   UNL A   1      39.527  31.448  32.614  1.00  0.00     0.031 C 
ATOM     44  C   UNL A   1      40.684  26.398  28.062  1.00  0.00     0.029 A 
ATOM     45  C   UNL A   1      41.710  26.582  29.083  1.00  0.00     0.049 A 
ATOM     46  H   UNL A   1      41.677  27.912  30.687  1.00  0.00     0.167 HD
ATOM     47  C   UNL A   1      41.614  30.934  33.846  1.00  0.00     0.031 A 
ATOM     48  C   UNL A   1      42.869  25.897  29.148  1.00  0.00     0.031 A 
ATOM     49  C   UNL A   1      42.812  30.169  34.072  1.00  0.00     0.049 A 
ATOM     50  C   UNL A   1      43.832  26.189  30.265  1.00  0.00     0.074 A 
ATOM     51  C   UNL A   1      43.727  30.292  35.103  1.00  0.00     0.029 A 
ATOM     52  N   UNL A   1      43.272  29.152  33.248  1.00  0.00    -0.354 N 
ATOM     53  N   UNL A   1      43.728  27.072  31.230  1.00  0.00    -0.248 NA
ATOM     54  C   UNL A   1      45.059  25.385  30.311  1.00  0.00     0.031 C 
ATOM     55  C   UNL A   1      44.776  29.397  34.865  1.00  0.00     0.029 A 
ATOM     56  C   UNL A   1      44.478  28.665  33.726  1.00  0.00     0.049 A 
ATOM     57  H   UNL A   1      42.809  28.823  32.444  1.00  0.00     0.167 HD
ATOM     58  C   UNL A   1      44.869  26.918  32.009  1.00  0.00     0.074 A 
ATOM     59  C   UNL A   1      45.638  25.843  31.414  1.00  0.00     0.031 C 
ATOM     60  C   UNL A   1      45.242  27.603  33.118  1.00  0.00     0.031 A 
BRANCH  47  61
ATOM     61  C   UNL A   1      41.323  32.100  34.757  1.00  0.00    -0.014 A 
ATOM     62  C   UNL A   1      41.796  33.394  34.470  1.00  0.00     0.010 A 
ATOM     63  C   UNL A   1      40.537  31.902  35.907  1.00  0.00     0.010 A 
ATOM     64  C   UNL A   1      41.537  34.453  35.344  1.00  0.00     0.020 A 
ATOM     65  C   UNL A   1      40.246  32.965  36.765  1.00  0.00     0.020 A 
ATOM     66  C   UNL A   1      40.766  34.231  36.489  1.00  0.00     0.054 A 
BRANCH  66  67
ATOM     67  S   UNL A   1      40.442  35.625  37.602  1.00  0.00     0.124 S 
ATOM     68  O   UNL A   1      39.467  35.051  38.527  1.00  0.00    -0.237 OA
ATOM     69  O   UNL A   1      41.760  35.895  38.170  1.00  0.00    -0.237 OA
ATOM     70  O   UNL A   1      39.922  36.664  36.717  1.00  0.00    -0.744 OA
ENDBRANCH  66  67
ENDBRANCH  47  61
BRANCH  48  71
ATOM     71  C   UNL A   1      43.171  24.869  28.115  1.00  0.00    -0.014 A 
ATOM     72  C   UNL A   1      43.877  25.208  26.947  1.00  0.00     0.010 A 
ATOM     73  C   UNL A   1      42.794  23.528  28.319  1.00  0.00     0.010 A 
ATOM     74  C   UNL A   1      44.196  24.227  26.003  1.00  0.00     0.020 A 
ATOM     75  C   UNL A   1      43.138  22.540  27.392  1.00  0.00     0.020 A 
ATOM     76  C   UNL A   1      43.833  22.898  26.236  1.00  0.00     0.054 A 
BRANCH  76  77
ATOM     77  S   UNL A   1      44.333  21.629  25.038  1.00  0.00     0.124 S 
ATOM     78  O   UNL A   1      44.216  22.345  23.771  1.00  0.00    -0.237 OA
ATOM     79  O   UNL A   1      45.693  21.313  25.465  1.00  0.00    -0.237 OA
ATOM     80  O   UNL A   1      43.359  20.559  25.245  1.00  0.00    -0.744 OA
ENDBRANCH  76  77
ENDBRANCH  48  71
BRANCH  60  81
ATOM     81  C   UNL A   1      46.534  27.201  33.782  1.00  0.00    -0.014 A 
ATOM     82  C   UNL A   1      47.750  27.827  33.456  1.00  0.00     0.010 A 
ATOM     83  C   UNL A   1      46.518  26.224  34.795  1.00  0.00     0.010 A 
ATOM     84  C   UNL A   1      48.930  27.466  34.111  1.00  0.00     0.020 A 
ATOM     85  C   UNL A   1      47.690  25.882  35.475  1.00  0.00     0.020 A 
ATOM     86  C   UNL A   1      48.892  26.496  35.119  1.00  0.00     0.054 A 
BRANCH  86  87
ATOM     87  S   UNL A   1      50.429  26.082  35.989  1.00  0.00     0.124 S 
ATOM     88  O   UNL A   1      50.907  27.398  36.404  1.00  0.00    -0.237 OA
ATOM     89  O   UNL A   1      49.962  25.214  37.066  1.00  0.00    -0.237 OA
ATOM     90  O   UNL A   1      51.238  25.419  34.967  1.00  0.00    -0.744 OA
ENDBRANCH  86  87
ENDBRANCH  60  81
ENDBRANCH  34  35
ENDBRANCH  26  29
ENDBRANCH  24  25
ENDBRANCH   1  24
TORSDOF 16
ENDMDL
