MODEL 1
REMARK VINA RESULT:     -10.7      0.000      0.000
REMARK SMILES CN(C)c1ccc(/C=N/NC(=O)/C=C\C(=O)NCCCNC(=O)c2ccc(-c3c4nc(c(-c5ccc(S(=O)(=O)[O-])cc5)c5ccc([nH]5)c(-c5ccc(S(=O)(=O)[O-])cc5)c5nc(c(-c6ccc(S(=O)(=O)[O-])cc6)c6ccc3[nH]6)C=C5)C=C4)cc2)cc1
REMARK SMILES IDX 18 1 17 2 15 3 16 4 14 6 13 7 11 8 10 9 12 11 9 12 8 13 7 14
REMARK SMILES IDX 4 15 5 16 85 17 6 18 84 19 2 20 1 21 3 22 19 23 20 24 21 25
REMARK SMILES IDX 22 26 23 28 24 29 25 30 83 31 26 32 82 33 27 34 28 35 29 36
REMARK SMILES IDX 76 37 30 38 81 39 75 40 77 41 31 42 80 43 74 44 73 45 32 47
REMARK SMILES IDX 62 48 43 49 61 50 44 51 47 52 60 53 78 54 45 55 46 56 59 58
REMARK SMILES IDX 79 59 48 60 33 61 34 62 42 63 35 64 41 65 36 66 37 67 38 68
REMARK SMILES IDX 39 69 40 70 63 71 64 72 72 73 65 74 71 75 66 76 67 77 68 78
REMARK SMILES IDX 69 79 70 80 49 81 50 82 58 83 51 84 57 85 52 86 53 87 54 88
REMARK SMILES IDX 55 89 56 90
REMARK H PARENT 17 5 10 10 21 27 77 46 47 57
REMARK Flexibility Score: inf
ROOT
ATOM      1  C   UNL A   1      33.225  27.332  24.023  1.00  0.00     0.118 C 
ENDROOT
BRANCH   1   2
ATOM      2  N   UNL A   1      34.002  26.154  24.355  1.00  0.00    -0.352 N 
ATOM      3  C   UNL A   1      34.016  24.916  23.807  1.00  0.00     0.244 C 
ATOM      4  O   UNL A   1      34.955  24.153  24.028  1.00  0.00    -0.270 OA
ATOM      5  H   UNL A   1      34.626  26.274  25.107  1.00  0.00     0.163 HD
BRANCH   3   6
ATOM      6  C   UNL A   1      32.988  24.499  22.842  1.00  0.00     0.077 C 
ATOM      7  C   UNL A   1      31.754  24.037  23.080  1.00  0.00     0.079 C 
BRANCH   7   8
ATOM      8  C   UNL A   1      30.976  23.907  24.332  1.00  0.00     0.264 C 
ATOM      9  N   UNL A   1      30.255  24.929  24.881  1.00  0.00    -0.244 N 
ATOM     10  H   UNL A   1      29.722  24.675  25.668  1.00  0.00     0.194 HD
ATOM     11  O   UNL A   1      31.007  22.812  24.896  1.00  0.00    -0.268 OA
BRANCH   9  12
ATOM     12  N   UNL A   1      30.148  26.236  24.527  1.00  0.00    -0.180 NA
ATOM     13  C   UNL A   1      29.146  26.569  23.777  1.00  0.00     0.141 C 
BRANCH  13  14
ATOM     14  C   UNL A   1      28.928  27.962  23.346  1.00  0.00    -0.005 A 
ATOM     15  C   UNL A   1      28.441  30.600  22.455  1.00  0.00     0.036 A 
ATOM     16  C   UNL A   1      29.748  30.107  22.602  1.00  0.00     0.026 A 
ATOM     17  C   UNL A   1      27.388  29.742  22.807  1.00  0.00     0.026 A 
ATOM     18  C   UNL A   1      29.998  28.804  23.047  1.00  0.00     0.012 A 
ATOM     19  C   UNL A   1      27.622  28.430  23.237  1.00  0.00     0.012 A 
BRANCH  15  20
ATOM     20  N   UNL A   1      28.220  31.885  21.964  1.00  0.00    -0.378 N 
ATOM     21  C   UNL A   1      28.023  32.100  20.539  1.00  0.00     0.143 C 
ATOM     22  C   UNL A   1      28.776  32.985  22.745  1.00  0.00     0.143 C 
ENDBRANCH  15  20
ENDBRANCH  13  14
ENDBRANCH   9  12
ENDBRANCH   7   8
ENDBRANCH   3   6
ENDBRANCH   1   2
BRANCH   1  23
ATOM     23  C   UNL A   1      33.804  28.646  24.546  1.00  0.00     0.042 C 
BRANCH  23  24
ATOM     24  C   UNL A   1      33.823  28.805  26.065  1.00  0.00     0.118 C 
BRANCH  24  25
ATOM     25  N   UNL A   1      33.578  30.176  26.474  1.00  0.00    -0.352 N 
ATOM     26  C   UNL A   1      34.223  30.949  27.407  1.00  0.00     0.251 C 
ATOM     27  H   UNL A   1      32.833  30.621  26.009  1.00  0.00     0.163 HD
ATOM     28  O   UNL A   1      33.700  32.004  27.764  1.00  0.00    -0.269 OA
BRANCH  26  29
ATOM     29  C   UNL A   1      35.523  30.542  27.992  1.00  0.00     0.039 A 
ATOM     30  C   UNL A   1      35.519  29.572  29.001  1.00  0.00     0.014 A 
ATOM     31  C   UNL A   1      36.724  31.168  27.642  1.00  0.00     0.014 A 
ATOM     32  C   UNL A   1      36.712  29.217  29.638  1.00  0.00     0.010 A 
ATOM     33  C   UNL A   1      37.924  30.775  28.246  1.00  0.00     0.010 A 
ATOM     34  C   UNL A   1      37.927  29.809  29.264  1.00  0.00    -0.014 A 
BRANCH  34  35
ATOM     35  C   UNL A   1      39.189  29.437  29.960  1.00  0.00     0.031 A 
ATOM     36  C   UNL A   1      39.606  30.141  31.225  1.00  0.00     0.074 A 
ATOM     37  C   UNL A   1      39.968  28.458  29.458  1.00  0.00     0.049 A 
ATOM     38  N   UNL A   1      40.641  29.911  31.995  1.00  0.00    -0.248 NA
ATOM     39  C   UNL A   1      38.759  31.256  31.679  1.00  0.00     0.031 C 
ATOM     40  C   UNL A   1      39.704  27.717  28.223  1.00  0.00     0.029 A 
ATOM     41  N   UNL A   1      41.137  27.915  29.929  1.00  0.00    -0.354 N 
ATOM     42  C   UNL A   1      40.575  30.852  33.016  1.00  0.00     0.074 A 
ATOM     43  C   UNL A   1      39.421  31.683  32.745  1.00  0.00     0.031 C 
ATOM     44  C   UNL A   1      40.668  26.798  28.050  1.00  0.00     0.029 A 
ATOM     45  C   UNL A   1      41.627  26.896  29.147  1.00  0.00     0.049 A 
ATOM     46  H   UNL A   1      41.583  28.225  30.751  1.00  0.00     0.167 HD
ATOM     47  C   UNL A   1      41.387  31.003  34.091  1.00  0.00     0.031 A 
ATOM     48  C   UNL A   1      42.717  26.118  29.297  1.00  0.00     0.031 A 
ATOM     49  C   UNL A   1      42.532  30.177  34.371  1.00  0.00     0.049 A 
ATOM     50  C   UNL A   1      43.596  26.294  30.505  1.00  0.00     0.074 A 
ATOM     51  C   UNL A   1      43.386  30.228  35.461  1.00  0.00     0.029 A 
ATOM     52  N   UNL A   1      42.986  29.150  33.557  1.00  0.00    -0.354 N 
ATOM     53  N   UNL A   1      43.476  27.148  31.494  1.00  0.00    -0.248 NA
ATOM     54  C   UNL A   1      44.744  25.385  30.627  1.00  0.00     0.031 C 
ATOM     55  C   UNL A   1      44.377  29.255  35.288  1.00  0.00     0.029 A 
ATOM     56  C   UNL A   1      44.115  28.570  34.113  1.00  0.00     0.049 A 
ATOM     57  H   UNL A   1      42.568  28.874  32.711  1.00  0.00     0.167 HD
ATOM     58  C   UNL A   1      44.520  26.862  32.367  1.00  0.00     0.074 A 
ATOM     59  C   UNL A   1      45.252  25.749  31.798  1.00  0.00     0.031 C 
ATOM     60  C   UNL A   1      44.839  27.464  33.539  1.00  0.00     0.031 A 
BRANCH  47  61
ATOM     61  C   UNL A   1      41.063  32.117  35.051  1.00  0.00    -0.014 A 
ATOM     62  C   UNL A   1      41.627  33.396  34.892  1.00  0.00     0.010 A 
ATOM     63  C   UNL A   1      40.156  31.895  36.103  1.00  0.00     0.010 A 
ATOM     64  C   UNL A   1      41.323  34.420  35.793  1.00  0.00     0.020 A 
ATOM     65  C   UNL A   1      39.832  32.923  36.992  1.00  0.00     0.020 A 
ATOM     66  C   UNL A   1      40.433  34.176  36.841  1.00  0.00     0.054 A 
BRANCH  66  67
ATOM     67  S   UNL A   1      40.043  35.524  37.992  1.00  0.00     0.124 S 
ATOM     68  O   UNL A   1      39.764  36.627  37.075  1.00  0.00    -0.237 OA
ATOM     69  O   UNL A   1      38.885  35.004  38.718  1.00  0.00    -0.237 OA
ATOM     70  O   UNL A   1      41.259  35.664  38.785  1.00  0.00    -0.744 OA
ENDBRANCH  66  67
ENDBRANCH  47  61
BRANCH  48  71
ATOM     71  C   UNL A   1      43.020  25.071  28.286  1.00  0.00    -0.014 A 
ATOM     72  C   UNL A   1      43.844  25.363  27.185  1.00  0.00     0.010 A 
ATOM     73  C   UNL A   1      42.498  23.774  28.429  1.00  0.00     0.010 A 
ATOM     74  C   UNL A   1      44.130  24.377  26.236  1.00  0.00     0.020 A 
ATOM     75  C   UNL A   1      42.801  22.780  27.494  1.00  0.00     0.020 A 
ATOM     76  C   UNL A   1      43.606  23.091  26.397  1.00  0.00     0.054 A 
BRANCH  76  77
ATOM     77  S   UNL A   1      44.037  21.810  25.187  1.00  0.00     0.124 S 
ATOM     78  O   UNL A   1      43.863  22.516  23.922  1.00  0.00    -0.237 OA
ATOM     79  O   UNL A   1      45.415  21.483  25.545  1.00  0.00    -0.237 OA
ATOM     80  O   UNL A   1      43.067  20.751  25.454  1.00  0.00    -0.744 OA
ENDBRANCH  76  77
ENDBRANCH  48  71
BRANCH  60  81
ATOM     81  C   UNL A   1      46.014  26.913  34.302  1.00  0.00    -0.014 A 
ATOM     82  C   UNL A   1      45.862  25.843  35.200  1.00  0.00     0.010 A 
ATOM     83  C   UNL A   1      47.294  27.457  34.092  1.00  0.00     0.010 A 
ATOM     84  C   UNL A   1      46.965  25.350  35.904  1.00  0.00     0.020 A 
ATOM     85  C   UNL A   1      48.402  26.952  34.776  1.00  0.00     0.020 A 
ATOM     86  C   UNL A   1      48.228  25.913  35.692  1.00  0.00     0.054 A 
BRANCH  86  87
ATOM     87  S   UNL A   1      49.650  25.242  36.597  1.00  0.00     0.124 S 
ATOM     88  O   UNL A   1      50.393  24.568  35.536  1.00  0.00    -0.237 OA
ATOM     89  O   UNL A   1      50.282  26.441  37.143  1.00  0.00    -0.237 OA
ATOM     90  O   UNL A   1      49.042  24.360  37.591  1.00  0.00    -0.744 OA
ENDBRANCH  86  87
ENDBRANCH  60  81
ENDBRANCH  34  35
ENDBRANCH  26  29
ENDBRANCH  24  25
ENDBRANCH  23  24
ENDBRANCH   1  23
TORSDOF 17
ENDMDL
MODEL 2
REMARK VINA RESULT:     -10.7      3.579      5.712
REMARK SMILES CN(C)c1ccc(/C=N/NC(=O)/C=C\C(=O)NCCCNC(=O)c2ccc(-c3c4nc(c(-c5ccc(S(=O)(=O)[O-])cc5)c5ccc([nH]5)c(-c5ccc(S(=O)(=O)[O-])cc5)c5nc(c(-c6ccc(S(=O)(=O)[O-])cc6)c6ccc3[nH]6)C=C5)C=C4)cc2)cc1
REMARK SMILES IDX 18 1 17 2 15 3 16 4 14 6 13 7 11 8 10 9 12 11 9 12 8 13 7 14
REMARK SMILES IDX 4 15 5 16 85 17 6 18 84 19 2 20 1 21 3 22 19 23 20 24 21 25
REMARK SMILES IDX 22 26 23 28 24 29 25 30 83 31 26 32 82 33 27 34 28 35 29 36
REMARK SMILES IDX 76 37 30 38 81 39 75 40 77 41 31 42 80 43 74 44 73 45 32 47
REMARK SMILES IDX 62 48 43 49 61 50 44 51 47 52 60 53 78 54 45 55 46 56 59 58
REMARK SMILES IDX 79 59 48 60 33 61 34 62 42 63 35 64 41 65 36 66 37 67 38 68
REMARK SMILES IDX 39 69 40 70 63 71 64 72 72 73 65 74 71 75 66 76 67 77 68 78
REMARK SMILES IDX 69 79 70 80 49 81 50 82 58 83 51 84 57 85 52 86 53 87 54 88
REMARK SMILES IDX 55 89 56 90
REMARK H PARENT 17 5 10 10 21 27 77 46 47 57
REMARK Flexibility Score: inf
ROOT
ATOM      1  C   UNL A   1      32.368  27.463  24.933  1.00  0.00     0.118 C 
ENDROOT
BRANCH   1   2
ATOM      2  N   UNL A   1      32.325  26.173  25.593  1.00  0.00    -0.352 N 
ATOM      3  C   UNL A   1      33.156  25.107  25.515  1.00  0.00     0.244 C 
ATOM      4  O   UNL A   1      33.119  24.230  26.377  1.00  0.00    -0.270 OA
ATOM      5  H   UNL A   1      31.561  26.050  26.203  1.00  0.00     0.163 HD
BRANCH   3   6
ATOM      6  C   UNL A   1      34.202  25.032  24.485  1.00  0.00     0.077 C 
ATOM      7  C   UNL A   1      34.082  24.700  23.193  1.00  0.00     0.079 C 
BRANCH   7   8
ATOM      8  C   UNL A   1      32.895  24.429  22.352  1.00  0.00     0.264 C 
ATOM      9  N   UNL A   1      32.368  23.182  22.172  1.00  0.00    -0.244 N 
ATOM     10  H   UNL A   1      31.531  23.164  21.654  1.00  0.00     0.194 HD
ATOM     11  O   UNL A   1      32.382  25.395  21.784  1.00  0.00    -0.268 OA
BRANCH   9  12
ATOM     12  N   UNL A   1      32.800  21.962  22.584  1.00  0.00    -0.180 NA
ATOM     13  C   UNL A   1      32.058  21.323  23.433  1.00  0.00     0.141 C 
BRANCH  13  14
ATOM     14  C   UNL A   1      32.427  19.987  23.936  1.00  0.00    -0.005 A 
ATOM     15  C   UNL A   1      33.214  17.467  24.944  1.00  0.00     0.036 A 
ATOM     16  C   UNL A   1      32.829  17.631  23.603  1.00  0.00     0.026 A 
ATOM     17  C   UNL A   1      33.155  18.599  25.772  1.00  0.00     0.026 A 
ATOM     18  C   UNL A   1      32.433  18.875  23.097  1.00  0.00     0.012 A 
ATOM     19  C   UNL A   1      32.777  19.853  25.276  1.00  0.00     0.012 A 
BRANCH  15  20
ATOM     20  N   UNL A   1      33.650  16.229  25.409  1.00  0.00    -0.378 N 
ATOM     21  C   UNL A   1      35.046  15.842  25.266  1.00  0.00     0.143 C 
ATOM     22  C   UNL A   1      32.654  15.164  25.456  1.00  0.00     0.143 C 
ENDBRANCH  15  20
ENDBRANCH  13  14
ENDBRANCH   9  12
ENDBRANCH   7   8
ENDBRANCH   3   6
ENDBRANCH   1   2
BRANCH   1  23
ATOM     23  C   UNL A   1      33.475  28.394  25.425  1.00  0.00     0.042 C 
BRANCH  23  24
ATOM     24  C   UNL A   1      33.680  28.441  26.937  1.00  0.00     0.118 C 
BRANCH  24  25
ATOM     25  N   UNL A   1      33.588  29.793  27.460  1.00  0.00    -0.352 N 
ATOM     26  C   UNL A   1      34.487  30.518  28.199  1.00  0.00     0.251 C 
ATOM     27  H   UNL A   1      32.748  30.262  27.250  1.00  0.00     0.163 HD
ATOM     28  O   UNL A   1      34.108  31.556  28.739  1.00  0.00    -0.269 OA
BRANCH  26  29
ATOM     29  C   UNL A   1      35.894  30.079  28.366  1.00  0.00     0.039 A 
ATOM     30  C   UNL A   1      36.304  29.638  29.629  1.00  0.00     0.014 A 
ATOM     31  C   UNL A   1      36.834  30.190  27.336  1.00  0.00     0.014 A 
ATOM     32  C   UNL A   1      37.640  29.292  29.852  1.00  0.00     0.010 A 
ATOM     33  C   UNL A   1      38.159  29.795  27.547  1.00  0.00     0.010 A 
ATOM     34  C   UNL A   1      38.581  29.360  28.813  1.00  0.00    -0.014 A 
BRANCH  34  35
ATOM     35  C   UNL A   1      40.004  29.006  29.065  1.00  0.00     0.031 A 
ATOM     36  C   UNL A   1      40.939  29.994  29.713  1.00  0.00     0.074 A 
ATOM     37  C   UNL A   1      40.464  27.789  28.713  1.00  0.00     0.049 A 
ATOM     38  N   UNL A   1      42.193  29.838  30.060  1.00  0.00    -0.248 NA
ATOM     39  C   UNL A   1      40.402  31.334  29.999  1.00  0.00     0.031 C 
ATOM     40  C   UNL A   1      39.679  26.749  28.046  1.00  0.00     0.029 A 
ATOM     41  N   UNL A   1      41.703  27.220  28.874  1.00  0.00    -0.354 N 
ATOM     42  C   UNL A   1      42.596  31.056  30.596  1.00  0.00     0.074 A 
ATOM     43  C   UNL A   1      41.465  31.953  30.491  1.00  0.00     0.031 C 
ATOM     44  C   UNL A   1      40.448  25.660  27.880  1.00  0.00     0.029 A 
ATOM     45  C   UNL A   1      41.783  25.929  28.409  1.00  0.00     0.049 A 
ATOM     46  H   UNL A   1      42.464  27.693  29.284  1.00  0.00     0.167 HD
ATOM     47  C   UNL A   1      43.789  31.395  31.142  1.00  0.00     0.031 A 
ATOM     48  C   UNL A   1      42.806  25.053  28.416  1.00  0.00     0.031 A 
ATOM     49  C   UNL A   1      44.916  30.506  31.256  1.00  0.00     0.049 A 
ATOM     50  C   UNL A   1      44.117  25.446  29.040  1.00  0.00     0.074 A 
ATOM     51  C   UNL A   1      46.150  30.749  31.837  1.00  0.00     0.029 A 
ATOM     52  N   UNL A   1      44.949  29.204  30.781  1.00  0.00    -0.354 N 
ATOM     53  N   UNL A   1      44.455  26.582  29.601  1.00  0.00    -0.248 NA
ATOM     54  C   UNL A   1      45.177  24.428  29.050  1.00  0.00     0.031 C 
ATOM     55  C   UNL A   1      46.942  29.605  31.680  1.00  0.00     0.029 A 
ATOM     56  C   UNL A   1      46.186  28.636  31.042  1.00  0.00     0.049 A 
ATOM     57  H   UNL A   1      44.204  28.749  30.327  1.00  0.00     0.167 HD
ATOM     58  C   UNL A   1      45.758  26.407  30.053  1.00  0.00     0.074 A 
ATOM     59  C   UNL A   1      46.143  25.052  29.712  1.00  0.00     0.031 C 
ATOM     60  C   UNL A   1      46.562  27.288  30.698  1.00  0.00     0.031 A 
BRANCH  47  61
ATOM     61  C   UNL A   1      43.939  32.801  31.659  1.00  0.00    -0.014 A 
ATOM     62  C   UNL A   1      44.398  33.834  30.822  1.00  0.00     0.010 A 
ATOM     63  C   UNL A   1      43.582  33.102  32.985  1.00  0.00     0.010 A 
ATOM     64  C   UNL A   1      44.539  35.134  31.314  1.00  0.00     0.020 A 
ATOM     65  C   UNL A   1      43.699  34.406  33.475  1.00  0.00     0.020 A 
ATOM     66  C   UNL A   1      44.194  35.411  32.640  1.00  0.00     0.054 A 
BRANCH  66  67
ATOM     67  S   UNL A   1      44.373  37.109  33.254  1.00  0.00     0.124 S 
ATOM     68  O   UNL A   1      45.427  36.955  34.255  1.00  0.00    -0.237 OA
ATOM     69  O   UNL A   1      44.753  37.849  32.053  1.00  0.00    -0.237 OA
ATOM     70  O   UNL A   1      43.051  37.426  33.785  1.00  0.00    -0.744 OA
ENDBRANCH  66  67
ENDBRANCH  47  61
BRANCH  48  71
ATOM     71  C   UNL A   1      42.619  23.695  27.839  1.00  0.00    -0.014 A 
ATOM     72  C   UNL A   1      42.315  22.604  28.671  1.00  0.00     0.010 A 
ATOM     73  C   UNL A   1      42.728  23.493  26.452  1.00  0.00     0.010 A 
ATOM     74  C   UNL A   1      42.137  21.329  28.128  1.00  0.00     0.020 A 
ATOM     75  C   UNL A   1      42.528  22.222  25.903  1.00  0.00     0.020 A 
ATOM     76  C   UNL A   1      42.245  21.146  26.746  1.00  0.00     0.054 A 
BRANCH  76  77
ATOM     77  S   UNL A   1      41.953  19.495  26.053  1.00  0.00     0.124 S 
ATOM     78  O   UNL A   1      40.514  19.517  25.815  1.00  0.00    -0.237 OA
ATOM     79  O   UNL A   1      42.793  19.496  24.858  1.00  0.00    -0.237 OA
ATOM     80  O   UNL A   1      42.400  18.597  27.116  1.00  0.00    -0.744 OA
ENDBRANCH  76  77
ENDBRANCH  48  71
BRANCH  60  81
ATOM     81  C   UNL A   1      47.928  26.807  31.106  1.00  0.00    -0.014 A 
ATOM     82  C   UNL A   1      48.137  26.169  32.342  1.00  0.00     0.010 A 
ATOM     83  C   UNL A   1      49.013  26.968  30.225  1.00  0.00     0.010 A 
ATOM     84  C   UNL A   1      49.415  25.735  32.705  1.00  0.00     0.020 A 
ATOM     85  C   UNL A   1      50.287  26.515  30.575  1.00  0.00     0.020 A 
ATOM     86  C   UNL A   1      50.484  25.917  31.821  1.00  0.00     0.054 A 
BRANCH  86  87
ATOM     87  S   UNL A   1      52.130  25.324  32.301  1.00  0.00     0.124 S 
ATOM     88  O   UNL A   1      52.944  25.734  31.161  1.00  0.00    -0.237 OA
ATOM     89  O   UNL A   1      52.385  26.044  33.547  1.00  0.00    -0.237 OA
ATOM     90  O   UNL A   1      51.947  23.881  32.451  1.00  0.00    -0.744 OA
ENDBRANCH  86  87
ENDBRANCH  60  81
ENDBRANCH  34  35
ENDBRANCH  26  29
ENDBRANCH  24  25
ENDBRANCH  23  24
ENDBRANCH   1  23
TORSDOF 17
ENDMDL
MODEL 3
REMARK VINA RESULT:     -10.6      2.430      4.828
REMARK SMILES CN(C)c1ccc(/C=N/NC(=O)/C=C\C(=O)NCCCNC(=O)c2ccc(-c3c4nc(c(-c5ccc(S(=O)(=O)[O-])cc5)c5ccc([nH]5)c(-c5ccc(S(=O)(=O)[O-])cc5)c5nc(c(-c6ccc(S(=O)(=O)[O-])cc6)c6ccc3[nH]6)C=C5)C=C4)cc2)cc1
REMARK SMILES IDX 18 1 17 2 15 3 16 4 14 6 13 7 11 8 10 9 12 11 9 12 8 13 7 14
REMARK SMILES IDX 4 15 5 16 85 17 6 18 84 19 2 20 1 21 3 22 19 23 20 24 21 25
REMARK SMILES IDX 22 26 23 28 24 29 25 30 83 31 26 32 82 33 27 34 28 35 29 36
REMARK SMILES IDX 76 37 30 38 81 39 75 40 77 41 31 42 80 43 74 44 73 45 32 47
REMARK SMILES IDX 62 48 43 49 61 50 44 51 47 52 60 53 78 54 45 55 46 56 59 58
REMARK SMILES IDX 79 59 48 60 33 61 34 62 42 63 35 64 41 65 36 66 37 67 38 68
REMARK SMILES IDX 39 69 40 70 63 71 64 72 72 73 65 74 71 75 66 76 67 77 68 78
REMARK SMILES IDX 69 79 70 80 49 81 50 82 58 83 51 84 57 85 52 86 53 87 54 88
REMARK SMILES IDX 55 89 56 90
REMARK H PARENT 17 5 10 10 21 27 77 46 47 57
REMARK Flexibility Score: inf
ROOT
ATOM      1  C   UNL A   1      31.857  27.432  26.024  1.00  0.00     0.118 C 
ENDROOT
BRANCH   1   2
ATOM      2  N   UNL A   1      31.649  26.006  26.193  1.00  0.00    -0.352 N 
ATOM      3  C   UNL A   1      32.459  24.954  25.933  1.00  0.00     0.244 C 
ATOM      4  O   UNL A   1      32.220  23.853  26.427  1.00  0.00    -0.270 OA
ATOM      5  H   UNL A   1      30.768  25.763  26.560  1.00  0.00     0.163 HD
BRANCH   3   6
ATOM      6  C   UNL A   1      33.704  25.121  25.169  1.00  0.00     0.077 C 
ATOM      7  C   UNL A   1      33.906  24.966  23.854  1.00  0.00     0.079 C 
BRANCH   7   8
ATOM      8  C   UNL A   1      32.971  24.709  22.738  1.00  0.00     0.264 C 
ATOM      9  N   UNL A   1      32.575  23.458  22.358  1.00  0.00    -0.244 N 
ATOM     10  H   UNL A   1      31.888  23.443  21.654  1.00  0.00     0.194 HD
ATOM     11  O   UNL A   1      32.551  25.692  22.124  1.00  0.00    -0.268 OA
BRANCH   9  12
ATOM     12  N   UNL A   1      32.968  22.230  22.786  1.00  0.00    -0.180 NA
ATOM     13  C   UNL A   1      32.094  21.510  23.413  1.00  0.00     0.141 C 
BRANCH  13  14
ATOM     14  C   UNL A   1      32.411  20.158  23.908  1.00  0.00    -0.005 A 
ATOM     15  C   UNL A   1      33.093  17.605  24.912  1.00  0.00     0.036 A 
ATOM     16  C   UNL A   1      32.890  17.821  23.539  1.00  0.00     0.026 A 
ATOM     17  C   UNL A   1      32.904  18.701  25.769  1.00  0.00     0.026 A 
ATOM     18  C   UNL A   1      32.547  19.081  23.034  1.00  0.00     0.012 A 
ATOM     19  C   UNL A   1      32.578  19.971  25.277  1.00  0.00     0.012 A 
BRANCH  15  20
ATOM     20  N   UNL A   1      33.480  16.353  25.383  1.00  0.00    -0.378 N 
ATOM     21  C   UNL A   1      34.787  15.814  25.040  1.00  0.00     0.143 C 
ATOM     22  C   UNL A   1      32.409  15.404  25.665  1.00  0.00     0.143 C 
ENDBRANCH  15  20
ENDBRANCH  13  14
ENDBRANCH   9  12
ENDBRANCH   7   8
ENDBRANCH   3   6
ENDBRANCH   1   2
BRANCH   1  23
ATOM     23  C   UNL A   1      33.013  28.009  26.840  1.00  0.00     0.042 C 
BRANCH  23  24
ATOM     24  C   UNL A   1      33.889  29.031  26.119  1.00  0.00     0.118 C 
BRANCH  24  25
ATOM     25  N   UNL A   1      33.636  30.386  26.574  1.00  0.00    -0.352 N 
ATOM     26  C   UNL A   1      34.274  31.131  27.534  1.00  0.00     0.251 C 
ATOM     27  H   UNL A   1      32.889  30.842  26.123  1.00  0.00     0.163 HD
ATOM     28  O   UNL A   1      33.745  32.169  27.926  1.00  0.00    -0.269 OA
BRANCH  26  29
ATOM     29  C   UNL A   1      35.576  30.711  28.108  1.00  0.00     0.039 A 
ATOM     30  C   UNL A   1      35.577  29.702  29.077  1.00  0.00     0.014 A 
ATOM     31  C   UNL A   1      36.773  31.360  27.787  1.00  0.00     0.014 A 
ATOM     32  C   UNL A   1      36.770  29.332  29.704  1.00  0.00     0.010 A 
ATOM     33  C   UNL A   1      37.974  30.954  28.379  1.00  0.00     0.010 A 
ATOM     34  C   UNL A   1      37.982  29.948  29.358  1.00  0.00    -0.014 A 
BRANCH  34  35
ATOM     35  C   UNL A   1      39.244  29.559  30.043  1.00  0.00     0.031 A 
ATOM     36  C   UNL A   1      39.675  30.248  31.312  1.00  0.00     0.074 A 
ATOM     37  C   UNL A   1      40.012  28.579  29.528  1.00  0.00     0.049 A 
ATOM     38  N   UNL A   1      40.712  30.002  32.074  1.00  0.00    -0.248 NA
ATOM     39  C   UNL A   1      38.840  31.365  31.781  1.00  0.00     0.031 C 
ATOM     40  C   UNL A   1      39.735  27.852  28.287  1.00  0.00     0.029 A 
ATOM     41  N   UNL A   1      41.180  28.021  29.987  1.00  0.00    -0.354 N 
ATOM     42  C   UNL A   1      40.659  30.934  33.105  1.00  0.00     0.074 A 
ATOM     43  C   UNL A   1      39.511  31.776  32.848  1.00  0.00     0.031 C 
ATOM     44  C   UNL A   1      40.691  26.926  28.100  1.00  0.00     0.029 A 
ATOM     45  C   UNL A   1      41.657  27.006  29.192  1.00  0.00     0.049 A 
ATOM     46  H   UNL A   1      41.633  28.320  30.809  1.00  0.00     0.167 HD
ATOM     47  C   UNL A   1      41.479  31.068  34.176  1.00  0.00     0.031 A 
ATOM     48  C   UNL A   1      42.741  26.218  29.329  1.00  0.00     0.031 A 
ATOM     49  C   UNL A   1      42.618  30.230  34.442  1.00  0.00     0.049 A 
ATOM     50  C   UNL A   1      43.628  26.376  30.534  1.00  0.00     0.074 A 
ATOM     51  C   UNL A   1      43.479  30.263  35.527  1.00  0.00     0.029 A 
ATOM     52  N   UNL A   1      43.060  29.208  33.616  1.00  0.00    -0.354 N 
ATOM     53  N   UNL A   1      43.522  27.221  31.531  1.00  0.00    -0.248 NA
ATOM     54  C   UNL A   1      44.770  25.456  30.640  1.00  0.00     0.031 C 
ATOM     55  C   UNL A   1      44.461  29.284  35.339  1.00  0.00     0.029 A 
ATOM     56  C   UNL A   1      44.187  28.613  34.160  1.00  0.00     0.049 A 
ATOM     57  H   UNL A   1      42.634  28.943  32.769  1.00  0.00     0.167 HD
ATOM     58  C   UNL A   1      44.567  26.918  32.395  1.00  0.00     0.074 A 
ATOM     59  C   UNL A   1      45.287  25.804  31.811  1.00  0.00     0.031 C 
ATOM     60  C   UNL A   1      44.898  27.507  33.571  1.00  0.00     0.031 A 
BRANCH  47  61
ATOM     61  C   UNL A   1      41.170  32.176  35.149  1.00  0.00    -0.014 A 
ATOM     62  C   UNL A   1      40.265  31.977  36.207  1.00  0.00     0.010 A 
ATOM     63  C   UNL A   1      41.819  33.417  35.026  1.00  0.00     0.010 A 
ATOM     64  C   UNL A   1      39.982  33.014  37.100  1.00  0.00     0.020 A 
ATOM     65  C   UNL A   1      41.556  34.450  35.931  1.00  0.00     0.020 A 
ATOM     66  C   UNL A   1      40.625  34.246  36.953  1.00  0.00     0.054 A 
BRANCH  66  67
ATOM     67  S   UNL A   1      40.252  35.574  38.131  1.00  0.00     0.124 S 
ATOM     68  O   UNL A   1      41.550  35.782  38.769  1.00  0.00    -0.237 OA
ATOM     69  O   UNL A   1      39.801  36.660  37.262  1.00  0.00    -0.237 OA
ATOM     70  O   UNL A   1      39.221  34.999  38.988  1.00  0.00    -0.744 OA
ENDBRANCH  66  67
ENDBRANCH  47  61
BRANCH  48  71
ATOM     71  C   UNL A   1      43.030  25.178  28.306  1.00  0.00    -0.014 A 
ATOM     72  C   UNL A   1      43.881  25.462  27.224  1.00  0.00     0.010 A 
ATOM     73  C   UNL A   1      42.468  23.895  28.420  1.00  0.00     0.010 A 
ATOM     74  C   UNL A   1      44.154  24.483  26.264  1.00  0.00     0.020 A 
ATOM     75  C   UNL A   1      42.756  22.907  27.474  1.00  0.00     0.020 A 
ATOM     76  C   UNL A   1      43.589  23.211  26.396  1.00  0.00     0.054 A 
BRANCH  76  77
ATOM     77  S   UNL A   1      44.002  21.936  25.172  1.00  0.00     0.124 S 
ATOM     78  O   UNL A   1      43.029  20.894  25.480  1.00  0.00    -0.237 OA
ATOM     79  O   UNL A   1      43.802  22.634  23.904  1.00  0.00    -0.237 OA
ATOM     80  O   UNL A   1      45.392  21.609  25.479  1.00  0.00    -0.744 OA
ENDBRANCH  76  77
ENDBRANCH  48  71
BRANCH  60  81
ATOM     81  C   UNL A   1      46.073  26.939  34.322  1.00  0.00    -0.014 A 
ATOM     82  C   UNL A   1      47.339  27.547  34.261  1.00  0.00     0.010 A 
ATOM     83  C   UNL A   1      45.897  25.797  35.125  1.00  0.00     0.010 A 
ATOM     84  C   UNL A   1      48.419  27.000  34.960  1.00  0.00     0.020 A 
ATOM     85  C   UNL A   1      46.969  25.261  35.843  1.00  0.00     0.020 A 
ATOM     86  C   UNL A   1      48.229  25.856  35.742  1.00  0.00     0.054 A 
BRANCH  86  87
ATOM     87  S   UNL A   1      49.638  25.176  36.661  1.00  0.00     0.124 S 
ATOM     88  O   UNL A   1      49.524  23.749  36.377  1.00  0.00    -0.237 OA
ATOM     89  O   UNL A   1      50.780  25.851  36.050  1.00  0.00    -0.237 OA
ATOM     90  O   UNL A   1      49.364  25.562  38.045  1.00  0.00    -0.744 OA
ENDBRANCH  86  87
ENDBRANCH  60  81
ENDBRANCH  34  35
ENDBRANCH  26  29
ENDBRANCH  24  25
ENDBRANCH  23  24
ENDBRANCH   1  23
TORSDOF 17
ENDMDL
