MODEL 1
REMARK VINA RESULT:     -12.5      0.000      0.000
REMARK SMILES O=C(NCCCNC(=O)c1ccc(Cn2ccc3ccc(Br)cc32)nc1)c1ccc(-c2c3nc(c(-c4ccc(S(=O)(=O)[O-])cc4)c4ccc([nH]4)c(-c4ccc(S(=O)(=O)[O-])cc4)c4nc(c(-c5ccc(S(=O)(=O)[O-])cc5)c5ccc2[nH]5)C=C4)C=C3)cc1
REMARK SMILES IDX 4 1 3 2 1 3 2 4 27 6 28 7 86 8 29 9 85 10 30 11 31 12 32 13
REMARK SMILES IDX 79 14 33 15 84 16 78 17 80 18 34 19 83 20 77 21 76 22 35 24
REMARK SMILES IDX 65 25 46 26 64 27 47 28 50 29 63 30 81 31 48 32 49 33 62 35
REMARK SMILES IDX 82 36 51 37 36 38 37 39 45 40 38 41 44 42 39 43 40 44 41 45
REMARK SMILES IDX 42 46 43 47 66 48 67 49 75 50 68 51 74 52 69 53 70 54 71 55
REMARK SMILES IDX 72 56 73 57 52 58 53 59 61 60 54 61 60 62 55 63 56 64 57 65
REMARK SMILES IDX 58 66 59 67 5 68 6 69 7 70 8 71 9 73 10 74 11 75 26 76 12 77
REMARK SMILES IDX 25 78 13 79 14 80 15 81 16 82 24 83 17 84 18 85 23 86 19 87
REMARK SMILES IDX 21 88 20 89 22 90
REMARK H PARENT 3 5 80 23 50 34 7 72
REMARK Flexibility Score: inf
ROOT
ATOM      1  C   UNL A   1      41.285  21.346  26.746  1.00  0.00     0.118 C 
ENDROOT
BRANCH   1   2
ATOM      2  N   UNL A   1      42.365  21.845  25.877  1.00  0.00    -0.352 N 
ATOM      3  O   UNL A   1      43.387  23.485  24.667  1.00  0.00    -0.269 OA
ATOM      4  C   UNL A   1      42.713  23.173  25.624  1.00  0.00     0.251 C 
ATOM      5  H   UNL A   1      42.905  21.160  25.420  1.00  0.00     0.163 HD
BRANCH   4   6
ATOM      6  C   UNL A   1      42.235  24.178  26.596  1.00  0.00     0.039 A 
ATOM      7  C   UNL A   1      42.792  24.356  27.863  1.00  0.00     0.014 A 
ATOM      8  C   UNL A   1      41.308  25.071  26.092  1.00  0.00     0.014 A 
ATOM      9  C   UNL A   1      42.479  25.526  28.557  1.00  0.00     0.010 A 
ATOM     10  C   UNL A   1      41.284  26.326  26.617  1.00  0.00     0.010 A 
ATOM     11  C   UNL A   1      41.750  26.536  27.901  1.00  0.00    -0.014 A 
BRANCH  11  12
ATOM     12  C   UNL A   1      41.517  27.859  28.469  1.00  0.00     0.031 A 
ATOM     13  C   UNL A   1      42.540  28.870  28.124  1.00  0.00     0.074 A 
ATOM     14  C   UNL A   1      40.382  28.200  29.125  1.00  0.00     0.049 A 
ATOM     15  N   UNL A   1      43.489  29.280  28.894  1.00  0.00    -0.248 NA
ATOM     16  C   UNL A   1      42.651  29.346  26.736  1.00  0.00     0.031 C 
ATOM     17  C   UNL A   1      39.162  27.404  29.349  1.00  0.00     0.029 A 
ATOM     18  N   UNL A   1      40.033  29.400  29.660  1.00  0.00    -0.354 N 
ATOM     19  C   UNL A   1      44.160  30.260  28.182  1.00  0.00     0.074 A 
ATOM     20  C   UNL A   1      43.750  30.103  26.809  1.00  0.00     0.031 C 
ATOM     21  C   UNL A   1      38.144  28.206  29.731  1.00  0.00     0.029 A 
ATOM     22  C   UNL A   1      38.688  29.520  29.996  1.00  0.00     0.049 A 
ATOM     23  H   UNL A   1      40.682  30.128  29.799  1.00  0.00     0.167 HD
ATOM     24  C   UNL A   1      44.789  31.280  28.830  1.00  0.00     0.031 A 
ATOM     25  C   UNL A   1      38.062  30.607  30.512  1.00  0.00     0.031 A 
ATOM     26  C   UNL A   1      44.885  31.020  30.248  1.00  0.00     0.049 A 
ATOM     27  C   UNL A   1      39.114  31.417  31.167  1.00  0.00     0.074 A 
ATOM     28  C   UNL A   1      45.459  30.021  31.008  1.00  0.00     0.029 A 
ATOM     29  N   UNL A   1      43.945  31.623  31.054  1.00  0.00    -0.354 N 
ATOM     30  N   UNL A   1      39.768  31.015  32.220  1.00  0.00    -0.248 NA
ATOM     31  C   UNL A   1      39.764  32.455  30.384  1.00  0.00     0.031 C 
ATOM     32  C   UNL A   1      44.520  29.767  32.050  1.00  0.00     0.029 A 
ATOM     33  C   UNL A   1      43.473  30.686  31.938  1.00  0.00     0.049 A 
ATOM     34  H   UNL A   1      43.660  32.565  31.004  1.00  0.00     0.167 HD
ATOM     35  C   UNL A   1      41.080  31.393  31.980  1.00  0.00     0.074 A 
ATOM     36  C   UNL A   1      40.997  32.370  30.893  1.00  0.00     0.031 C 
ATOM     37  C   UNL A   1      42.127  30.674  32.486  1.00  0.00     0.031 A 
BRANCH  24  38
ATOM     38  C   UNL A   1      44.970  32.661  28.257  1.00  0.00    -0.014 A 
ATOM     39  C   UNL A   1      43.898  33.534  27.983  1.00  0.00     0.010 A 
ATOM     40  C   UNL A   1      46.269  33.205  28.198  1.00  0.00     0.010 A 
ATOM     41  C   UNL A   1      44.102  34.871  27.643  1.00  0.00     0.020 A 
ATOM     42  C   UNL A   1      46.482  34.557  27.900  1.00  0.00     0.020 A 
ATOM     43  C   UNL A   1      45.395  35.378  27.612  1.00  0.00     0.054 A 
BRANCH  43  44
ATOM     44  S   UNL A   1      45.612  37.132  27.237  1.00  0.00     0.124 S 
ATOM     45  O   UNL A   1      46.200  37.631  28.478  1.00  0.00    -0.237 OA
ATOM     46  O   UNL A   1      46.508  37.096  26.085  1.00  0.00    -0.237 OA
ATOM     47  O   UNL A   1      44.256  37.594  26.958  1.00  0.00    -0.744 OA
ENDBRANCH  43  44
ENDBRANCH  24  38
BRANCH  25  48
ATOM     48  C   UNL A   1      36.749  31.178  30.118  1.00  0.00    -0.014 A 
ATOM     49  C   UNL A   1      36.483  31.476  28.767  1.00  0.00     0.010 A 
ATOM     50  C   UNL A   1      35.907  31.743  31.096  1.00  0.00     0.010 A 
ATOM     51  C   UNL A   1      35.493  32.401  28.413  1.00  0.00     0.020 A 
ATOM     52  C   UNL A   1      34.914  32.672  30.747  1.00  0.00     0.020 A 
ATOM     53  C   UNL A   1      34.748  33.031  29.410  1.00  0.00     0.054 A 
BRANCH  53  54
ATOM     54  S   UNL A   1      33.650  34.400  28.936  1.00  0.00     0.124 S 
ATOM     55  O   UNL A   1      34.592  35.358  28.362  1.00  0.00    -0.237 OA
ATOM     56  O   UNL A   1      32.744  33.764  27.982  1.00  0.00    -0.237 OA
ATOM     57  O   UNL A   1      33.035  34.807  30.196  1.00  0.00    -0.744 OA
ENDBRANCH  53  54
ENDBRANCH  25  48
BRANCH  37  58
ATOM     58  C   UNL A   1      41.849  29.620  33.544  1.00  0.00    -0.014 A 
ATOM     59  C   UNL A   1      42.122  29.964  34.880  1.00  0.00     0.010 A 
ATOM     60  C   UNL A   1      41.514  28.279  33.260  1.00  0.00     0.010 A 
ATOM     61  C   UNL A   1      42.100  29.006  35.896  1.00  0.00     0.020 A 
ATOM     62  C   UNL A   1      41.460  27.315  34.283  1.00  0.00     0.020 A 
ATOM     63  C   UNL A   1      41.776  27.683  35.592  1.00  0.00     0.054 A 
BRANCH  63  64
ATOM     64  S   UNL A   1      41.800  26.470  36.942  1.00  0.00     0.124 S 
ATOM     65  O   UNL A   1      40.517  26.710  37.599  1.00  0.00    -0.237 OA
ATOM     66  O   UNL A   1      41.904  25.198  36.230  1.00  0.00    -0.237 OA
ATOM     67  O   UNL A   1      42.976  26.835  37.728  1.00  0.00    -0.744 OA
ENDBRANCH  63  64
ENDBRANCH  37  58
ENDBRANCH  11  12
ENDBRANCH   4   6
ENDBRANCH   1   2
BRANCH   1  68
ATOM     68  C   UNL A   1      40.260  20.493  26.026  1.00  0.00     0.042 C 
BRANCH  68  69
ATOM     69  C   UNL A   1      38.998  21.276  25.662  1.00  0.00     0.118 C 
BRANCH  69  70
ATOM     70  N   UNL A   1      38.990  22.654  26.143  1.00  0.00    -0.352 N 
ATOM     71  C   UNL A   1      37.948  23.547  26.219  1.00  0.00     0.252 C 
ATOM     72  H   UNL A   1      39.859  22.994  26.459  1.00  0.00     0.163 HD
ATOM     73  O   UNL A   1      38.126  24.699  26.590  1.00  0.00    -0.269 OA
BRANCH  71  74
ATOM     74  C   UNL A   1      36.612  23.113  25.807  1.00  0.00     0.058 A 
ATOM     75  C   UNL A   1      36.053  23.481  24.583  1.00  0.00     0.017 A 
ATOM     76  C   UNL A   1      35.856  22.373  26.692  1.00  0.00     0.125 A 
ATOM     77  C   UNL A   1      34.721  23.170  24.326  1.00  0.00     0.026 A 
ATOM     78  N   UNL A   1      34.552  22.091  26.473  1.00  0.00    -0.259 NA
ATOM     79  C   UNL A   1      33.996  22.483  25.297  1.00  0.00     0.060 A 
BRANCH  79  80
ATOM     80  C   UNL A   1      32.543  22.136  25.087  1.00  0.00     0.178 C 
BRANCH  80  81
ATOM     81  N   UNL A   1      32.346  21.332  23.887  1.00  0.00    -0.341 N 
ATOM     82  C   UNL A   1      31.905  21.830  22.685  1.00  0.00     0.087 A 
ATOM     83  C   UNL A   1      32.533  19.965  23.792  1.00  0.00     0.049 A 
ATOM     84  C   UNL A   1      31.834  20.783  21.794  1.00  0.00     0.028 A 
ATOM     85  C   UNL A   1      32.245  19.604  22.473  1.00  0.00    -0.000 A 
ATOM     86  C   UNL A   1      32.953  19.016  24.741  1.00  0.00     0.042 A 
ATOM     87  C   UNL A   1      32.400  18.257  22.083  1.00  0.00     0.011 A 
ATOM     88  C   UNL A   1      33.128  17.697  24.321  1.00  0.00     0.020 A 
ATOM     89  C   UNL A   1      32.856  17.315  23.013  1.00  0.00     0.016 A 
ATOM     90  Br  UNL A   1      33.767  16.414  25.557  1.00  0.00    -0.051 Br
ENDBRANCH  80  81
ENDBRANCH  79  80
ENDBRANCH  71  74
ENDBRANCH  69  70
ENDBRANCH  68  69
ENDBRANCH   1  68
TORSDOF 15
ENDMDL
MODEL 2
REMARK VINA RESULT:     -12.5      1.722      2.639
REMARK SMILES O=C(NCCCNC(=O)c1ccc(Cn2ccc3ccc(Br)cc32)nc1)c1ccc(-c2c3nc(c(-c4ccc(S(=O)(=O)[O-])cc4)c4ccc([nH]4)c(-c4ccc(S(=O)(=O)[O-])cc4)c4nc(c(-c5ccc(S(=O)(=O)[O-])cc5)c5ccc2[nH]5)C=C4)C=C3)cc1
REMARK SMILES IDX 4 1 3 2 1 3 2 4 27 6 28 7 86 8 29 9 85 10 30 11 31 12 32 13
REMARK SMILES IDX 79 14 33 15 84 16 78 17 80 18 34 19 83 20 77 21 76 22 35 24
REMARK SMILES IDX 65 25 46 26 64 27 47 28 50 29 63 30 81 31 48 32 49 33 62 35
REMARK SMILES IDX 82 36 51 37 36 38 37 39 45 40 38 41 44 42 39 43 40 44 41 45
REMARK SMILES IDX 42 46 43 47 66 48 67 49 75 50 68 51 74 52 69 53 70 54 71 55
REMARK SMILES IDX 72 56 73 57 52 58 53 59 61 60 54 61 60 62 55 63 56 64 57 65
REMARK SMILES IDX 58 66 59 67 5 68 6 69 7 70 8 71 9 73 10 74 11 75 26 76 12 77
REMARK SMILES IDX 25 78 13 79 14 80 15 81 16 82 24 83 17 84 18 85 23 86 19 87
REMARK SMILES IDX 21 88 20 89 22 90
REMARK H PARENT 3 5 80 23 50 34 7 72
REMARK Flexibility Score: inf
ROOT
ATOM      1  C   UNL A   1      41.435  21.322  26.794  1.00  0.00     0.118 C 
ENDROOT
BRANCH   1   2
ATOM      2  N   UNL A   1      42.475  21.848  25.893  1.00  0.00    -0.352 N 
ATOM      3  O   UNL A   1      43.405  23.508  24.636  1.00  0.00    -0.269 OA
ATOM      4  C   UNL A   1      42.765  23.185  25.612  1.00  0.00     0.251 C 
ATOM      5  H   UNL A   1      43.031  21.177  25.434  1.00  0.00     0.163 HD
BRANCH   4   6
ATOM      6  C   UNL A   1      42.271  24.185  26.580  1.00  0.00     0.039 A 
ATOM      7  C   UNL A   1      42.802  24.354  27.860  1.00  0.00     0.014 A 
ATOM      8  C   UNL A   1      41.357  25.085  26.062  1.00  0.00     0.014 A 
ATOM      9  C   UNL A   1      42.478  25.521  28.554  1.00  0.00     0.010 A 
ATOM     10  C   UNL A   1      41.326  26.336  26.595  1.00  0.00     0.010 A 
ATOM     11  C   UNL A   1      41.766  26.537  27.890  1.00  0.00    -0.014 A 
BRANCH  11  12
ATOM     12  C   UNL A   1      41.525  27.858  28.461  1.00  0.00     0.031 A 
ATOM     13  C   UNL A   1      42.544  28.874  28.119  1.00  0.00     0.074 A 
ATOM     14  C   UNL A   1      40.387  28.192  29.116  1.00  0.00     0.049 A 
ATOM     15  N   UNL A   1      43.489  29.287  28.892  1.00  0.00    -0.248 NA
ATOM     16  C   UNL A   1      42.654  29.354  26.733  1.00  0.00     0.031 C 
ATOM     17  C   UNL A   1      39.171  27.389  29.336  1.00  0.00     0.029 A 
ATOM     18  N   UNL A   1      40.032  29.388  29.654  1.00  0.00    -0.354 N 
ATOM     19  C   UNL A   1      44.157  30.273  28.184  1.00  0.00     0.074 A 
ATOM     20  C   UNL A   1      43.749  30.117  26.810  1.00  0.00     0.031 C 
ATOM     21  C   UNL A   1      38.149  28.184  29.718  1.00  0.00     0.029 A 
ATOM     22  C   UNL A   1      38.685  29.501  29.987  1.00  0.00     0.049 A 
ATOM     23  H   UNL A   1      40.677  30.119  29.795  1.00  0.00     0.167 HD
ATOM     24  C   UNL A   1      44.779  31.294  28.835  1.00  0.00     0.031 A 
ATOM     25  C   UNL A   1      38.054  30.583  30.505  1.00  0.00     0.031 A 
ATOM     26  C   UNL A   1      44.874  31.031  30.252  1.00  0.00     0.049 A 
ATOM     27  C   UNL A   1      39.101  31.397  31.164  1.00  0.00     0.074 A 
ATOM     28  C   UNL A   1      45.453  30.033  31.011  1.00  0.00     0.029 A 
ATOM     29  N   UNL A   1      43.930  31.627  31.059  1.00  0.00    -0.354 N 
ATOM     30  N   UNL A   1      39.755  30.995  32.217  1.00  0.00    -0.248 NA
ATOM     31  C   UNL A   1      39.746  32.440  30.385  1.00  0.00     0.031 C 
ATOM     32  C   UNL A   1      44.513  29.771  32.051  1.00  0.00     0.029 A 
ATOM     33  C   UNL A   1      43.462  30.685  31.940  1.00  0.00     0.049 A 
ATOM     34  H   UNL A   1      43.641  32.567  31.010  1.00  0.00     0.167 HD
ATOM     35  C   UNL A   1      41.065  31.380  31.980  1.00  0.00     0.074 A 
ATOM     36  C   UNL A   1      40.979  32.359  30.895  1.00  0.00     0.031 C 
ATOM     37  C   UNL A   1      42.115  30.665  32.485  1.00  0.00     0.031 A 
BRANCH  24  38
ATOM     38  C   UNL A   1      44.954  32.677  28.266  1.00  0.00    -0.014 A 
ATOM     39  C   UNL A   1      43.878  33.541  27.981  1.00  0.00     0.010 A 
ATOM     40  C   UNL A   1      46.249  33.233  28.222  1.00  0.00     0.010 A 
ATOM     41  C   UNL A   1      44.073  34.880  27.645  1.00  0.00     0.020 A 
ATOM     42  C   UNL A   1      46.454  34.587  27.928  1.00  0.00     0.020 A 
ATOM     43  C   UNL A   1      45.362  35.399  27.629  1.00  0.00     0.054 A 
BRANCH  43  44
ATOM     44  S   UNL A   1      45.568  37.156  27.259  1.00  0.00     0.124 S 
ATOM     45  O   UNL A   1      44.197  37.558  26.953  1.00  0.00    -0.237 OA
ATOM     46  O   UNL A   1      46.113  37.676  28.509  1.00  0.00    -0.237 OA
ATOM     47  O   UNL A   1      46.488  37.162  26.127  1.00  0.00    -0.744 OA
ENDBRANCH  43  44
ENDBRANCH  24  38
BRANCH  25  48
ATOM     48  C   UNL A   1      36.739  31.148  30.110  1.00  0.00    -0.014 A 
ATOM     49  C   UNL A   1      36.456  31.407  28.755  1.00  0.00     0.010 A 
ATOM     50  C   UNL A   1      35.911  31.747  31.082  1.00  0.00     0.010 A 
ATOM     51  C   UNL A   1      35.466  32.326  28.385  1.00  0.00     0.020 A 
ATOM     52  C   UNL A   1      34.919  32.670  30.717  1.00  0.00     0.020 A 
ATOM     53  C   UNL A   1      34.737  32.989  29.372  1.00  0.00     0.054 A 
BRANCH  53  54
ATOM     54  S   UNL A   1      33.640  34.348  28.870  1.00  0.00     0.124 S 
ATOM     55  O   UNL A   1      33.033  34.732  30.143  1.00  0.00    -0.237 OA
ATOM     56  O   UNL A   1      34.574  35.318  28.304  1.00  0.00    -0.237 OA
ATOM     57  O   UNL A   1      32.733  33.727  27.909  1.00  0.00    -0.744 OA
ENDBRANCH  53  54
ENDBRANCH  25  48
BRANCH  37  58
ATOM     58  C   UNL A   1      41.841  29.607  33.540  1.00  0.00    -0.014 A 
ATOM     59  C   UNL A   1      42.084  29.959  34.880  1.00  0.00     0.010 A 
ATOM     60  C   UNL A   1      41.539  28.259  33.253  1.00  0.00     0.010 A 
ATOM     61  C   UNL A   1      42.064  29.002  35.897  1.00  0.00     0.020 A 
ATOM     62  C   UNL A   1      41.487  27.295  34.277  1.00  0.00     0.020 A 
ATOM     63  C   UNL A   1      41.773  27.672  35.590  1.00  0.00     0.054 A 
BRANCH  63  64
ATOM     64  S   UNL A   1      41.798  26.461  36.942  1.00  0.00     0.124 S 
ATOM     65  O   UNL A   1      41.930  25.195  36.226  1.00  0.00    -0.237 OA
ATOM     66  O   UNL A   1      42.973  26.864  37.713  1.00  0.00    -0.237 OA
ATOM     67  O   UNL A   1      40.520  26.659  37.621  1.00  0.00    -0.744 OA
ENDBRANCH  63  64
ENDBRANCH  37  58
ENDBRANCH  11  12
ENDBRANCH   4   6
ENDBRANCH   1   2
BRANCH   1  68
ATOM     68  C   UNL A   1      40.427  20.419  26.110  1.00  0.00     0.042 C 
BRANCH  68  69
ATOM     69  C   UNL A   1      39.122  21.144  25.779  1.00  0.00     0.118 C 
BRANCH  69  70
ATOM     70  N   UNL A   1      39.060  22.517  26.270  1.00  0.00    -0.352 N 
ATOM     71  C   UNL A   1      38.041  23.434  26.173  1.00  0.00     0.252 C 
ATOM     72  H   UNL A   1      39.866  22.833  26.739  1.00  0.00     0.163 HD
ATOM     73  O   UNL A   1      38.176  24.579  26.585  1.00  0.00    -0.269 OA
BRANCH  71  74
ATOM     74  C   UNL A   1      36.790  23.037  25.524  1.00  0.00     0.058 A 
ATOM     75  C   UNL A   1      36.507  23.350  24.195  1.00  0.00     0.017 A 
ATOM     76  C   UNL A   1      35.831  22.393  26.279  1.00  0.00     0.125 A 
ATOM     77  C   UNL A   1      35.236  23.085  23.693  1.00  0.00     0.026 A 
ATOM     78  N   UNL A   1      34.583  22.159  25.819  1.00  0.00    -0.259 NA
ATOM     79  C   UNL A   1      34.294  22.498  24.535  1.00  0.00     0.060 A 
BRANCH  79  80
ATOM     80  C   UNL A   1      32.894  22.207  24.056  1.00  0.00     0.178 C 
BRANCH  80  81
ATOM     81  N   UNL A   1      31.892  22.910  24.850  1.00  0.00    -0.341 N 
ATOM     82  C   UNL A   1      31.137  22.325  25.837  1.00  0.00     0.087 A 
ATOM     83  C   UNL A   1      31.531  24.236  24.702  1.00  0.00     0.049 A 
ATOM     84  C   UNL A   1      30.302  23.287  26.356  1.00  0.00     0.028 A 
ATOM     85  C   UNL A   1      30.551  24.502  25.662  1.00  0.00    -0.000 A 
ATOM     86  C   UNL A   1      31.994  25.234  23.826  1.00  0.00     0.042 A 
ATOM     87  C   UNL A   1      30.032  25.809  25.766  1.00  0.00     0.011 A 
ATOM     88  C   UNL A   1      31.487  26.525  23.970  1.00  0.00     0.020 A 
ATOM     89  C   UNL A   1      30.518  26.817  24.923  1.00  0.00     0.016 A 
ATOM     90  Br  UNL A   1      32.149  27.905  22.857  1.00  0.00    -0.051 Br
ENDBRANCH  80  81
ENDBRANCH  79  80
ENDBRANCH  71  74
ENDBRANCH  69  70
ENDBRANCH  68  69
ENDBRANCH   1  68
TORSDOF 15
ENDMDL
MODEL 3
REMARK VINA RESULT:     -12.4      2.798      4.198
REMARK SMILES O=C(NCCCNC(=O)c1ccc(Cn2ccc3ccc(Br)cc32)nc1)c1ccc(-c2c3nc(c(-c4ccc(S(=O)(=O)[O-])cc4)c4ccc([nH]4)c(-c4ccc(S(=O)(=O)[O-])cc4)c4nc(c(-c5ccc(S(=O)(=O)[O-])cc5)c5ccc2[nH]5)C=C4)C=C3)cc1
REMARK SMILES IDX 4 1 3 2 1 3 2 4 27 6 28 7 86 8 29 9 85 10 30 11 31 12 32 13
REMARK SMILES IDX 79 14 33 15 84 16 78 17 80 18 34 19 83 20 77 21 76 22 35 24
REMARK SMILES IDX 65 25 46 26 64 27 47 28 50 29 63 30 81 31 48 32 49 33 62 35
REMARK SMILES IDX 82 36 51 37 36 38 37 39 45 40 38 41 44 42 39 43 40 44 41 45
REMARK SMILES IDX 42 46 43 47 66 48 67 49 75 50 68 51 74 52 69 53 70 54 71 55
REMARK SMILES IDX 72 56 73 57 52 58 53 59 61 60 54 61 60 62 55 63 56 64 57 65
REMARK SMILES IDX 58 66 59 67 5 68 6 69 7 70 8 71 9 73 10 74 11 75 26 76 12 77
REMARK SMILES IDX 25 78 13 79 14 80 15 81 16 82 24 83 17 84 18 85 23 86 19 87
REMARK SMILES IDX 21 88 20 89 22 90
REMARK H PARENT 3 5 80 23 50 34 7 72
REMARK Flexibility Score: inf
ROOT
ATOM      1  C   UNL A   1      38.238  22.346  25.486  1.00  0.00     0.118 C 
ENDROOT
BRANCH   1   2
ATOM      2  N   UNL A   1      39.001  21.669  26.549  1.00  0.00    -0.352 N 
ATOM      3  O   UNL A   1      40.812  21.471  27.921  1.00  0.00    -0.269 OA
ATOM      4  C   UNL A   1      40.048  22.188  27.313  1.00  0.00     0.251 C 
ATOM      5  H   UNL A   1      38.742  20.738  26.743  1.00  0.00     0.163 HD
BRANCH   4   6
ATOM      6  C   UNL A   1      40.166  23.660  27.358  1.00  0.00     0.039 A 
ATOM      7  C   UNL A   1      39.074  24.526  27.293  1.00  0.00     0.014 A 
ATOM      8  C   UNL A   1      41.431  24.127  27.662  1.00  0.00     0.014 A 
ATOM      9  C   UNL A   1      39.272  25.858  27.662  1.00  0.00     0.010 A 
ATOM     10  C   UNL A   1      41.528  25.311  28.327  1.00  0.00     0.010 A 
ATOM     11  C   UNL A   1      40.506  26.235  28.225  1.00  0.00    -0.014 A 
BRANCH  11  12
ATOM     12  C   UNL A   1      40.760  27.551  28.801  1.00  0.00     0.031 A 
ATOM     13  C   UNL A   1      41.984  28.217  28.305  1.00  0.00     0.074 A 
ATOM     14  C   UNL A   1      39.879  28.199  29.600  1.00  0.00     0.049 A 
ATOM     15  N   UNL A   1      43.106  28.302  28.933  1.00  0.00    -0.248 NA
ATOM     16  C   UNL A   1      42.046  28.676  26.908  1.00  0.00     0.031 C 
ATOM     17  C   UNL A   1      38.517  27.800  29.999  1.00  0.00     0.029 A 
ATOM     18  N   UNL A   1      39.983  29.433  30.160  1.00  0.00    -0.354 N 
ATOM     19  C   UNL A   1      43.940  29.055  28.123  1.00  0.00     0.074 A 
ATOM     20  C   UNL A   1      43.322  29.066  26.821  1.00  0.00     0.031 C 
ATOM     21  C   UNL A   1      37.849  28.860  30.504  1.00  0.00     0.029 A 
ATOM     22  C   UNL A   1      38.793  29.942  30.674  1.00  0.00     0.049 A 
ATOM     23  H   UNL A   1      40.833  29.929  30.198  1.00  0.00     0.167 HD
ATOM     24  C   UNL A   1      44.928  29.821  28.665  1.00  0.00     0.031 A 
ATOM     25  C   UNL A   1      38.599  31.153  31.254  1.00  0.00     0.031 A 
ATOM     26  C   UNL A   1      45.129  29.506  30.060  1.00  0.00     0.049 A 
ATOM     27  C   UNL A   1      39.924  31.591  31.748  1.00  0.00     0.074 A 
ATOM     28  C   UNL A   1      45.473  28.360  30.749  1.00  0.00     0.029 A 
ATOM     29  N   UNL A   1      44.532  30.341  30.977  1.00  0.00    -0.354 N 
ATOM     30  N   UNL A   1      40.561  30.982  32.709  1.00  0.00    -0.248 NA
ATOM     31  C   UNL A   1      40.745  32.407  30.870  1.00  0.00     0.031 C 
ATOM     32  C   UNL A   1      44.649  28.371  31.912  1.00  0.00     0.029 A 
ATOM     33  C   UNL A   1      43.923  29.564  31.931  1.00  0.00     0.049 A 
ATOM     34  H   UNL A   1      44.540  31.325  30.952  1.00  0.00     0.167 HD
ATOM     35  C   UNL A   1      41.881  30.956  32.287  1.00  0.00     0.074 A 
ATOM     36  C   UNL A   1      41.952  31.942  31.208  1.00  0.00     0.031 C 
ATOM     37  C   UNL A   1      42.721  29.942  32.656  1.00  0.00     0.031 A 
BRANCH  24  38
ATOM     38  C   UNL A   1      45.437  31.098  28.052  1.00  0.00    -0.014 A 
ATOM     39  C   UNL A   1      46.747  31.252  27.556  1.00  0.00     0.010 A 
ATOM     40  C   UNL A   1      44.515  32.120  27.747  1.00  0.00     0.010 A 
ATOM     41  C   UNL A   1      47.133  32.371  26.818  1.00  0.00     0.020 A 
ATOM     42  C   UNL A   1      44.879  33.226  26.969  1.00  0.00     0.020 A 
ATOM     43  C   UNL A   1      46.192  33.349  26.520  1.00  0.00     0.054 A 
BRANCH  43  44
ATOM     44  S   UNL A   1      46.711  34.747  25.500  1.00  0.00     0.124 S 
ATOM     45  O   UNL A   1      45.731  34.706  24.417  1.00  0.00    -0.237 OA
ATOM     46  O   UNL A   1      46.583  35.871  26.423  1.00  0.00    -0.237 OA
ATOM     47  O   UNL A   1      48.078  34.406  25.120  1.00  0.00    -0.744 OA
ENDBRANCH  43  44
ENDBRANCH  24  38
BRANCH  25  48
ATOM     48  C   UNL A   1      37.479  32.102  31.034  1.00  0.00    -0.014 A 
ATOM     49  C   UNL A   1      36.148  31.688  31.243  1.00  0.00     0.010 A 
ATOM     50  C   UNL A   1      37.694  33.283  30.297  1.00  0.00     0.010 A 
ATOM     51  C   UNL A   1      35.080  32.358  30.634  1.00  0.00     0.020 A 
ATOM     52  C   UNL A   1      36.627  33.958  29.683  1.00  0.00     0.020 A 
ATOM     53  C   UNL A   1      35.331  33.460  29.816  1.00  0.00     0.054 A 
BRANCH  53  54
ATOM     54  S   UNL A   1      33.956  34.151  28.849  1.00  0.00     0.124 S 
ATOM     55  O   UNL A   1      34.620  35.215  28.099  1.00  0.00    -0.237 OA
ATOM     56  O   UNL A   1      33.518  33.005  28.056  1.00  0.00    -0.237 OA
ATOM     57  O   UNL A   1      33.008  34.602  29.864  1.00  0.00    -0.744 OA
ENDBRANCH  53  54
ENDBRANCH  25  48
BRANCH  37  58
ATOM     58  C   UNL A   1      42.283  28.991  33.757  1.00  0.00    -0.014 A 
ATOM     59  C   UNL A   1      42.815  29.207  35.041  1.00  0.00     0.010 A 
ATOM     60  C   UNL A   1      41.534  27.816  33.540  1.00  0.00     0.010 A 
ATOM     61  C   UNL A   1      42.642  28.275  36.066  1.00  0.00     0.020 A 
ATOM     62  C   UNL A   1      41.329  26.886  34.576  1.00  0.00     0.020 A 
ATOM     63  C   UNL A   1      41.906  27.113  35.826  1.00  0.00     0.054 A 
BRANCH  63  64
ATOM     64  S   UNL A   1      41.744  25.915  37.180  1.00  0.00     0.124 S 
ATOM     65  O   UNL A   1      42.771  26.362  38.117  1.00  0.00    -0.237 OA
ATOM     66  O   UNL A   1      40.366  26.118  37.625  1.00  0.00    -0.237 OA
ATOM     67  O   UNL A   1      42.002  24.624  36.546  1.00  0.00    -0.744 OA
ENDBRANCH  63  64
ENDBRANCH  37  58
ENDBRANCH  11  12
ENDBRANCH   4   6
ENDBRANCH   1   2
BRANCH   1  68
ATOM     68  C   UNL A   1      37.025  21.572  25.011  1.00  0.00     0.042 C 
BRANCH  68  69
ATOM     69  C   UNL A   1      35.883  21.592  26.028  1.00  0.00     0.118 C 
BRANCH  69  70
ATOM     70  N   UNL A   1      34.736  20.770  25.655  1.00  0.00    -0.352 N 
ATOM     71  C   UNL A   1      33.619  21.108  24.929  1.00  0.00     0.252 C 
ATOM     72  H   UNL A   1      34.766  19.838  25.970  1.00  0.00     0.163 HD
ATOM     73  O   UNL A   1      32.707  20.309  24.759  1.00  0.00    -0.269 OA
BRANCH  71  74
ATOM     74  C   UNL A   1      33.508  22.464  24.388  1.00  0.00     0.058 A 
ATOM     75  C   UNL A   1      33.369  22.713  23.023  1.00  0.00     0.017 A 
ATOM     76  C   UNL A   1      33.617  23.531  25.255  1.00  0.00     0.125 A 
ATOM     77  C   UNL A   1      33.434  24.025  22.564  1.00  0.00     0.026 A 
ATOM     78  N   UNL A   1      33.714  24.808  24.825  1.00  0.00    -0.259 NA
ATOM     79  C   UNL A   1      33.618  25.049  23.491  1.00  0.00     0.060 A 
BRANCH  79  80
ATOM     80  C   UNL A   1      33.718  26.489  23.053  1.00  0.00     0.178 C 
BRANCH  80  81
ATOM     81  N   UNL A   1      32.708  27.322  23.696  1.00  0.00    -0.341 N 
ATOM     82  C   UNL A   1      31.400  27.407  23.286  1.00  0.00     0.087 A 
ATOM     83  C   UNL A   1      32.923  28.166  24.770  1.00  0.00     0.049 A 
ATOM     84  C   UNL A   1      30.752  28.290  24.120  1.00  0.00     0.028 A 
ATOM     85  C   UNL A   1      31.696  28.763  25.072  1.00  0.00    -0.000 A 
ATOM     86  C   UNL A   1      34.080  28.441  25.519  1.00  0.00     0.042 A 
ATOM     87  C   UNL A   1      31.616  29.646  26.169  1.00  0.00     0.011 A 
ATOM     88  C   UNL A   1      33.967  29.293  26.618  1.00  0.00     0.020 A 
ATOM     89  C   UNL A   1      32.756  29.893  26.944  1.00  0.00     0.016 A 
ATOM     90  Br  UNL A   1      35.491  29.620  27.691  1.00  0.00    -0.051 Br
ENDBRANCH  80  81
ENDBRANCH  79  80
ENDBRANCH  71  74
ENDBRANCH  69  70
ENDBRANCH  68  69
ENDBRANCH   1  68
TORSDOF 15
ENDMDL
