MODEL 1
REMARK VINA RESULT:     -12.1      0.000      0.000
REMARK SMILES CC(C)n1ccc(C[C@@H](C(=O)NCCCNC(=O)c2ccc(-c3c4nc(c(-c5ccc(S(=O)(=O)[O-])cc5)c5ccc([nH]5)c(-c5ccc(S(=O)(=O)[O-])cc5)c5nc(c(-c6ccc(S(=O)(=O)[O-])cc6)c6ccc3[nH]6)C=C5)C=C4)cc2)c2cccc(Cl)c2)n1
REMARK SMILES IDX 14 1 13 2 12 3 10 4 11 5 9 7 8 8 7 9 4 10 5 11 86 12 6 13
REMARK SMILES IDX 2 14 1 15 3 16 79 17 80 18 85 19 81 20 83 21 82 22 84 23
REMARK SMILES IDX 15 24 16 25 17 26 18 28 19 29 20 30 78 31 21 32 77 33 22 34
REMARK SMILES IDX 23 35 24 36 71 37 25 38 76 39 70 40 72 41 26 42 75 43 69 44
REMARK SMILES IDX 68 45 27 47 57 48 38 49 56 50 39 51 42 52 55 53 73 54 40 55
REMARK SMILES IDX 41 56 54 58 74 59 43 60 28 61 29 62 37 63 30 64 36 65 31 66
REMARK SMILES IDX 32 67 33 68 34 69 35 70 58 71 59 72 67 73 60 74 66 75 61 76
REMARK SMILES IDX 62 77 63 78 64 79 65 80 44 81 45 82 53 83 46 84 52 85 47 86
REMARK SMILES IDX 48 87 49 88 50 89 51 90
REMARK H PARENT 12 6 16 27 72 46 42 57
REMARK Flexibility Score: inf
ROOT
ATOM      1  C   UNL A   1      32.748  28.502  26.936  1.00  0.00     0.042 C 
ENDROOT
BRANCH   1   2
ATOM      2  C   UNL A   1      31.343  27.909  26.899  1.00  0.00     0.117 C 
BRANCH   2   3
ATOM      3  N   UNL A   1      31.395  26.453  26.832  1.00  0.00    -0.355 N 
ATOM      4  C   UNL A   1      31.492  25.664  25.716  1.00  0.00     0.227 C 
ATOM      5  O   UNL A   1      30.893  24.587  25.749  1.00  0.00    -0.274 OA
ATOM      6  H   UNL A   1      31.356  25.980  27.693  1.00  0.00     0.163 HD
BRANCH   4   7
ATOM      7  C   UNL A   1      32.352  26.095  24.517  1.00  0.00     0.114 C 
BRANCH   7   8
ATOM      8  C   UNL A   1      31.505  26.183  23.228  1.00  0.00     0.076 C 
BRANCH   8   9
ATOM      9  C   UNL A   1      30.772  27.455  22.963  1.00  0.00     0.064 A 
ATOM     10  N   UNL A   1      29.176  28.860  22.827  1.00  0.00    -0.270 N 
ATOM     11  C   UNL A   1      30.304  29.564  22.491  1.00  0.00     0.109 A 
ATOM     12  N   UNL A   1      29.441  27.559  23.115  1.00  0.00    -0.178 NA
ATOM     13  C   UNL A   1      31.355  28.688  22.593  1.00  0.00     0.045 A 
BRANCH  10  14
ATOM     14  C   UNL A   1      27.805  29.366  22.726  1.00  0.00     0.101 C 
ATOM     15  C   UNL A   1      26.755  28.484  23.407  1.00  0.00     0.033 C 
ATOM     16  C   UNL A   1      27.695  30.800  23.255  1.00  0.00     0.033 C 
ENDBRANCH  10  14
ENDBRANCH   8   9
ENDBRANCH   7   8
BRANCH   7  17
ATOM     17  C   UNL A   1      33.526  25.125  24.207  1.00  0.00    -0.034 A 
ATOM     18  C   UNL A   1      33.387  24.227  23.130  1.00  0.00     0.004 A 
ATOM     19  C   UNL A   1      34.669  24.992  25.018  1.00  0.00     0.025 A 
ATOM     20  C   UNL A   1      34.300  23.189  22.923  1.00  0.00     0.002 A 
ATOM     21  C   UNL A   1      35.589  23.961  24.797  1.00  0.00     0.041 A 
ATOM     22  C   UNL A   1      35.397  23.047  23.767  1.00  0.00     0.020 A 
ATOM     23  Cl  UNL A   1      36.957  23.792  25.828  1.00  0.00    -0.084 Cl
ENDBRANCH   7  17
ENDBRANCH   4   7
ENDBRANCH   2   3
ENDBRANCH   1   2
BRANCH   1  24
ATOM     24  C   UNL A   1      32.976  29.659  25.995  1.00  0.00     0.118 C 
BRANCH  24  25
ATOM     25  N   UNL A   1      32.112  30.817  26.187  1.00  0.00    -0.352 N 
ATOM     26  C   UNL A   1      32.316  31.945  26.984  1.00  0.00     0.251 C 
ATOM     27  H   UNL A   1      31.266  30.801  25.685  1.00  0.00     0.163 HD
ATOM     28  O   UNL A   1      31.422  32.756  27.120  1.00  0.00    -0.269 OA
BRANCH  26  29
ATOM     29  C   UNL A   1      33.620  32.143  27.676  1.00  0.00     0.039 A 
ATOM     30  C   UNL A   1      34.360  33.330  27.622  1.00  0.00     0.014 A 
ATOM     31  C   UNL A   1      34.194  31.072  28.325  1.00  0.00     0.014 A 
ATOM     32  C   UNL A   1      35.670  33.321  28.127  1.00  0.00     0.010 A 
ATOM     33  C   UNL A   1      35.167  31.271  29.239  1.00  0.00     0.010 A 
ATOM     34  C   UNL A   1      36.086  32.211  28.860  1.00  0.00    -0.014 A 
BRANCH  34  35
ATOM     35  C   UNL A   1      37.420  31.913  29.331  1.00  0.00     0.031 A 
ATOM     36  C   UNL A   1      37.887  30.552  29.008  1.00  0.00     0.074 A 
ATOM     37  C   UNL A   1      38.297  32.893  29.654  1.00  0.00     0.049 A 
ATOM     38  N   UNL A   1      37.976  29.548  29.811  1.00  0.00    -0.248 NA
ATOM     39  C   UNL A   1      38.099  30.211  27.591  1.00  0.00     0.031 C 
ATOM     40  C   UNL A   1      38.137  34.354  29.580  1.00  0.00     0.029 A 
ATOM     41  N   UNL A   1      39.599  32.761  30.011  1.00  0.00    -0.354 N 
ATOM     42  C   UNL A   1      38.457  28.500  29.039  1.00  0.00     0.074 A 
ATOM     43  C   UNL A   1      38.258  28.891  27.667  1.00  0.00     0.031 C 
ATOM     44  C   UNL A   1      39.349  34.951  29.689  1.00  0.00     0.029 A 
ATOM     45  C   UNL A   1      40.341  33.934  29.994  1.00  0.00     0.049 A 
ATOM     46  H   UNL A   1      39.990  31.893  30.265  1.00  0.00     0.167 HD
ATOM     47  C   UNL A   1      39.223  27.508  29.572  1.00  0.00     0.031 A 
ATOM     48  C   UNL A   1      41.682  34.035  30.181  1.00  0.00     0.031 A 
ATOM     49  C   UNL A   1      39.293  27.617  31.009  1.00  0.00     0.049 A 
ATOM     50  C   UNL A   1      42.116  32.776  30.845  1.00  0.00     0.074 A 
ATOM     51  C   UNL A   1      38.366  27.565  32.031  1.00  0.00     0.029 A 
ATOM     52  N   UNL A   1      40.394  28.269  31.525  1.00  0.00    -0.354 N 
ATOM     53  N   UNL A   1      41.727  32.424  32.040  1.00  0.00    -0.248 NA
ATOM     54  C   UNL A   1      42.591  31.685  30.006  1.00  0.00     0.031 C 
ATOM     55  C   UNL A   1      38.767  28.586  32.944  1.00  0.00     0.029 A 
ATOM     56  C   UNL A   1      39.952  29.159  32.474  1.00  0.00     0.049 A 
ATOM     57  H   UNL A   1      41.330  28.120  31.262  1.00  0.00     0.167 HD
ATOM     58  C   UNL A   1      41.504  31.055  31.962  1.00  0.00     0.074 A 
ATOM     59  C   UNL A   1      42.153  30.641  30.718  1.00  0.00     0.031 C 
ATOM     60  C   UNL A   1      40.575  30.440  32.758  1.00  0.00     0.031 A 
BRANCH  47  61
ATOM     61  C   UNL A   1      40.201  26.673  28.787  1.00  0.00    -0.014 A 
ATOM     62  C   UNL A   1      39.819  25.373  28.403  1.00  0.00     0.010 A 
ATOM     63  C   UNL A   1      41.555  27.021  28.600  1.00  0.00     0.010 A 
ATOM     64  C   UNL A   1      40.756  24.454  27.914  1.00  0.00     0.020 A 
ATOM     65  C   UNL A   1      42.488  26.130  28.070  1.00  0.00     0.020 A 
ATOM     66  C   UNL A   1      42.089  24.837  27.764  1.00  0.00     0.054 A 
BRANCH  66  67
ATOM     67  S   UNL A   1      43.313  23.613  27.242  1.00  0.00     0.124 S 
ATOM     68  O   UNL A   1      42.869  23.305  25.887  1.00  0.00    -0.237 OA
ATOM     69  O   UNL A   1      44.564  24.361  27.347  1.00  0.00    -0.237 OA
ATOM     70  O   UNL A   1      43.155  22.535  28.215  1.00  0.00    -0.744 OA
ENDBRANCH  66  67
ENDBRANCH  47  61
BRANCH  48  71
ATOM     71  C   UNL A   1      42.636  34.990  29.562  1.00  0.00    -0.014 A 
ATOM     72  C   UNL A   1      43.873  35.282  30.166  1.00  0.00     0.010 A 
ATOM     73  C   UNL A   1      42.448  35.401  28.226  1.00  0.00     0.010 A 
ATOM     74  C   UNL A   1      44.904  35.909  29.443  1.00  0.00     0.020 A 
ATOM     75  C   UNL A   1      43.470  36.028  27.499  1.00  0.00     0.020 A 
ATOM     76  C   UNL A   1      44.703  36.258  28.105  1.00  0.00     0.054 A 
BRANCH  76  77
ATOM     77  S   UNL A   1      46.098  36.898  27.128  1.00  0.00     0.124 S 
ATOM     78  O   UNL A   1      45.580  38.174  26.644  1.00  0.00    -0.237 OA
ATOM     79  O   UNL A   1      47.167  36.987  28.120  1.00  0.00    -0.237 OA
ATOM     80  O   UNL A   1      46.298  35.879  26.101  1.00  0.00    -0.744 OA
ENDBRANCH  76  77
ENDBRANCH  48  71
BRANCH  60  81
ATOM     81  C   UNL A   1      39.970  31.242  33.895  1.00  0.00    -0.014 A 
ATOM     82  C   UNL A   1      38.776  31.985  33.779  1.00  0.00     0.010 A 
ATOM     83  C   UNL A   1      40.545  31.110  35.170  1.00  0.00     0.010 A 
ATOM     84  C   UNL A   1      38.190  32.593  34.902  1.00  0.00     0.020 A 
ATOM     85  C   UNL A   1      39.959  31.698  36.295  1.00  0.00     0.020 A 
ATOM     86  C   UNL A   1      38.789  32.445  36.156  1.00  0.00     0.054 A 
BRANCH  86  87
ATOM     87  S   UNL A   1      38.003  33.191  37.613  1.00  0.00     0.124 S 
ATOM     88  O   UNL A   1      36.624  33.378  37.172  1.00  0.00    -0.237 OA
ATOM     89  O   UNL A   1      38.202  32.178  38.647  1.00  0.00    -0.237 OA
ATOM     90  O   UNL A   1      38.758  34.428  37.819  1.00  0.00    -0.744 OA
ENDBRANCH  86  87
ENDBRANCH  60  81
ENDBRANCH  34  35
ENDBRANCH  26  29
ENDBRANCH  24  25
ENDBRANCH   1  24
TORSDOF 17
ENDMDL
MODEL 2
REMARK VINA RESULT:     -12.1      3.988      8.444
REMARK SMILES CC(C)n1ccc(C[C@@H](C(=O)NCCCNC(=O)c2ccc(-c3c4nc(c(-c5ccc(S(=O)(=O)[O-])cc5)c5ccc([nH]5)c(-c5ccc(S(=O)(=O)[O-])cc5)c5nc(c(-c6ccc(S(=O)(=O)[O-])cc6)c6ccc3[nH]6)C=C5)C=C4)cc2)c2cccc(Cl)c2)n1
REMARK SMILES IDX 14 1 13 2 12 3 10 4 11 5 9 7 8 8 7 9 4 10 5 11 86 12 6 13
REMARK SMILES IDX 2 14 1 15 3 16 79 17 80 18 85 19 81 20 83 21 82 22 84 23
REMARK SMILES IDX 15 24 16 25 17 26 18 28 19 29 20 30 78 31 21 32 77 33 22 34
REMARK SMILES IDX 23 35 24 36 71 37 25 38 76 39 70 40 72 41 26 42 75 43 69 44
REMARK SMILES IDX 68 45 27 47 57 48 38 49 56 50 39 51 42 52 55 53 73 54 40 55
REMARK SMILES IDX 41 56 54 58 74 59 43 60 28 61 29 62 37 63 30 64 36 65 31 66
REMARK SMILES IDX 32 67 33 68 34 69 35 70 58 71 59 72 67 73 60 74 66 75 61 76
REMARK SMILES IDX 62 77 63 78 64 79 65 80 44 81 45 82 53 83 46 84 52 85 47 86
REMARK SMILES IDX 48 87 49 88 50 89 51 90
REMARK H PARENT 12 6 16 27 72 46 42 57
REMARK Flexibility Score: inf
ROOT
ATOM      1  C   UNL A   1      38.141  21.743  25.279  1.00  0.00     0.042 C 
ENDROOT
BRANCH   1   2
ATOM      2  C   UNL A   1      36.961  22.700  25.412  1.00  0.00     0.117 C 
BRANCH   2   3
ATOM      3  N   UNL A   1      36.129  22.343  26.556  1.00  0.00    -0.355 N 
ATOM      4  C   UNL A   1      34.765  22.415  26.662  1.00  0.00     0.227 C 
ATOM      5  O   UNL A   1      34.314  22.717  27.769  1.00  0.00    -0.274 OA
ATOM      6  H   UNL A   1      36.607  22.009  27.349  1.00  0.00     0.163 HD
BRANCH   4   7
ATOM      7  C   UNL A   1      33.862  22.083  25.463  1.00  0.00     0.114 C 
BRANCH   7   8
ATOM      8  C   UNL A   1      34.484  20.971  24.589  1.00  0.00     0.076 C 
BRANCH   8   9
ATOM      9  C   UNL A   1      33.850  19.621  24.629  1.00  0.00     0.064 A 
ATOM     10  N   UNL A   1      33.644  17.504  24.755  1.00  0.00    -0.270 N 
ATOM     11  C   UNL A   1      32.362  17.989  24.724  1.00  0.00     0.109 A 
ATOM     12  N   UNL A   1      34.575  18.491  24.691  1.00  0.00    -0.178 NA
ATOM     13  C   UNL A   1      32.463  19.356  24.666  1.00  0.00     0.045 A 
BRANCH  10  14
ATOM     14  C   UNL A   1      34.012  16.088  24.684  1.00  0.00     0.101 C 
ATOM     15  C   UNL A   1      35.364  15.755  25.323  1.00  0.00     0.033 C 
ATOM     16  C   UNL A   1      32.923  15.194  25.286  1.00  0.00     0.033 C 
ENDBRANCH  10  14
ENDBRANCH   8   9
ENDBRANCH   7   8
BRANCH   7  17
ATOM     17  C   UNL A   1      33.605  23.292  24.521  1.00  0.00    -0.034 A 
ATOM     18  C   UNL A   1      33.371  23.039  23.154  1.00  0.00     0.004 A 
ATOM     19  C   UNL A   1      33.722  24.637  24.919  1.00  0.00     0.025 A 
ATOM     20  C   UNL A   1      33.344  24.074  22.214  1.00  0.00     0.002 A 
ATOM     21  C   UNL A   1      33.678  25.670  23.977  1.00  0.00     0.041 A 
ATOM     22  C   UNL A   1      33.511  25.392  22.625  1.00  0.00     0.020 A 
ATOM     23  Cl  UNL A   1      33.867  27.305  24.483  1.00  0.00    -0.084 Cl
ENDBRANCH   7  17
ENDBRANCH   4   7
ENDBRANCH   2   3
ENDBRANCH   1   2
BRANCH   1  24
ATOM     24  C   UNL A   1      39.176  21.850  26.372  1.00  0.00     0.118 C 
BRANCH  24  25
ATOM     25  N   UNL A   1      40.566  21.840  25.936  1.00  0.00    -0.352 N 
ATOM     26  C   UNL A   1      41.523  22.852  26.024  1.00  0.00     0.251 C 
ATOM     27  H   UNL A   1      40.873  21.002  25.522  1.00  0.00     0.163 HD
ATOM     28  O   UNL A   1      42.604  22.707  25.489  1.00  0.00    -0.269 OA
BRANCH  26  29
ATOM     29  C   UNL A   1      41.213  24.110  26.758  1.00  0.00     0.039 A 
ATOM     30  C   UNL A   1      40.331  25.090  26.289  1.00  0.00     0.014 A 
ATOM     31  C   UNL A   1      41.906  24.388  27.917  1.00  0.00     0.014 A 
ATOM     32  C   UNL A   1      40.291  26.324  26.958  1.00  0.00     0.010 A 
ATOM     33  C   UNL A   1      41.437  25.308  28.786  1.00  0.00     0.010 A 
ATOM     34  C   UNL A   1      40.953  26.435  28.179  1.00  0.00    -0.014 A 
BRANCH  34  35
ATOM     35  C   UNL A   1      41.182  27.632  28.955  1.00  0.00     0.031 A 
ATOM     36  C   UNL A   1      42.369  28.405  28.542  1.00  0.00     0.074 A 
ATOM     37  C   UNL A   1      40.199  28.204  29.690  1.00  0.00     0.049 A 
ATOM     38  N   UNL A   1      43.508  28.463  29.142  1.00  0.00    -0.248 NA
ATOM     39  C   UNL A   1      42.355  29.033  27.210  1.00  0.00     0.031 C 
ATOM     40  C   UNL A   1      38.790  27.808  29.838  1.00  0.00     0.029 A 
ATOM     41  N   UNL A   1      40.247  29.372  30.380  1.00  0.00    -0.354 N 
ATOM     42  C   UNL A   1      44.290  29.308  28.367  1.00  0.00     0.074 A 
ATOM     43  C   UNL A   1      43.629  29.402  27.090  1.00  0.00     0.031 C 
ATOM     44  C   UNL A   1      38.088  28.823  30.399  1.00  0.00     0.029 A 
ATOM     45  C   UNL A   1      39.017  29.868  30.790  1.00  0.00     0.049 A 
ATOM     46  H   UNL A   1      41.094  29.834  30.576  1.00  0.00     0.167 HD
ATOM     47  C   UNL A   1      45.274  30.076  28.911  1.00  0.00     0.031 A 
ATOM     48  C   UNL A   1      38.796  31.074  31.373  1.00  0.00     0.031 A 
ATOM     49  C   UNL A   1      45.481  29.751  30.301  1.00  0.00     0.049 A 
ATOM     50  C   UNL A   1      40.109  31.542  31.896  1.00  0.00     0.074 A 
ATOM     51  C   UNL A   1      45.874  28.617  30.983  1.00  0.00     0.029 A 
ATOM     52  N   UNL A   1      44.831  30.545  31.224  1.00  0.00    -0.354 N 
ATOM     53  N   UNL A   1      40.764  30.928  32.843  1.00  0.00    -0.248 NA
ATOM     54  C   UNL A   1      40.918  32.406  31.049  1.00  0.00     0.031 C 
ATOM     55  C   UNL A   1      45.042  28.577  32.142  1.00  0.00     0.029 A 
ATOM     56  C   UNL A   1      44.236  29.719  32.147  1.00  0.00     0.049 A 
ATOM     57  H   UNL A   1      44.800  31.528  31.221  1.00  0.00     0.167 HD
ATOM     58  C   UNL A   1      42.098  30.983  32.458  1.00  0.00     0.074 A 
ATOM     59  C   UNL A   1      42.140  31.995  31.403  1.00  0.00     0.031 C 
ATOM     60  C   UNL A   1      42.984  30.007  32.826  1.00  0.00     0.031 A 
BRANCH  47  61
ATOM     61  C   UNL A   1      45.786  31.357  28.306  1.00  0.00    -0.014 A 
ATOM     62  C   UNL A   1      45.019  32.528  28.461  1.00  0.00     0.010 A 
ATOM     63  C   UNL A   1      46.872  31.420  27.408  1.00  0.00     0.010 A 
ATOM     64  C   UNL A   1      45.289  33.680  27.711  1.00  0.00     0.020 A 
ATOM     65  C   UNL A   1      47.181  32.576  26.691  1.00  0.00     0.020 A 
ATOM     66  C   UNL A   1      46.363  33.689  26.819  1.00  0.00     0.054 A 
BRANCH  66  67
ATOM     67  S   UNL A   1      46.635  35.137  25.772  1.00  0.00     0.124 S 
ATOM     68  O   UNL A   1      45.793  36.138  26.420  1.00  0.00    -0.237 OA
ATOM     69  O   UNL A   1      48.076  35.343  25.896  1.00  0.00    -0.237 OA
ATOM     70  O   UNL A   1      46.186  34.696  24.454  1.00  0.00    -0.744 OA
ENDBRANCH  66  67
ENDBRANCH  47  61
BRANCH  48  71
ATOM     71  C   UNL A   1      37.618  31.968  31.241  1.00  0.00    -0.014 A 
ATOM     72  C   UNL A   1      36.312  31.449  31.156  1.00  0.00     0.010 A 
ATOM     73  C   UNL A   1      37.758  33.350  31.484  1.00  0.00     0.010 A 
ATOM     74  C   UNL A   1      35.190  32.271  31.365  1.00  0.00     0.020 A 
ATOM     75  C   UNL A   1      36.644  34.177  31.692  1.00  0.00     0.020 A 
ATOM     76  C   UNL A   1      35.365  33.628  31.654  1.00  0.00     0.054 A 
BRANCH  76  77
ATOM     77  S   UNL A   1      33.920  34.639  32.103  1.00  0.00     0.124 S 
ATOM     78  O   UNL A   1      33.229  34.780  30.825  1.00  0.00    -0.237 OA
ATOM     79  O   UNL A   1      33.245  33.807  33.096  1.00  0.00    -0.237 OA
ATOM     80  O   UNL A   1      34.509  35.868  32.629  1.00  0.00    -0.744 OA
ENDBRANCH  76  77
ENDBRANCH  48  71
BRANCH  60  81
ATOM     81  C   UNL A   1      42.537  28.994  33.864  1.00  0.00    -0.014 A 
ATOM     82  C   UNL A   1      42.177  27.665  33.555  1.00  0.00     0.010 A 
ATOM     83  C   UNL A   1      42.639  29.353  35.218  1.00  0.00     0.010 A 
ATOM     84  C   UNL A   1      41.905  26.734  34.571  1.00  0.00     0.020 A 
ATOM     85  C   UNL A   1      42.388  28.428  36.236  1.00  0.00     0.020 A 
ATOM     86  C   UNL A   1      42.013  27.124  35.909  1.00  0.00     0.054 A 
BRANCH  86  87
ATOM     87  S   UNL A   1      41.710  25.906  37.221  1.00  0.00     0.124 S 
ATOM     88  O   UNL A   1      41.865  24.635  36.518  1.00  0.00    -0.237 OA
ATOM     89  O   UNL A   1      42.749  26.214  38.200  1.00  0.00    -0.237 OA
ATOM     90  O   UNL A   1      40.347  26.204  37.663  1.00  0.00    -0.744 OA
ENDBRANCH  86  87
ENDBRANCH  60  81
ENDBRANCH  34  35
ENDBRANCH  26  29
ENDBRANCH  24  25
ENDBRANCH   1  24
TORSDOF 17
ENDMDL
MODEL 3
REMARK VINA RESULT:     -12.0      3.274      7.809
REMARK SMILES CC(C)n1ccc(C[C@@H](C(=O)NCCCNC(=O)c2ccc(-c3c4nc(c(-c5ccc(S(=O)(=O)[O-])cc5)c5ccc([nH]5)c(-c5ccc(S(=O)(=O)[O-])cc5)c5nc(c(-c6ccc(S(=O)(=O)[O-])cc6)c6ccc3[nH]6)C=C5)C=C4)cc2)c2cccc(Cl)c2)n1
REMARK SMILES IDX 14 1 13 2 12 3 10 4 11 5 9 7 8 8 7 9 4 10 5 11 86 12 6 13
REMARK SMILES IDX 2 14 1 15 3 16 79 17 80 18 85 19 81 20 83 21 82 22 84 23
REMARK SMILES IDX 15 24 16 25 17 26 18 28 19 29 20 30 78 31 21 32 77 33 22 34
REMARK SMILES IDX 23 35 24 36 71 37 25 38 76 39 70 40 72 41 26 42 75 43 69 44
REMARK SMILES IDX 68 45 27 47 57 48 38 49 56 50 39 51 42 52 55 53 73 54 40 55
REMARK SMILES IDX 41 56 54 58 74 59 43 60 28 61 29 62 37 63 30 64 36 65 31 66
REMARK SMILES IDX 32 67 33 68 34 69 35 70 58 71 59 72 67 73 60 74 66 75 61 76
REMARK SMILES IDX 62 77 63 78 64 79 65 80 44 81 45 82 53 83 46 84 52 85 47 86
REMARK SMILES IDX 48 87 49 88 50 89 51 90
REMARK H PARENT 12 6 16 27 72 46 42 57
REMARK Flexibility Score: inf
ROOT
ATOM      1  C   UNL A   1      32.794  29.497  27.231  1.00  0.00     0.042 C 
ENDROOT
BRANCH   1   2
ATOM      2  C   UNL A   1      33.130  28.256  26.410  1.00  0.00     0.117 C 
BRANCH   2   3
ATOM      3  N   UNL A   1      32.331  27.115  26.845  1.00  0.00    -0.355 N 
ATOM      4  C   UNL A   1      31.479  26.347  26.095  1.00  0.00     0.227 C 
ATOM      5  O   UNL A   1      30.471  25.925  26.666  1.00  0.00    -0.274 OA
ATOM      6  H   UNL A   1      32.415  26.866  27.793  1.00  0.00     0.163 HD
BRANCH   4   7
ATOM      7  C   UNL A   1      31.809  26.000  24.634  1.00  0.00     0.114 C 
BRANCH   7   8
ATOM      8  C   UNL A   1      30.562  26.144  23.733  1.00  0.00     0.076 C 
BRANCH   8   9
ATOM      9  C   UNL A   1      30.226  27.507  23.225  1.00  0.00     0.064 A 
ATOM     10  N   UNL A   1      29.098  29.253  22.761  1.00  0.00    -0.270 N 
ATOM     11  C   UNL A   1      30.387  29.553  22.404  1.00  0.00     0.109 A 
ATOM     12  N   UNL A   1      28.976  27.997  23.263  1.00  0.00    -0.178 NA
ATOM     13  C   UNL A   1      31.144  28.452  22.714  1.00  0.00     0.045 A 
BRANCH  10  14
ATOM     14  C   UNL A   1      27.929  30.092  22.485  1.00  0.00     0.101 C 
ATOM     15  C   UNL A   1      27.675  31.183  23.529  1.00  0.00     0.033 C 
ATOM     16  C   UNL A   1      28.008  30.722  21.090  1.00  0.00     0.033 C 
ENDBRANCH  10  14
ENDBRANCH   8   9
ENDBRANCH   7   8
BRANCH   7  17
ATOM     17  C   UNL A   1      32.328  24.549  24.438  1.00  0.00    -0.034 A 
ATOM     18  C   UNL A   1      31.847  23.807  23.340  1.00  0.00     0.004 A 
ATOM     19  C   UNL A   1      33.150  23.877  25.364  1.00  0.00     0.025 A 
ATOM     20  C   UNL A   1      32.101  22.438  23.217  1.00  0.00     0.002 A 
ATOM     21  C   UNL A   1      33.413  22.510  25.228  1.00  0.00     0.041 A 
ATOM     22  C   UNL A   1      32.875  21.784  24.171  1.00  0.00     0.020 A 
ATOM     23  Cl  UNL A   1      34.385  21.700  26.396  1.00  0.00    -0.084 Cl
ENDBRANCH   7  17
ENDBRANCH   4   7
ENDBRANCH   2   3
ENDBRANCH   1   2
BRANCH   1  24
ATOM     24  C   UNL A   1      33.783  30.630  27.106  1.00  0.00     0.118 C 
BRANCH  24  25
ATOM     25  N   UNL A   1      33.897  31.506  28.265  1.00  0.00    -0.352 N 
ATOM     26  C   UNL A   1      34.974  31.675  29.138  1.00  0.00     0.251 C 
ATOM     27  H   UNL A   1      33.105  32.055  28.461  1.00  0.00     0.163 HD
ATOM     28  O   UNL A   1      34.842  32.360  30.132  1.00  0.00    -0.269 OA
BRANCH  26  29
ATOM     29  C   UNL A   1      36.273  31.003  28.858  1.00  0.00     0.039 A 
ATOM     30  C   UNL A   1      36.389  29.764  28.218  1.00  0.00     0.014 A 
ATOM     31  C   UNL A   1      37.430  31.572  29.344  1.00  0.00     0.014 A 
ATOM     32  C   UNL A   1      37.644  29.134  28.210  1.00  0.00     0.010 A 
ATOM     33  C   UNL A   1      38.630  31.213  28.839  1.00  0.00     0.010 A 
ATOM     34  C   UNL A   1      38.752  29.866  28.632  1.00  0.00    -0.014 A 
BRANCH  34  35
ATOM     35  C   UNL A   1      40.096  29.383  28.861  1.00  0.00     0.031 A 
ATOM     36  C   UNL A   1      40.423  29.153  30.280  1.00  0.00     0.074 A 
ATOM     37  C   UNL A   1      40.823  28.808  27.875  1.00  0.00     0.049 A 
ATOM     38  N   UNL A   1      41.153  29.894  31.041  1.00  0.00    -0.248 NA
ATOM     39  C   UNL A   1      39.706  28.080  30.991  1.00  0.00     0.031 C 
ATOM     40  C   UNL A   1      40.452  28.529  26.478  1.00  0.00     0.029 A 
ATOM     41  N   UNL A   1      42.046  28.227  27.972  1.00  0.00    -0.354 N 
ATOM     42  C   UNL A   1      41.155  29.263  32.277  1.00  0.00     0.074 A 
ATOM     43  C   UNL A   1      40.059  28.330  32.250  1.00  0.00     0.031 C 
ATOM     44  C   UNL A   1      41.344  27.665  25.934  1.00  0.00     0.029 A 
ATOM     45  C   UNL A   1      42.423  27.455  26.882  1.00  0.00     0.049 A 
ATOM     46  H   UNL A   1      42.624  28.346  28.760  1.00  0.00     0.167 HD
ATOM     47  C   UNL A   1      42.212  29.360  33.131  1.00  0.00     0.031 A 
ATOM     48  C   UNL A   1      43.531  26.675  26.801  1.00  0.00     0.031 A 
ATOM     49  C   UNL A   1      43.184  30.312  32.652  1.00  0.00     0.049 A 
ATOM     50  C   UNL A   1      44.464  27.146  27.861  1.00  0.00     0.074 A 
ATOM     51  C   UNL A   1      43.166  31.667  32.389  1.00  0.00     0.029 A 
ATOM     52  N   UNL A   1      44.251  29.800  31.942  1.00  0.00    -0.354 N 
ATOM     53  N   UNL A   1      45.001  28.335  27.868  1.00  0.00    -0.248 NA
ATOM     54  C   UNL A   1      44.424  26.482  29.156  1.00  0.00     0.031 C 
ATOM     55  C   UNL A   1      43.917  31.819  31.185  1.00  0.00     0.029 A 
ATOM     56  C   UNL A   1      44.415  30.567  30.814  1.00  0.00     0.049 A 
ATOM     57  H   UNL A   1      44.799  29.025  32.200  1.00  0.00     0.167 HD
ATOM     58  C   UNL A   1      44.975  28.740  29.197  1.00  0.00     0.074 A 
ATOM     59  C   UNL A   1      44.707  27.517  29.954  1.00  0.00     0.031 C 
ATOM     60  C   UNL A   1      44.886  30.063  29.535  1.00  0.00     0.031 A 
BRANCH  47  61
ATOM     61  C   UNL A   1      42.547  28.342  34.190  1.00  0.00    -0.014 A 
ATOM     62  C   UNL A   1      42.455  28.722  35.542  1.00  0.00     0.010 A 
ATOM     63  C   UNL A   1      43.157  27.100  33.916  1.00  0.00     0.010 A 
ATOM     64  C   UNL A   1      42.999  27.929  36.560  1.00  0.00     0.020 A 
ATOM     65  C   UNL A   1      43.661  26.278  34.925  1.00  0.00     0.020 A 
ATOM     66  C   UNL A   1      43.612  26.717  36.240  1.00  0.00     0.054 A 
BRANCH  66  67
ATOM     67  S   UNL A   1      44.414  25.755  37.545  1.00  0.00     0.124 S 
ATOM     68  O   UNL A   1      43.770  26.282  38.743  1.00  0.00    -0.237 OA
ATOM     69  O   UNL A   1      44.058  24.385  37.182  1.00  0.00    -0.237 OA
ATOM     70  O   UNL A   1      45.829  26.086  37.394  1.00  0.00    -0.744 OA
ENDBRANCH  66  67
ENDBRANCH  47  61
BRANCH  48  71
ATOM     71  C   UNL A   1      43.708  25.383  26.090  1.00  0.00    -0.014 A 
ATOM     72  C   UNL A   1      44.893  25.089  25.391  1.00  0.00     0.010 A 
ATOM     73  C   UNL A   1      42.814  24.320  26.338  1.00  0.00     0.010 A 
ATOM     74  C   UNL A   1      45.201  23.771  25.006  1.00  0.00     0.020 A 
ATOM     75  C   UNL A   1      43.113  23.004  25.957  1.00  0.00     0.020 A 
ATOM     76  C   UNL A   1      44.317  22.732  25.312  1.00  0.00     0.054 A 
BRANCH  76  77
ATOM     77  S   UNL A   1      44.807  21.013  24.975  1.00  0.00     0.124 S 
ATOM     78  O   UNL A   1      43.821  20.252  25.735  1.00  0.00    -0.237 OA
ATOM     79  O   UNL A   1      44.686  20.926  23.522  1.00  0.00    -0.237 OA
ATOM     80  O   UNL A   1      46.175  20.937  25.482  1.00  0.00    -0.744 OA
ENDBRANCH  76  77
ENDBRANCH  48  71
BRANCH  60  81
ATOM     81  C   UNL A   1      45.063  31.092  28.434  1.00  0.00    -0.014 A 
ATOM     82  C   UNL A   1      43.991  31.656  27.711  1.00  0.00     0.010 A 
ATOM     83  C   UNL A   1      46.348  31.624  28.234  1.00  0.00     0.010 A 
ATOM     84  C   UNL A   1      44.204  32.705  26.801  1.00  0.00     0.020 A 
ATOM     85  C   UNL A   1      46.566  32.680  27.343  1.00  0.00     0.020 A 
ATOM     86  C   UNL A   1      45.495  33.210  26.623  1.00  0.00     0.054 A 
BRANCH  86  87
ATOM     87  S   UNL A   1      45.760  34.598  25.482  1.00  0.00     0.124 S 
ATOM     88  O   UNL A   1      45.233  35.733  26.233  1.00  0.00    -0.237 OA
ATOM     89  O   UNL A   1      47.209  34.590  25.289  1.00  0.00    -0.237 OA
ATOM     90  O   UNL A   1      44.985  34.227  24.297  1.00  0.00    -0.744 OA
ENDBRANCH  86  87
ENDBRANCH  60  81
ENDBRANCH  34  35
ENDBRANCH  26  29
ENDBRANCH  24  25
ENDBRANCH   1  24
TORSDOF 17
ENDMDL
