MODEL 1
REMARK VINA RESULT:      -9.6      0.000      0.000
REMARK SMILES C=CCSc1ccccc1C(=O)NCCCNC(=O)c1ccc(-c2c3nc(c(-c4ccc(S(=O)(=O)[O-])cc4)c4ccc([nH]4)c(-c4ccc(S(=O)(=O)[O-])cc4)c4nc(c(-c5ccc(S(=O)(=O)[O-])cc5)c5ccc2[nH]5)C=C4)C=C3)cc1
REMARK SMILES IDX 15 1 14 2 13 3 11 4 12 5 10 7 5 8 6 9 7 10 9 11 8 12 4 13
REMARK SMILES IDX 3 14 2 15 1 16 16 17 17 18 18 19 19 21 20 22 21 23 79 24
REMARK SMILES IDX 22 25 78 26 23 27 24 28 25 29 72 30 26 31 77 32 71 33 73 34
REMARK SMILES IDX 27 35 76 36 70 37 69 38 28 40 58 41 39 42 57 43 40 44 43 45
REMARK SMILES IDX 56 46 74 47 41 48 42 49 55 51 75 52 44 53 29 54 30 55 38 56
REMARK SMILES IDX 31 57 37 58 32 59 33 60 34 61 35 62 36 63 59 64 60 65 68 66
REMARK SMILES IDX 61 67 67 68 62 69 63 70 64 71 65 72 66 73 45 74 46 75 54 76
REMARK SMILES IDX 47 77 53 78 48 79 49 80 50 81 51 82 52 83
REMARK H PARENT 13 6 17 20 73 39 43 50
REMARK Flexibility Score: inf
ROOT
ATOM      1  C   UNL A   1      36.227  23.845  24.992  1.00  0.00     0.042 C 
ENDROOT
BRANCH   1   2
ATOM      2  C   UNL A   1      34.772  24.253  25.061  1.00  0.00     0.118 C 
BRANCH   2   3
ATOM      3  N   UNL A   1      34.297  24.992  23.914  1.00  0.00    -0.352 N 
ATOM      4  C   UNL A   1      33.649  26.199  23.868  1.00  0.00     0.252 C 
ATOM      5  O   UNL A   1      33.390  26.671  22.760  1.00  0.00    -0.269 OA
ATOM      6  H   UNL A   1      34.462  24.568  23.041  1.00  0.00     0.163 HD
BRANCH   4   7
ATOM      7  C   UNL A   1      33.138  26.892  25.081  1.00  0.00     0.053 A 
ATOM      8  C   UNL A   1      31.986  26.600  25.841  1.00  0.00     0.020 A 
ATOM      9  C   UNL A   1      31.662  27.474  26.903  1.00  0.00     0.016 A 
ATOM     10  C   UNL A   1      32.474  28.559  27.246  1.00  0.00     0.001 A 
ATOM     11  C   UNL A   1      33.970  27.967  25.470  1.00  0.00     0.015 A 
ATOM     12  C   UNL A   1      33.642  28.796  26.540  1.00  0.00     0.001 A 
BRANCH   8  13
ATOM     13  S   UNL A   1      30.733  25.346  25.562  1.00  0.00    -0.121 SA
BRANCH  13  14
ATOM     14  C   UNL A   1      30.016  25.694  23.933  1.00  0.00     0.101 C 
BRANCH  14  15
ATOM     15  C   UNL A   1      29.504  27.084  23.772  1.00  0.00    -0.024 C 
ATOM     16  C   UNL A   1      30.081  28.000  22.984  1.00  0.00     0.005 C 
ENDBRANCH  14  15
ENDBRANCH  13  14
ENDBRANCH   8  13
ENDBRANCH   4   7
ENDBRANCH   2   3
ENDBRANCH   1   2
BRANCH   1  17
ATOM     17  C   UNL A   1      36.688  22.942  26.128  1.00  0.00     0.118 C 
BRANCH  17  18
ATOM     18  N   UNL A   1      38.024  22.374  25.969  1.00  0.00    -0.352 N 
ATOM     19  C   UNL A   1      39.274  22.868  26.280  1.00  0.00     0.251 C 
ATOM     20  H   UNL A   1      38.034  21.476  25.566  1.00  0.00     0.163 HD
ATOM     21  O   UNL A   1      40.266  22.214  26.001  1.00  0.00    -0.269 OA
BRANCH  19  22
ATOM     22  C   UNL A   1      39.419  24.209  26.898  1.00  0.00     0.039 A 
ATOM     23  C   UNL A   1      38.937  24.412  28.195  1.00  0.00     0.014 A 
ATOM     24  C   UNL A   1      40.057  25.250  26.230  1.00  0.00     0.014 A 
ATOM     25  C   UNL A   1      39.204  25.617  28.853  1.00  0.00     0.010 A 
ATOM     26  C   UNL A   1      40.447  26.384  26.931  1.00  0.00     0.010 A 
ATOM     27  C   UNL A   1      40.022  26.588  28.251  1.00  0.00    -0.014 A 
BRANCH  27  28
ATOM     28  C   UNL A   1      40.447  27.813  28.978  1.00  0.00     0.031 A 
ATOM     29  C   UNL A   1      41.808  27.880  29.626  1.00  0.00     0.074 A 
ATOM     30  C   UNL A   1      39.581  28.836  29.129  1.00  0.00     0.049 A 
ATOM     31  N   UNL A   1      42.330  28.835  30.354  1.00  0.00    -0.248 NA
ATOM     32  C   UNL A   1      42.682  26.704  29.475  1.00  0.00     0.031 C 
ATOM     33  C   UNL A   1      38.203  28.867  28.630  1.00  0.00     0.029 A 
ATOM     34  N   UNL A   1      39.731  30.052  29.748  1.00  0.00    -0.354 N 
ATOM     35  C   UNL A   1      43.567  28.359  30.775  1.00  0.00     0.074 A 
ATOM     36  C   UNL A   1      43.691  27.008  30.275  1.00  0.00     0.031 C 
ATOM     37  C   UNL A   1      37.655  30.060  28.915  1.00  0.00     0.029 A 
ATOM     38  C   UNL A   1      38.625  30.865  29.647  1.00  0.00     0.049 A 
ATOM     39  H   UNL A   1      40.553  30.319  30.220  1.00  0.00     0.167 HD
ATOM     40  C   UNL A   1      44.530  28.995  31.484  1.00  0.00     0.031 A 
ATOM     41  C   UNL A   1      38.419  32.122  30.084  1.00  0.00     0.031 A 
ATOM     42  C   UNL A   1      44.427  30.355  31.939  1.00  0.00     0.049 A 
ATOM     43  C   UNL A   1      39.531  32.836  30.799  1.00  0.00     0.074 A 
ATOM     44  C   UNL A   1      45.373  31.119  32.599  1.00  0.00     0.029 A 
ATOM     45  N   UNL A   1      43.313  31.162  31.764  1.00  0.00    -0.354 N 
ATOM     46  N   UNL A   1      40.720  32.390  31.130  1.00  0.00    -0.248 NA
ATOM     47  C   UNL A   1      39.280  34.232  31.183  1.00  0.00     0.031 C 
ATOM     48  C   UNL A   1      44.820  32.380  32.848  1.00  0.00     0.029 A 
ATOM     49  C   UNL A   1      43.545  32.414  32.304  1.00  0.00     0.049 A 
ATOM     50  H   UNL A   1      42.478  30.883  31.320  1.00  0.00     0.167 HD
ATOM     51  C   UNL A   1      41.368  33.459  31.738  1.00  0.00     0.074 A 
ATOM     52  C   UNL A   1      40.446  34.577  31.710  1.00  0.00     0.031 C 
ATOM     53  C   UNL A   1      42.613  33.511  32.273  1.00  0.00     0.031 A 
BRANCH  40  54
ATOM     54  C   UNL A   1      45.785  28.222  31.791  1.00  0.00    -0.014 A 
ATOM     55  C   UNL A   1      46.862  28.198  30.882  1.00  0.00     0.010 A 
ATOM     56  C   UNL A   1      45.900  27.519  33.002  1.00  0.00     0.010 A 
ATOM     57  C   UNL A   1      48.004  27.442  31.156  1.00  0.00     0.020 A 
ATOM     58  C   UNL A   1      47.055  26.785  33.294  1.00  0.00     0.020 A 
ATOM     59  C   UNL A   1      48.091  26.734  32.358  1.00  0.00     0.054 A 
BRANCH  59  60
ATOM     60  S   UNL A   1      49.589  25.770  32.693  1.00  0.00     0.124 S 
ATOM     61  O   UNL A   1      50.145  25.604  31.352  1.00  0.00    -0.237 OA
ATOM     62  O   UNL A   1      50.346  26.647  33.582  1.00  0.00    -0.237 OA
ATOM     63  O   UNL A   1      49.082  24.547  33.313  1.00  0.00    -0.744 OA
ENDBRANCH  59  60
ENDBRANCH  40  54
BRANCH  41  64
ATOM     64  C   UNL A   1      37.128  32.806  29.803  1.00  0.00    -0.014 A 
ATOM     65  C   UNL A   1      36.119  32.846  30.782  1.00  0.00     0.010 A 
ATOM     66  C   UNL A   1      36.903  33.432  28.564  1.00  0.00     0.010 A 
ATOM     67  C   UNL A   1      34.901  33.481  30.523  1.00  0.00     0.020 A 
ATOM     68  C   UNL A   1      35.695  34.091  28.309  1.00  0.00     0.020 A 
ATOM     69  C   UNL A   1      34.697  34.100  29.286  1.00  0.00     0.054 A 
BRANCH  69  70
ATOM     70  S   UNL A   1      33.130  34.965  28.989  1.00  0.00     0.124 S 
ATOM     71  O   UNL A   1      32.525  34.963  30.317  1.00  0.00    -0.237 OA
ATOM     72  O   UNL A   1      33.573  36.267  28.496  1.00  0.00    -0.237 OA
ATOM     73  O   UNL A   1      32.463  34.127  27.993  1.00  0.00    -0.744 OA
ENDBRANCH  69  70
ENDBRANCH  41  64
BRANCH  53  74
ATOM     74  C   UNL A   1      43.054  34.831  32.840  1.00  0.00    -0.014 A 
ATOM     75  C   UNL A   1      42.791  35.172  34.178  1.00  0.00     0.010 A 
ATOM     76  C   UNL A   1      43.754  35.737  32.023  1.00  0.00     0.010 A 
ATOM     77  C   UNL A   1      43.172  36.421  34.675  1.00  0.00     0.020 A 
ATOM     78  C   UNL A   1      44.159  36.976  32.524  1.00  0.00     0.020 A 
ATOM     79  C   UNL A   1      43.845  37.320  33.841  1.00  0.00     0.054 A 
BRANCH  79  80
ATOM     80  S   UNL A   1      44.333  38.935  34.504  1.00  0.00     0.124 S 
ATOM     81  O   UNL A   1      45.683  39.085  33.967  1.00  0.00    -0.237 OA
ATOM     82  O   UNL A   1      43.328  39.834  33.940  1.00  0.00    -0.237 OA
ATOM     83  O   UNL A   1      44.253  38.752  35.951  1.00  0.00    -0.744 OA
ENDBRANCH  79  80
ENDBRANCH  53  74
ENDBRANCH  27  28
ENDBRANCH  19  22
ENDBRANCH  17  18
ENDBRANCH   1  17
TORSDOF 16
ENDMDL
MODEL 2
REMARK VINA RESULT:      -9.6      1.183      2.000
REMARK SMILES C=CCSc1ccccc1C(=O)NCCCNC(=O)c1ccc(-c2c3nc(c(-c4ccc(S(=O)(=O)[O-])cc4)c4ccc([nH]4)c(-c4ccc(S(=O)(=O)[O-])cc4)c4nc(c(-c5ccc(S(=O)(=O)[O-])cc5)c5ccc2[nH]5)C=C4)C=C3)cc1
REMARK SMILES IDX 15 1 14 2 13 3 11 4 12 5 10 7 5 8 6 9 7 10 9 11 8 12 4 13
REMARK SMILES IDX 3 14 2 15 1 16 16 17 17 18 18 19 19 21 20 22 21 23 79 24
REMARK SMILES IDX 22 25 78 26 23 27 24 28 25 29 72 30 26 31 77 32 71 33 73 34
REMARK SMILES IDX 27 35 76 36 70 37 69 38 28 40 58 41 39 42 57 43 40 44 43 45
REMARK SMILES IDX 56 46 74 47 41 48 42 49 55 51 75 52 44 53 29 54 30 55 38 56
REMARK SMILES IDX 31 57 37 58 32 59 33 60 34 61 35 62 36 63 59 64 60 65 68 66
REMARK SMILES IDX 61 67 67 68 62 69 63 70 64 71 65 72 66 73 45 74 46 75 54 76
REMARK SMILES IDX 47 77 53 78 48 79 49 80 50 81 51 82 52 83
REMARK H PARENT 13 6 17 20 73 39 43 50
REMARK Flexibility Score: inf
ROOT
ATOM      1  C   UNL A   1      35.927  23.541  26.085  1.00  0.00     0.042 C 
ENDROOT
BRANCH   1   2
ATOM      2  C   UNL A   1      34.684  22.712  25.848  1.00  0.00     0.118 C 
BRANCH   2   3
ATOM      3  N   UNL A   1      33.630  22.912  26.816  1.00  0.00    -0.352 N 
ATOM      4  C   UNL A   1      32.400  23.491  26.650  1.00  0.00     0.252 C 
ATOM      5  O   UNL A   1      31.632  23.496  27.615  1.00  0.00    -0.269 OA
ATOM      6  H   UNL A   1      33.825  22.586  27.724  1.00  0.00     0.163 HD
BRANCH   4   7
ATOM      7  C   UNL A   1      32.003  24.215  25.413  1.00  0.00     0.053 A 
ATOM      8  C   UNL A   1      32.309  25.539  25.033  1.00  0.00     0.020 A 
ATOM      9  C   UNL A   1      31.730  26.029  23.842  1.00  0.00     0.016 A 
ATOM     10  C   UNL A   1      30.930  25.230  23.021  1.00  0.00     0.001 A 
ATOM     11  C   UNL A   1      31.229  23.408  24.548  1.00  0.00     0.015 A 
ATOM     12  C   UNL A   1      30.693  23.909  23.365  1.00  0.00     0.001 A 
BRANCH   8  13
ATOM     13  S   UNL A   1      33.217  26.795  25.937  1.00  0.00    -0.121 SA
BRANCH  13  14
ATOM     14  C   UNL A   1      33.632  28.089  24.735  1.00  0.00     0.101 C 
BRANCH  14  15
ATOM     15  C   UNL A   1      32.938  29.387  24.966  1.00  0.00    -0.024 C 
ATOM     16  C   UNL A   1      31.656  29.486  25.340  1.00  0.00     0.005 C 
ENDBRANCH  14  15
ENDBRANCH  13  14
ENDBRANCH   8  13
ENDBRANCH   4   7
ENDBRANCH   2   3
ENDBRANCH   1   2
BRANCH   1  17
ATOM     17  C   UNL A   1      36.970  23.453  24.979  1.00  0.00     0.118 C 
BRANCH  17  18
ATOM     18  N   UNL A   1      38.147  22.649  25.297  1.00  0.00    -0.352 N 
ATOM     19  C   UNL A   1      39.268  22.921  26.055  1.00  0.00     0.251 C 
ATOM     20  H   UNL A   1      38.139  21.748  24.900  1.00  0.00     0.163 HD
ATOM     21  O   UNL A   1      40.157  22.090  26.135  1.00  0.00    -0.269 OA
BRANCH  19  22
ATOM     22  C   UNL A   1      39.420  24.238  26.722  1.00  0.00     0.039 A 
ATOM     23  C   UNL A   1      38.914  24.404  28.014  1.00  0.00     0.014 A 
ATOM     24  C   UNL A   1      40.090  25.290  26.104  1.00  0.00     0.014 A 
ATOM     25  C   UNL A   1      39.186  25.581  28.719  1.00  0.00     0.010 A 
ATOM     26  C   UNL A   1      40.482  26.393  26.853  1.00  0.00     0.010 A 
ATOM     27  C   UNL A   1      40.032  26.557  28.169  1.00  0.00    -0.014 A 
BRANCH  27  28
ATOM     28  C   UNL A   1      40.462  27.750  28.948  1.00  0.00     0.031 A 
ATOM     29  C   UNL A   1      41.813  27.776  29.618  1.00  0.00     0.074 A 
ATOM     30  C   UNL A   1      39.605  28.778  29.123  1.00  0.00     0.049 A 
ATOM     31  N   UNL A   1      42.335  28.697  30.388  1.00  0.00    -0.248 NA
ATOM     32  C   UNL A   1      42.674  26.595  29.436  1.00  0.00     0.031 C 
ATOM     33  C   UNL A   1      38.235  28.844  28.605  1.00  0.00     0.029 A 
ATOM     34  N   UNL A   1      39.761  29.968  29.789  1.00  0.00    -0.354 N 
ATOM     35  C   UNL A   1      43.559  28.189  30.810  1.00  0.00     0.074 A 
ATOM     36  C   UNL A   1      43.674  26.857  30.262  1.00  0.00     0.031 C 
ATOM     37  C   UNL A   1      37.698  30.033  28.926  1.00  0.00     0.029 A 
ATOM     38  C   UNL A   1      38.666  30.798  29.702  1.00  0.00     0.049 A 
ATOM     39  H   UNL A   1      40.578  30.207  30.283  1.00  0.00     0.167 HD
ATOM     40  C   UNL A   1      44.519  28.787  31.556  1.00  0.00     0.031 A 
ATOM     41  C   UNL A   1      38.469  32.040  30.181  1.00  0.00     0.031 A 
ATOM     42  C   UNL A   1      44.426  30.130  32.059  1.00  0.00     0.049 A 
ATOM     43  C   UNL A   1      39.578  32.714  30.939  1.00  0.00     0.074 A 
ATOM     44  C   UNL A   1      45.371  30.857  32.760  1.00  0.00     0.029 A 
ATOM     45  N   UNL A   1      43.324  30.957  31.897  1.00  0.00    -0.354 N 
ATOM     46  N   UNL A   1      40.757  32.240  31.270  1.00  0.00    -0.248 NA
ATOM     47  C   UNL A   1      39.338  34.098  31.370  1.00  0.00     0.031 C 
ATOM     48  C   UNL A   1      44.829  32.115  33.048  1.00  0.00     0.029 A 
ATOM     49  C   UNL A   1      43.564  32.185  32.487  1.00  0.00     0.049 A 
ATOM     50  H   UNL A   1      42.493  30.706  31.431  1.00  0.00     0.167 HD
ATOM     51  C   UNL A   1      41.408  33.278  31.927  1.00  0.00     0.074 A 
ATOM     52  C   UNL A   1      40.501  34.408  31.928  1.00  0.00     0.031 C 
ATOM     53  C   UNL A   1      42.645  33.294  32.482  1.00  0.00     0.031 A 
BRANCH  40  54
ATOM     54  C   UNL A   1      45.760  27.987  31.852  1.00  0.00    -0.014 A 
ATOM     55  C   UNL A   1      45.848  27.187  33.009  1.00  0.00     0.010 A 
ATOM     56  C   UNL A   1      46.849  28.023  30.964  1.00  0.00     0.010 A 
ATOM     57  C   UNL A   1      47.019  26.484  33.297  1.00  0.00     0.020 A 
ATOM     58  C   UNL A   1      48.014  27.295  31.234  1.00  0.00     0.020 A 
ATOM     59  C   UNL A   1      48.098  26.547  32.410  1.00  0.00     0.054 A 
BRANCH  59  60
ATOM     60  S   UNL A   1      49.604  25.616  32.804  1.00  0.00     0.124 S 
ATOM     61  O   UNL A   1      50.478  26.666  33.324  1.00  0.00    -0.237 OA
ATOM     62  O   UNL A   1      49.135  24.645  33.788  1.00  0.00    -0.237 OA
ATOM     63  O   UNL A   1      50.007  25.051  31.518  1.00  0.00    -0.744 OA
ENDBRANCH  59  60
ENDBRANCH  40  54
BRANCH  41  64
ATOM     64  C   UNL A   1      37.190  32.751  29.906  1.00  0.00    -0.014 A 
ATOM     65  C   UNL A   1      36.114  32.645  30.805  1.00  0.00     0.010 A 
ATOM     66  C   UNL A   1      37.045  33.547  28.757  1.00  0.00     0.010 A 
ATOM     67  C   UNL A   1      34.908  33.304  30.551  1.00  0.00     0.020 A 
ATOM     68  C   UNL A   1      35.848  34.229  28.510  1.00  0.00     0.020 A 
ATOM     69  C   UNL A   1      34.783  34.093  29.403  1.00  0.00     0.054 A 
BRANCH  69  70
ATOM     70  S   UNL A   1      33.228  34.983  29.118  1.00  0.00     0.124 S 
ATOM     71  O   UNL A   1      33.702  36.278  28.642  1.00  0.00    -0.237 OA
ATOM     72  O   UNL A   1      32.561  34.147  28.122  1.00  0.00    -0.237 OA
ATOM     73  O   UNL A   1      32.595  34.991  30.436  1.00  0.00    -0.744 OA
ENDBRANCH  69  70
ENDBRANCH  41  64
BRANCH  53  74
ATOM     74  C   UNL A   1      43.094  34.587  33.105  1.00  0.00    -0.014 A 
ATOM     75  C   UNL A   1      42.929  34.828  34.480  1.00  0.00     0.010 A 
ATOM     76  C   UNL A   1      43.701  35.569  32.301  1.00  0.00     0.010 A 
ATOM     77  C   UNL A   1      43.314  36.053  35.032  1.00  0.00     0.020 A 
ATOM     78  C   UNL A   1      44.111  36.784  32.855  1.00  0.00     0.020 A 
ATOM     79  C   UNL A   1      43.893  37.027  34.212  1.00  0.00     0.054 A 
BRANCH  79  80
ATOM     80  S   UNL A   1      44.388  38.609  34.947  1.00  0.00     0.124 S 
ATOM     81  O   UNL A   1      45.823  38.631  34.678  1.00  0.00    -0.237 OA
ATOM     82  O   UNL A   1      43.593  39.578  34.196  1.00  0.00    -0.237 OA
ATOM     83  O   UNL A   1      44.018  38.467  36.353  1.00  0.00    -0.744 OA
ENDBRANCH  79  80
ENDBRANCH  53  74
ENDBRANCH  27  28
ENDBRANCH  19  22
ENDBRANCH  17  18
ENDBRANCH   1  17
TORSDOF 16
ENDMDL
MODEL 3
REMARK VINA RESULT:      -9.6      2.737      9.489
REMARK SMILES C=CCSc1ccccc1C(=O)NCCCNC(=O)c1ccc(-c2c3nc(c(-c4ccc(S(=O)(=O)[O-])cc4)c4ccc([nH]4)c(-c4ccc(S(=O)(=O)[O-])cc4)c4nc(c(-c5ccc(S(=O)(=O)[O-])cc5)c5ccc2[nH]5)C=C4)C=C3)cc1
REMARK SMILES IDX 15 1 14 2 13 3 11 4 12 5 10 7 5 8 6 9 7 10 9 11 8 12 4 13
REMARK SMILES IDX 3 14 2 15 1 16 16 17 17 18 18 19 19 21 20 22 21 23 79 24
REMARK SMILES IDX 22 25 78 26 23 27 24 28 25 29 72 30 26 31 77 32 71 33 73 34
REMARK SMILES IDX 27 35 76 36 70 37 69 38 28 40 58 41 39 42 57 43 40 44 43 45
REMARK SMILES IDX 56 46 74 47 41 48 42 49 55 51 75 52 44 53 29 54 30 55 38 56
REMARK SMILES IDX 31 57 37 58 32 59 33 60 34 61 35 62 36 63 59 64 60 65 68 66
REMARK SMILES IDX 61 67 67 68 62 69 63 70 64 71 65 72 66 73 45 74 46 75 54 76
REMARK SMILES IDX 47 77 53 78 48 79 49 80 50 81 51 82 52 83
REMARK H PARENT 13 6 17 20 73 39 43 50
REMARK Flexibility Score: inf
ROOT
ATOM      1  C   UNL A   1      33.765  28.463  25.772  1.00  0.00     0.042 C 
ENDROOT
BRANCH   1   2
ATOM      2  C   UNL A   1      32.686  28.905  24.807  1.00  0.00     0.118 C 
BRANCH   2   3
ATOM      3  N   UNL A   1      31.402  28.273  25.006  1.00  0.00    -0.352 N 
ATOM      4  C   UNL A   1      30.980  27.028  24.621  1.00  0.00     0.252 C 
ATOM      5  O   UNL A   1      29.847  26.676  24.958  1.00  0.00    -0.269 OA
ATOM      6  H   UNL A   1      30.736  28.816  25.487  1.00  0.00     0.163 HD
BRANCH   4   7
ATOM      7  C   UNL A   1      31.768  26.146  23.720  1.00  0.00     0.053 A 
ATOM      8  C   UNL A   1      32.711  25.155  24.062  1.00  0.00     0.020 A 
ATOM      9  C   UNL A   1      33.400  24.514  23.010  1.00  0.00     0.016 A 
ATOM     10  C   UNL A   1      33.131  24.792  21.667  1.00  0.00     0.001 A 
ATOM     11  C   UNL A   1      31.476  26.383  22.356  1.00  0.00     0.015 A 
ATOM     12  C   UNL A   1      32.152  25.716  21.338  1.00  0.00     0.001 A 
BRANCH   8  13
ATOM     13  S   UNL A   1      33.311  24.676  25.684  1.00  0.00    -0.121 SA
BRANCH  13  14
ATOM     14  C   UNL A   1      34.034  23.023  25.493  1.00  0.00     0.101 C 
BRANCH  14  15
ATOM     15  C   UNL A   1      35.491  22.953  25.795  1.00  0.00    -0.024 C 
ATOM     16  C   UNL A   1      36.341  23.968  25.594  1.00  0.00     0.005 C 
ENDBRANCH  14  15
ENDBRANCH  13  14
ENDBRANCH   8  13
ENDBRANCH   4   7
ENDBRANCH   2   3
ENDBRANCH   1   2
BRANCH   1  17
ATOM     17  C   UNL A   1      33.412  28.639  27.243  1.00  0.00     0.118 C 
BRANCH  17  18
ATOM     18  N   UNL A   1      33.514  30.005  27.748  1.00  0.00    -0.352 N 
ATOM     19  C   UNL A   1      34.571  30.706  28.293  1.00  0.00     0.251 C 
ATOM     20  H   UNL A   1      32.678  30.520  27.688  1.00  0.00     0.163 HD
ATOM     21  O   UNL A   1      34.395  31.844  28.695  1.00  0.00    -0.269 OA
BRANCH  19  22
ATOM     22  C   UNL A   1      35.900  30.063  28.443  1.00  0.00     0.039 A 
ATOM     23  C   UNL A   1      36.803  30.119  27.378  1.00  0.00     0.014 A 
ATOM     24  C   UNL A   1      36.275  29.445  29.633  1.00  0.00     0.014 A 
ATOM     25  C   UNL A   1      38.113  29.661  27.555  1.00  0.00     0.010 A 
ATOM     26  C   UNL A   1      37.609  29.125  29.853  1.00  0.00     0.010 A 
ATOM     27  C   UNL A   1      38.546  29.223  28.817  1.00  0.00    -0.014 A 
BRANCH  27  28
ATOM     28  C   UNL A   1      39.968  28.870  29.077  1.00  0.00     0.031 A 
ATOM     29  C   UNL A   1      40.901  29.879  29.699  1.00  0.00     0.074 A 
ATOM     30  C   UNL A   1      40.442  27.672  28.679  1.00  0.00     0.049 A 
ATOM     31  N   UNL A   1      42.184  29.776  29.943  1.00  0.00    -0.248 NA
ATOM     32  C   UNL A   1      40.333  31.191  30.054  1.00  0.00     0.031 C 
ATOM     33  C   UNL A   1      39.670  26.636  27.985  1.00  0.00     0.029 A 
ATOM     34  N   UNL A   1      41.693  27.120  28.801  1.00  0.00    -0.354 N 
ATOM     35  C   UNL A   1      42.576  31.015  30.439  1.00  0.00     0.074 A 
ATOM     36  C   UNL A   1      41.412  31.871  30.402  1.00  0.00     0.031 C 
ATOM     37  C   UNL A   1      40.448  25.559  27.793  1.00  0.00     0.029 A 
ATOM     38  C   UNL A   1      41.781  25.836  28.313  1.00  0.00     0.049 A 
ATOM     39  H   UNL A   1      42.457  27.597  29.199  1.00  0.00     0.167 HD
ATOM     40  C   UNL A   1      43.784  31.399  30.915  1.00  0.00     0.031 A 
ATOM     41  C   UNL A   1      42.815  24.974  28.299  1.00  0.00     0.031 A 
ATOM     42  C   UNL A   1      44.928  30.533  30.997  1.00  0.00     0.049 A 
ATOM     43  C   UNL A   1      44.124  25.395  28.904  1.00  0.00     0.074 A 
ATOM     44  C   UNL A   1      46.177  30.799  31.532  1.00  0.00     0.029 A 
ATOM     45  N   UNL A   1      44.957  29.221  30.547  1.00  0.00    -0.354 N 
ATOM     46  N   UNL A   1      44.456  26.551  29.430  1.00  0.00    -0.248 NA
ATOM     47  C   UNL A   1      45.193  24.387  28.933  1.00  0.00     0.031 C 
ATOM     48  C   UNL A   1      46.971  29.656  31.378  1.00  0.00     0.029 A 
ATOM     49  C   UNL A   1      46.201  28.665  30.788  1.00  0.00     0.049 A 
ATOM     50  H   UNL A   1      44.203  28.755  30.118  1.00  0.00     0.167 HD
ATOM     51  C   UNL A   1      45.764  26.401  29.874  1.00  0.00     0.074 A 
ATOM     52  C   UNL A   1      46.154  25.038  29.574  1.00  0.00     0.031 C 
ATOM     53  C   UNL A   1      46.572  27.309  30.475  1.00  0.00     0.031 A 
BRANCH  40  54
ATOM     54  C   UNL A   1      43.915  32.820  31.400  1.00  0.00    -0.014 A 
ATOM     55  C   UNL A   1      43.684  33.149  32.750  1.00  0.00     0.010 A 
ATOM     56  C   UNL A   1      44.282  33.838  30.503  1.00  0.00     0.010 A 
ATOM     57  C   UNL A   1      43.764  34.475  33.180  1.00  0.00     0.020 A 
ATOM     58  C   UNL A   1      44.394  35.163  30.936  1.00  0.00     0.020 A 
ATOM     59  C   UNL A   1      44.113  35.476  32.269  1.00  0.00     0.054 A 
BRANCH  59  60
ATOM     60  S   UNL A   1      44.221  37.188  32.856  1.00  0.00     0.124 S 
ATOM     61  O   UNL A   1      42.997  37.311  33.644  1.00  0.00    -0.237 OA
ATOM     62  O   UNL A   1      45.463  37.189  33.622  1.00  0.00    -0.237 OA
ATOM     63  O   UNL A   1      44.250  37.975  31.625  1.00  0.00    -0.744 OA
ENDBRANCH  59  60
ENDBRANCH  40  54
BRANCH  41  64
ATOM     64  C   UNL A   1      42.635  23.604  27.744  1.00  0.00    -0.014 A 
ATOM     65  C   UNL A   1      43.129  23.287  26.466  1.00  0.00     0.010 A 
ATOM     66  C   UNL A   1      41.985  22.607  28.492  1.00  0.00     0.010 A 
ATOM     67  C   UNL A   1      42.958  22.004  25.936  1.00  0.00     0.020 A 
ATOM     68  C   UNL A   1      41.834  21.315  27.976  1.00  0.00     0.020 A 
ATOM     69  C   UNL A   1      42.311  21.026  26.696  1.00  0.00     0.054 A 
BRANCH  69  70
ATOM     70  S   UNL A   1      42.146  19.353  26.012  1.00  0.00     0.124 S 
ATOM     71  O   UNL A   1      42.948  19.442  24.796  1.00  0.00    -0.237 OA
ATOM     72  O   UNL A   1      42.698  18.519  27.076  1.00  0.00    -0.237 OA
ATOM     73  O   UNL A   1      40.706  19.211  25.805  1.00  0.00    -0.744 OA
ENDBRANCH  69  70
ENDBRANCH  41  64
BRANCH  53  74
ATOM     74  C   UNL A   1      47.944  26.841  30.874  1.00  0.00    -0.014 A 
ATOM     75  C   UNL A   1      48.155  26.153  32.081  1.00  0.00     0.010 A 
ATOM     76  C   UNL A   1      49.034  27.084  30.019  1.00  0.00     0.010 A 
ATOM     77  C   UNL A   1      49.445  25.765  32.454  1.00  0.00     0.020 A 
ATOM     78  C   UNL A   1      50.320  26.673  30.377  1.00  0.00     0.020 A 
ATOM     79  C   UNL A   1      50.520  26.037  31.603  1.00  0.00     0.054 A 
BRANCH  79  80
ATOM     80  S   UNL A   1      52.185  25.522  32.103  1.00  0.00     0.124 S 
ATOM     81  O   UNL A   1      51.980  24.114  32.430  1.00  0.00    -0.237 OA
ATOM     82  O   UNL A   1      52.978  25.780  30.903  1.00  0.00    -0.237 OA
ATOM     83  O   UNL A   1      52.488  26.389  33.239  1.00  0.00    -0.744 OA
ENDBRANCH  79  80
ENDBRANCH  53  74
ENDBRANCH  27  28
ENDBRANCH  19  22
ENDBRANCH  17  18
ENDBRANCH   1  17
TORSDOF 16
ENDMDL
