MODEL 1
REMARK VINA RESULT:     -11.3      0.000      0.000
REMARK SMILES O=C(NCCCNC(=O)[C@@H]1C[N@@H+](CCOc2ccc(F)cc2)C[C@H]1C1CC1)c1ccc(-c2c3nc(c(-c4ccc(S(=O)(=O)[O-])cc4)c4ccc([nH]4)c(-c4ccc(S(=O)(=O)[O-])cc4)c4nc(c(-c5ccc(S(=O)(=O)[O-])cc5)c5ccc2[nH]5)C=C4)C=C3)cc1
REMARK SMILES IDX 5 1 4 2 3 3 1 4 2 5 28 7 29 8 87 9 30 10 86 11 31 12 32 13
REMARK SMILES IDX 33 14 80 15 34 16 85 17 79 18 81 19 35 20 84 21 78 22 77 23
REMARK SMILES IDX 36 25 66 26 47 27 65 28 48 29 51 30 64 31 82 32 49 33 50 34
REMARK SMILES IDX 63 36 83 37 52 38 37 39 38 40 46 41 39 42 45 43 40 44 41 45
REMARK SMILES IDX 42 46 43 47 44 48 67 49 68 50 76 51 69 52 75 53 70 54 71 55
REMARK SMILES IDX 72 56 73 57 74 58 53 59 54 60 62 61 55 62 61 63 56 64 57 65
REMARK SMILES IDX 58 66 59 67 60 68 6 69 7 70 8 71 9 73 10 74 11 75 24 76
REMARK SMILES IDX 12 77 23 78 25 80 26 81 27 82 13 83 14 84 15 85 16 86 17 87
REMARK SMILES IDX 22 88 18 89 21 90 19 91 20 92
REMARK H PARENT 3 6 81 24 51 35 7 72 12 79
REMARK Flexibility Score: inf
ROOT
ATOM      1  C   UNL A   1      37.640  23.686  25.396  1.00  0.00     0.042 C 
ENDROOT
BRANCH   1   2
ATOM      2  C   UNL A   1      38.639  23.673  26.540  1.00  0.00     0.118 C 
BRANCH   2   3
ATOM      3  N   UNL A   1      40.006  23.970  26.114  1.00  0.00    -0.352 N 
ATOM      4  O   UNL A   1      41.906  25.157  25.844  1.00  0.00    -0.269 OA
ATOM      5  C   UNL A   1      40.849  25.022  26.428  1.00  0.00     0.251 C 
ATOM      6  H   UNL A   1      40.394  23.306  25.499  1.00  0.00     0.163 HD
BRANCH   5   7
ATOM      7  C   UNL A   1      40.410  26.012  27.437  1.00  0.00     0.039 A 
ATOM      8  C   UNL A   1      40.928  27.297  27.400  1.00  0.00     0.014 A 
ATOM      9  C   UNL A   1      39.560  25.637  28.478  1.00  0.00     0.014 A 
ATOM     10  C   UNL A   1      40.912  28.058  28.552  1.00  0.00     0.010 A 
ATOM     11  C   UNL A   1      39.353  26.516  29.548  1.00  0.00     0.010 A 
ATOM     12  C   UNL A   1      40.093  27.705  29.635  1.00  0.00    -0.014 A 
BRANCH  12  13
ATOM     13  C   UNL A   1      40.036  28.630  30.802  1.00  0.00     0.031 A 
ATOM     14  C   UNL A   1      41.051  28.563  31.916  1.00  0.00     0.074 A 
ATOM     15  C   UNL A   1      39.100  29.604  30.802  1.00  0.00     0.049 A 
ATOM     16  N   UNL A   1      41.149  29.320  32.980  1.00  0.00    -0.248 NA
ATOM     17  C   UNL A   1      42.076  27.508  31.845  1.00  0.00     0.031 C 
ATOM     18  C   UNL A   1      38.059  29.777  29.779  1.00  0.00     0.029 A 
ATOM     19  N   UNL A   1      38.900  30.666  31.644  1.00  0.00    -0.354 N 
ATOM     20  C   UNL A   1      42.199  28.800  33.730  1.00  0.00     0.074 A 
ATOM     21  C   UNL A   1      42.708  27.657  33.003  1.00  0.00     0.031 C 
ATOM     22  C   UNL A   1      37.425  30.937  29.980  1.00  0.00     0.029 A 
ATOM     23  C   UNL A   1      37.913  31.525  31.218  1.00  0.00     0.049 A 
ATOM     24  H   UNL A   1      39.413  30.802  32.474  1.00  0.00     0.167 HD
ATOM     25  C   UNL A   1      42.689  29.232  34.918  1.00  0.00     0.031 A 
ATOM     26  C   UNL A   1      37.425  32.650  31.769  1.00  0.00     0.031 A 
ATOM     27  C   UNL A   1      42.198  30.392  35.616  1.00  0.00     0.049 A 
ATOM     28  C   UNL A   1      37.988  33.106  33.079  1.00  0.00     0.074 A 
ATOM     29  C   UNL A   1      42.641  30.928  36.813  1.00  0.00     0.029 A 
ATOM     30  N   UNL A   1      41.160  31.201  35.178  1.00  0.00    -0.354 N 
ATOM     31  N   UNL A   1      38.967  32.584  33.777  1.00  0.00    -0.248 NA
ATOM     32  C   UNL A   1      37.373  34.293  33.681  1.00  0.00     0.031 C 
ATOM     33  C   UNL A   1      41.841  32.033  37.121  1.00  0.00     0.029 A 
ATOM     34  C   UNL A   1      40.938  32.222  36.088  1.00  0.00     0.049 A 
ATOM     35  H   UNL A   1      40.656  31.071  34.342  1.00  0.00     0.167 HD
ATOM     36  C   UNL A   1      39.096  33.388  34.900  1.00  0.00     0.074 A 
ATOM     37  C   UNL A   1      38.110  34.445  34.772  1.00  0.00     0.031 C 
ATOM     38  C   UNL A   1      39.949  33.261  35.945  1.00  0.00     0.031 A 
BRANCH  25  39
ATOM     39  C   UNL A   1      43.784  28.421  35.565  1.00  0.00    -0.014 A 
ATOM     40  C   UNL A   1      45.142  28.758  35.420  1.00  0.00     0.010 A 
ATOM     41  C   UNL A   1      43.439  27.320  36.373  1.00  0.00     0.010 A 
ATOM     42  C   UNL A   1      46.133  27.985  36.035  1.00  0.00     0.020 A 
ATOM     43  C   UNL A   1      44.424  26.562  37.011  1.00  0.00     0.020 A 
ATOM     44  C   UNL A   1      45.768  26.889  36.822  1.00  0.00     0.054 A 
BRANCH  44  45
ATOM     45  S   UNL A   1      47.074  25.911  37.619  1.00  0.00     0.124 S 
ATOM     46  O   UNL A   1      46.822  26.172  39.034  1.00  0.00    -0.237 OA
ATOM     47  O   UNL A   1      46.777  24.553  37.169  1.00  0.00    -0.237 OA
ATOM     48  O   UNL A   1      48.309  26.484  37.089  1.00  0.00    -0.744 OA
ENDBRANCH  44  45
ENDBRANCH  25  39
BRANCH  26  49
ATOM     49  C   UNL A   1      36.324  33.387  31.092  1.00  0.00    -0.014 A 
ATOM     50  C   UNL A   1      35.092  33.586  31.736  1.00  0.00     0.010 A 
ATOM     51  C   UNL A   1      36.523  33.936  29.810  1.00  0.00     0.010 A 
ATOM     52  C   UNL A   1      34.074  34.309  31.107  1.00  0.00     0.020 A 
ATOM     53  C   UNL A   1      35.523  34.689  29.193  1.00  0.00     0.020 A 
ATOM     54  C   UNL A   1      34.298  34.859  29.839  1.00  0.00     0.054 A 
BRANCH  54  55
ATOM     55  S   UNL A   1      32.986  35.843  29.064  1.00  0.00     0.124 S 
ATOM     56  O   UNL A   1      32.361  34.867  28.179  1.00  0.00    -0.237 OA
ATOM     57  O   UNL A   1      32.187  36.263  30.212  1.00  0.00    -0.237 OA
ATOM     58  O   UNL A   1      33.717  36.918  28.397  1.00  0.00    -0.744 OA
ENDBRANCH  54  55
ENDBRANCH  26  49
BRANCH  38  59
ATOM     59  C   UNL A   1      39.878  34.322  37.008  1.00  0.00    -0.014 A 
ATOM     60  C   UNL A   1      39.086  34.152  38.157  1.00  0.00     0.010 A 
ATOM     61  C   UNL A   1      40.629  35.501  36.854  1.00  0.00     0.010 A 
ATOM     62  C   UNL A   1      39.011  35.167  39.114  1.00  0.00     0.020 A 
ATOM     63  C   UNL A   1      40.578  36.504  37.822  1.00  0.00     0.020 A 
ATOM     64  C   UNL A   1      39.754  36.339  38.936  1.00  0.00     0.054 A 
BRANCH  64  65
ATOM     65  S   UNL A   1      39.654  37.637  40.199  1.00  0.00     0.124 S 
ATOM     66  O   UNL A   1      38.289  38.124  40.023  1.00  0.00    -0.237 OA
ATOM     67  O   UNL A   1      39.905  36.901  41.436  1.00  0.00    -0.237 OA
ATOM     68  O   UNL A   1      40.706  38.575  39.814  1.00  0.00    -0.744 OA
ENDBRANCH  64  65
ENDBRANCH  38  59
ENDBRANCH  12  13
ENDBRANCH   5   7
ENDBRANCH   2   3
ENDBRANCH   1   2
BRANCH   1  69
ATOM     69  C   UNL A   1      36.240  23.896  25.912  1.00  0.00     0.117 C 
BRANCH  69  70
ATOM     70  N   UNL A   1      35.733  22.718  26.595  1.00  0.00    -0.356 N 
ATOM     71  C   UNL A   1      34.449  22.388  26.888  1.00  0.00     0.229 C 
ATOM     72  H   UNL A   1      36.416  22.069  26.884  1.00  0.00     0.163 HD
ATOM     73  O   UNL A   1      34.246  21.356  27.528  1.00  0.00    -0.275 OA
BRANCH  71  74
ATOM     74  C   UNL A   1      33.335  23.242  26.337  1.00  0.00     0.142 C 
ATOM     75  C   UNL A   1      32.070  23.097  27.178  1.00  0.00     0.276 C 
ATOM     76  C   UNL A   1      32.935  22.722  24.955  1.00  0.00     0.065 C 
ATOM     77  N   UNL A   1      30.980  23.416  26.243  1.00  0.00    -0.331 N 
ATOM     78  C   UNL A   1      31.394  22.710  25.029  1.00  0.00     0.267 C 
ATOM     79  H   UNL A   1      30.055  23.104  26.540  1.00  0.00     0.348 HD
BRANCH  76  80
ATOM     80  C   UNL A   1      33.456  23.457  23.738  1.00  0.00    -0.001 C 
ATOM     81  C   UNL A   1      34.569  22.999  22.816  1.00  0.00     0.004 C 
ATOM     82  C   UNL A   1      33.147  22.971  22.342  1.00  0.00     0.004 C 
ENDBRANCH  76  80
BRANCH  77  83
ATOM     83  C   UNL A   1      30.688  24.867  26.134  1.00  0.00     0.304 C 
BRANCH  83  84
ATOM     84  C   UNL A   1      30.448  25.603  24.789  1.00  0.00     0.290 C 
BRANCH  84  85
ATOM     85  O   UNL A   1      30.359  27.032  24.948  1.00  0.00    -0.488 OA
BRANCH  85  86
ATOM     86  C   UNL A   1      31.464  27.606  25.517  1.00  0.00     0.119 A 
ATOM     87  C   UNL A   1      32.644  27.544  24.769  1.00  0.00     0.049 A 
ATOM     88  C   UNL A   1      31.471  28.178  26.788  1.00  0.00     0.049 A 
ATOM     89  C   UNL A   1      33.860  27.884  25.358  1.00  0.00     0.043 A 
ATOM     90  C   UNL A   1      32.689  28.552  27.369  1.00  0.00     0.043 A 
ATOM     91  C   UNL A   1      33.875  28.365  26.662  1.00  0.00     0.123 A 
ATOM     92  F   UNL A   1      35.049  28.609  27.260  1.00  0.00    -0.207 F 
ENDBRANCH  85  86
ENDBRANCH  84  85
ENDBRANCH  83  84
ENDBRANCH  77  83
ENDBRANCH  71  74
ENDBRANCH  69  70
ENDBRANCH   1  69
TORSDOF 18
ENDMDL
MODEL 2
REMARK VINA RESULT:     -11.1      6.686     12.174
REMARK SMILES O=C(NCCCNC(=O)[C@@H]1C[N@@H+](CCOc2ccc(F)cc2)C[C@H]1C1CC1)c1ccc(-c2c3nc(c(-c4ccc(S(=O)(=O)[O-])cc4)c4ccc([nH]4)c(-c4ccc(S(=O)(=O)[O-])cc4)c4nc(c(-c5ccc(S(=O)(=O)[O-])cc5)c5ccc2[nH]5)C=C4)C=C3)cc1
REMARK SMILES IDX 5 1 4 2 3 3 1 4 2 5 28 7 29 8 87 9 30 10 86 11 31 12 32 13
REMARK SMILES IDX 33 14 80 15 34 16 85 17 79 18 81 19 35 20 84 21 78 22 77 23
REMARK SMILES IDX 36 25 66 26 47 27 65 28 48 29 51 30 64 31 82 32 49 33 50 34
REMARK SMILES IDX 63 36 83 37 52 38 37 39 38 40 46 41 39 42 45 43 40 44 41 45
REMARK SMILES IDX 42 46 43 47 44 48 67 49 68 50 76 51 69 52 75 53 70 54 71 55
REMARK SMILES IDX 72 56 73 57 74 58 53 59 54 60 62 61 55 62 61 63 56 64 57 65
REMARK SMILES IDX 58 66 59 67 60 68 6 69 7 70 8 71 9 73 10 74 11 75 24 76
REMARK SMILES IDX 12 77 23 78 25 80 26 81 27 82 13 83 14 84 15 85 16 86 17 87
REMARK SMILES IDX 22 88 18 89 21 90 19 91 20 92
REMARK H PARENT 3 6 81 24 51 35 7 72 12 79
REMARK Flexibility Score: inf
ROOT
ATOM      1  C   UNL A   1      34.531  29.062  27.309  1.00  0.00     0.042 C 
ENDROOT
BRANCH   1   2
ATOM      2  C   UNL A   1      35.186  30.369  27.720  1.00  0.00     0.118 C 
BRANCH   2   3
ATOM      3  N   UNL A   1      35.357  30.498  29.167  1.00  0.00    -0.352 N 
ATOM      4  O   UNL A   1      36.258  30.164  31.208  1.00  0.00    -0.269 OA
ATOM      5  C   UNL A   1      36.382  30.088  30.002  1.00  0.00     0.251 C 
ATOM      6  H   UNL A   1      34.616  30.957  29.625  1.00  0.00     0.163 HD
BRANCH   5   7
ATOM      7  C   UNL A   1      37.599  29.496  29.402  1.00  0.00     0.039 A 
ATOM      8  C   UNL A   1      38.434  28.716  30.186  1.00  0.00     0.014 A 
ATOM      9  C   UNL A   1      37.962  29.796  28.088  1.00  0.00     0.014 A 
ATOM     10  C   UNL A   1      39.753  28.562  29.810  1.00  0.00     0.010 A 
ATOM     11  C   UNL A   1      39.230  29.425  27.624  1.00  0.00     0.010 A 
ATOM     12  C   UNL A   1      40.170  28.876  28.507  1.00  0.00    -0.014 A 
BRANCH  12  13
ATOM     13  C   UNL A   1      41.581  28.578  28.132  1.00  0.00     0.031 A 
ATOM     14  C   UNL A   1      42.673  29.610  28.275  1.00  0.00     0.074 A 
ATOM     15  C   UNL A   1      41.889  27.323  27.741  1.00  0.00     0.049 A 
ATOM     16  N   UNL A   1      43.952  29.489  28.018  1.00  0.00    -0.248 NA
ATOM     17  C   UNL A   1      42.289  30.952  28.746  1.00  0.00     0.031 C 
ATOM     18  C   UNL A   1      40.922  26.231  27.564  1.00  0.00     0.029 A 
ATOM     19  N   UNL A   1      43.095  26.727  27.481  1.00  0.00    -0.354 N 
ATOM     20  C   UNL A   1      44.511  30.744  28.237  1.00  0.00     0.074 A 
ATOM     21  C   UNL A   1      43.432  31.618  28.644  1.00  0.00     0.031 C 
ATOM     22  C   UNL A   1      41.578  25.084  27.356  1.00  0.00     0.029 A 
ATOM     23  C   UNL A   1      42.998  25.375  27.246  1.00  0.00     0.049 A 
ATOM     24  H   UNL A   1      43.948  27.218  27.463  1.00  0.00     0.167 HD
ATOM     25  C   UNL A   1      45.802  31.133  28.104  1.00  0.00     0.031 A 
ATOM     26  C   UNL A   1      43.939  24.462  26.946  1.00  0.00     0.031 A 
ATOM     27  C   UNL A   1      46.875  30.245  27.732  1.00  0.00     0.049 A 
ATOM     28  C   UNL A   1      45.359  24.918  26.810  1.00  0.00     0.074 A 
ATOM     29  C   UNL A   1      48.221  30.533  27.593  1.00  0.00     0.029 A 
ATOM     30  N   UNL A   1      46.725  28.895  27.448  1.00  0.00    -0.354 N 
ATOM     31  N   UNL A   1      45.857  26.115  27.001  1.00  0.00    -0.248 NA
ATOM     32  C   UNL A   1      46.339  23.905  26.405  1.00  0.00     0.031 C 
ATOM     33  C   UNL A   1      48.878  29.369  27.180  1.00  0.00     0.029 A 
ATOM     34  C   UNL A   1      47.952  28.342  27.120  1.00  0.00     0.049 A 
ATOM     35  H   UNL A   1      45.873  28.403  27.478  1.00  0.00     0.167 HD
ATOM     36  C   UNL A   1      47.217  25.998  26.752  1.00  0.00     0.074 A 
ATOM     37  C   UNL A   1      47.463  24.607  26.421  1.00  0.00     0.031 C 
ATOM     38  C   UNL A   1      48.175  26.957  26.789  1.00  0.00     0.031 A 
BRANCH  25  39
ATOM     39  C   UNL A   1      46.126  32.591  28.315  1.00  0.00    -0.014 A 
ATOM     40  C   UNL A   1      46.097  33.518  27.258  1.00  0.00     0.010 A 
ATOM     41  C   UNL A   1      46.424  33.048  29.613  1.00  0.00     0.010 A 
ATOM     42  C   UNL A   1      46.402  34.864  27.488  1.00  0.00     0.020 A 
ATOM     43  C   UNL A   1      46.702  34.397  29.852  1.00  0.00     0.020 A 
ATOM     44  C   UNL A   1      46.707  35.294  28.783  1.00  0.00     0.054 A 
BRANCH  44  45
ATOM     45  S   UNL A   1      47.086  37.049  29.055  1.00  0.00     0.124 S 
ATOM     46  O   UNL A   1      46.418  37.679  27.918  1.00  0.00    -0.237 OA
ATOM     47  O   UNL A   1      46.484  37.308  30.360  1.00  0.00    -0.237 OA
ATOM     48  O   UNL A   1      48.546  37.097  29.024  1.00  0.00    -0.744 OA
ENDBRANCH  44  45
ENDBRANCH  25  39
BRANCH  26  49
ATOM     49  C   UNL A   1      43.550  23.044  26.722  1.00  0.00    -0.014 A 
ATOM     50  C   UNL A   1      43.843  22.402  25.507  1.00  0.00     0.010 A 
ATOM     51  C   UNL A   1      42.919  22.312  27.746  1.00  0.00     0.010 A 
ATOM     52  C   UNL A   1      43.503  21.060  25.316  1.00  0.00     0.020 A 
ATOM     53  C   UNL A   1      42.610  20.962  27.574  1.00  0.00     0.020 A 
ATOM     54  C   UNL A   1      42.891  20.347  26.354  1.00  0.00     0.054 A 
BRANCH  54  55
ATOM     55  S   UNL A   1      42.511  18.591  26.108  1.00  0.00     0.124 S 
ATOM     56  O   UNL A   1      43.420  18.235  25.024  1.00  0.00    -0.237 OA
ATOM     57  O   UNL A   1      42.824  18.014  27.414  1.00  0.00    -0.237 OA
ATOM     58  O   UNL A   1      41.091  18.595  25.762  1.00  0.00    -0.744 OA
ENDBRANCH  54  55
ENDBRANCH  26  49
BRANCH  38  59
ATOM     59  C   UNL A   1      49.583  26.515  26.505  1.00  0.00    -0.014 A 
ATOM     60  C   UNL A   1      50.391  25.959  27.513  1.00  0.00     0.010 A 
ATOM     61  C   UNL A   1      50.098  26.649  25.204  1.00  0.00     0.010 A 
ATOM     62  C   UNL A   1      51.708  25.587  27.233  1.00  0.00     0.020 A 
ATOM     63  C   UNL A   1      51.403  26.252  24.913  1.00  0.00     0.020 A 
ATOM     64  C   UNL A   1      52.207  25.742  25.934  1.00  0.00     0.054 A 
BRANCH  64  65
ATOM     65  S   UNL A   1      53.914  25.237  25.588  1.00  0.00     0.124 S 
ATOM     66  O   UNL A   1      54.412  26.371  24.814  1.00  0.00    -0.237 OA
ATOM     67  O   UNL A   1      54.482  25.090  26.925  1.00  0.00    -0.237 OA
ATOM     68  O   UNL A   1      53.760  23.990  24.842  1.00  0.00    -0.744 OA
ENDBRANCH  64  65
ENDBRANCH  38  59
ENDBRANCH  12  13
ENDBRANCH   5   7
ENDBRANCH   2   3
ENDBRANCH   1   2
BRANCH   1  69
ATOM     69  C   UNL A   1      33.347  29.317  26.411  1.00  0.00     0.117 C 
BRANCH  69  70
ATOM     70  N   UNL A   1      33.725  29.332  25.009  1.00  0.00    -0.356 N 
ATOM     71  C   UNL A   1      33.655  28.329  24.096  1.00  0.00     0.229 C 
ATOM     72  H   UNL A   1      34.081  30.187  24.674  1.00  0.00     0.163 HD
ATOM     73  O   UNL A   1      34.085  28.544  22.962  1.00  0.00    -0.275 OA
BRANCH  71  74
ATOM     74  C   UNL A   1      32.973  27.041  24.482  1.00  0.00     0.142 C 
ATOM     75  C   UNL A   1      33.855  25.838  24.159  1.00  0.00     0.276 C 
ATOM     76  C   UNL A   1      31.730  26.846  23.610  1.00  0.00     0.065 C 
ATOM     77  N   UNL A   1      32.900  24.734  23.973  1.00  0.00    -0.331 N 
ATOM     78  C   UNL A   1      31.841  25.367  23.186  1.00  0.00     0.267 C 
ATOM     79  H   UNL A   1      33.275  23.923  23.481  1.00  0.00     0.348 HD
BRANCH  76  80
ATOM     80  C   UNL A   1      30.380  27.183  24.207  1.00  0.00    -0.001 C 
ATOM     81  C   UNL A   1      29.207  27.815  23.484  1.00  0.00     0.004 C 
ATOM     82  C   UNL A   1      29.154  26.369  23.872  1.00  0.00     0.004 C 
ENDBRANCH  76  80
BRANCH  77  83
ATOM     83  C   UNL A   1      32.515  24.055  25.234  1.00  0.00     0.304 C 
BRANCH  83  84
ATOM     84  C   UNL A   1      32.559  22.517  25.438  1.00  0.00     0.290 C 
BRANCH  84  85
ATOM     85  O   UNL A   1      32.036  21.793  24.308  1.00  0.00    -0.488 OA
BRANCH  85  86
ATOM     86  C   UNL A   1      32.405  20.475  24.264  1.00  0.00     0.119 A 
ATOM     87  C   UNL A   1      32.302  19.848  23.019  1.00  0.00     0.049 A 
ATOM     88  C   UNL A   1      32.811  19.748  25.382  1.00  0.00     0.049 A 
ATOM     89  C   UNL A   1      32.425  18.463  22.925  1.00  0.00     0.043 A 
ATOM     90  C   UNL A   1      32.970  18.361  25.282  1.00  0.00     0.043 A 
ATOM     91  C   UNL A   1      32.737  17.728  24.063  1.00  0.00     0.123 A 
ATOM     92  F   UNL A   1      32.769  16.390  23.994  1.00  0.00    -0.207 F 
ENDBRANCH  85  86
ENDBRANCH  84  85
ENDBRANCH  83  84
ENDBRANCH  77  83
ENDBRANCH  71  74
ENDBRANCH  69  70
ENDBRANCH   1  69
TORSDOF 18
ENDMDL
MODEL 3
REMARK VINA RESULT:     -11.0      3.215      8.790
REMARK SMILES O=C(NCCCNC(=O)[C@@H]1C[N@@H+](CCOc2ccc(F)cc2)C[C@H]1C1CC1)c1ccc(-c2c3nc(c(-c4ccc(S(=O)(=O)[O-])cc4)c4ccc([nH]4)c(-c4ccc(S(=O)(=O)[O-])cc4)c4nc(c(-c5ccc(S(=O)(=O)[O-])cc5)c5ccc2[nH]5)C=C4)C=C3)cc1
REMARK SMILES IDX 5 1 4 2 3 3 1 4 2 5 28 7 29 8 87 9 30 10 86 11 31 12 32 13
REMARK SMILES IDX 33 14 80 15 34 16 85 17 79 18 81 19 35 20 84 21 78 22 77 23
REMARK SMILES IDX 36 25 66 26 47 27 65 28 48 29 51 30 64 31 82 32 49 33 50 34
REMARK SMILES IDX 63 36 83 37 52 38 37 39 38 40 46 41 39 42 45 43 40 44 41 45
REMARK SMILES IDX 42 46 43 47 44 48 67 49 68 50 76 51 69 52 75 53 70 54 71 55
REMARK SMILES IDX 72 56 73 57 74 58 53 59 54 60 62 61 55 62 61 63 56 64 57 65
REMARK SMILES IDX 58 66 59 67 60 68 6 69 7 70 8 71 9 73 10 74 11 75 24 76
REMARK SMILES IDX 12 77 23 78 25 80 26 81 27 82 13 83 14 84 15 85 16 86 17 87
REMARK SMILES IDX 22 88 18 89 21 90 19 91 20 92
REMARK H PARENT 3 6 81 24 51 35 7 72 12 79
REMARK Flexibility Score: inf
ROOT
ATOM      1  C   UNL A   1      36.099  23.967  25.802  1.00  0.00     0.042 C 
ENDROOT
BRANCH   1   2
ATOM      2  C   UNL A   1      37.149  23.559  24.785  1.00  0.00     0.118 C 
BRANCH   2   3
ATOM      3  N   UNL A   1      38.167  22.663  25.336  1.00  0.00    -0.352 N 
ATOM      4  O   UNL A   1      40.030  22.037  26.442  1.00  0.00    -0.269 OA
ATOM      5  C   UNL A   1      39.200  22.897  26.226  1.00  0.00     0.251 C 
ATOM      6  H   UNL A   1      38.104  21.733  25.019  1.00  0.00     0.163 HD
BRANCH   5   7
ATOM      7  C   UNL A   1      39.311  24.232  26.857  1.00  0.00     0.039 A 
ATOM      8  C   UNL A   1      39.924  25.263  26.163  1.00  0.00     0.014 A 
ATOM      9  C   UNL A   1      38.894  24.433  28.173  1.00  0.00     0.014 A 
ATOM     10  C   UNL A   1      40.450  26.325  26.871  1.00  0.00     0.010 A 
ATOM     11  C   UNL A   1      39.228  25.627  28.825  1.00  0.00     0.010 A 
ATOM     12  C   UNL A   1      40.080  26.552  28.205  1.00  0.00    -0.014 A 
BRANCH  12  13
ATOM     13  C   UNL A   1      40.594  27.780  28.876  1.00  0.00     0.031 A 
ATOM     14  C   UNL A   1      39.695  28.957  29.168  1.00  0.00     0.074 A 
ATOM     15  C   UNL A   1      41.874  27.787  29.308  1.00  0.00     0.049 A 
ATOM     16  N   UNL A   1      39.991  30.081  29.773  1.00  0.00    -0.248 NA
ATOM     17  C   UNL A   1      38.297  28.880  28.714  1.00  0.00     0.031 C 
ATOM     18  C   UNL A   1      42.846  26.707  29.089  1.00  0.00     0.029 A 
ATOM     19  N   UNL A   1      42.567  28.692  30.068  1.00  0.00    -0.354 N 
ATOM     20  C   UNL A   1      38.841  30.863  29.718  1.00  0.00     0.074 A 
ATOM     21  C   UNL A   1      37.841  30.089  29.017  1.00  0.00     0.031 C 
ATOM     22  C   UNL A   1      43.951  26.950  29.802  1.00  0.00     0.029 A 
ATOM     23  C   UNL A   1      43.826  28.263  30.417  1.00  0.00     0.049 A 
ATOM     24  H   UNL A   1      42.200  29.565  30.337  1.00  0.00     0.167 HD
ATOM     25  C   UNL A   1      38.642  32.113  30.202  1.00  0.00     0.031 A 
ATOM     26  C   UNL A   1      44.796  28.861  31.131  1.00  0.00     0.031 A 
ATOM     27  C   UNL A   1      39.635  32.862  30.930  1.00  0.00     0.049 A 
ATOM     28  C   UNL A   1      44.547  30.241  31.658  1.00  0.00     0.074 A 
ATOM     29  C   UNL A   1      39.525  34.125  31.484  1.00  0.00     0.029 A 
ATOM     30  N   UNL A   1      40.916  32.413  31.214  1.00  0.00    -0.354 N 
ATOM     31  N   UNL A   1      43.458  30.966  31.573  1.00  0.00    -0.248 NA
ATOM     32  C   UNL A   1      45.659  30.887  32.362  1.00  0.00     0.031 C 
ATOM     33  C   UNL A   1      40.755  34.459  32.061  1.00  0.00     0.029 A 
ATOM     34  C   UNL A   1      41.612  33.381  31.920  1.00  0.00     0.049 A 
ATOM     35  H   UNL A   1      41.278  31.535  30.953  1.00  0.00     0.167 HD
ATOM     36  C   UNL A   1      43.749  32.155  32.227  1.00  0.00     0.074 A 
ATOM     37  C   UNL A   1      45.108  32.037  32.722  1.00  0.00     0.031 C 
ATOM     38  C   UNL A   1      42.965  33.246  32.399  1.00  0.00     0.031 A 
BRANCH  25  39
ATOM     39  C   UNL A   1      37.315  32.775  29.921  1.00  0.00    -0.014 A 
ATOM     40  C   UNL A   1      36.340  32.936  30.922  1.00  0.00     0.010 A 
ATOM     41  C   UNL A   1      37.059  33.283  28.633  1.00  0.00     0.010 A 
ATOM     42  C   UNL A   1      35.120  33.555  30.628  1.00  0.00     0.020 A 
ATOM     43  C   UNL A   1      35.853  33.927  28.343  1.00  0.00     0.020 A 
ATOM     44  C   UNL A   1      34.882  34.042  29.340  1.00  0.00     0.054 A 
BRANCH  44  45
ATOM     45  S   UNL A   1      33.295  34.851  28.990  1.00  0.00     0.124 S 
ATOM     46  O   UNL A   1      32.713  33.951  27.997  1.00  0.00    -0.237 OA
ATOM     47  O   UNL A   1      32.641  34.852  30.296  1.00  0.00    -0.237 OA
ATOM     48  O   UNL A   1      33.680  36.168  28.488  1.00  0.00    -0.744 OA
ENDBRANCH  44  45
ENDBRANCH  25  39
BRANCH  26  49
ATOM     49  C   UNL A   1      46.093  28.166  31.347  1.00  0.00    -0.014 A 
ATOM     50  C   UNL A   1      46.269  27.298  32.438  1.00  0.00     0.010 A 
ATOM     51  C   UNL A   1      47.149  28.336  30.431  1.00  0.00     0.010 A 
ATOM     52  C   UNL A   1      47.480  26.622  32.615  1.00  0.00     0.020 A 
ATOM     53  C   UNL A   1      48.346  27.636  30.584  1.00  0.00     0.020 A 
ATOM     54  C   UNL A   1      48.510  26.793  31.683  1.00  0.00     0.054 A 
BRANCH  54  55
ATOM     55  S   UNL A   1      50.052  25.862  31.898  1.00  0.00     0.124 S 
ATOM     56  O   UNL A   1      50.031  24.974  30.741  1.00  0.00    -0.237 OA
ATOM     57  O   UNL A   1      51.064  26.916  31.871  1.00  0.00    -0.237 OA
ATOM     58  O   UNL A   1      49.878  25.210  33.194  1.00  0.00    -0.744 OA
ENDBRANCH  54  55
ENDBRANCH  26  49
BRANCH  38  59
ATOM     59  C   UNL A   1      43.549  34.380  33.194  1.00  0.00    -0.014 A 
ATOM     60  C   UNL A   1      44.245  35.429  32.568  1.00  0.00     0.010 A 
ATOM     61  C   UNL A   1      43.387  34.396  34.591  1.00  0.00     0.010 A 
ATOM     62  C   UNL A   1      44.808  36.453  33.332  1.00  0.00     0.020 A 
ATOM     63  C   UNL A   1      43.924  35.433  35.355  1.00  0.00     0.020 A 
ATOM     64  C   UNL A   1      44.648  36.445  34.722  1.00  0.00     0.054 A 
BRANCH  64  65
ATOM     65  S   UNL A   1      45.373  37.793  35.693  1.00  0.00     0.124 S 
ATOM     66  O   UNL A   1      46.272  38.414  34.724  1.00  0.00    -0.237 OA
ATOM     67  O   UNL A   1      44.204  38.586  36.065  1.00  0.00    -0.237 OA
ATOM     68  O   UNL A   1      46.030  37.105  36.802  1.00  0.00    -0.744 OA
ENDBRANCH  64  65
ENDBRANCH  38  59
ENDBRANCH  12  13
ENDBRANCH   5   7
ENDBRANCH   2   3
ENDBRANCH   1   2
BRANCH   1  69
ATOM     69  C   UNL A   1      35.408  22.754  26.372  1.00  0.00     0.117 C 
BRANCH  69  70
ATOM     70  N   UNL A   1      34.938  21.859  25.329  1.00  0.00    -0.356 N 
ATOM     71  C   UNL A   1      33.709  21.789  24.755  1.00  0.00     0.229 C 
ATOM     72  H   UNL A   1      35.603  21.216  24.991  1.00  0.00     0.163 HD
ATOM     73  O   UNL A   1      33.509  20.908  23.917  1.00  0.00    -0.275 OA
BRANCH  71  74
ATOM     74  C   UNL A   1      32.685  22.842  25.097  1.00  0.00     0.142 C 
ATOM     75  C   UNL A   1      31.414  22.206  25.651  1.00  0.00     0.276 C 
ATOM     76  C   UNL A   1      32.233  23.542  23.813  1.00  0.00     0.065 C 
ATOM     77  N   UNL A   1      30.360  23.184  25.338  1.00  0.00    -0.331 N 
ATOM     78  C   UNL A   1      30.699  23.581  23.971  1.00  0.00     0.267 C 
ATOM     79  H   UNL A   1      29.409  22.817  25.379  1.00  0.00     0.348 HD
BRANCH  76  80
ATOM     80  C   UNL A   1      32.822  24.900  23.496  1.00  0.00    -0.001 C 
ATOM     81  C   UNL A   1      34.110  25.170  22.742  1.00  0.00     0.004 C 
ATOM     82  C   UNL A   1      32.790  25.455  22.092  1.00  0.00     0.004 C 
ENDBRANCH  76  80
BRANCH  77  83
ATOM     83  C   UNL A   1      30.214  24.255  26.354  1.00  0.00     0.304 C 
BRANCH  83  84
ATOM     84  C   UNL A   1      29.968  25.749  26.009  1.00  0.00     0.290 C 
BRANCH  84  85
ATOM     85  O   UNL A   1      30.809  26.639  26.767  1.00  0.00    -0.488 OA
BRANCH  85  86
ATOM     86  C   UNL A   1      31.692  27.361  26.010  1.00  0.00     0.119 A 
ATOM     87  C   UNL A   1      31.156  28.022  24.902  1.00  0.00     0.049 A 
ATOM     88  C   UNL A   1      33.062  27.415  26.262  1.00  0.00     0.049 A 
ATOM     89  C   UNL A   1      32.004  28.579  23.946  1.00  0.00     0.043 A 
ATOM     90  C   UNL A   1      33.913  28.005  25.320  1.00  0.00     0.043 A 
ATOM     91  C   UNL A   1      33.378  28.547  24.154  1.00  0.00     0.123 A 
ATOM     92  F   UNL A   1      34.198  29.003  23.198  1.00  0.00    -0.207 F 
ENDBRANCH  85  86
ENDBRANCH  84  85
ENDBRANCH  83  84
ENDBRANCH  77  83
ENDBRANCH  71  74
ENDBRANCH  69  70
ENDBRANCH   1  69
TORSDOF 18
ENDMDL
