MODEL 1
REMARK VINA RESULT:     -10.7      0.000      0.000
REMARK SMILES C[C@]1(CCC(=O)NCCCNC(=O)c2ccc(-c3c4nc(c(-c5ccc(S(=O)(=O)[O-])cc5)c5ccc([nH]5)c(-c5ccc(S(=O)(=O)[O-])cc5)c5nc(c(-c6ccc(S(=O)(=O)[O-])cc6)c6ccc3[nH]6)C=C5)C=C4)cc2)CCCCC1=O
REMARK SMILES IDX 9 1 8 2 7 3 5 4 6 5 4 7 3 8 2 9 1 10 74 11 78 12 75 13 77 14
REMARK SMILES IDX 79 15 76 16 10 17 11 18 12 19 13 21 14 22 15 23 73 24 16 25
REMARK SMILES IDX 72 26 17 27 18 28 19 29 66 30 20 31 71 32 65 33 67 34 21 35
REMARK SMILES IDX 70 36 64 37 63 38 22 40 52 41 33 42 51 43 34 44 37 45 50 46
REMARK SMILES IDX 68 47 35 48 36 49 49 51 69 52 38 53 23 54 24 55 32 56 25 57
REMARK SMILES IDX 31 58 26 59 27 60 28 61 29 62 30 63 53 64 54 65 62 66 55 67
REMARK SMILES IDX 61 68 56 69 57 70 58 71 59 72 60 73 39 74 40 75 48 76 41 77
REMARK SMILES IDX 47 78 42 79 43 80 44 81 45 82 46 83
REMARK H PARENT 7 6 11 20 67 39 37 50
REMARK Flexibility Score: inf
ROOT
ATOM      1  C   UNL A   1      31.698  28.304  26.879  1.00  0.00     0.042 C 
ENDROOT
BRANCH   1   2
ATOM      2  C   UNL A   1      31.443  27.011  26.076  1.00  0.00     0.117 C 
BRANCH   2   3
ATOM      3  N   UNL A   1      31.392  25.765  26.835  1.00  0.00    -0.356 N 
ATOM      4  C   UNL A   1      31.647  24.462  26.533  1.00  0.00     0.220 C 
ATOM      5  O   UNL A   1      31.544  23.629  27.439  1.00  0.00    -0.275 OA
ATOM      6  H   UNL A   1      31.113  25.895  27.770  1.00  0.00     0.163 HD
BRANCH   4   7
ATOM      7  C   UNL A   1      32.060  24.004  25.146  1.00  0.00     0.101 C 
BRANCH   7   8
ATOM      8  C   UNL A   1      33.598  23.979  24.910  1.00  0.00     0.024 C 
BRANCH   8   9
ATOM      9  C   UNL A   1      34.127  22.897  23.925  1.00  0.00     0.027 C 
ATOM     10  C   UNL A   1      33.223  22.867  22.677  1.00  0.00     0.019 C 
ATOM     11  C   UNL A   1      35.546  23.189  23.348  1.00  0.00     0.014 C 
ATOM     12  C   UNL A   1      34.196  21.558  24.676  1.00  0.00     0.138 C 
ATOM     13  C   UNL A   1      36.762  22.765  24.170  1.00  0.00     0.001 C 
ATOM     14  C   UNL A   1      35.360  21.331  25.607  1.00  0.00     0.076 C 
ATOM     15  O   UNL A   1      33.334  20.691  24.573  1.00  0.00    -0.299 OA
ATOM     16  C   UNL A   1      36.608  21.369  24.757  1.00  0.00     0.008 C 
ENDBRANCH   8   9
ENDBRANCH   7   8
ENDBRANCH   4   7
ENDBRANCH   2   3
ENDBRANCH   1   2
BRANCH   1  17
ATOM     17  C   UNL A   1      33.141  28.588  27.319  1.00  0.00     0.118 C 
BRANCH  17  18
ATOM     18  N   UNL A   1      33.341  29.995  27.611  1.00  0.00    -0.352 N 
ATOM     19  C   UNL A   1      34.416  30.649  28.163  1.00  0.00     0.251 C 
ATOM     20  H   UNL A   1      32.583  30.576  27.375  1.00  0.00     0.163 HD
ATOM     21  O   UNL A   1      34.233  31.796  28.576  1.00  0.00    -0.269 OA
BRANCH  19  22
ATOM     22  C   UNL A   1      35.780  30.054  28.274  1.00  0.00     0.039 A 
ATOM     23  C   UNL A   1      36.165  29.549  29.526  1.00  0.00     0.014 A 
ATOM     24  C   UNL A   1      36.739  30.122  27.257  1.00  0.00     0.014 A 
ATOM     25  C   UNL A   1      37.484  29.132  29.761  1.00  0.00     0.010 A 
ATOM     26  C   UNL A   1      38.051  29.668  27.484  1.00  0.00     0.010 A 
ATOM     27  C   UNL A   1      38.448  29.192  28.745  1.00  0.00    -0.014 A 
BRANCH  27  28
ATOM     28  C   UNL A   1      39.868  28.816  29.025  1.00  0.00     0.031 A 
ATOM     29  C   UNL A   1      40.804  29.795  29.696  1.00  0.00     0.074 A 
ATOM     30  C   UNL A   1      40.329  27.589  28.702  1.00  0.00     0.049 A 
ATOM     31  N   UNL A   1      42.069  29.649  30.009  1.00  0.00    -0.248 NA
ATOM     32  C   UNL A   1      40.247  31.107  30.060  1.00  0.00     0.031 C 
ATOM     33  C   UNL A   1      39.546  26.532  28.062  1.00  0.00     0.029 A 
ATOM     34  N   UNL A   1      41.572  27.022  28.873  1.00  0.00    -0.354 N 
ATOM     35  C   UNL A   1      42.460  30.847  30.600  1.00  0.00     0.074 A 
ATOM     36  C   UNL A   1      41.307  31.723  30.569  1.00  0.00     0.031 C 
ATOM     37  C   UNL A   1      40.320  25.444  27.906  1.00  0.00     0.029 A 
ATOM     38  C   UNL A   1      41.664  25.732  28.404  1.00  0.00     0.049 A 
ATOM     39  H   UNL A   1      42.326  27.497  29.292  1.00  0.00     0.167 HD
ATOM     40  C   UNL A   1      43.658  31.189  31.136  1.00  0.00     0.031 A 
ATOM     41  C   UNL A   1      42.705  24.876  28.367  1.00  0.00     0.031 A 
ATOM     42  C   UNL A   1      44.812  30.327  31.183  1.00  0.00     0.049 A 
ATOM     43  C   UNL A   1      44.040  25.295  28.930  1.00  0.00     0.074 A 
ATOM     44  C   UNL A   1      46.062  30.592  31.719  1.00  0.00     0.029 A 
ATOM     45  N   UNL A   1      44.860  29.035  30.684  1.00  0.00    -0.354 N 
ATOM     46  N   UNL A   1      44.376  26.425  29.504  1.00  0.00    -0.248 NA
ATOM     47  C   UNL A   1      45.135  24.314  28.852  1.00  0.00     0.031 C 
ATOM     48  C   UNL A   1      46.876  29.474  31.511  1.00  0.00     0.029 A 
ATOM     49  C   UNL A   1      46.118  28.496  30.891  1.00  0.00     0.049 A 
ATOM     50  H   UNL A   1      44.110  28.570  30.248  1.00  0.00     0.167 HD
ATOM     51  C   UNL A   1      45.706  26.277  29.884  1.00  0.00     0.074 A 
ATOM     52  C   UNL A   1      46.113  24.947  29.485  1.00  0.00     0.031 C 
ATOM     53  C   UNL A   1      46.515  27.165  30.510  1.00  0.00     0.031 A 
BRANCH  40  54
ATOM     54  C   UNL A   1      43.795  32.568  31.728  1.00  0.00    -0.014 A 
ATOM     55  C   UNL A   1      44.148  33.666  30.925  1.00  0.00     0.010 A 
ATOM     56  C   UNL A   1      43.488  32.783  33.085  1.00  0.00     0.010 A 
ATOM     57  C   UNL A   1      44.220  34.950  31.473  1.00  0.00     0.020 A 
ATOM     58  C   UNL A   1      43.535  34.069  33.631  1.00  0.00     0.020 A 
ATOM     59  C   UNL A   1      43.914  35.143  32.823  1.00  0.00     0.054 A 
BRANCH  59  60
ATOM     60  S   UNL A   1      43.976  36.827  33.498  1.00  0.00     0.124 S 
ATOM     61  O   UNL A   1      42.629  36.985  34.039  1.00  0.00    -0.237 OA
ATOM     62  O   UNL A   1      45.044  36.736  34.491  1.00  0.00    -0.237 OA
ATOM     63  O   UNL A   1      44.281  37.656  32.335  1.00  0.00    -0.744 OA
ENDBRANCH  59  60
ENDBRANCH  40  54
BRANCH  41  64
ATOM     64  C   UNL A   1      42.545  23.524  27.763  1.00  0.00    -0.014 A 
ATOM     65  C   UNL A   1      42.083  22.442  28.534  1.00  0.00     0.010 A 
ATOM     66  C   UNL A   1      42.895  23.304  26.418  1.00  0.00     0.010 A 
ATOM     67  C   UNL A   1      42.005  21.160  27.982  1.00  0.00     0.020 A 
ATOM     68  C   UNL A   1      42.791  22.030  25.854  1.00  0.00     0.020 A 
ATOM     69  C   UNL A   1      42.364  20.961  26.646  1.00  0.00     0.054 A 
BRANCH  69  70
ATOM     70  S   UNL A   1      42.237  19.296  25.938  1.00  0.00     0.124 S 
ATOM     71  O   UNL A   1      42.767  18.468  27.017  1.00  0.00    -0.237 OA
ATOM     72  O   UNL A   1      40.805  19.165  25.682  1.00  0.00    -0.237 OA
ATOM     73  O   UNL A   1      43.071  19.372  24.740  1.00  0.00    -0.744 OA
ENDBRANCH  69  70
ENDBRANCH  41  64
BRANCH  53  74
ATOM     74  C   UNL A   1      47.911  26.719  30.859  1.00  0.00    -0.014 A 
ATOM     75  C   UNL A   1      48.992  26.951  29.991  1.00  0.00     0.010 A 
ATOM     76  C   UNL A   1      48.152  26.112  32.106  1.00  0.00     0.010 A 
ATOM     77  C   UNL A   1      50.285  26.561  30.352  1.00  0.00     0.020 A 
ATOM     78  C   UNL A   1      49.447  25.741  32.480  1.00  0.00     0.020 A 
ATOM     79  C   UNL A   1      50.505  25.958  31.595  1.00  0.00     0.054 A 
BRANCH  79  80
ATOM     80  S   UNL A   1      52.199  25.506  32.064  1.00  0.00     0.124 S 
ATOM     81  O   UNL A   1      52.952  25.863  30.866  1.00  0.00    -0.237 OA
ATOM     82  O   UNL A   1      52.444  26.346  33.234  1.00  0.00    -0.237 OA
ATOM     83  O   UNL A   1      52.111  24.074  32.342  1.00  0.00    -0.744 OA
ENDBRANCH  79  80
ENDBRANCH  53  74
ENDBRANCH  27  28
ENDBRANCH  19  22
ENDBRANCH  17  18
ENDBRANCH   1  17
TORSDOF 15
ENDMDL
MODEL 2
REMARK VINA RESULT:     -10.7      4.029     10.659
REMARK SMILES C[C@]1(CCC(=O)NCCCNC(=O)c2ccc(-c3c4nc(c(-c5ccc(S(=O)(=O)[O-])cc5)c5ccc([nH]5)c(-c5ccc(S(=O)(=O)[O-])cc5)c5nc(c(-c6ccc(S(=O)(=O)[O-])cc6)c6ccc3[nH]6)C=C5)C=C4)cc2)CCCCC1=O
REMARK SMILES IDX 9 1 8 2 7 3 5 4 6 5 4 7 3 8 2 9 1 10 74 11 78 12 75 13 77 14
REMARK SMILES IDX 79 15 76 16 10 17 11 18 12 19 13 21 14 22 15 23 73 24 16 25
REMARK SMILES IDX 72 26 17 27 18 28 19 29 66 30 20 31 71 32 65 33 67 34 21 35
REMARK SMILES IDX 70 36 64 37 63 38 22 40 52 41 33 42 51 43 34 44 37 45 50 46
REMARK SMILES IDX 68 47 35 48 36 49 49 51 69 52 38 53 23 54 24 55 32 56 25 57
REMARK SMILES IDX 31 58 26 59 27 60 28 61 29 62 30 63 53 64 54 65 62 66 55 67
REMARK SMILES IDX 61 68 56 69 57 70 58 71 59 72 60 73 39 74 40 75 48 76 41 77
REMARK SMILES IDX 47 78 42 79 43 80 44 81 45 82 46 83
REMARK H PARENT 7 6 11 20 67 39 37 50
REMARK Flexibility Score: inf
ROOT
ATOM      1  C   UNL A   1      41.511  19.916  27.328  1.00  0.00     0.042 C 
ENDROOT
BRANCH   1   2
ATOM      2  C   UNL A   1      42.104  19.649  25.929  1.00  0.00     0.117 C 
BRANCH   2   3
ATOM      3  N   UNL A   1      43.300  18.815  25.869  1.00  0.00    -0.356 N 
ATOM      4  C   UNL A   1      44.508  18.937  25.254  1.00  0.00     0.220 C 
ATOM      5  O   UNL A   1      45.343  18.046  25.441  1.00  0.00    -0.275 OA
ATOM      6  H   UNL A   1      43.215  17.983  26.387  1.00  0.00     0.163 HD
BRANCH   4   7
ATOM      7  C   UNL A   1      44.867  20.118  24.370  1.00  0.00     0.101 C 
BRANCH   7   8
ATOM      8  C   UNL A   1      45.990  21.030  24.942  1.00  0.00     0.024 C 
BRANCH   8   9
ATOM      9  C   UNL A   1      45.723  22.562  24.899  1.00  0.00     0.027 C 
ATOM     10  C   UNL A   1      46.792  23.234  24.014  1.00  0.00     0.019 C 
ATOM     11  C   UNL A   1      44.377  22.965  24.223  1.00  0.00     0.014 C 
ATOM     12  C   UNL A   1      45.694  23.084  26.344  1.00  0.00     0.138 C 
ATOM     13  C   UNL A   1      43.110  22.960  25.077  1.00  0.00     0.001 C 
ATOM     14  C   UNL A   1      44.442  22.854  27.151  1.00  0.00     0.076 C 
ATOM     15  O   UNL A   1      46.650  23.646  26.870  1.00  0.00    -0.299 OA
ATOM     16  C   UNL A   1      43.329  23.591  26.444  1.00  0.00     0.008 C 
ENDBRANCH   8   9
ENDBRANCH   7   8
ENDBRANCH   4   7
ENDBRANCH   2   3
ENDBRANCH   1   2
BRANCH   1  17
ATOM     17  C   UNL A   1      40.840  21.277  27.562  1.00  0.00     0.118 C 
BRANCH  17  18
ATOM     18  N   UNL A   1      39.806  21.537  26.578  1.00  0.00    -0.352 N 
ATOM     19  C   UNL A   1      39.060  22.666  26.343  1.00  0.00     0.251 C 
ATOM     20  H   UNL A   1      39.608  20.781  25.980  1.00  0.00     0.163 HD
ATOM     21  O   UNL A   1      38.049  22.545  25.648  1.00  0.00    -0.269 OA
BRANCH  19  22
ATOM     22  C   UNL A   1      39.412  24.017  26.870  1.00  0.00     0.039 A 
ATOM     23  C   UNL A   1      39.972  24.937  25.970  1.00  0.00     0.014 A 
ATOM     24  C   UNL A   1      39.367  24.353  28.228  1.00  0.00     0.014 A 
ATOM     25  C   UNL A   1      40.488  26.162  26.419  1.00  0.00     0.010 A 
ATOM     26  C   UNL A   1      39.852  25.597  28.671  1.00  0.00     0.010 A 
ATOM     27  C   UNL A   1      40.442  26.507  27.778  1.00  0.00    -0.014 A 
BRANCH  27  28
ATOM     28  C   UNL A   1      41.061  27.781  28.257  1.00  0.00     0.031 A 
ATOM     29  C   UNL A   1      42.556  27.987  28.175  1.00  0.00     0.074 A 
ATOM     30  C   UNL A   1      40.292  28.774  28.751  1.00  0.00     0.049 A 
ATOM     31  N   UNL A   1      43.272  29.020  28.550  1.00  0.00    -0.248 NA
ATOM     32  C   UNL A   1      43.349  26.890  27.597  1.00  0.00     0.031 C 
ATOM     33  C   UNL A   1      38.836  28.731  28.884  1.00  0.00     0.029 A 
ATOM     34  N   UNL A   1      40.630  30.019  29.230  1.00  0.00    -0.354 N 
ATOM     35  C   UNL A   1      44.594  28.697  28.261  1.00  0.00     0.074 A 
ATOM     36  C   UNL A   1      44.586  27.357  27.712  1.00  0.00     0.031 C 
ATOM     37  C   UNL A   1      38.406  29.897  29.396  1.00  0.00     0.029 A 
ATOM     38  C   UNL A   1      39.554  30.761  29.660  1.00  0.00     0.049 A 
ATOM     39  H   UNL A   1      41.558  30.348  29.264  1.00  0.00     0.167 HD
ATOM     40  C   UNL A   1      45.714  29.446  28.419  1.00  0.00     0.031 A 
ATOM     41  C   UNL A   1      39.491  31.990  30.211  1.00  0.00     0.031 A 
ATOM     42  C   UNL A   1      45.739  30.783  28.955  1.00  0.00     0.049 A 
ATOM     43  C   UNL A   1      40.754  32.786  30.416  1.00  0.00     0.074 A 
ATOM     44  C   UNL A   1      46.830  31.616  29.138  1.00  0.00     0.029 A 
ATOM     45  N   UNL A   1      44.626  31.486  29.387  1.00  0.00    -0.354 N 
ATOM     46  N   UNL A   1      41.989  32.466  30.113  1.00  0.00    -0.248 NA
ATOM     47  C   UNL A   1      40.612  34.118  31.028  1.00  0.00     0.031 C 
ATOM     48  C   UNL A   1      46.383  32.808  29.715  1.00  0.00     0.029 A 
ATOM     49  C   UNL A   1      45.007  32.737  29.845  1.00  0.00     0.049 A 
ATOM     50  H   UNL A   1      43.702  31.147  29.371  1.00  0.00     0.167 HD
ATOM     51  C   UNL A   1      42.763  33.569  30.464  1.00  0.00     0.074 A 
ATOM     52  C   UNL A   1      41.860  34.567  30.994  1.00  0.00     0.031 C 
ATOM     53  C   UNL A   1      44.103  33.736  30.354  1.00  0.00     0.031 A 
BRANCH  40  54
ATOM     54  C   UNL A   1      47.029  28.839  28.001  1.00  0.00    -0.014 A 
ATOM     55  C   UNL A   1      47.787  28.071  28.902  1.00  0.00     0.010 A 
ATOM     56  C   UNL A   1      47.473  28.970  26.671  1.00  0.00     0.010 A 
ATOM     57  C   UNL A   1      48.979  27.467  28.490  1.00  0.00     0.020 A 
ATOM     58  C   UNL A   1      48.651  28.348  26.249  1.00  0.00     0.020 A 
ATOM     59  C   UNL A   1      49.404  27.611  27.166  1.00  0.00     0.054 A 
BRANCH  59  60
ATOM     60  S   UNL A   1      50.934  26.784  26.648  1.00  0.00     0.124 S 
ATOM     61  O   UNL A   1      51.954  27.730  27.094  1.00  0.00    -0.237 OA
ATOM     62  O   UNL A   1      50.883  25.523  27.384  1.00  0.00    -0.237 OA
ATOM     63  O   UNL A   1      50.789  26.661  25.199  1.00  0.00    -0.744 OA
ENDBRANCH  59  60
ENDBRANCH  40  54
BRANCH  41  64
ATOM     64  C   UNL A   1      38.178  32.560  30.627  1.00  0.00    -0.014 A 
ATOM     65  C   UNL A   1      37.381  33.271  29.712  1.00  0.00     0.010 A 
ATOM     66  C   UNL A   1      37.739  32.427  31.956  1.00  0.00     0.010 A 
ATOM     67  C   UNL A   1      36.185  33.866  30.127  1.00  0.00     0.020 A 
ATOM     68  C   UNL A   1      36.531  32.995  32.368  1.00  0.00     0.020 A 
ATOM     69  C   UNL A   1      35.770  33.728  31.454  1.00  0.00     0.054 A 
BRANCH  69  70
ATOM     70  S   UNL A   1      34.207  34.488  31.971  1.00  0.00     0.124 S 
ATOM     71  O   UNL A   1      33.660  33.476  32.869  1.00  0.00    -0.237 OA
ATOM     72  O   UNL A   1      34.648  35.728  32.607  1.00  0.00    -0.237 OA
ATOM     73  O   UNL A   1      33.483  34.667  30.714  1.00  0.00    -0.744 OA
ENDBRANCH  69  70
ENDBRANCH  41  64
BRANCH  53  74
ATOM     74  C   UNL A   1      44.681  35.066  30.761  1.00  0.00    -0.014 A 
ATOM     75  C   UNL A   1      45.171  35.285  32.061  1.00  0.00     0.010 A 
ATOM     76  C   UNL A   1      44.789  36.095  29.806  1.00  0.00     0.010 A 
ATOM     77  C   UNL A   1      45.737  36.516  32.405  1.00  0.00     0.020 A 
ATOM     78  C   UNL A   1      45.375  37.319  30.140  1.00  0.00     0.020 A 
ATOM     79  C   UNL A   1      45.835  37.527  31.443  1.00  0.00     0.054 A 
BRANCH  79  80
ATOM     80  S   UNL A   1      46.618  39.099  31.898  1.00  0.00     0.124 S 
ATOM     81  O   UNL A   1      46.603  39.035  33.356  1.00  0.00    -0.237 OA
ATOM     82  O   UNL A   1      47.937  38.993  31.278  1.00  0.00    -0.237 OA
ATOM     83  O   UNL A   1      45.740  40.107  31.309  1.00  0.00    -0.744 OA
ENDBRANCH  79  80
ENDBRANCH  53  74
ENDBRANCH  27  28
ENDBRANCH  19  22
ENDBRANCH  17  18
ENDBRANCH   1  17
TORSDOF 15
ENDMDL
MODEL 3
REMARK VINA RESULT:     -10.7      4.186      6.856
REMARK SMILES C[C@]1(CCC(=O)NCCCNC(=O)c2ccc(-c3c4nc(c(-c5ccc(S(=O)(=O)[O-])cc5)c5ccc([nH]5)c(-c5ccc(S(=O)(=O)[O-])cc5)c5nc(c(-c6ccc(S(=O)(=O)[O-])cc6)c6ccc3[nH]6)C=C5)C=C4)cc2)CCCCC1=O
REMARK SMILES IDX 9 1 8 2 7 3 5 4 6 5 4 7 3 8 2 9 1 10 74 11 78 12 75 13 77 14
REMARK SMILES IDX 79 15 76 16 10 17 11 18 12 19 13 21 14 22 15 23 73 24 16 25
REMARK SMILES IDX 72 26 17 27 18 28 19 29 66 30 20 31 71 32 65 33 67 34 21 35
REMARK SMILES IDX 70 36 64 37 63 38 22 40 52 41 33 42 51 43 34 44 37 45 50 46
REMARK SMILES IDX 68 47 35 48 36 49 49 51 69 52 38 53 23 54 24 55 32 56 25 57
REMARK SMILES IDX 31 58 26 59 27 60 28 61 29 62 30 63 53 64 54 65 62 66 55 67
REMARK SMILES IDX 61 68 56 69 57 70 58 71 59 72 60 73 39 74 40 75 48 76 41 77
REMARK SMILES IDX 47 78 42 79 43 80 44 81 45 82 46 83
REMARK H PARENT 7 6 11 20 67 39 37 50
REMARK Flexibility Score: inf
ROOT
ATOM      1  C   UNL A   1      33.339  34.997  28.748  1.00  0.00     0.042 C 
ENDROOT
BRANCH   1   2
ATOM      2  C   UNL A   1      33.966  36.403  28.862  1.00  0.00     0.117 C 
BRANCH   2   3
ATOM      3  N   UNL A   1      33.466  37.261  29.931  1.00  0.00    -0.356 N 
ATOM      4  C   UNL A   1      33.277  37.093  31.269  1.00  0.00     0.220 C 
ATOM      5  O   UNL A   1      32.861  38.058  31.919  1.00  0.00    -0.275 OA
ATOM      6  H   UNL A   1      33.210  38.158  29.616  1.00  0.00     0.163 HD
BRANCH   4   7
ATOM      7  C   UNL A   1      33.566  35.785  31.983  1.00  0.00     0.101 C 
BRANCH   7   8
ATOM      8  C   UNL A   1      34.561  35.911  33.173  1.00  0.00     0.024 C 
BRANCH   8   9
ATOM      9  C   UNL A   1      35.254  34.597  33.635  1.00  0.00     0.027 C 
ATOM     10  C   UNL A   1      35.386  34.610  35.171  1.00  0.00     0.019 C 
ATOM     11  C   UNL A   1      34.438  33.300  33.344  1.00  0.00     0.014 C 
ATOM     12  C   UNL A   1      36.596  34.478  32.896  1.00  0.00     0.138 C 
ATOM     13  C   UNL A   1      34.567  32.660  31.963  1.00  0.00     0.001 C 
ATOM     14  C   UNL A   1      36.574  34.005  31.465  1.00  0.00     0.076 C 
ATOM     15  O   UNL A   1      37.669  34.780  33.410  1.00  0.00    -0.299 OA
ATOM     16  C   UNL A   1      36.009  32.604  31.481  1.00  0.00     0.008 C 
ENDBRANCH   8   9
ENDBRANCH   7   8
ENDBRANCH   4   7
ENDBRANCH   2   3
ENDBRANCH   1   2
BRANCH   1  17
ATOM     17  C   UNL A   1      34.299  33.802  28.667  1.00  0.00     0.118 C 
BRANCH  17  18
ATOM     18  N   UNL A   1      33.637  32.622  28.144  1.00  0.00    -0.352 N 
ATOM     19  C   UNL A   1      34.144  31.395  27.788  1.00  0.00     0.251 C 
ATOM     20  H   UNL A   1      32.664  32.714  28.026  1.00  0.00     0.163 HD
ATOM     21  O   UNL A   1      33.431  30.662  27.102  1.00  0.00    -0.269 OA
BRANCH  19  22
ATOM     22  C   UNL A   1      35.495  30.908  28.196  1.00  0.00     0.039 A 
ATOM     23  C   UNL A   1      35.553  29.748  28.985  1.00  0.00     0.014 A 
ATOM     24  C   UNL A   1      36.675  31.627  27.977  1.00  0.00     0.014 A 
ATOM     25  C   UNL A   1      36.763  29.321  29.552  1.00  0.00     0.010 A 
ATOM     26  C   UNL A   1      37.894  31.177  28.516  1.00  0.00     0.010 A 
ATOM     27  C   UNL A   1      37.951  30.035  29.332  1.00  0.00    -0.014 A 
BRANCH  27  28
ATOM     28  C   UNL A   1      39.221  29.616  30.001  1.00  0.00     0.031 A 
ATOM     29  C   UNL A   1      39.688  30.305  31.263  1.00  0.00     0.074 A 
ATOM     30  C   UNL A   1      39.958  28.602  29.501  1.00  0.00     0.049 A 
ATOM     31  N   UNL A   1      40.766  30.085  31.976  1.00  0.00    -0.248 NA
ATOM     32  C   UNL A   1      38.833  31.380  31.790  1.00  0.00     0.031 C 
ATOM     33  C   UNL A   1      39.634  27.832  28.299  1.00  0.00     0.029 A 
ATOM     34  N   UNL A   1      41.134  28.041  29.945  1.00  0.00    -0.354 N 
ATOM     35  C   UNL A   1      40.723  30.994  33.029  1.00  0.00     0.074 A 
ATOM     36  C   UNL A   1      39.530  31.794  32.841  1.00  0.00     0.031 C 
ATOM     37  C   UNL A   1      40.578  26.895  28.109  1.00  0.00     0.029 A 
ATOM     38  C   UNL A   1      41.593  27.013  29.154  1.00  0.00     0.049 A 
ATOM     39  H   UNL A   1      41.604  28.348  30.753  1.00  0.00     0.167 HD
ATOM     40  C   UNL A   1      41.583  31.145  34.067  1.00  0.00     0.031 A 
ATOM     41  C   UNL A   1      42.704  26.254  29.246  1.00  0.00     0.031 A 
ATOM     42  C   UNL A   1      42.768  30.353  34.273  1.00  0.00     0.049 A 
ATOM     43  C   UNL A   1      43.667  26.470  30.386  1.00  0.00     0.074 A 
ATOM     44  C   UNL A   1      43.687  30.434  35.306  1.00  0.00     0.029 A 
ATOM     45  N   UNL A   1      43.197  29.333  33.439  1.00  0.00    -0.354 N 
ATOM     46  N   UNL A   1      43.591  27.322  31.380  1.00  0.00    -0.248 NA
ATOM     47  C   UNL A   1      44.862  25.611  30.422  1.00  0.00     0.031 C 
ATOM     48  C   UNL A   1      44.691  29.488  35.078  1.00  0.00     0.029 A 
ATOM     49  C   UNL A   1      44.371  28.785  33.930  1.00  0.00     0.049 A 
ATOM     50  H   UNL A   1      42.736  29.041  32.621  1.00  0.00     0.167 HD
ATOM     51  C   UNL A   1      44.706  27.076  32.176  1.00  0.00     0.074 A 
ATOM     52  C   UNL A   1      45.437  25.993  31.555  1.00  0.00     0.031 C 
ATOM     53  C   UNL A   1      45.087  27.694  33.320  1.00  0.00     0.031 A 
BRANCH  40  54
ATOM     54  C   UNL A   1      41.276  32.216  35.082  1.00  0.00    -0.014 A 
ATOM     55  C   UNL A   1      41.831  33.503  34.963  1.00  0.00     0.010 A 
ATOM     56  C   UNL A   1      40.360  31.960  36.120  1.00  0.00     0.010 A 
ATOM     57  C   UNL A   1      41.498  34.505  35.879  1.00  0.00     0.020 A 
ATOM     58  C   UNL A   1      40.006  32.966  37.023  1.00  0.00     0.020 A 
ATOM     59  C   UNL A   1      40.588  34.230  36.904  1.00  0.00     0.054 A 
BRANCH  59  60
ATOM     60  S   UNL A   1      40.144  35.561  38.055  1.00  0.00     0.124 S 
ATOM     61  O   UNL A   1      39.792  36.645  37.140  1.00  0.00    -0.237 OA
ATOM     62  O   UNL A   1      39.029  34.983  38.801  1.00  0.00    -0.237 OA
ATOM     63  O   UNL A   1      41.365  35.772  38.829  1.00  0.00    -0.744 OA
ENDBRANCH  59  60
ENDBRANCH  40  54
BRANCH  41  64
ATOM     64  C   UNL A   1      42.989  25.211  28.221  1.00  0.00    -0.014 A 
ATOM     65  C   UNL A   1      42.501  23.901  28.374  1.00  0.00     0.010 A 
ATOM     66  C   UNL A   1      43.787  25.517  27.104  1.00  0.00     0.010 A 
ATOM     67  C   UNL A   1      42.833  22.909  27.446  1.00  0.00     0.020 A 
ATOM     68  C   UNL A   1      44.097  24.536  26.159  1.00  0.00     0.020 A 
ATOM     69  C   UNL A   1      43.633  23.231  26.347  1.00  0.00     0.054 A 
BRANCH  69  70
ATOM     70  S   UNL A   1      44.038  21.938  25.142  1.00  0.00     0.124 S 
ATOM     71  O   UNL A   1      45.414  21.609  25.501  1.00  0.00    -0.237 OA
ATOM     72  O   UNL A   1      43.043  20.908  25.432  1.00  0.00    -0.237 OA
ATOM     73  O   UNL A   1      43.869  22.609  23.854  1.00  0.00    -0.744 OA
ENDBRANCH  69  70
ENDBRANCH  41  64
BRANCH  53  74
ATOM     74  C   UNL A   1      46.321  27.185  34.016  1.00  0.00    -0.014 A 
ATOM     75  C   UNL A   1      46.248  26.172  34.989  1.00  0.00     0.010 A 
ATOM     76  C   UNL A   1      47.582  27.688  33.645  1.00  0.00     0.010 A 
ATOM     77  C   UNL A   1      47.411  25.689  35.596  1.00  0.00     0.020 A 
ATOM     78  C   UNL A   1      48.750  27.192  34.233  1.00  0.00     0.020 A 
ATOM     79  C   UNL A   1      48.655  26.203  35.215  1.00  0.00     0.054 A 
BRANCH  79  80
ATOM     80  S   UNL A   1      50.155  25.526  35.979  1.00  0.00     0.124 S 
ATOM     81  O   UNL A   1      51.206  26.080  35.132  1.00  0.00    -0.237 OA
ATOM     82  O   UNL A   1      50.094  26.062  37.338  1.00  0.00    -0.237 OA
ATOM     83  O   UNL A   1      49.973  24.079  35.881  1.00  0.00    -0.744 OA
ENDBRANCH  79  80
ENDBRANCH  53  74
ENDBRANCH  27  28
ENDBRANCH  19  22
ENDBRANCH  17  18
ENDBRANCH   1  17
TORSDOF 15
ENDMDL
