MODEL 1
REMARK VINA RESULT:     -12.9      0.000      0.000
REMARK SMILES C[C@H]1N=N[C@H](S/C(=C/c2ccc(-c3cccc(Cl)c3)o2)C(=O)NCCCNC(=O)c2ccc(-c3c4nc(c(-c5ccc(S(=O)(=O)[O-])cc5)c5ccc([nH]5)c(-c5ccc(S(=O)(=O)[O-])cc5)c5nc(c(-c6ccc(S(=O)(=O)[O-])cc6)c6ccc3[nH]6)C=C5)C=C4)cc2)[NH2+]1
REMARK SMILES IDX 25 1 24 2 23 3 21 4 22 5 7 7 8 8 6 9 5 10 1 11 2 12 3 13
REMARK SMILES IDX 90 14 4 15 9 18 10 19 20 20 11 21 12 22 13 23 14 24 19 25
REMARK SMILES IDX 15 26 17 27 16 28 18 29 26 30 27 31 28 32 29 34 30 35 31 36
REMARK SMILES IDX 89 37 32 38 88 39 33 40 34 41 35 42 82 43 36 44 87 45 81 46
REMARK SMILES IDX 83 47 37 48 86 49 80 50 79 51 38 53 68 54 49 55 67 56 50 57
REMARK SMILES IDX 53 58 66 59 84 60 51 61 52 62 65 64 85 65 54 66 39 67 40 68
REMARK SMILES IDX 48 69 41 70 47 71 42 72 43 73 44 74 45 75 46 76 69 77 70 78
REMARK SMILES IDX 78 79 71 80 77 81 72 82 73 83 74 84 75 85 76 86 55 87 56 88
REMARK SMILES IDX 64 89 57 90 63 91 58 92 59 93 60 94 61 95 62 96
REMARK H PARENT 23 6 90 16 90 17 27 33 83 52 53 63
REMARK Flexibility Score: inf
ROOT
ATOM      1  C   UNL A   1      37.675  23.030  25.901  1.00  0.00     0.042 C 
ENDROOT
BRANCH   1   2
ATOM      2  C   UNL A   1      36.190  23.281  25.798  1.00  0.00     0.118 C 
BRANCH   2   3
ATOM      3  N   UNL A   1      35.345  22.683  26.787  1.00  0.00    -0.352 N 
ATOM      4  C   UNL A   1      34.417  21.696  26.621  1.00  0.00     0.258 C 
ATOM      5  O   UNL A   1      33.885  21.302  27.666  1.00  0.00    -0.269 OA
ATOM      6  H   UNL A   1      35.446  23.027  27.704  1.00  0.00     0.163 HD
BRANCH   4   7
ATOM      7  C   UNL A   1      34.002  21.101  25.267  1.00  0.00     0.084 C 
ATOM      8  C   UNL A   1      33.327  21.646  24.231  1.00  0.00     0.068 C 
BRANCH   7   9
ATOM      9  S   UNL A   1      34.862  19.565  24.968  1.00  0.00    -0.030 SA
BRANCH   9  10
ATOM     10  C   UNL A   1      33.671  18.315  24.416  1.00  0.00     0.393 C 
ATOM     11  C   UNL A   1      32.726  15.095  25.630  1.00  0.00     0.106 C 
ATOM     12  C   UNL A   1      33.635  16.216  25.166  1.00  0.00     0.324 C 
ATOM     13  N   UNL A   1      33.857  16.196  23.714  1.00  0.00    -0.126 NA
ATOM     14  N   UNL A   1      33.085  17.530  25.504  1.00  0.00    -0.293 N 
ATOM     15  N   UNL A   1      34.028  17.380  23.325  1.00  0.00    -0.115 NA
ATOM     16  H   UNL A   1      33.398  17.852  26.420  1.00  0.00     0.350 HD
ATOM     17  H   UNL A   1      32.067  17.573  25.575  1.00  0.00     0.350 HD
ENDBRANCH   9  10
ENDBRANCH   7   9
BRANCH   8  18
ATOM     18  C   UNL A   1      32.650  22.886  24.123  1.00  0.00     0.128 A 
ATOM     19  C   UNL A   1      31.453  23.170  23.484  1.00  0.00     0.051 A 
ATOM     20  O   UNL A   1      33.065  24.050  24.760  1.00  0.00    -0.457 OA
ATOM     21  C   UNL A   1      31.171  24.543  23.677  1.00  0.00     0.051 A 
ATOM     22  C   UNL A   1      32.193  25.057  24.446  1.00  0.00     0.134 A 
BRANCH  22  23
ATOM     23  C   UNL A   1      32.500  26.414  24.905  1.00  0.00     0.019 A 
ATOM     24  C   UNL A   1      33.569  26.616  25.794  1.00  0.00     0.012 A 
ATOM     25  C   UNL A   1      31.709  27.520  24.565  1.00  0.00     0.032 A 
ATOM     26  C   UNL A   1      33.830  27.873  26.349  1.00  0.00     0.002 A 
ATOM     27  C   UNL A   1      31.956  28.772  25.142  1.00  0.00     0.041 A 
ATOM     28  C   UNL A   1      33.013  28.954  26.031  1.00  0.00     0.020 A 
ATOM     29  Cl  UNL A   1      30.923  30.101  24.777  1.00  0.00    -0.084 Cl
ENDBRANCH  22  23
ENDBRANCH   8  18
ENDBRANCH   4   7
ENDBRANCH   2   3
ENDBRANCH   1   2
BRANCH   1  30
ATOM     30  C   UNL A   1      38.488  24.137  26.560  1.00  0.00     0.118 C 
BRANCH  30  31
ATOM     31  N   UNL A   1      39.648  24.615  25.806  1.00  0.00    -0.352 N 
ATOM     32  C   UNL A   1      40.640  25.540  26.068  1.00  0.00     0.251 C 
ATOM     33  H   UNL A   1      39.741  24.187  24.925  1.00  0.00     0.163 HD
ATOM     34  O   UNL A   1      41.477  25.759  25.200  1.00  0.00    -0.269 OA
BRANCH  32  35
ATOM     35  C   UNL A   1      40.690  26.302  27.343  1.00  0.00     0.039 A 
ATOM     36  C   UNL A   1      41.607  27.352  27.474  1.00  0.00     0.014 A 
ATOM     37  C   UNL A   1      39.849  26.013  28.410  1.00  0.00     0.014 A 
ATOM     38  C   UNL A   1      41.588  28.159  28.618  1.00  0.00     0.010 A 
ATOM     39  C   UNL A   1      39.708  26.916  29.456  1.00  0.00     0.010 A 
ATOM     40  C   UNL A   1      40.587  27.994  29.589  1.00  0.00    -0.014 A 
BRANCH  40  41
ATOM     41  C   UNL A   1      40.438  28.928  30.740  1.00  0.00     0.031 A 
ATOM     42  C   UNL A   1      41.292  28.772  31.977  1.00  0.00     0.074 A 
ATOM     43  C   UNL A   1      39.473  29.873  30.705  1.00  0.00     0.049 A 
ATOM     44  N   UNL A   1      41.276  29.472  33.083  1.00  0.00    -0.248 NA
ATOM     45  C   UNL A   1      42.263  27.664  31.994  1.00  0.00     0.031 C 
ATOM     46  C   UNL A   1      38.519  30.072  29.610  1.00  0.00     0.029 A 
ATOM     47  N   UNL A   1      39.133  30.843  31.613  1.00  0.00    -0.354 N 
ATOM     48  C   UNL A   1      42.212  28.878  33.924  1.00  0.00     0.074 A 
ATOM     49  C   UNL A   1      42.719  27.714  33.235  1.00  0.00     0.031 C 
ATOM     50  C   UNL A   1      37.740  31.129  29.886  1.00  0.00     0.029 A 
ATOM     51  C   UNL A   1      38.104  31.655  31.195  1.00  0.00     0.049 A 
ATOM     52  H   UNL A   1      39.582  30.948  32.483  1.00  0.00     0.167 HD
ATOM     53  C   UNL A   1      42.644  29.282  35.142  1.00  0.00     0.031 A 
ATOM     54  C   UNL A   1      37.520  32.711  31.794  1.00  0.00     0.031 A 
ATOM     55  C   UNL A   1      42.154  30.455  35.817  1.00  0.00     0.049 A 
ATOM     56  C   UNL A   1      38.032  33.157  33.136  1.00  0.00     0.074 A 
ATOM     57  C   UNL A   1      42.576  30.999  37.016  1.00  0.00     0.029 A 
ATOM     58  N   UNL A   1      41.132  31.266  35.346  1.00  0.00    -0.354 N 
ATOM     59  N   UNL A   1      38.985  32.634  33.870  1.00  0.00    -0.248 NA
ATOM     60  C   UNL A   1      37.404  34.348  33.718  1.00  0.00     0.031 C 
ATOM     61  C   UNL A   1      41.771  32.108  37.300  1.00  0.00     0.029 A 
ATOM     62  C   UNL A   1      40.892  32.293  36.244  1.00  0.00     0.049 A 
ATOM     63  H   UNL A   1      40.648  31.132  34.499  1.00  0.00     0.167 HD
ATOM     64  C   UNL A   1      39.090  33.450  34.991  1.00  0.00     0.074 A 
ATOM     65  C   UNL A   1      38.122  34.516  34.818  1.00  0.00     0.031 C 
ATOM     66  C   UNL A   1      39.911  33.333  36.064  1.00  0.00     0.031 A 
BRANCH  53  67
ATOM     67  C   UNL A   1      43.712  28.454  35.816  1.00  0.00    -0.014 A 
ATOM     68  C   UNL A   1      43.374  27.432  36.723  1.00  0.00     0.010 A 
ATOM     69  C   UNL A   1      45.068  28.673  35.514  1.00  0.00     0.010 A 
ATOM     70  C   UNL A   1      44.371  26.677  37.349  1.00  0.00     0.020 A 
ATOM     71  C   UNL A   1      46.068  27.899  36.112  1.00  0.00     0.020 A 
ATOM     72  C   UNL A   1      45.712  26.916  37.038  1.00  0.00     0.054 A 
BRANCH  72  73
ATOM     73  S   UNL A   1      46.982  25.898  37.841  1.00  0.00     0.124 S 
ATOM     74  O   UNL A   1      46.391  25.664  39.158  1.00  0.00    -0.237 OA
ATOM     75  O   UNL A   1      47.051  24.729  36.969  1.00  0.00    -0.237 OA
ATOM     76  O   UNL A   1      48.167  26.751  37.833  1.00  0.00    -0.744 OA
ENDBRANCH  72  73
ENDBRANCH  53  67
BRANCH  54  77
ATOM     77  C   UNL A   1      36.416  33.441  31.110  1.00  0.00    -0.014 A 
ATOM     78  C   UNL A   1      35.192  33.664  31.766  1.00  0.00     0.010 A 
ATOM     79  C   UNL A   1      36.586  33.933  29.803  1.00  0.00     0.010 A 
ATOM     80  C   UNL A   1      34.154  34.343  31.121  1.00  0.00     0.020 A 
ATOM     81  C   UNL A   1      35.562  34.641  29.166  1.00  0.00     0.020 A 
ATOM     82  C   UNL A   1      34.346  34.829  29.826  1.00  0.00     0.054 A 
BRANCH  82  83
ATOM     83  S   UNL A   1      33.000  35.749  29.030  1.00  0.00     0.124 S 
ATOM     84  O   UNL A   1      32.386  34.725  28.190  1.00  0.00    -0.237 OA
ATOM     85  O   UNL A   1      32.205  36.193  30.172  1.00  0.00    -0.237 OA
ATOM     86  O   UNL A   1      33.692  36.816  28.311  1.00  0.00    -0.744 OA
ENDBRANCH  82  83
ENDBRANCH  54  77
BRANCH  66  87
ATOM     87  C   UNL A   1      39.809  34.404  37.119  1.00  0.00    -0.014 A 
ATOM     88  C   UNL A   1      38.987  34.241  38.249  1.00  0.00     0.010 A 
ATOM     89  C   UNL A   1      40.548  35.591  36.974  1.00  0.00     0.010 A 
ATOM     90  C   UNL A   1      38.853  35.275  39.178  1.00  0.00     0.020 A 
ATOM     91  C   UNL A   1      40.445  36.613  37.921  1.00  0.00     0.020 A 
ATOM     92  C   UNL A   1      39.576  36.459  39.002  1.00  0.00     0.054 A 
BRANCH  92  93
ATOM     93  S   UNL A   1      39.374  37.792  40.213  1.00  0.00     0.124 S 
ATOM     94  O   UNL A   1      40.665  38.470  40.134  1.00  0.00    -0.237 OA
ATOM     95  O   UNL A   1      38.238  38.540  39.681  1.00  0.00    -0.237 OA
ATOM     96  O   UNL A   1      39.117  37.086  41.466  1.00  0.00    -0.744 OA
ENDBRANCH  92  93
ENDBRANCH  66  87
ENDBRANCH  40  41
ENDBRANCH  32  35
ENDBRANCH  30  31
ENDBRANCH   1  30
TORSDOF 17
ENDMDL
MODEL 2
REMARK VINA RESULT:     -12.8      3.743      9.472
REMARK SMILES C[C@H]1N=N[C@H](S/C(=C/c2ccc(-c3cccc(Cl)c3)o2)C(=O)NCCCNC(=O)c2ccc(-c3c4nc(c(-c5ccc(S(=O)(=O)[O-])cc5)c5ccc([nH]5)c(-c5ccc(S(=O)(=O)[O-])cc5)c5nc(c(-c6ccc(S(=O)(=O)[O-])cc6)c6ccc3[nH]6)C=C5)C=C4)cc2)[NH2+]1
REMARK SMILES IDX 25 1 24 2 23 3 21 4 22 5 7 7 8 8 6 9 5 10 1 11 2 12 3 13
REMARK SMILES IDX 90 14 4 15 9 18 10 19 20 20 11 21 12 22 13 23 14 24 19 25
REMARK SMILES IDX 15 26 17 27 16 28 18 29 26 30 27 31 28 32 29 34 30 35 31 36
REMARK SMILES IDX 89 37 32 38 88 39 33 40 34 41 35 42 82 43 36 44 87 45 81 46
REMARK SMILES IDX 83 47 37 48 86 49 80 50 79 51 38 53 68 54 49 55 67 56 50 57
REMARK SMILES IDX 53 58 66 59 84 60 51 61 52 62 65 64 85 65 54 66 39 67 40 68
REMARK SMILES IDX 48 69 41 70 47 71 42 72 43 73 44 74 45 75 46 76 69 77 70 78
REMARK SMILES IDX 78 79 71 80 77 81 72 82 73 83 74 84 75 85 76 86 55 87 56 88
REMARK SMILES IDX 64 89 57 90 63 91 58 92 59 93 60 94 61 95 62 96
REMARK H PARENT 23 6 90 16 90 17 27 33 83 52 53 63
REMARK Flexibility Score: inf
ROOT
ATOM      1  C   UNL A   1      31.825  28.858  27.141  1.00  0.00     0.042 C 
ENDROOT
BRANCH   1   2
ATOM      2  C   UNL A   1      31.654  27.700  26.189  1.00  0.00     0.118 C 
BRANCH   2   3
ATOM      3  N   UNL A   1      31.032  26.512  26.692  1.00  0.00    -0.352 N 
ATOM      4  C   UNL A   1      30.742  25.361  26.019  1.00  0.00     0.258 C 
ATOM      5  O   UNL A   1      30.280  24.452  26.721  1.00  0.00    -0.269 OA
ATOM      6  H   UNL A   1      30.782  26.528  27.645  1.00  0.00     0.163 HD
BRANCH   4   7
ATOM      7  C   UNL A   1      30.923  25.157  24.508  1.00  0.00     0.084 C 
ATOM      8  C   UNL A   1      30.384  25.812  23.456  1.00  0.00     0.068 C 
BRANCH   7   9
ATOM      9  S   UNL A   1      32.321  24.095  24.183  1.00  0.00    -0.030 SA
BRANCH   9  10
ATOM     10  C   UNL A   1      33.630  25.063  23.385  1.00  0.00     0.393 C 
ATOM     11  C   UNL A   1      34.123  28.549  22.805  1.00  0.00     0.106 C 
ATOM     12  C   UNL A   1      33.419  27.207  22.814  1.00  0.00     0.324 C 
ATOM     13  N   UNL A   1      33.692  26.420  21.604  1.00  0.00    -0.126 NA
ATOM     14  N   UNL A   1      33.822  26.394  23.962  1.00  0.00    -0.293 N 
ATOM     15  N   UNL A   1      33.658  25.200  21.912  1.00  0.00    -0.115 NA
ATOM     16  H   UNL A   1      33.221  26.551  24.772  1.00  0.00     0.350 HD
ATOM     17  H   UNL A   1      34.758  26.583  24.325  1.00  0.00     0.350 HD
ENDBRANCH   9  10
ENDBRANCH   7   9
BRANCH   8  18
ATOM     18  C   UNL A   1      29.360  26.789  23.407  1.00  0.00     0.128 A 
ATOM     19  C   UNL A   1      28.058  26.708  23.878  1.00  0.00     0.051 A 
ATOM     20  O   UNL A   1      29.549  28.083  22.934  1.00  0.00    -0.457 OA
ATOM     21  C   UNL A   1      27.426  27.949  23.625  1.00  0.00     0.051 A 
ATOM     22  C   UNL A   1      28.364  28.761  23.024  1.00  0.00     0.134 A 
BRANCH  22  23
ATOM     23  C   UNL A   1      28.289  30.113  22.463  1.00  0.00     0.019 A 
ATOM     24  C   UNL A   1      27.888  30.284  21.127  1.00  0.00     0.012 A 
ATOM     25  C   UNL A   1      28.692  31.248  23.180  1.00  0.00     0.032 A 
ATOM     26  C   UNL A   1      27.910  31.540  20.514  1.00  0.00     0.002 A 
ATOM     27  C   UNL A   1      28.738  32.501  22.555  1.00  0.00     0.041 A 
ATOM     28  C   UNL A   1      28.348  32.652  21.226  1.00  0.00     0.020 A 
ATOM     29  Cl  UNL A   1      29.316  33.869  23.426  1.00  0.00    -0.084 Cl
ENDBRANCH  22  23
ENDBRANCH   8  18
ENDBRANCH   4   7
ENDBRANCH   2   3
ENDBRANCH   1   2
BRANCH   1  30
ATOM     30  C   UNL A   1      33.250  29.369  27.311  1.00  0.00     0.118 C 
BRANCH  30  31
ATOM     31  N   UNL A   1      33.390  30.805  27.560  1.00  0.00    -0.352 N 
ATOM     32  C   UNL A   1      34.403  31.588  28.077  1.00  0.00     0.251 C 
ATOM     33  H   UNL A   1      32.593  31.322  27.304  1.00  0.00     0.163 HD
ATOM     34  O   UNL A   1      34.204  32.791  28.201  1.00  0.00    -0.269 OA
BRANCH  32  35
ATOM     35  C   UNL A   1      35.696  31.009  28.526  1.00  0.00     0.039 A 
ATOM     36  C   UNL A   1      36.872  31.747  28.349  1.00  0.00     0.014 A 
ATOM     37  C   UNL A   1      35.777  29.757  29.125  1.00  0.00     0.014 A 
ATOM     38  C   UNL A   1      38.082  31.274  28.874  1.00  0.00     0.010 A 
ATOM     39  C   UNL A   1      36.931  29.376  29.798  1.00  0.00     0.010 A 
ATOM     40  C   UNL A   1      38.108  30.117  29.669  1.00  0.00    -0.014 A 
BRANCH  40  41
ATOM     41  C   UNL A   1      39.342  29.668  30.371  1.00  0.00     0.031 A 
ATOM     42  C   UNL A   1      39.804  30.352  31.637  1.00  0.00     0.074 A 
ATOM     43  C   UNL A   1      40.097  28.691  29.823  1.00  0.00     0.049 A 
ATOM     44  N   UNL A   1      40.869  30.115  32.362  1.00  0.00    -0.248 NA
ATOM     45  C   UNL A   1      38.989  31.474  32.136  1.00  0.00     0.031 C 
ATOM     46  C   UNL A   1      39.815  28.011  28.556  1.00  0.00     0.029 A 
ATOM     47  N   UNL A   1      41.256  28.100  30.258  1.00  0.00    -0.354 N 
ATOM     48  C   UNL A   1      40.858  31.064  33.378  1.00  0.00     0.074 A 
ATOM     49  C   UNL A   1      39.728  31.932  33.133  1.00  0.00     0.031 C 
ATOM     50  C   UNL A   1      40.741  27.063  28.344  1.00  0.00     0.029 A 
ATOM     51  C   UNL A   1      41.709  27.097  29.432  1.00  0.00     0.049 A 
ATOM     52  H   UNL A   1      41.721  28.368  31.084  1.00  0.00     0.167 HD
ATOM     53  C   UNL A   1      41.685  31.184  34.444  1.00  0.00     0.031 A 
ATOM     54  C   UNL A   1      42.782  26.289  29.539  1.00  0.00     0.031 A 
ATOM     55  C   UNL A   1      42.795  30.305  34.699  1.00  0.00     0.049 A 
ATOM     56  C   UNL A   1      43.673  26.424  30.743  1.00  0.00     0.074 A 
ATOM     57  C   UNL A   1      43.649  30.287  35.786  1.00  0.00     0.029 A 
ATOM     58  N   UNL A   1      43.203  29.284  33.852  1.00  0.00    -0.354 N 
ATOM     59  N   UNL A   1      43.587  27.270  31.742  1.00  0.00    -0.248 NA
ATOM     60  C   UNL A   1      44.792  25.480  30.843  1.00  0.00     0.031 C 
ATOM     61  C   UNL A   1      44.609  29.293  35.572  1.00  0.00     0.029 A 
ATOM     62  C   UNL A   1      44.312  28.646  34.381  1.00  0.00     0.049 A 
ATOM     63  H   UNL A   1      42.768  29.048  33.001  1.00  0.00     0.167 HD
ATOM     64  C   UNL A   1      44.625  26.942  32.606  1.00  0.00     0.074 A 
ATOM     65  C   UNL A   1      45.305  25.802  32.021  1.00  0.00     0.031 C 
ATOM     66  C   UNL A   1      44.987  27.526  33.776  1.00  0.00     0.031 A 
BRANCH  53  67
ATOM     67  C   UNL A   1      41.407  32.299  35.423  1.00  0.00    -0.014 A 
ATOM     68  C   UNL A   1      40.591  32.090  36.550  1.00  0.00     0.010 A 
ATOM     69  C   UNL A   1      41.997  33.563  35.238  1.00  0.00     0.010 A 
ATOM     70  C   UNL A   1      40.333  33.131  37.446  1.00  0.00     0.020 A 
ATOM     71  C   UNL A   1      41.770  34.599  36.149  1.00  0.00     0.020 A 
ATOM     72  C   UNL A   1      40.925  34.380  37.239  1.00  0.00     0.054 A 
BRANCH  72  73
ATOM     73  S   UNL A   1      40.598  35.703  38.437  1.00  0.00     0.124 S 
ATOM     74  O   UNL A   1      39.585  35.090  39.294  1.00  0.00    -0.237 OA
ATOM     75  O   UNL A   1      41.905  35.903  39.057  1.00  0.00    -0.237 OA
ATOM     76  O   UNL A   1      40.127  36.811  37.611  1.00  0.00    -0.744 OA
ENDBRANCH  72  73
ENDBRANCH  53  67
BRANCH  54  77
ATOM     77  C   UNL A   1      43.046  25.256  28.497  1.00  0.00    -0.014 A 
ATOM     78  C   UNL A   1      42.602  23.934  28.675  1.00  0.00     0.010 A 
ATOM     79  C   UNL A   1      43.727  25.592  27.314  1.00  0.00     0.010 A 
ATOM     80  C   UNL A   1      42.855  22.963  27.702  1.00  0.00     0.020 A 
ATOM     81  C   UNL A   1      43.954  24.631  26.323  1.00  0.00     0.020 A 
ATOM     82  C   UNL A   1      43.528  23.319  26.530  1.00  0.00     0.054 A 
BRANCH  82  83
ATOM     83  S   UNL A   1      43.801  22.051  25.261  1.00  0.00     0.124 S 
ATOM     84  O   UNL A   1      42.698  21.128  25.509  1.00  0.00    -0.237 OA
ATOM     85  O   UNL A   1      43.716  22.823  24.023  1.00  0.00    -0.237 OA
ATOM     86  O   UNL A   1      45.132  21.535  25.573  1.00  0.00    -0.744 OA
ENDBRANCH  82  83
ENDBRANCH  54  77
BRANCH  66  87
ATOM     87  C   UNL A   1      46.155  26.920  34.508  1.00  0.00    -0.014 A 
ATOM     88  C   UNL A   1      47.470  27.361  34.278  1.00  0.00     0.010 A 
ATOM     89  C   UNL A   1      45.929  25.890  35.439  1.00  0.00     0.010 A 
ATOM     90  C   UNL A   1      48.545  26.737  34.915  1.00  0.00     0.020 A 
ATOM     91  C   UNL A   1      46.999  25.287  36.105  1.00  0.00     0.020 A 
ATOM     92  C   UNL A   1      48.302  25.697  35.818  1.00  0.00     0.054 A 
BRANCH  92  93
ATOM     93  S   UNL A   1      49.714  24.891  36.621  1.00  0.00     0.124 S 
ATOM     94  O   UNL A   1      50.451  26.033  37.155  1.00  0.00    -0.237 OA
ATOM     95  O   UNL A   1      49.071  24.037  37.617  1.00  0.00    -0.237 OA
ATOM     96  O   UNL A   1      50.373  24.179  35.529  1.00  0.00    -0.744 OA
ENDBRANCH  92  93
ENDBRANCH  66  87
ENDBRANCH  40  41
ENDBRANCH  32  35
ENDBRANCH  30  31
ENDBRANCH   1  30
TORSDOF 17
ENDMDL
MODEL 3
REMARK VINA RESULT:     -12.7      5.182     10.848
REMARK SMILES C[C@H]1N=N[C@H](S/C(=C/c2ccc(-c3cccc(Cl)c3)o2)C(=O)NCCCNC(=O)c2ccc(-c3c4nc(c(-c5ccc(S(=O)(=O)[O-])cc5)c5ccc([nH]5)c(-c5ccc(S(=O)(=O)[O-])cc5)c5nc(c(-c6ccc(S(=O)(=O)[O-])cc6)c6ccc3[nH]6)C=C5)C=C4)cc2)[NH2+]1
REMARK SMILES IDX 25 1 24 2 23 3 21 4 22 5 7 7 8 8 6 9 5 10 1 11 2 12 3 13
REMARK SMILES IDX 90 14 4 15 9 18 10 19 20 20 11 21 12 22 13 23 14 24 19 25
REMARK SMILES IDX 15 26 17 27 16 28 18 29 26 30 27 31 28 32 29 34 30 35 31 36
REMARK SMILES IDX 89 37 32 38 88 39 33 40 34 41 35 42 82 43 36 44 87 45 81 46
REMARK SMILES IDX 83 47 37 48 86 49 80 50 79 51 38 53 68 54 49 55 67 56 50 57
REMARK SMILES IDX 53 58 66 59 84 60 51 61 52 62 65 64 85 65 54 66 39 67 40 68
REMARK SMILES IDX 48 69 41 70 47 71 42 72 43 73 44 74 45 75 46 76 69 77 70 78
REMARK SMILES IDX 78 79 71 80 77 81 72 82 73 83 74 84 75 85 76 86 55 87 56 88
REMARK SMILES IDX 64 89 57 90 63 91 58 92 59 93 60 94 61 95 62 96
REMARK H PARENT 23 6 90 16 90 17 27 33 83 52 53 63
REMARK Flexibility Score: inf
ROOT
ATOM      1  C   UNL A   1      33.947  28.294  25.981  1.00  0.00     0.042 C 
ENDROOT
BRANCH   1   2
ATOM      2  C   UNL A   1      33.298  27.189  25.183  1.00  0.00     0.118 C 
BRANCH   2   3
ATOM      3  N   UNL A   1      33.271  27.326  23.758  1.00  0.00    -0.352 N 
ATOM      4  C   UNL A   1      32.272  26.980  22.895  1.00  0.00     0.258 C 
ATOM      5  O   UNL A   1      32.475  27.291  21.714  1.00  0.00    -0.269 OA
ATOM      6  H   UNL A   1      34.075  27.722  23.349  1.00  0.00     0.163 HD
BRANCH   4   7
ATOM      7  C   UNL A   1      30.988  26.237  23.291  1.00  0.00     0.084 C 
ATOM      8  C   UNL A   1      30.793  24.963  23.697  1.00  0.00     0.068 C 
BRANCH   7   9
ATOM      9  S   UNL A   1      29.648  27.390  23.539  1.00  0.00    -0.030 SA
BRANCH   9  10
ATOM     10  C   UNL A   1      30.140  29.017  22.907  1.00  0.00     0.393 C 
ATOM     11  C   UNL A   1      28.781  32.302  23.211  1.00  0.00     0.106 C 
ATOM     12  C   UNL A   1      28.820  30.812  22.934  1.00  0.00     0.324 C 
ATOM     13  N   UNL A   1      29.175  30.508  21.541  1.00  0.00    -0.126 NA
ATOM     14  N   UNL A   1      29.791  30.130  23.790  1.00  0.00    -0.293 N 
ATOM     15  N   UNL A   1      29.791  29.411  21.523  1.00  0.00    -0.115 NA
ATOM     16  H   UNL A   1      29.371  29.808  24.663  1.00  0.00     0.350 HD
ATOM     17  H   UNL A   1      30.575  30.702  24.104  1.00  0.00     0.350 HD
ENDBRANCH   9  10
ENDBRANCH   7   9
BRANCH   8  18
ATOM     18  C   UNL A   1      31.683  23.862  23.736  1.00  0.00     0.128 A 
ATOM     19  C   UNL A   1      31.481  22.564  23.292  1.00  0.00     0.051 A 
ATOM     20  O   UNL A   1      33.003  23.952  24.166  1.00  0.00    -0.457 OA
ATOM     21  C   UNL A   1      32.673  21.836  23.519  1.00  0.00     0.051 A 
ATOM     22  C   UNL A   1      33.578  22.713  24.078  1.00  0.00     0.134 A 
BRANCH  22  23
ATOM     23  C   UNL A   1      34.936  22.535  24.598  1.00  0.00     0.019 A 
ATOM     24  C   UNL A   1      35.667  23.661  25.016  1.00  0.00     0.012 A 
ATOM     25  C   UNL A   1      35.581  21.291  24.610  1.00  0.00     0.032 A 
ATOM     26  C   UNL A   1      37.004  23.557  25.413  1.00  0.00     0.002 A 
ATOM     27  C   UNL A   1      36.927  21.194  24.983  1.00  0.00     0.041 A 
ATOM     28  C   UNL A   1      37.641  22.321  25.385  1.00  0.00     0.020 A 
ATOM     29  Cl  UNL A   1      37.727  19.670  24.912  1.00  0.00    -0.084 Cl
ENDBRANCH  22  23
ENDBRANCH   8  18
ENDBRANCH   4   7
ENDBRANCH   2   3
ENDBRANCH   1   2
BRANCH   1  30
ATOM     30  C   UNL A   1      33.320  28.583  27.340  1.00  0.00     0.118 C 
BRANCH  30  31
ATOM     31  N   UNL A   1      33.462  29.955  27.830  1.00  0.00    -0.352 N 
ATOM     32  C   UNL A   1      34.520  30.677  28.347  1.00  0.00     0.251 C 
ATOM     33  H   UNL A   1      32.626  30.472  27.782  1.00  0.00     0.163 HD
ATOM     34  O   UNL A   1      34.314  31.827  28.718  1.00  0.00    -0.269 OA
BRANCH  32  35
ATOM     35  C   UNL A   1      35.874  30.088  28.507  1.00  0.00     0.039 A 
ATOM     36  C   UNL A   1      36.775  30.149  27.437  1.00  0.00     0.014 A 
ATOM     37  C   UNL A   1      36.282  29.482  29.690  1.00  0.00     0.014 A 
ATOM     38  C   UNL A   1      38.094  29.709  27.606  1.00  0.00     0.010 A 
ATOM     39  C   UNL A   1      37.627  29.216  29.913  1.00  0.00     0.010 A 
ATOM     40  C   UNL A   1      38.553  29.307  28.871  1.00  0.00    -0.014 A 
BRANCH  40  41
ATOM     41  C   UNL A   1      39.984  28.981  29.127  1.00  0.00     0.031 A 
ATOM     42  C   UNL A   1      40.917  30.010  29.721  1.00  0.00     0.074 A 
ATOM     43  C   UNL A   1      40.467  27.778  28.747  1.00  0.00     0.049 A 
ATOM     44  N   UNL A   1      42.196  29.911  29.982  1.00  0.00    -0.248 NA
ATOM     45  C   UNL A   1      40.354  31.337  30.028  1.00  0.00     0.031 C 
ATOM     46  C   UNL A   1      39.695  26.727  28.077  1.00  0.00     0.029 A 
ATOM     47  N   UNL A   1      41.720  27.234  28.867  1.00  0.00    -0.354 N 
ATOM     48  C   UNL A   1      42.586  31.158  30.459  1.00  0.00     0.074 A 
ATOM     49  C   UNL A   1      41.431  32.022  30.376  1.00  0.00     0.031 C 
ATOM     50  C   UNL A   1      40.475  25.651  27.894  1.00  0.00     0.029 A 
ATOM     51  C   UNL A   1      41.813  25.947  28.389  1.00  0.00     0.049 A 
ATOM     52  H   UNL A   1      42.483  27.719  29.258  1.00  0.00     0.167 HD
ATOM     53  C   UNL A   1      43.784  31.545  30.959  1.00  0.00     0.031 A 
ATOM     54  C   UNL A   1      42.857  25.096  28.356  1.00  0.00     0.031 A 
ATOM     55  C   UNL A   1      44.926  30.677  31.062  1.00  0.00     0.049 A 
ATOM     56  C   UNL A   1      44.170  25.538  28.940  1.00  0.00     0.074 A 
ATOM     57  C   UNL A   1      46.163  30.941  31.622  1.00  0.00     0.029 A 
ATOM     58  N   UNL A   1      44.970  29.372  30.592  1.00  0.00    -0.354 N 
ATOM     59  N   UNL A   1      44.489  26.694  29.473  1.00  0.00    -0.248 NA
ATOM     60  C   UNL A   1      45.258  24.553  28.936  1.00  0.00     0.031 C 
ATOM     61  C   UNL A   1      46.974  29.816  31.442  1.00  0.00     0.029 A 
ATOM     62  C   UNL A   1      46.221  28.826  30.829  1.00  0.00     0.049 A 
ATOM     63  H   UNL A   1      44.223  28.903  30.156  1.00  0.00     0.167 HD
ATOM     64  C   UNL A   1      45.807  26.565  29.895  1.00  0.00     0.074 A 
ATOM     65  C   UNL A   1      46.212  25.209  29.578  1.00  0.00     0.031 C 
ATOM     66  C   UNL A   1      46.612  27.481  30.489  1.00  0.00     0.031 A 
BRANCH  53  67
ATOM     67  C   UNL A   1      43.911  32.967  31.448  1.00  0.00    -0.014 A 
ATOM     68  C   UNL A   1      43.585  33.312  32.774  1.00  0.00     0.010 A 
ATOM     69  C   UNL A   1      44.397  33.968  30.587  1.00  0.00     0.010 A 
ATOM     70  C   UNL A   1      43.698  34.633  33.215  1.00  0.00     0.020 A 
ATOM     71  C   UNL A   1      44.544  35.285  31.033  1.00  0.00     0.020 A 
ATOM     72  C   UNL A   1      44.178  35.612  32.340  1.00  0.00     0.054 A 
BRANCH  72  73
ATOM     73  S   UNL A   1      44.345  37.313  32.951  1.00  0.00     0.124 S 
ATOM     74  O   UNL A   1      43.272  37.384  33.941  1.00  0.00    -0.237 OA
ATOM     75  O   UNL A   1      45.700  37.325  33.494  1.00  0.00    -0.237 OA
ATOM     76  O   UNL A   1      44.146  38.131  31.758  1.00  0.00    -0.744 OA
ENDBRANCH  72  73
ENDBRANCH  53  67
BRANCH  54  77
ATOM     77  C   UNL A   1      42.687  23.728  27.789  1.00  0.00    -0.014 A 
ATOM     78  C   UNL A   1      42.901  23.491  26.420  1.00  0.00     0.010 A 
ATOM     79  C   UNL A   1      42.326  22.651  28.618  1.00  0.00     0.010 A 
ATOM     80  C   UNL A   1      42.735  22.210  25.886  1.00  0.00     0.020 A 
ATOM     81  C   UNL A   1      42.191  21.361  28.095  1.00  0.00     0.020 A 
ATOM     82  C   UNL A   1      42.383  21.152  26.728  1.00  0.00     0.054 A 
BRANCH  82  83
ATOM     83  S   UNL A   1      42.221  19.489  26.020  1.00  0.00     0.124 S 
ATOM     84  O   UNL A   1      43.119  19.558  24.871  1.00  0.00    -0.237 OA
ATOM     85  O   UNL A   1      42.663  18.635  27.119  1.00  0.00    -0.237 OA
ATOM     86  O   UNL A   1      40.799  19.390  25.698  1.00  0.00    -0.744 OA
ENDBRANCH  82  83
ENDBRANCH  54  77
BRANCH  66  87
ATOM     87  C   UNL A   1      48.001  27.031  30.858  1.00  0.00    -0.014 A 
ATOM     88  C   UNL A   1      48.273  26.446  32.107  1.00  0.00     0.010 A 
ATOM     89  C   UNL A   1      49.050  27.199  29.936  1.00  0.00     0.010 A 
ATOM     90  C   UNL A   1      49.581  26.100  32.455  1.00  0.00     0.020 A 
ATOM     91  C   UNL A   1      50.354  26.821  30.266  1.00  0.00     0.020 A 
ATOM     92  C   UNL A   1      50.615  26.299  31.534  1.00  0.00     0.054 A 
BRANCH  92  93
ATOM     93  S   UNL A   1      52.306  25.858  32.013  1.00  0.00     0.124 S 
ATOM     94  O   UNL A   1      53.064  26.225  30.819  1.00  0.00    -0.237 OA
ATOM     95  O   UNL A   1      52.537  26.696  33.187  1.00  0.00    -0.237 OA
ATOM     96  O   UNL A   1      52.226  24.424  32.283  1.00  0.00    -0.744 OA
ENDBRANCH  92  93
ENDBRANCH  66  87
ENDBRANCH  40  41
ENDBRANCH  32  35
ENDBRANCH  30  31
ENDBRANCH   1  30
TORSDOF 17
ENDMDL
