MODEL 1
REMARK VINA RESULT:     -11.3      0.000      0.000
REMARK SMILES Cc1cc(N2CCC[C@H]2C2CCCC2)cc(C(=O)NCCCNC(=O)c2ccc(-c3c4nc(c(-c5ccc(S(=O)(=O)[O-])cc5)c5ccc([nH]5)c(-c5ccc(S(=O)(=O)[O-])cc5)c5nc(c(-c6ccc(S(=O)(=O)[O-])cc6)c6ccc3[nH]6)C=C5)C=C4)cc2)c1N
REMARK SMILES IDX 21 1 20 2 19 3 17 4 18 5 16 7 1 8 2 9 3 10 86 11 4 12 15 13
REMARK SMILES IDX 87 14 5 17 6 18 9 19 7 20 8 21 10 22 11 23 14 24 12 25 13 26
REMARK SMILES IDX 22 27 23 28 24 29 25 31 26 32 27 33 85 34 28 35 84 36 29 37
REMARK SMILES IDX 30 38 31 39 78 40 32 41 83 42 77 43 79 44 33 45 82 46 76 47
REMARK SMILES IDX 75 48 34 50 64 51 45 52 63 53 46 54 49 55 62 56 80 57 47 58
REMARK SMILES IDX 48 59 61 61 81 62 50 63 35 64 36 65 44 66 37 67 43 68 38 69
REMARK SMILES IDX 39 70 40 71 41 72 42 73 65 74 66 75 74 76 67 77 73 78 68 79
REMARK SMILES IDX 69 80 70 81 71 82 72 83 51 84 52 85 60 86 53 87 59 88 54 89
REMARK SMILES IDX 55 90 56 91 57 92 58 93
REMARK H PARENT 19 6 87 15 87 16 23 30 79 49 49 60
REMARK Flexibility Score: inf
ROOT
ATOM      1  C   UNL A   1      31.780  28.039  27.097  1.00  0.00     0.042 C 
ENDROOT
BRANCH   1   2
ATOM      2  C   UNL A   1      31.443  27.829  25.621  1.00  0.00     0.118 C 
BRANCH   2   3
ATOM      3  N   UNL A   1      32.537  28.276  24.782  1.00  0.00    -0.352 N 
ATOM      4  C   UNL A   1      33.412  27.647  23.934  1.00  0.00     0.253 C 
ATOM      5  O   UNL A   1      34.228  28.391  23.377  1.00  0.00    -0.269 OA
ATOM      6  H   UNL A   1      32.685  29.249  24.832  1.00  0.00     0.163 HD
BRANCH   4   7
ATOM      7  C   UNL A   1      33.409  26.177  23.608  1.00  0.00     0.065 A 
ATOM      8  C   UNL A   1      33.062  23.962  20.503  1.00  0.00     0.046 C 
ATOM      9  C   UNL A   1      33.195  24.413  21.934  1.00  0.00    -0.025 A 
ATOM     10  C   UNL A   1      33.385  23.449  22.945  1.00  0.00     0.031 A 
ATOM     11  C   UNL A   1      33.186  25.785  22.263  1.00  0.00     0.047 A 
ATOM     12  C   UNL A   1      33.657  23.811  24.269  1.00  0.00     0.038 A 
ATOM     13  C   UNL A   1      33.732  25.186  24.554  1.00  0.00     0.042 A 
BRANCH  11  14
ATOM     14  N   UNL A   1      32.817  26.720  21.283  1.00  0.00    -0.398 N 
ATOM     15  H   UNL A   1      33.438  26.938  20.551  1.00  0.00     0.156 HD
ATOM     16  H   UNL A   1      31.936  27.159  21.327  1.00  0.00     0.156 HD
ENDBRANCH  11  14
BRANCH  12  17
ATOM     17  N   UNL A   1      33.903  22.861  25.275  1.00  0.00    -0.368 N 
ATOM     18  C   UNL A   1      32.734  22.094  25.740  1.00  0.00     0.117 C 
ATOM     19  C   UNL A   1      34.730  23.266  26.453  1.00  0.00     0.085 C 
ATOM     20  C   UNL A   1      32.538  22.519  27.189  1.00  0.00     0.024 C 
ATOM     21  C   UNL A   1      33.955  22.736  27.683  1.00  0.00     0.027 C 
BRANCH  19  22
ATOM     22  C   UNL A   1      36.181  22.721  26.455  1.00  0.00     0.011 C 
ATOM     23  C   UNL A   1      36.510  21.633  25.425  1.00  0.00     0.006 C 
ATOM     24  C   UNL A   1      37.251  23.759  26.166  1.00  0.00     0.006 C 
ATOM     25  C   UNL A   1      38.031  21.634  25.297  1.00  0.00     0.000 C 
ATOM     26  C   UNL A   1      38.507  22.989  25.798  1.00  0.00     0.000 C 
ENDBRANCH  19  22
ENDBRANCH  12  17
ENDBRANCH   4   7
ENDBRANCH   2   3
ENDBRANCH   1   2
BRANCH   1  27
ATOM     27  C   UNL A   1      33.200  28.544  27.347  1.00  0.00     0.118 C 
BRANCH  27  28
ATOM     28  N   UNL A   1      33.283  29.966  27.658  1.00  0.00    -0.352 N 
ATOM     29  C   UNL A   1      34.322  30.738  28.123  1.00  0.00     0.251 C 
ATOM     30  H   UNL A   1      32.446  30.462  27.509  1.00  0.00     0.163 HD
ATOM     31  O   UNL A   1      34.103  31.922  28.380  1.00  0.00    -0.269 OA
BRANCH  29  32
ATOM     32  C   UNL A   1      35.676  30.177  28.365  1.00  0.00     0.039 A 
ATOM     33  C   UNL A   1      36.597  30.169  27.309  1.00  0.00     0.014 A 
ATOM     34  C   UNL A   1      36.053  29.647  29.599  1.00  0.00     0.014 A 
ATOM     35  C   UNL A   1      37.907  29.721  27.519  1.00  0.00     0.010 A 
ATOM     36  C   UNL A   1      37.383  29.301  29.834  1.00  0.00     0.010 A 
ATOM     37  C   UNL A   1      38.330  29.336  28.799  1.00  0.00    -0.014 A 
BRANCH  37  38
ATOM     38  C   UNL A   1      39.746  28.973  29.092  1.00  0.00     0.031 A 
ATOM     39  C   UNL A   1      40.697  30.011  29.635  1.00  0.00     0.074 A 
ATOM     40  C   UNL A   1      40.207  27.746  28.774  1.00  0.00     0.049 A 
ATOM     41  N   UNL A   1      41.994  29.938  29.800  1.00  0.00    -0.248 NA
ATOM     42  C   UNL A   1      40.119  31.314  30.006  1.00  0.00     0.031 C 
ATOM     43  C   UNL A   1      39.409  26.658  28.201  1.00  0.00     0.029 A 
ATOM     44  N   UNL A   1      41.469  27.209  28.870  1.00  0.00    -0.354 N 
ATOM     45  C   UNL A   1      42.390  31.193  30.251  1.00  0.00     0.074 A 
ATOM     46  C   UNL A   1      41.203  32.019  30.293  1.00  0.00     0.031 C 
ATOM     47  C   UNL A   1      40.192  25.583  28.020  1.00  0.00     0.029 A 
ATOM     48  C   UNL A   1      41.558  25.916  28.410  1.00  0.00     0.049 A 
ATOM     49  H   UNL A   1      42.239  27.705  29.234  1.00  0.00     0.167 HD
ATOM     50  C   UNL A   1      43.624  31.617  30.613  1.00  0.00     0.031 A 
ATOM     51  C   UNL A   1      42.619  25.091  28.297  1.00  0.00     0.031 A 
ATOM     52  C   UNL A   1      44.796  30.783  30.609  1.00  0.00     0.049 A 
ATOM     53  C   UNL A   1      43.976  25.576  28.725  1.00  0.00     0.074 A 
ATOM     54  C   UNL A   1      46.077  31.099  31.026  1.00  0.00     0.029 A 
ATOM     55  N   UNL A   1      44.831  29.467  30.175  1.00  0.00    -0.354 N 
ATOM     56  N   UNL A   1      44.319  26.751  29.196  1.00  0.00    -0.248 NA
ATOM     57  C   UNL A   1      45.088  24.623  28.615  1.00  0.00     0.031 C 
ATOM     58  C   UNL A   1      46.896  29.988  30.805  1.00  0.00     0.029 A 
ATOM     59  C   UNL A   1      46.114  28.962  30.299  1.00  0.00     0.049 A 
ATOM     60  H   UNL A   1      44.057  28.966  29.828  1.00  0.00     0.167 HD
ATOM     61  C   UNL A   1      45.681  26.669  29.462  1.00  0.00     0.074 A 
ATOM     62  C   UNL A   1      46.096  25.326  29.112  1.00  0.00     0.031 C 
ATOM     63  C   UNL A   1      46.511  27.621  29.953  1.00  0.00     0.031 A 
BRANCH  50  64
ATOM     64  C   UNL A   1      43.771  33.053  31.048  1.00  0.00    -0.014 A 
ATOM     65  C   UNL A   1      44.025  34.074  30.114  1.00  0.00     0.010 A 
ATOM     66  C   UNL A   1      43.612  33.392  32.404  1.00  0.00     0.010 A 
ATOM     67  C   UNL A   1      44.163  35.399  30.533  1.00  0.00     0.020 A 
ATOM     68  C   UNL A   1      43.719  34.722  32.823  1.00  0.00     0.020 A 
ATOM     69  C   UNL A   1      44.014  35.715  31.887  1.00  0.00     0.054 A 
BRANCH  69  70
ATOM     70  S   UNL A   1      44.178  37.447  32.399  1.00  0.00     0.124 S 
ATOM     71  O   UNL A   1      45.572  37.500  32.832  1.00  0.00    -0.237 OA
ATOM     72  O   UNL A   1      43.874  38.175  31.170  1.00  0.00    -0.237 OA
ATOM     73  O   UNL A   1      43.189  37.590  33.464  1.00  0.00    -0.744 OA
ENDBRANCH  69  70
ENDBRANCH  50  64
BRANCH  51  74
ATOM     74  C   UNL A   1      42.433  23.714  27.762  1.00  0.00    -0.014 A 
ATOM     75  C   UNL A   1      42.441  23.482  26.374  1.00  0.00     0.010 A 
ATOM     76  C   UNL A   1      42.268  22.623  28.635  1.00  0.00     0.010 A 
ATOM     77  C   UNL A   1      42.273  22.189  25.870  1.00  0.00     0.020 A 
ATOM     78  C   UNL A   1      42.127  21.324  28.135  1.00  0.00     0.020 A 
ATOM     79  C   UNL A   1      42.120  21.117  26.754  1.00  0.00     0.054 A 
BRANCH  79  80
ATOM     80  S   UNL A   1      41.966  19.440  26.079  1.00  0.00     0.124 S 
ATOM     81  O   UNL A   1      40.538  19.361  25.785  1.00  0.00    -0.237 OA
ATOM     82  O   UNL A   1      42.850  19.485  24.916  1.00  0.00    -0.237 OA
ATOM     83  O   UNL A   1      42.431  18.587  27.171  1.00  0.00    -0.744 OA
ENDBRANCH  79  80
ENDBRANCH  51  74
BRANCH  63  84
ATOM     84  C   UNL A   1      47.949  27.240  30.180  1.00  0.00    -0.014 A 
ATOM     85  C   UNL A   1      48.936  27.511  29.218  1.00  0.00     0.010 A 
ATOM     86  C   UNL A   1      48.326  26.666  31.409  1.00  0.00     0.010 A 
ATOM     87  C   UNL A   1      50.274  27.193  29.470  1.00  0.00     0.020 A 
ATOM     88  C   UNL A   1      49.665  26.371  31.675  1.00  0.00     0.020 A 
ATOM     89  C   UNL A   1      50.630  26.627  30.699  1.00  0.00     0.054 A 
BRANCH  89  90
ATOM     90  S   UNL A   1      52.379  26.277  31.026  1.00  0.00     0.124 S 
ATOM     91  O   UNL A   1      52.306  25.009  31.748  1.00  0.00    -0.237 OA
ATOM     92  O   UNL A   1      52.948  26.203  29.683  1.00  0.00    -0.237 OA
ATOM     93  O   UNL A   1      52.820  27.422  31.820  1.00  0.00    -0.744 OA
ENDBRANCH  89  90
ENDBRANCH  63  84
ENDBRANCH  37  38
ENDBRANCH  29  32
ENDBRANCH  27  28
ENDBRANCH   1  27
TORSDOF 16
ENDMDL
MODEL 2
REMARK VINA RESULT:     -11.2      4.689     10.483
REMARK SMILES Cc1cc(N2CCC[C@H]2C2CCCC2)cc(C(=O)NCCCNC(=O)c2ccc(-c3c4nc(c(-c5ccc(S(=O)(=O)[O-])cc5)c5ccc([nH]5)c(-c5ccc(S(=O)(=O)[O-])cc5)c5nc(c(-c6ccc(S(=O)(=O)[O-])cc6)c6ccc3[nH]6)C=C5)C=C4)cc2)c1N
REMARK SMILES IDX 21 1 20 2 19 3 17 4 18 5 16 7 1 8 2 9 3 10 86 11 4 12 15 13
REMARK SMILES IDX 87 14 5 17 6 18 9 19 7 20 8 21 10 22 11 23 14 24 12 25 13 26
REMARK SMILES IDX 22 27 23 28 24 29 25 31 26 32 27 33 85 34 28 35 84 36 29 37
REMARK SMILES IDX 30 38 31 39 78 40 32 41 83 42 77 43 79 44 33 45 82 46 76 47
REMARK SMILES IDX 75 48 34 50 64 51 45 52 63 53 46 54 49 55 62 56 80 57 47 58
REMARK SMILES IDX 48 59 61 61 81 62 50 63 35 64 36 65 44 66 37 67 43 68 38 69
REMARK SMILES IDX 39 70 40 71 41 72 42 73 65 74 66 75 74 76 67 77 73 78 68 79
REMARK SMILES IDX 69 80 70 81 71 82 72 83 51 84 52 85 60 86 53 87 59 88 54 89
REMARK SMILES IDX 55 90 56 91 57 92 58 93
REMARK H PARENT 19 6 87 15 87 16 23 30 79 49 49 60
REMARK Flexibility Score: inf
ROOT
ATOM      1  C   UNL A   1      37.256  23.290  25.307  1.00  0.00     0.042 C 
ENDROOT
BRANCH   1   2
ATOM      2  C   UNL A   1      35.764  23.289  25.638  1.00  0.00     0.118 C 
BRANCH   2   3
ATOM      3  N   UNL A   1      35.002  22.714  24.548  1.00  0.00    -0.352 N 
ATOM      4  C   UNL A   1      33.690  22.785  24.155  1.00  0.00     0.253 C 
ATOM      5  O   UNL A   1      33.412  22.136  23.139  1.00  0.00    -0.269 OA
ATOM      6  H   UNL A   1      35.548  22.144  23.958  1.00  0.00     0.163 HD
BRANCH   4   7
ATOM      7  C   UNL A   1      32.622  23.611  24.820  1.00  0.00     0.065 A 
ATOM      8  C   UNL A   1      29.696  23.052  27.228  1.00  0.00     0.046 C 
ATOM      9  C   UNL A   1      30.665  23.706  26.279  1.00  0.00    -0.025 A 
ATOM     10  C   UNL A   1      30.602  25.099  26.079  1.00  0.00     0.031 A 
ATOM     11  C   UNL A   1      31.666  22.948  25.633  1.00  0.00     0.047 A 
ATOM     12  C   UNL A   1      31.562  25.783  25.324  1.00  0.00     0.038 A 
ATOM     13  C   UNL A   1      32.600  25.017  24.765  1.00  0.00     0.042 A 
BRANCH  11  14
ATOM     14  N   UNL A   1      31.607  21.547  25.695  1.00  0.00    -0.398 N 
ATOM     15  H   UNL A   1      32.271  21.004  25.210  1.00  0.00     0.156 HD
ATOM     16  H   UNL A   1      30.902  21.105  26.222  1.00  0.00     0.156 HD
ENDBRANCH  11  14
BRANCH  12  17
ATOM     17  N   UNL A   1      31.540  27.179  25.164  1.00  0.00    -0.368 N 
ATOM     18  C   UNL A   1      30.636  27.696  24.122  1.00  0.00     0.117 C 
ATOM     19  C   UNL A   1      32.843  27.910  25.096  1.00  0.00     0.085 C 
ATOM     20  C   UNL A   1      31.556  28.311  23.075  1.00  0.00     0.024 C 
ATOM     21  C   UNL A   1      32.692  28.880  23.900  1.00  0.00     0.027 C 
BRANCH  19  22
ATOM     22  C   UNL A   1      33.225  28.691  26.379  1.00  0.00     0.011 C 
ATOM     23  C   UNL A   1      34.723  28.894  26.643  1.00  0.00     0.006 C 
ATOM     24  C   UNL A   1      32.701  30.114  26.437  1.00  0.00     0.006 C 
ATOM     25  C   UNL A   1      34.813  30.056  27.628  1.00  0.00     0.000 C 
ATOM     26  C   UNL A   1      33.504  30.823  27.514  1.00  0.00     0.000 C 
ENDBRANCH  19  22
ENDBRANCH  12  17
ENDBRANCH   4   7
ENDBRANCH   2   3
ENDBRANCH   1   2
BRANCH   1  27
ATOM     27  C   UNL A   1      38.113  24.084  26.291  1.00  0.00     0.118 C 
BRANCH  27  28
ATOM     28  N   UNL A   1      39.542  23.811  26.195  1.00  0.00    -0.352 N 
ATOM     29  C   UNL A   1      40.630  24.443  26.751  1.00  0.00     0.251 C 
ATOM     30  H   UNL A   1      39.769  23.037  25.631  1.00  0.00     0.163 HD
ATOM     31  O   UNL A   1      41.756  24.051  26.444  1.00  0.00    -0.269 OA
BRANCH  29  32
ATOM     32  C   UNL A   1      40.486  25.603  27.668  1.00  0.00     0.039 A 
ATOM     33  C   UNL A   1      39.507  25.549  28.669  1.00  0.00     0.014 A 
ATOM     34  C   UNL A   1      41.279  26.744  27.554  1.00  0.00     0.014 A 
ATOM     35  C   UNL A   1      39.393  26.588  29.601  1.00  0.00     0.010 A 
ATOM     36  C   UNL A   1      41.235  27.727  28.543  1.00  0.00     0.010 A 
ATOM     37  C   UNL A   1      40.295  27.662  29.582  1.00  0.00    -0.014 A 
BRANCH  37  38
ATOM     38  C   UNL A   1      40.288  28.723  30.629  1.00  0.00     0.031 A 
ATOM     39  C   UNL A   1      41.207  28.617  31.821  1.00  0.00     0.074 A 
ATOM     40  C   UNL A   1      39.388  29.726  30.567  1.00  0.00     0.049 A 
ATOM     41  N   UNL A   1      41.236  29.344  32.909  1.00  0.00    -0.248 NA
ATOM     42  C   UNL A   1      42.197  27.527  31.802  1.00  0.00     0.031 C 
ATOM     43  C   UNL A   1      38.409  29.927  29.495  1.00  0.00     0.029 A 
ATOM     44  N   UNL A   1      39.134  30.759  31.437  1.00  0.00    -0.354 N 
ATOM     45  C   UNL A   1      42.214  28.775  33.719  1.00  0.00     0.074 A 
ATOM     46  C   UNL A   1      42.724  27.619  33.014  1.00  0.00     0.031 C 
ATOM     47  C   UNL A   1      37.682  31.024  29.759  1.00  0.00     0.029 A 
ATOM     48  C   UNL A   1      38.100  31.576  31.043  1.00  0.00     0.049 A 
ATOM     49  H   UNL A   1      39.645  30.901  32.268  1.00  0.00     0.167 HD
ATOM     50  C   UNL A   1      42.661  29.185  34.930  1.00  0.00     0.031 A 
ATOM     51  C   UNL A   1      37.537  32.640  31.648  1.00  0.00     0.031 A 
ATOM     52  C   UNL A   1      42.181  30.358  35.612  1.00  0.00     0.049 A 
ATOM     53  C   UNL A   1      38.063  33.090  32.983  1.00  0.00     0.074 A 
ATOM     54  C   UNL A   1      42.621  30.896  36.808  1.00  0.00     0.029 A 
ATOM     55  N   UNL A   1      41.162  31.178  35.154  1.00  0.00    -0.354 N 
ATOM     56  N   UNL A   1      39.023  32.567  33.708  1.00  0.00    -0.248 NA
ATOM     57  C   UNL A   1      37.436  34.278  33.579  1.00  0.00     0.031 C 
ATOM     58  C   UNL A   1      41.838  32.019  37.096  1.00  0.00     0.029 A 
ATOM     59  C   UNL A   1      40.947  32.210  36.052  1.00  0.00     0.049 A 
ATOM     60  H   UNL A   1      40.664  31.047  34.315  1.00  0.00     0.167 HD
ATOM     61  C   UNL A   1      39.132  33.377  34.833  1.00  0.00     0.074 A 
ATOM     62  C   UNL A   1      38.150  34.432  34.686  1.00  0.00     0.031 C 
ATOM     63  C   UNL A   1      39.971  33.258  35.890  1.00  0.00     0.031 A 
BRANCH  50  64
ATOM     64  C   UNL A   1      43.727  28.355  35.600  1.00  0.00    -0.014 A 
ATOM     65  C   UNL A   1      43.391  27.266  36.424  1.00  0.00     0.010 A 
ATOM     66  C   UNL A   1      45.084  28.645  35.368  1.00  0.00     0.010 A 
ATOM     67  C   UNL A   1      44.392  26.511  37.041  1.00  0.00     0.020 A 
ATOM     68  C   UNL A   1      46.088  27.872  35.960  1.00  0.00     0.020 A 
ATOM     69  C   UNL A   1      45.735  26.821  36.809  1.00  0.00     0.054 A 
BRANCH  69  70
ATOM     70  S   UNL A   1      47.011  25.810  37.607  1.00  0.00     0.124 S 
ATOM     71  O   UNL A   1      48.225  26.560  37.295  1.00  0.00    -0.237 OA
ATOM     72  O   UNL A   1      46.605  25.829  39.010  1.00  0.00    -0.237 OA
ATOM     73  O   UNL A   1      46.892  24.514  36.945  1.00  0.00    -0.744 OA
ENDBRANCH  69  70
ENDBRANCH  50  64
BRANCH  51  74
ATOM     74  C   UNL A   1      36.413  33.361  30.987  1.00  0.00    -0.014 A 
ATOM     75  C   UNL A   1      35.203  33.574  31.672  1.00  0.00     0.010 A 
ATOM     76  C   UNL A   1      36.553  33.857  29.677  1.00  0.00     0.010 A 
ATOM     77  C   UNL A   1      34.150  34.255  31.056  1.00  0.00     0.020 A 
ATOM     78  C   UNL A   1      35.511  34.563  29.068  1.00  0.00     0.020 A 
ATOM     79  C   UNL A   1      34.312  34.749  29.758  1.00  0.00     0.054 A 
BRANCH  79  80
ATOM     80  S   UNL A   1      32.953  35.684  29.002  1.00  0.00     0.124 S 
ATOM     81  O   UNL A   1      33.664  36.778  28.348  1.00  0.00    -0.237 OA
ATOM     82  O   UNL A   1      32.350  34.698  28.108  1.00  0.00    -0.237 OA
ATOM     83  O   UNL A   1      32.124  36.067  30.143  1.00  0.00    -0.744 OA
ENDBRANCH  79  80
ENDBRANCH  51  74
BRANCH  63  84
ATOM     84  C   UNL A   1      39.897  34.313  36.960  1.00  0.00    -0.014 A 
ATOM     85  C   UNL A   1      40.555  35.546  36.815  1.00  0.00     0.010 A 
ATOM     86  C   UNL A   1      39.097  34.090  38.097  1.00  0.00     0.010 A 
ATOM     87  C   UNL A   1      40.433  36.531  37.799  1.00  0.00     0.020 A 
ATOM     88  C   UNL A   1      38.952  35.082  39.069  1.00  0.00     0.020 A 
ATOM     89  C   UNL A   1      39.630  36.293  38.919  1.00  0.00     0.054 A 
BRANCH  89  90
ATOM     90  S   UNL A   1      39.440  37.608  40.154  1.00  0.00     0.124 S 
ATOM     91  O   UNL A   1      38.395  38.436  39.557  1.00  0.00    -0.237 OA
ATOM     92  O   UNL A   1      39.049  36.870  41.352  1.00  0.00    -0.237 OA
ATOM     93  O   UNL A   1      40.764  38.223  40.212  1.00  0.00    -0.744 OA
ENDBRANCH  89  90
ENDBRANCH  63  84
ENDBRANCH  37  38
ENDBRANCH  29  32
ENDBRANCH  27  28
ENDBRANCH   1  27
TORSDOF 16
ENDMDL
MODEL 3
REMARK VINA RESULT:     -10.9      2.718      3.618
REMARK SMILES Cc1cc(N2CCC[C@H]2C2CCCC2)cc(C(=O)NCCCNC(=O)c2ccc(-c3c4nc(c(-c5ccc(S(=O)(=O)[O-])cc5)c5ccc([nH]5)c(-c5ccc(S(=O)(=O)[O-])cc5)c5nc(c(-c6ccc(S(=O)(=O)[O-])cc6)c6ccc3[nH]6)C=C5)C=C4)cc2)c1N
REMARK SMILES IDX 21 1 20 2 19 3 17 4 18 5 16 7 1 8 2 9 3 10 86 11 4 12 15 13
REMARK SMILES IDX 87 14 5 17 6 18 9 19 7 20 8 21 10 22 11 23 14 24 12 25 13 26
REMARK SMILES IDX 22 27 23 28 24 29 25 31 26 32 27 33 85 34 28 35 84 36 29 37
REMARK SMILES IDX 30 38 31 39 78 40 32 41 83 42 77 43 79 44 33 45 82 46 76 47
REMARK SMILES IDX 75 48 34 50 64 51 45 52 63 53 46 54 49 55 62 56 80 57 47 58
REMARK SMILES IDX 48 59 61 61 81 62 50 63 35 64 36 65 44 66 37 67 43 68 38 69
REMARK SMILES IDX 39 70 40 71 41 72 42 73 65 74 66 75 74 76 67 77 73 78 68 79
REMARK SMILES IDX 69 80 70 81 71 82 72 83 51 84 52 85 60 86 53 87 59 88 54 89
REMARK SMILES IDX 55 90 56 91 57 92 58 93
REMARK H PARENT 19 6 87 15 87 16 23 30 79 49 49 60
REMARK Flexibility Score: inf
ROOT
ATOM      1  C   UNL A   1      33.573  28.967  26.798  1.00  0.00     0.042 C 
ENDROOT
BRANCH   1   2
ATOM      2  C   UNL A   1      33.269  27.543  26.331  1.00  0.00     0.118 C 
BRANCH   2   3
ATOM      3  N   UNL A   1      32.240  27.552  25.310  1.00  0.00    -0.352 N 
ATOM      4  C   UNL A   1      31.448  26.589  24.740  1.00  0.00     0.253 C 
ATOM      5  O   UNL A   1      30.664  26.999  23.876  1.00  0.00    -0.269 OA
ATOM      6  H   UNL A   1      32.073  28.451  24.943  1.00  0.00     0.163 HD
BRANCH   4   7
ATOM      7  C   UNL A   1      31.433  25.132  25.120  1.00  0.00     0.065 A 
ATOM      8  C   UNL A   1      29.290  22.781  27.253  1.00  0.00     0.046 C 
ATOM      9  C   UNL A   1      30.394  23.316  26.379  1.00  0.00    -0.025 A 
ATOM     10  C   UNL A   1      31.363  22.428  25.871  1.00  0.00     0.031 A 
ATOM     11  C   UNL A   1      30.434  24.681  26.022  1.00  0.00     0.047 A 
ATOM     12  C   UNL A   1      32.326  22.837  24.942  1.00  0.00     0.038 A 
ATOM     13  C   UNL A   1      32.290  24.182  24.534  1.00  0.00     0.042 A 
BRANCH  11  14
ATOM     14  N   UNL A   1      29.579  25.583  26.673  1.00  0.00    -0.398 N 
ATOM     15  H   UNL A   1      29.506  25.571  27.655  1.00  0.00     0.156 HD
ATOM     16  H   UNL A   1      29.050  26.228  26.148  1.00  0.00     0.156 HD
ENDBRANCH  11  14
BRANCH  12  17
ATOM     17  N   UNL A   1      33.263  21.949  24.387  1.00  0.00    -0.368 N 
ATOM     18  C   UNL A   1      32.710  20.839  23.592  1.00  0.00     0.117 C 
ATOM     19  C   UNL A   1      34.362  21.433  25.260  1.00  0.00     0.085 C 
ATOM     20  C   UNL A   1      33.059  19.582  24.379  1.00  0.00     0.024 C 
ATOM     21  C   UNL A   1      34.409  19.912  24.982  1.00  0.00     0.027 C 
BRANCH  19  22
ATOM     22  C   UNL A   1      35.753  22.071  25.010  1.00  0.00     0.011 C 
ATOM     23  C   UNL A   1      36.082  23.340  25.806  1.00  0.00     0.006 C 
ATOM     24  C   UNL A   1      36.933  21.175  25.345  1.00  0.00     0.006 C 
ATOM     25  C   UNL A   1      37.603  23.468  25.763  1.00  0.00     0.000 C 
ATOM     26  C   UNL A   1      38.146  22.084  25.441  1.00  0.00     0.000 C 
ENDBRANCH  19  22
ENDBRANCH  12  17
ENDBRANCH   4   7
ENDBRANCH   2   3
ENDBRANCH   1   2
BRANCH   1  27
ATOM     27  C   UNL A   1      35.014  29.176  27.260  1.00  0.00     0.118 C 
BRANCH  27  28
ATOM     28  N   UNL A   1      35.142  29.977  28.471  1.00  0.00    -0.352 N 
ATOM     29  C   UNL A   1      36.213  30.206  29.303  1.00  0.00     0.251 C 
ATOM     30  H   UNL A   1      34.315  30.436  28.742  1.00  0.00     0.163 HD
ATOM     31  O   UNL A   1      36.032  30.874  30.322  1.00  0.00    -0.269 OA
BRANCH  29  32
ATOM     32  C   UNL A   1      37.559  29.636  29.034  1.00  0.00     0.039 A 
ATOM     33  C   UNL A   1      38.082  29.738  27.739  1.00  0.00     0.014 A 
ATOM     34  C   UNL A   1      38.306  28.992  30.020  1.00  0.00     0.014 A 
ATOM     35  C   UNL A   1      39.378  29.283  27.463  1.00  0.00     0.010 A 
ATOM     36  C   UNL A   1      39.631  28.637  29.772  1.00  0.00     0.010 A 
ATOM     37  C   UNL A   1      40.188  28.780  28.492  1.00  0.00    -0.014 A 
BRANCH  37  38
ATOM     38  C   UNL A   1      41.612  28.402  28.268  1.00  0.00     0.031 A 
ATOM     39  C   UNL A   1      42.685  29.464  28.260  1.00  0.00     0.074 A 
ATOM     40  C   UNL A   1      41.933  27.127  27.969  1.00  0.00     0.049 A 
ATOM     41  N   UNL A   1      43.946  29.362  27.926  1.00  0.00    -0.248 NA
ATOM     42  C   UNL A   1      42.275  30.826  28.642  1.00  0.00     0.031 C 
ATOM     43  C   UNL A   1      40.992  26.006  27.899  1.00  0.00     0.029 A 
ATOM     44  N   UNL A   1      43.143  26.558  27.649  1.00  0.00    -0.354 N 
ATOM     45  C   UNL A   1      44.468  30.649  28.015  1.00  0.00     0.074 A 
ATOM     46  C   UNL A   1      43.376  31.520  28.394  1.00  0.00     0.031 C 
ATOM     47  C   UNL A   1      41.661  24.886  27.581  1.00  0.00     0.029 A 
ATOM     48  C   UNL A   1      43.067  25.213  27.370  1.00  0.00     0.049 A 
ATOM     49  H   UNL A   1      43.987  27.066  27.620  1.00  0.00     0.167 HD
ATOM     50  C   UNL A   1      45.741  31.067  27.817  1.00  0.00     0.031 A 
ATOM     51  C   UNL A   1      44.014  24.339  26.974  1.00  0.00     0.031 A 
ATOM     52  C   UNL A   1      46.833  30.195  27.480  1.00  0.00     0.049 A 
ATOM     53  C   UNL A   1      45.425  24.822  26.781  1.00  0.00     0.074 A 
ATOM     54  C   UNL A   1      48.171  30.512  27.329  1.00  0.00     0.029 A 
ATOM     55  N   UNL A   1      46.716  28.833  27.249  1.00  0.00    -0.354 N 
ATOM     56  N   UNL A   1      45.906  26.034  26.920  1.00  0.00    -0.248 NA
ATOM     57  C   UNL A   1      46.423  23.819  26.386  1.00  0.00     0.031 C 
ATOM     58  C   UNL A   1      48.858  29.349  26.965  1.00  0.00     0.029 A 
ATOM     59  C   UNL A   1      47.956  28.297  26.942  1.00  0.00     0.049 A 
ATOM     60  H   UNL A   1      45.876  28.322  27.296  1.00  0.00     0.167 HD
ATOM     61  C   UNL A   1      47.267  25.934  26.655  1.00  0.00     0.074 A 
ATOM     62  C   UNL A   1      47.534  24.541  26.359  1.00  0.00     0.031 C 
ATOM     63  C   UNL A   1      48.209  26.908  26.656  1.00  0.00     0.031 A 
BRANCH  50  64
ATOM     64  C   UNL A   1      46.022  32.542  27.962  1.00  0.00    -0.014 A 
ATOM     65  C   UNL A   1      46.293  33.111  29.220  1.00  0.00     0.010 A 
ATOM     66  C   UNL A   1      46.056  33.362  26.819  1.00  0.00     0.010 A 
ATOM     67  C   UNL A   1      46.546  34.479  29.338  1.00  0.00     0.020 A 
ATOM     68  C   UNL A   1      46.340  34.726  26.930  1.00  0.00     0.020 A 
ATOM     69  C   UNL A   1      46.564  35.281  28.192  1.00  0.00     0.054 A 
BRANCH  69  70
ATOM     70  S   UNL A   1      46.916  37.050  28.374  1.00  0.00     0.124 S 
ATOM     71  O   UNL A   1      46.235  37.612  27.210  1.00  0.00    -0.237 OA
ATOM     72  O   UNL A   1      46.314  37.366  29.667  1.00  0.00    -0.237 OA
ATOM     73  O   UNL A   1      48.375  37.120  28.336  1.00  0.00    -0.744 OA
ENDBRANCH  69  70
ENDBRANCH  50  64
BRANCH  51  74
ATOM     74  C   UNL A   1      43.657  22.912  26.744  1.00  0.00    -0.014 A 
ATOM     75  C   UNL A   1      44.101  22.244  25.588  1.00  0.00     0.010 A 
ATOM     76  C   UNL A   1      42.887  22.205  27.687  1.00  0.00     0.010 A 
ATOM     77  C   UNL A   1      43.772  20.903  25.373  1.00  0.00     0.020 A 
ATOM     78  C   UNL A   1      42.579  20.856  27.489  1.00  0.00     0.020 A 
ATOM     79  C   UNL A   1      43.016  20.216  26.327  1.00  0.00     0.054 A 
BRANCH  79  80
ATOM     80  S   UNL A   1      42.653  18.458  26.056  1.00  0.00     0.124 S 
ATOM     81  O   UNL A   1      43.534  18.134  24.939  1.00  0.00    -0.237 OA
ATOM     82  O   UNL A   1      43.011  17.860  27.340  1.00  0.00    -0.237 OA
ATOM     83  O   UNL A   1      41.223  18.448  25.751  1.00  0.00    -0.744 OA
ENDBRANCH  79  80
ENDBRANCH  51  74
BRANCH  63  84
ATOM     84  C   UNL A   1      49.629  26.504  26.367  1.00  0.00    -0.014 A 
ATOM     85  C   UNL A   1      50.481  26.054  27.390  1.00  0.00     0.010 A 
ATOM     86  C   UNL A   1      50.092  26.508  25.038  1.00  0.00     0.010 A 
ATOM     87  C   UNL A   1      51.782  25.637  27.091  1.00  0.00     0.020 A 
ATOM     88  C   UNL A   1      51.382  26.066  24.733  1.00  0.00     0.020 A 
ATOM     89  C   UNL A   1      52.222  25.644  25.764  1.00  0.00     0.054 A 
BRANCH  89  90
ATOM     90  S   UNL A   1      53.894  25.043  25.395  1.00  0.00     0.124 S 
ATOM     91  O   UNL A   1      54.573  25.229  26.674  1.00  0.00    -0.237 OA
ATOM     92  O   UNL A   1      53.657  23.655  25.006  1.00  0.00    -0.237 OA
ATOM     93  O   UNL A   1      54.346  25.917  24.315  1.00  0.00    -0.744 OA
ENDBRANCH  89  90
ENDBRANCH  63  84
ENDBRANCH  37  38
ENDBRANCH  29  32
ENDBRANCH  27  28
ENDBRANCH   1  27
TORSDOF 16
ENDMDL
