MODEL 1
REMARK VINA RESULT:     -13.3      0.000      0.000
REMARK SMILES Cc1ccccc1[C@@H](Cc1ncnn1C(C)C)C(=O)NCCCNC(=O)c1ccc(-c2c3nc(c(-c4ccc(S(=O)(=O)[O-])cc4)c4ccc([nH]4)c(-c4ccc(S(=O)(=O)[O-])cc4)c4nc(c(-c5ccc(S(=O)(=O)[O-])cc5)c5ccc2[nH]5)C=C4)C=C3)cc1
REMARK SMILES IDX 22 1 21 2 20 3 18 4 19 5 8 7 7 8 1 9 2 10 3 11 4 12 6 13
REMARK SMILES IDX 5 14 9 15 10 16 11 17 14 18 12 19 13 20 15 21 16 22 17 23
REMARK SMILES IDX 23 24 24 25 25 26 26 28 27 29 28 30 86 31 29 32 85 33 30 34
REMARK SMILES IDX 31 35 32 36 79 37 33 38 84 39 78 40 80 41 34 42 83 43 77 44
REMARK SMILES IDX 76 45 35 47 65 48 46 49 64 50 47 51 50 52 63 53 81 54 48 55
REMARK SMILES IDX 49 56 62 58 82 59 51 60 36 61 37 62 45 63 38 64 44 65 39 66
REMARK SMILES IDX 40 67 41 68 42 69 43 70 66 71 67 72 75 73 68 74 74 75 69 76
REMARK SMILES IDX 70 77 71 78 72 79 73 80 52 81 53 82 61 83 54 84 60 85 55 86
REMARK SMILES IDX 56 87 57 88 58 89 59 90
REMARK H PARENT 20 6 24 27 80 46 50 57
REMARK Flexibility Score: inf
ROOT
ATOM      1  C   UNL A   1      32.841  30.376  26.951  1.00  0.00     0.042 C 
ENDROOT
BRANCH   1   2
ATOM      2  C   UNL A   1      32.243  29.504  25.866  1.00  0.00     0.117 C 
BRANCH   2   3
ATOM      3  N   UNL A   1      33.013  29.479  24.631  1.00  0.00    -0.355 N 
ATOM      4  C   UNL A   1      32.830  28.906  23.416  1.00  0.00     0.228 C 
ATOM      5  O   UNL A   1      33.642  29.234  22.538  1.00  0.00    -0.274 OA
ATOM      6  H   UNL A   1      33.852  29.991  24.690  1.00  0.00     0.163 HD
BRANCH   4   7
ATOM      7  C   UNL A   1      31.716  27.911  23.056  1.00  0.00     0.116 C 
BRANCH   7   8
ATOM      8  C   UNL A   1      30.382  28.595  22.730  1.00  0.00    -0.032 A 
ATOM      9  C   UNL A   1      28.974  26.869  24.045  1.00  0.00     0.044 C 
ATOM     10  C   UNL A   1      29.141  28.150  23.263  1.00  0.00    -0.047 A 
ATOM     11  C   UNL A   1      27.961  28.883  23.012  1.00  0.00     0.004 A 
ATOM     12  C   UNL A   1      27.986  30.059  22.273  1.00  0.00     0.000 A 
ATOM     13  C   UNL A   1      30.356  29.759  21.950  1.00  0.00     0.005 A 
ATOM     14  C   UNL A   1      29.186  30.494  21.737  1.00  0.00     0.000 A 
ENDBRANCH   7   8
BRANCH   7  15
ATOM     15  C   UNL A   1      32.173  26.591  22.389  1.00  0.00     0.095 C 
BRANCH  15  16
ATOM     16  C   UNL A   1      31.921  25.284  23.056  1.00  0.00     0.128 A 
ATOM     17  N   UNL A   1      30.749  24.678  23.120  1.00  0.00    -0.220 NA
ATOM     18  N   UNL A   1      32.836  24.531  23.769  1.00  0.00    -0.248 N 
ATOM     19  C   UNL A   1      31.012  23.516  23.776  1.00  0.00     0.246 A 
ATOM     20  N   UNL A   1      32.260  23.394  24.210  1.00  0.00    -0.159 NA
BRANCH  18  21
ATOM     21  C   UNL A   1      34.233  24.788  24.101  1.00  0.00     0.103 C 
ATOM     22  C   UNL A   1      34.439  24.883  25.617  1.00  0.00     0.033 C 
ATOM     23  C   UNL A   1      35.180  23.742  23.510  1.00  0.00     0.033 C 
ENDBRANCH  18  21
ENDBRANCH  15  16
ENDBRANCH   7  15
ENDBRANCH   4   7
ENDBRANCH   2   3
ENDBRANCH   1   2
BRANCH   1  24
ATOM     24  C   UNL A   1      34.294  30.040  27.229  1.00  0.00     0.118 C 
BRANCH  24  25
ATOM     25  N   UNL A   1      35.111  31.170  27.669  1.00  0.00    -0.352 N 
ATOM     26  C   UNL A   1      36.438  31.125  28.102  1.00  0.00     0.251 C 
ATOM     27  H   UNL A   1      34.680  32.055  27.660  1.00  0.00     0.163 HD
ATOM     28  O   UNL A   1      37.016  32.080  28.557  1.00  0.00    -0.269 OA
BRANCH  26  29
ATOM     29  C   UNL A   1      37.119  29.817  27.932  1.00  0.00     0.039 A 
ATOM     30  C   UNL A   1      37.189  28.986  29.054  1.00  0.00     0.014 A 
ATOM     31  C   UNL A   1      38.018  29.692  26.879  1.00  0.00     0.014 A 
ATOM     32  C   UNL A   1      38.312  28.184  29.230  1.00  0.00     0.010 A 
ATOM     33  C   UNL A   1      39.193  29.007  27.126  1.00  0.00     0.010 A 
ATOM     34  C   UNL A   1      39.369  28.297  28.328  1.00  0.00    -0.014 A 
BRANCH  34  35
ATOM     35  C   UNL A   1      40.722  27.809  28.597  1.00  0.00     0.031 A 
ATOM     36  C   UNL A   1      41.067  26.397  28.282  1.00  0.00     0.074 A 
ATOM     37  C   UNL A   1      41.694  28.626  29.073  1.00  0.00     0.049 A 
ATOM     38  N   UNL A   1      42.062  25.753  28.797  1.00  0.00    -0.248 NA
ATOM     39  C   UNL A   1      40.242  25.561  27.413  1.00  0.00     0.031 C 
ATOM     40  C   UNL A   1      43.132  28.354  29.064  1.00  0.00     0.029 A 
ATOM     41  N   UNL A   1      41.584  29.778  29.858  1.00  0.00    -0.354 N 
ATOM     42  C   UNL A   1      42.194  24.571  28.102  1.00  0.00     0.074 A 
ATOM     43  C   UNL A   1      40.971  24.446  27.351  1.00  0.00     0.031 C 
ATOM     44  C   UNL A   1      43.715  29.080  30.029  1.00  0.00     0.029 A 
ATOM     45  C   UNL A   1      42.657  29.745  30.766  1.00  0.00     0.049 A 
ATOM     46  H   UNL A   1      40.891  30.474  29.787  1.00  0.00     0.167 HD
ATOM     47  C   UNL A   1      43.385  23.908  28.120  1.00  0.00     0.031 A 
ATOM     48  C   UNL A   1      42.536  29.761  32.125  1.00  0.00     0.031 A 
ATOM     49  C   UNL A   1      44.292  24.454  29.130  1.00  0.00     0.049 A 
ATOM     50  C   UNL A   1      43.196  28.582  32.805  1.00  0.00     0.074 A 
ATOM     51  C   UNL A   1      45.429  25.241  29.068  1.00  0.00     0.029 A 
ATOM     52  N   UNL A   1      43.917  24.411  30.470  1.00  0.00    -0.354 N 
ATOM     53  N   UNL A   1      43.647  27.538  32.169  1.00  0.00    -0.248 NA
ATOM     54  C   UNL A   1      43.335  28.450  34.254  1.00  0.00     0.031 C 
ATOM     55  C   UNL A   1      45.693  25.735  30.374  1.00  0.00     0.029 A 
ATOM     56  C   UNL A   1      44.733  25.224  31.231  1.00  0.00     0.049 A 
ATOM     57  H   UNL A   1      43.172  23.874  30.824  1.00  0.00     0.167 HD
ATOM     58  C   UNL A   1      44.067  26.593  33.069  1.00  0.00     0.074 A 
ATOM     59  C   UNL A   1      43.883  27.225  34.362  1.00  0.00     0.031 C 
ATOM     60  C   UNL A   1      44.499  25.363  32.664  1.00  0.00     0.031 A 
BRANCH  47  61
ATOM     61  C   UNL A   1      43.831  22.937  27.037  1.00  0.00    -0.014 A 
ATOM     62  C   UNL A   1      42.937  21.948  26.577  1.00  0.00     0.010 A 
ATOM     63  C   UNL A   1      45.134  22.868  26.508  1.00  0.00     0.010 A 
ATOM     64  C   UNL A   1      43.343  20.911  25.715  1.00  0.00     0.020 A 
ATOM     65  C   UNL A   1      45.558  21.840  25.654  1.00  0.00     0.020 A 
ATOM     66  C   UNL A   1      44.662  20.852  25.277  1.00  0.00     0.054 A 
BRANCH  66  67
ATOM     67  S   UNL A   1      45.206  19.475  24.236  1.00  0.00     0.124 S 
ATOM     68  O   UNL A   1      44.722  18.313  24.976  1.00  0.00    -0.237 OA
ATOM     69  O   UNL A   1      44.529  19.748  22.972  1.00  0.00    -0.237 OA
ATOM     70  O   UNL A   1      46.661  19.618  24.202  1.00  0.00    -0.744 OA
ENDBRANCH  66  67
ENDBRANCH  47  61
BRANCH  48  71
ATOM     71  C   UNL A   1      41.326  30.459  32.631  1.00  0.00    -0.014 A 
ATOM     72  C   UNL A   1      40.188  29.666  32.885  1.00  0.00     0.010 A 
ATOM     73  C   UNL A   1      41.443  31.715  33.249  1.00  0.00     0.010 A 
ATOM     74  C   UNL A   1      39.287  30.031  33.884  1.00  0.00     0.020 A 
ATOM     75  C   UNL A   1      40.536  32.085  34.250  1.00  0.00     0.020 A 
ATOM     76  C   UNL A   1      39.512  31.202  34.607  1.00  0.00     0.054 A 
BRANCH  76  77
ATOM     77  S   UNL A   1      38.606  31.415  36.168  1.00  0.00     0.124 S 
ATOM     78  O   UNL A   1      37.406  32.123  35.737  1.00  0.00    -0.237 OA
ATOM     79  O   UNL A   1      38.416  30.024  36.576  1.00  0.00    -0.237 OA
ATOM     80  O   UNL A   1      39.534  32.186  36.990  1.00  0.00    -0.744 OA
ENDBRANCH  76  77
ENDBRANCH  48  71
BRANCH  60  81
ATOM     81  C   UNL A   1      44.801  24.182  33.560  1.00  0.00    -0.014 A 
ATOM     82  C   UNL A   1      43.896  23.148  33.847  1.00  0.00     0.010 A 
ATOM     83  C   UNL A   1      46.119  24.031  34.059  1.00  0.00     0.010 A 
ATOM     84  C   UNL A   1      44.266  22.053  34.645  1.00  0.00     0.020 A 
ATOM     85  C   UNL A   1      46.511  22.923  34.815  1.00  0.00     0.020 A 
ATOM     86  C   UNL A   1      45.570  21.951  35.129  1.00  0.00     0.054 A 
BRANCH  86  87
ATOM     87  S   UNL A   1      46.060  20.508  36.109  1.00  0.00     0.124 S 
ATOM     88  O   UNL A   1      45.666  20.913  37.456  1.00  0.00    -0.237 OA
ATOM     89  O   UNL A   1      45.268  19.428  35.524  1.00  0.00    -0.237 OA
ATOM     90  O   UNL A   1      47.498  20.411  35.877  1.00  0.00    -0.744 OA
ENDBRANCH  86  87
ENDBRANCH  60  81
ENDBRANCH  34  35
ENDBRANCH  26  29
ENDBRANCH  24  25
ENDBRANCH   1  24
TORSDOF 17
ENDMDL
MODEL 2
REMARK VINA RESULT:     -13.2      1.402      1.742
REMARK SMILES Cc1ccccc1[C@@H](Cc1ncnn1C(C)C)C(=O)NCCCNC(=O)c1ccc(-c2c3nc(c(-c4ccc(S(=O)(=O)[O-])cc4)c4ccc([nH]4)c(-c4ccc(S(=O)(=O)[O-])cc4)c4nc(c(-c5ccc(S(=O)(=O)[O-])cc5)c5ccc2[nH]5)C=C4)C=C3)cc1
REMARK SMILES IDX 22 1 21 2 20 3 18 4 19 5 8 7 7 8 1 9 2 10 3 11 4 12 6 13
REMARK SMILES IDX 5 14 9 15 10 16 11 17 14 18 12 19 13 20 15 21 16 22 17 23
REMARK SMILES IDX 23 24 24 25 25 26 26 28 27 29 28 30 86 31 29 32 85 33 30 34
REMARK SMILES IDX 31 35 32 36 79 37 33 38 84 39 78 40 80 41 34 42 83 43 77 44
REMARK SMILES IDX 76 45 35 47 65 48 46 49 64 50 47 51 50 52 63 53 81 54 48 55
REMARK SMILES IDX 49 56 62 58 82 59 51 60 36 61 37 62 45 63 38 64 44 65 39 66
REMARK SMILES IDX 40 67 41 68 42 69 43 70 66 71 67 72 75 73 68 74 74 75 69 76
REMARK SMILES IDX 70 77 71 78 72 79 73 80 52 81 53 82 61 83 54 84 60 85 55 86
REMARK SMILES IDX 56 87 57 88 58 89 59 90
REMARK H PARENT 20 6 24 27 80 46 50 57
REMARK Flexibility Score: inf
ROOT
ATOM      1  C   UNL A   1      33.689  29.898  26.350  1.00  0.00     0.042 C 
ENDROOT
BRANCH   1   2
ATOM      2  C   UNL A   1      32.178  29.829  26.262  1.00  0.00     0.117 C 
BRANCH   2   3
ATOM      3  N   UNL A   1      31.616  28.549  26.669  1.00  0.00    -0.355 N 
ATOM      4  C   UNL A   1      31.409  27.367  26.038  1.00  0.00     0.228 C 
ATOM      5  O   UNL A   1      31.039  26.429  26.761  1.00  0.00    -0.274 OA
ATOM      6  H   UNL A   1      31.323  28.539  27.609  1.00  0.00     0.163 HD
BRANCH   4   7
ATOM      7  C   UNL A   1      31.598  27.110  24.535  1.00  0.00     0.116 C 
BRANCH   7   8
ATOM      8  C   UNL A   1      30.592  27.874  23.664  1.00  0.00    -0.032 A 
ATOM      9  C   UNL A   1      28.641  26.259  24.192  1.00  0.00     0.044 C 
ATOM     10  C   UNL A   1      29.217  27.516  23.587  1.00  0.00    -0.047 A 
ATOM     11  C   UNL A   1      28.319  28.320  22.852  1.00  0.00     0.004 A 
ATOM     12  C   UNL A   1      28.743  29.482  22.220  1.00  0.00     0.000 A 
ATOM     13  C   UNL A   1      30.987  29.026  22.973  1.00  0.00     0.005 A 
ATOM     14  C   UNL A   1      30.081  29.832  22.277  1.00  0.00     0.000 A 
ENDBRANCH   7   8
BRANCH   7  15
ATOM     15  C   UNL A   1      33.042  26.791  24.077  1.00  0.00     0.095 C 
BRANCH  15  16
ATOM     16  C   UNL A   1      33.337  25.530  23.342  1.00  0.00     0.128 A 
ATOM     17  N   UNL A   1      32.709  25.119  22.255  1.00  0.00    -0.220 NA
ATOM     18  N   UNL A   1      34.251  24.558  23.706  1.00  0.00    -0.248 N 
ATOM     19  C   UNL A   1      33.340  23.960  21.926  1.00  0.00     0.246 A 
ATOM     20  N   UNL A   1      34.266  23.568  22.791  1.00  0.00    -0.159 NA
BRANCH  18  21
ATOM     21  C   UNL A   1      35.126  24.455  24.869  1.00  0.00     0.103 C 
ATOM     22  C   UNL A   1      34.407  23.796  26.052  1.00  0.00     0.033 C 
ATOM     23  C   UNL A   1      36.424  23.708  24.564  1.00  0.00     0.033 C 
ENDBRANCH  18  21
ENDBRANCH  15  16
ENDBRANCH   7  15
ENDBRANCH   4   7
ENDBRANCH   2   3
ENDBRANCH   1   2
BRANCH   1  24
ATOM     24  C   UNL A   1      34.177  30.112  27.770  1.00  0.00     0.118 C 
BRANCH  24  25
ATOM     25  N   UNL A   1      35.083  31.247  27.942  1.00  0.00    -0.352 N 
ATOM     26  C   UNL A   1      36.441  31.191  28.261  1.00  0.00     0.251 C 
ATOM     27  H   UNL A   1      34.695  32.143  27.820  1.00  0.00     0.163 HD
ATOM     28  O   UNL A   1      37.104  32.171  28.498  1.00  0.00    -0.269 OA
BRANCH  26  29
ATOM     29  C   UNL A   1      37.042  29.834  28.258  1.00  0.00     0.039 A 
ATOM     30  C   UNL A   1      37.210  29.210  29.497  1.00  0.00     0.014 A 
ATOM     31  C   UNL A   1      37.802  29.470  27.153  1.00  0.00     0.014 A 
ATOM     32  C   UNL A   1      38.311  28.381  29.691  1.00  0.00     0.010 A 
ATOM     33  C   UNL A   1      38.969  28.766  27.389  1.00  0.00     0.010 A 
ATOM     34  C   UNL A   1      39.257  28.268  28.673  1.00  0.00    -0.014 A 
BRANCH  34  35
ATOM     35  C   UNL A   1      40.611  27.751  28.876  1.00  0.00     0.031 A 
ATOM     36  C   UNL A   1      40.910  26.333  28.540  1.00  0.00     0.074 A 
ATOM     37  C   UNL A   1      41.621  28.545  29.307  1.00  0.00     0.049 A 
ATOM     38  N   UNL A   1      41.915  25.666  29.004  1.00  0.00    -0.248 NA
ATOM     39  C   UNL A   1      40.027  25.519  27.708  1.00  0.00     0.031 C 
ATOM     40  C   UNL A   1      43.051  28.244  29.229  1.00  0.00     0.029 A 
ATOM     41  N   UNL A   1      41.573  29.696  30.100  1.00  0.00    -0.354 N 
ATOM     42  C   UNL A   1      41.989  24.485  28.300  1.00  0.00     0.074 A 
ATOM     43  C   UNL A   1      40.729  24.389  27.608  1.00  0.00     0.031 C 
ATOM     44  C   UNL A   1      43.695  28.953  30.167  1.00  0.00     0.029 A 
ATOM     45  C   UNL A   1      42.686  29.637  30.956  1.00  0.00     0.049 A 
ATOM     46  H   UNL A   1      40.892  30.407  30.065  1.00  0.00     0.167 HD
ATOM     47  C   UNL A   1      43.165  23.797  28.259  1.00  0.00     0.031 A 
ATOM     48  C   UNL A   1      42.631  29.650  32.320  1.00  0.00     0.031 A 
ATOM     49  C   UNL A   1      44.131  24.320  29.227  1.00  0.00     0.049 A 
ATOM     50  C   UNL A   1      43.298  28.454  32.963  1.00  0.00     0.074 A 
ATOM     51  C   UNL A   1      45.280  25.084  29.113  1.00  0.00     0.029 A 
ATOM     52  N   UNL A   1      43.819  24.278  30.582  1.00  0.00    -0.354 N 
ATOM     53  N   UNL A   1      43.696  27.403  32.304  1.00  0.00    -0.248 NA
ATOM     54  C   UNL A   1      43.503  28.312  34.404  1.00  0.00     0.031 C 
ATOM     55  C   UNL A   1      45.615  25.566  30.406  1.00  0.00     0.029 A 
ATOM     56  C   UNL A   1      44.687  25.072  31.307  1.00  0.00     0.049 A 
ATOM     57  H   UNL A   1      43.081  23.756  30.970  1.00  0.00     0.167 HD
ATOM     58  C   UNL A   1      44.138  26.446  33.179  1.00  0.00     0.074 A 
ATOM     59  C   UNL A   1      44.029  27.076  34.481  1.00  0.00     0.031 C 
ATOM     60  C   UNL A   1      44.524  25.209  32.750  1.00  0.00     0.031 A 
BRANCH  47  61
ATOM     61  C   UNL A   1      43.539  22.822  27.153  1.00  0.00    -0.014 A 
ATOM     62  C   UNL A   1      42.767  21.656  26.962  1.00  0.00     0.010 A 
ATOM     63  C   UNL A   1      44.684  22.929  26.341  1.00  0.00     0.010 A 
ATOM     64  C   UNL A   1      43.163  20.630  26.084  1.00  0.00     0.020 A 
ATOM     65  C   UNL A   1      45.097  21.915  25.465  1.00  0.00     0.020 A 
ATOM     66  C   UNL A   1      44.343  20.757  25.356  1.00  0.00     0.054 A 
BRANCH  66  67
ATOM     67  S   UNL A   1      44.895  19.405  24.288  1.00  0.00     0.124 S 
ATOM     68  O   UNL A   1      46.342  19.423  24.484  1.00  0.00    -0.237 OA
ATOM     69  O   UNL A   1      44.195  18.253  24.850  1.00  0.00    -0.237 OA
ATOM     70  O   UNL A   1      44.451  19.809  22.955  1.00  0.00    -0.744 OA
ENDBRANCH  66  67
ENDBRANCH  47  61
BRANCH  48  71
ATOM     71  C   UNL A   1      41.461  30.370  32.885  1.00  0.00    -0.014 A 
ATOM     72  C   UNL A   1      41.548  31.774  32.960  1.00  0.00     0.010 A 
ATOM     73  C   UNL A   1      40.198  29.755  32.907  1.00  0.00     0.010 A 
ATOM     74  C   UNL A   1      40.399  32.556  32.859  1.00  0.00     0.020 A 
ATOM     75  C   UNL A   1      39.042  30.539  32.809  1.00  0.00     0.020 A 
ATOM     76  C   UNL A   1      39.161  31.928  32.710  1.00  0.00     0.054 A 
BRANCH  76  77
ATOM     77  S   UNL A   1      37.768  32.941  32.134  1.00  0.00     0.124 S 
ATOM     78  O   UNL A   1      38.369  33.706  31.046  1.00  0.00    -0.237 OA
ATOM     79  O   UNL A   1      36.813  31.908  31.737  1.00  0.00    -0.237 OA
ATOM     80  O   UNL A   1      37.400  33.709  33.319  1.00  0.00    -0.744 OA
ENDBRANCH  76  77
ENDBRANCH  48  71
BRANCH  60  81
ATOM     81  C   UNL A   1      44.844  24.017  33.626  1.00  0.00    -0.014 A 
ATOM     82  C   UNL A   1      43.935  22.996  33.944  1.00  0.00     0.010 A 
ATOM     83  C   UNL A   1      46.178  23.843  34.070  1.00  0.00     0.010 A 
ATOM     84  C   UNL A   1      44.320  21.891  34.721  1.00  0.00     0.020 A 
ATOM     85  C   UNL A   1      46.583  22.725  34.805  1.00  0.00     0.020 A 
ATOM     86  C   UNL A   1      45.640  21.766  35.151  1.00  0.00     0.054 A 
BRANCH  86  87
ATOM     87  S   UNL A   1      46.146  20.310  36.103  1.00  0.00     0.124 S 
ATOM     88  O   UNL A   1      45.299  19.268  35.531  1.00  0.00    -0.237 OA
ATOM     89  O   UNL A   1      47.571  20.195  35.797  1.00  0.00    -0.237 OA
ATOM     90  O   UNL A   1      45.842  20.683  37.481  1.00  0.00    -0.744 OA
ENDBRANCH  86  87
ENDBRANCH  60  81
ENDBRANCH  34  35
ENDBRANCH  26  29
ENDBRANCH  24  25
ENDBRANCH   1  24
TORSDOF 17
ENDMDL
MODEL 3
REMARK VINA RESULT:     -13.2      5.004     11.493
REMARK SMILES Cc1ccccc1[C@@H](Cc1ncnn1C(C)C)C(=O)NCCCNC(=O)c1ccc(-c2c3nc(c(-c4ccc(S(=O)(=O)[O-])cc4)c4ccc([nH]4)c(-c4ccc(S(=O)(=O)[O-])cc4)c4nc(c(-c5ccc(S(=O)(=O)[O-])cc5)c5ccc2[nH]5)C=C4)C=C3)cc1
REMARK SMILES IDX 22 1 21 2 20 3 18 4 19 5 8 7 7 8 1 9 2 10 3 11 4 12 6 13
REMARK SMILES IDX 5 14 9 15 10 16 11 17 14 18 12 19 13 20 15 21 16 22 17 23
REMARK SMILES IDX 23 24 24 25 25 26 26 28 27 29 28 30 86 31 29 32 85 33 30 34
REMARK SMILES IDX 31 35 32 36 79 37 33 38 84 39 78 40 80 41 34 42 83 43 77 44
REMARK SMILES IDX 76 45 35 47 65 48 46 49 64 50 47 51 50 52 63 53 81 54 48 55
REMARK SMILES IDX 49 56 62 58 82 59 51 60 36 61 37 62 45 63 38 64 44 65 39 66
REMARK SMILES IDX 40 67 41 68 42 69 43 70 66 71 67 72 75 73 68 74 74 75 69 76
REMARK SMILES IDX 70 77 71 78 72 79 73 80 52 81 53 82 61 83 54 84 60 85 55 86
REMARK SMILES IDX 56 87 57 88 58 89 59 90
REMARK H PARENT 20 6 24 27 80 46 50 57
REMARK Flexibility Score: inf
ROOT
ATOM      1  C   UNL A   1      38.134  21.819  25.587  1.00  0.00     0.042 C 
ENDROOT
BRANCH   1   2
ATOM      2  C   UNL A   1      36.624  21.774  25.468  1.00  0.00     0.117 C 
BRANCH   2   3
ATOM      3  N   UNL A   1      36.107  22.356  24.238  1.00  0.00    -0.355 N 
ATOM      4  C   UNL A   1      34.871  22.712  23.810  1.00  0.00     0.228 C 
ATOM      5  O   UNL A   1      34.831  23.331  22.736  1.00  0.00    -0.274 OA
ATOM      6  H   UNL A   1      36.809  22.529  23.570  1.00  0.00     0.163 HD
BRANCH   4   7
ATOM      7  C   UNL A   1      33.552  22.416  24.541  1.00  0.00     0.116 C 
BRANCH   7   8
ATOM      8  C   UNL A   1      33.103  20.955  24.404  1.00  0.00    -0.032 A 
ATOM      9  C   UNL A   1      31.997  21.328  22.096  1.00  0.00     0.044 C 
ATOM     10  C   UNL A   1      32.465  20.456  23.236  1.00  0.00    -0.047 A 
ATOM     11  C   UNL A   1      32.171  19.079  23.126  1.00  0.00     0.004 A 
ATOM     12  C   UNL A   1      32.521  18.185  24.130  1.00  0.00     0.000 A 
ATOM     13  C   UNL A   1      33.396  20.028  25.413  1.00  0.00     0.005 A 
ATOM     14  C   UNL A   1      33.130  18.663  25.278  1.00  0.00     0.000 A 
ENDBRANCH   7   8
BRANCH   7  15
ATOM     15  C   UNL A   1      33.265  23.274  25.798  1.00  0.00     0.095 C 
BRANCH  15  16
ATOM     16  C   UNL A   1      31.863  23.595  26.185  1.00  0.00     0.128 A 
ATOM     17  N   UNL A   1      30.990  22.728  26.666  1.00  0.00    -0.220 NA
ATOM     18  N   UNL A   1      31.227  24.815  26.044  1.00  0.00    -0.248 N 
ATOM     19  C   UNL A   1      29.880  23.475  26.908  1.00  0.00     0.246 A 
ATOM     20  N   UNL A   1      29.969  24.742  26.524  1.00  0.00    -0.159 NA
BRANCH  18  21
ATOM     21  C   UNL A   1      31.690  26.074  25.471  1.00  0.00     0.103 C 
ATOM     22  C   UNL A   1      30.578  26.771  24.679  1.00  0.00     0.033 C 
ATOM     23  C   UNL A   1      32.257  27.026  26.524  1.00  0.00     0.033 C 
ENDBRANCH  18  21
ENDBRANCH  15  16
ENDBRANCH   7  15
ENDBRANCH   4   7
ENDBRANCH   2   3
ENDBRANCH   1   2
BRANCH   1  24
ATOM     24  C   UNL A   1      38.633  23.139  26.143  1.00  0.00     0.118 C 
BRANCH  24  25
ATOM     25  N   UNL A   1      39.983  23.098  26.701  1.00  0.00    -0.352 N 
ATOM     26  C   UNL A   1      40.675  24.154  27.297  1.00  0.00     0.251 C 
ATOM     27  H   UNL A   1      40.454  22.235  26.651  1.00  0.00     0.163 HD
ATOM     28  O   UNL A   1      41.830  24.079  27.636  1.00  0.00    -0.269 OA
BRANCH  26  29
ATOM     29  C   UNL A   1      39.881  25.387  27.526  1.00  0.00     0.039 A 
ATOM     30  C   UNL A   1      40.191  26.499  26.739  1.00  0.00     0.014 A 
ATOM     31  C   UNL A   1      39.243  25.522  28.754  1.00  0.00     0.014 A 
ATOM     32  C   UNL A   1      40.076  27.770  27.293  1.00  0.00     0.010 A 
ATOM     33  C   UNL A   1      39.268  26.770  29.348  1.00  0.00     0.010 A 
ATOM     34  C   UNL A   1      39.739  27.891  28.640  1.00  0.00    -0.014 A 
BRANCH  34  35
ATOM     35  C   UNL A   1      39.949  29.109  29.424  1.00  0.00     0.031 A 
ATOM     36  C   UNL A   1      38.961  30.217  29.333  1.00  0.00     0.074 A 
ATOM     37  C   UNL A   1      40.991  29.234  30.283  1.00  0.00     0.049 A 
ATOM     38  N   UNL A   1      39.204  31.444  29.657  1.00  0.00    -0.248 NA
ATOM     39  C   UNL A   1      37.625  30.035  28.770  1.00  0.00     0.031 C 
ATOM     40  C   UNL A   1      41.120  30.233  31.344  1.00  0.00     0.029 A 
ATOM     41  N   UNL A   1      42.251  28.630  30.248  1.00  0.00    -0.354 N 
ATOM     42  C   UNL A   1      38.003  32.118  29.656  1.00  0.00     0.074 A 
ATOM     43  C   UNL A   1      37.087  31.238  28.978  1.00  0.00     0.031 C 
ATOM     44  C   UNL A   1      42.421  30.397  31.627  1.00  0.00     0.029 A 
ATOM     45  C   UNL A   1      43.172  29.603  30.674  1.00  0.00     0.049 A 
ATOM     46  H   UNL A   1      42.452  27.704  29.978  1.00  0.00     0.167 HD
ATOM     47  C   UNL A   1      37.880  33.277  30.363  1.00  0.00     0.031 A 
ATOM     48  C   UNL A   1      44.238  30.047  29.946  1.00  0.00     0.031 A 
ATOM     49  C   UNL A   1      39.179  33.771  30.820  1.00  0.00     0.049 A 
ATOM     50  C   UNL A   1      44.238  31.545  29.728  1.00  0.00     0.074 A 
ATOM     51  C   UNL A   1      39.810  33.804  32.052  1.00  0.00     0.029 A 
ATOM     52  N   UNL A   1      40.143  34.111  29.876  1.00  0.00    -0.354 N 
ATOM     53  N   UNL A   1      43.227  32.318  30.007  1.00  0.00    -0.248 NA
ATOM     54  C   UNL A   1      45.343  32.278  29.114  1.00  0.00     0.031 C 
ATOM     55  C   UNL A   1      41.184  34.092  31.833  1.00  0.00     0.029 A 
ATOM     56  C   UNL A   1      41.379  34.262  30.473  1.00  0.00     0.049 A 
ATOM     57  H   UNL A   1      39.968  34.226  28.914  1.00  0.00     0.167 HD
ATOM     58  C   UNL A   1      43.488  33.594  29.578  1.00  0.00     0.074 A 
ATOM     59  C   UNL A   1      44.840  33.525  29.056  1.00  0.00     0.031 C 
ATOM     60  C   UNL A   1      42.550  34.582  29.664  1.00  0.00     0.031 A 
BRANCH  47  61
ATOM     61  C   UNL A   1      36.555  33.822  30.873  1.00  0.00    -0.014 A 
ATOM     62  C   UNL A   1      35.468  33.960  29.983  1.00  0.00     0.010 A 
ATOM     63  C   UNL A   1      36.336  34.314  32.174  1.00  0.00     0.010 A 
ATOM     64  C   UNL A   1      34.281  34.623  30.345  1.00  0.00     0.020 A 
ATOM     65  C   UNL A   1      35.163  34.982  32.552  1.00  0.00     0.020 A 
ATOM     66  C   UNL A   1      34.145  35.151  31.626  1.00  0.00     0.054 A 
BRANCH  66  67
ATOM     67  S   UNL A   1      32.653  36.075  32.068  1.00  0.00     0.124 S 
ATOM     68  O   UNL A   1      31.744  35.016  32.495  1.00  0.00    -0.237 OA
ATOM     69  O   UNL A   1      33.132  36.962  33.123  1.00  0.00    -0.237 OA
ATOM     70  O   UNL A   1      32.276  36.743  30.822  1.00  0.00    -0.744 OA
ENDBRANCH  66  67
ENDBRANCH  47  61
BRANCH  48  71
ATOM     71  C   UNL A   1      44.793  29.055  28.991  1.00  0.00    -0.014 A 
ATOM     72  C   UNL A   1      44.144  28.929  27.747  1.00  0.00     0.010 A 
ATOM     73  C   UNL A   1      46.122  28.618  29.123  1.00  0.00     0.010 A 
ATOM     74  C   UNL A   1      44.864  28.561  26.612  1.00  0.00     0.020 A 
ATOM     75  C   UNL A   1      46.847  28.243  27.985  1.00  0.00     0.020 A 
ATOM     76  C   UNL A   1      46.228  28.291  26.731  1.00  0.00     0.054 A 
BRANCH  76  77
ATOM     77  S   UNL A   1      47.217  28.262  25.208  1.00  0.00     0.124 S 
ATOM     78  O   UNL A   1      48.556  28.568  25.700  1.00  0.00    -0.237 OA
ATOM     79  O   UNL A   1      46.999  26.889  24.756  1.00  0.00    -0.237 OA
ATOM     80  O   UNL A   1      46.594  29.296  24.386  1.00  0.00    -0.744 OA
ENDBRANCH  76  77
ENDBRANCH  48  71
BRANCH  60  81
ATOM     81  C   UNL A   1      42.649  35.964  29.057  1.00  0.00    -0.014 A 
ATOM     82  C   UNL A   1      43.490  36.983  29.530  1.00  0.00     0.010 A 
ATOM     83  C   UNL A   1      41.939  36.229  27.860  1.00  0.00     0.010 A 
ATOM     84  C   UNL A   1      43.569  38.227  28.880  1.00  0.00     0.020 A 
ATOM     85  C   UNL A   1      42.045  37.445  27.180  1.00  0.00     0.020 A 
ATOM     86  C   UNL A   1      42.841  38.451  27.712  1.00  0.00     0.054 A 
BRANCH  86  87
ATOM     87  S   UNL A   1      42.990  40.035  26.845  1.00  0.00     0.124 S 
ATOM     88  O   UNL A   1      44.083  39.766  25.915  1.00  0.00    -0.237 OA
ATOM     89  O   UNL A   1      41.673  40.200  26.232  1.00  0.00    -0.237 OA
ATOM     90  O   UNL A   1      43.292  40.981  27.915  1.00  0.00    -0.744 OA
ENDBRANCH  86  87
ENDBRANCH  60  81
ENDBRANCH  34  35
ENDBRANCH  26  29
ENDBRANCH  24  25
ENDBRANCH   1  24
TORSDOF 17
ENDMDL
