MODEL 1
REMARK VINA RESULT:     -12.2      0.000      0.000
REMARK SMILES C[C@]12CCC(=O)N1[C@H](C(=O)N1CCC[C@@H]1C(=O)NCCCNC(=O)c1ccc(-c3c4nc(c(-c5ccc(S(=O)(=O)[O-])cc5)c5ccc([nH]5)c(-c5ccc(S(=O)(=O)[O-])cc5)c5nc(c(-c6ccc(S(=O)(=O)[O-])cc6)c6ccc3[nH]6)C=C5)C=C4)cc1)CS2
REMARK SMILES IDX 20 1 19 2 18 3 16 4 17 5 15 7 11 8 12 9 13 10 14 11 9 12
REMARK SMILES IDX 10 13 8 14 1 15 2 16 3 17 7 18 86 19 4 20 5 21 85 22 6 23
REMARK SMILES IDX 21 24 22 25 23 26 24 28 25 29 26 30 84 31 27 32 83 33 28 34
REMARK SMILES IDX 29 35 30 36 77 37 31 38 82 39 76 40 78 41 32 42 81 43 75 44
REMARK SMILES IDX 74 45 33 47 63 48 44 49 62 50 45 51 48 52 61 53 79 54 46 55
REMARK SMILES IDX 47 56 60 58 80 59 49 60 34 61 35 62 43 63 36 64 42 65 37 66
REMARK SMILES IDX 38 67 39 68 40 69 41 70 64 71 65 72 73 73 66 74 72 75 67 76
REMARK SMILES IDX 68 77 69 78 70 79 71 80 50 81 51 82 59 83 52 84 58 85 53 86
REMARK SMILES IDX 54 87 55 88 56 89 57 90
REMARK H PARENT 18 6 22 27 78 46 48 57
REMARK Flexibility Score: inf
ROOT
ATOM      1  C   UNL A   1      37.877  23.946  26.088  1.00  0.00     0.042 C 
ENDROOT
BRANCH   1   2
ATOM      2  C   UNL A   1      36.934  22.886  25.540  1.00  0.00     0.117 C 
BRANCH   2   3
ATOM      3  N   UNL A   1      35.708  22.687  26.298  1.00  0.00    -0.354 N 
ATOM      4  C   UNL A   1      34.688  21.789  26.099  1.00  0.00     0.242 C 
ATOM      5  O   UNL A   1      33.848  21.684  26.998  1.00  0.00    -0.273 OA
ATOM      6  H   UNL A   1      35.590  23.288  27.068  1.00  0.00     0.163 HD
BRANCH   4   7
ATOM      7  C   UNL A   1      34.543  21.031  24.752  1.00  0.00     0.174 C 
ATOM      8  N   UNL A   1      33.220  21.209  24.106  1.00  0.00    -0.329 N 
ATOM      9  C   UNL A   1      32.550  19.940  23.902  1.00  0.00     0.120 C 
ATOM     10  C   UNL A   1      33.195  19.001  24.883  1.00  0.00     0.024 C 
ATOM     11  C   UNL A   1      34.630  19.499  24.931  1.00  0.00     0.037 C 
BRANCH   8  12
ATOM     12  C   UNL A   1      32.627  22.338  23.580  1.00  0.00     0.246 C 
ATOM     13  O   UNL A   1      32.926  22.702  22.436  1.00  0.00    -0.272 OA
BRANCH  12  14
ATOM     14  C   UNL A   1      31.664  23.178  24.440  1.00  0.00     0.186 C 
ATOM     15  C   UNL A   1      34.280  25.054  23.939  1.00  0.00     0.047 C 
ATOM     16  C   UNL A   1      32.897  25.305  24.537  1.00  0.00     0.087 C 
ATOM     17  C   UNL A   1      32.962  26.425  25.571  1.00  0.00     0.049 C 
ATOM     18  N   UNL A   1      32.353  24.180  25.264  1.00  0.00    -0.315 N 
ATOM     19  S   UNL A   1      31.653  25.602  23.219  1.00  0.00    -0.131 SA
ATOM     20  C   UNL A   1      31.870  26.090  26.569  1.00  0.00     0.103 C 
ATOM     21  C   UNL A   1      31.736  24.592  26.448  1.00  0.00     0.224 C 
ATOM     22  C   UNL A   1      30.743  24.024  23.537  1.00  0.00     0.107 C 
ATOM     23  O   UNL A   1      31.061  23.888  27.182  1.00  0.00    -0.275 OA
ENDBRANCH  12  14
ENDBRANCH   8  12
ENDBRANCH   4   7
ENDBRANCH   2   3
ENDBRANCH   1   2
BRANCH   1  24
ATOM     24  C   UNL A   1      39.071  23.439  26.885  1.00  0.00     0.118 C 
BRANCH  24  25
ATOM     25  N   UNL A   1      40.361  23.696  26.258  1.00  0.00    -0.352 N 
ATOM     26  C   UNL A   1      41.252  24.737  26.402  1.00  0.00     0.251 C 
ATOM     27  H   UNL A   1      40.646  23.004  25.619  1.00  0.00     0.163 HD
ATOM     28  O   UNL A   1      42.246  24.769  25.680  1.00  0.00    -0.269 OA
BRANCH  26  29
ATOM     29  C   UNL A   1      41.016  25.836  27.372  1.00  0.00     0.039 A 
ATOM     30  C   UNL A   1      40.113  25.624  28.421  1.00  0.00     0.014 A 
ATOM     31  C   UNL A   1      41.649  27.073  27.257  1.00  0.00     0.014 A 
ATOM     32  C   UNL A   1      39.929  26.608  29.400  1.00  0.00     0.010 A 
ATOM     33  C   UNL A   1      41.541  28.012  28.282  1.00  0.00     0.010 A 
ATOM     34  C   UNL A   1      40.682  27.791  29.368  1.00  0.00    -0.014 A 
BRANCH  34  35
ATOM     35  C   UNL A   1      40.600  28.803  30.457  1.00  0.00     0.031 A 
ATOM     36  C   UNL A   1      41.493  28.700  31.665  1.00  0.00     0.074 A 
ATOM     37  C   UNL A   1      39.656  29.766  30.407  1.00  0.00     0.049 A 
ATOM     38  N   UNL A   1      41.491  29.418  32.759  1.00  0.00    -0.248 NA
ATOM     39  C   UNL A   1      42.500  27.627  31.654  1.00  0.00     0.031 C 
ATOM     40  C   UNL A   1      38.687  29.950  29.324  1.00  0.00     0.029 A 
ATOM     41  N   UNL A   1      39.346  30.762  31.300  1.00  0.00    -0.354 N 
ATOM     42  C   UNL A   1      42.472  28.868  33.575  1.00  0.00     0.074 A 
ATOM     43  C   UNL A   1      43.014  27.727  32.870  1.00  0.00     0.031 C 
ATOM     44  C   UNL A   1      37.902  31.002  29.610  1.00  0.00     0.029 A 
ATOM     45  C   UNL A   1      38.285  31.544  30.909  1.00  0.00     0.049 A 
ATOM     46  H   UNL A   1      39.838  30.903  32.142  1.00  0.00     0.167 HD
ATOM     47  C   UNL A   1      42.899  29.282  34.794  1.00  0.00     0.031 A 
ATOM     48  C   UNL A   1      37.676  32.575  31.527  1.00  0.00     0.031 A 
ATOM     49  C   UNL A   1      42.373  30.425  35.491  1.00  0.00     0.049 A 
ATOM     50  C   UNL A   1      38.180  33.037  32.864  1.00  0.00     0.074 A 
ATOM     51  C   UNL A   1      42.777  30.955  36.705  1.00  0.00     0.029 A 
ATOM     52  N   UNL A   1      41.330  31.217  35.036  1.00  0.00    -0.354 N 
ATOM     53  N   UNL A   1      39.148  32.536  33.594  1.00  0.00    -0.248 NA
ATOM     54  C   UNL A   1      37.521  34.210  33.453  1.00  0.00     0.031 C 
ATOM     55  C   UNL A   1      41.953  32.048  37.000  1.00  0.00     0.029 A 
ATOM     56  C   UNL A   1      41.067  32.225  35.949  1.00  0.00     0.049 A 
ATOM     57  H   UNL A   1      40.847  31.082  34.189  1.00  0.00     0.167 HD
ATOM     58  C   UNL A   1      39.225  33.343  34.724  1.00  0.00     0.074 A 
ATOM     59  C   UNL A   1      38.217  34.374  34.572  1.00  0.00     0.031 C 
ATOM     60  C   UNL A   1      40.056  33.240  35.789  1.00  0.00     0.031 A 
BRANCH  47  61
ATOM     61  C   UNL A   1      43.994  28.477  35.444  1.00  0.00    -0.014 A 
ATOM     62  C   UNL A   1      43.691  27.392  36.288  1.00  0.00     0.010 A 
ATOM     63  C   UNL A   1      45.342  28.812  35.219  1.00  0.00     0.010 A 
ATOM     64  C   UNL A   1      44.710  26.700  36.946  1.00  0.00     0.020 A 
ATOM     65  C   UNL A   1      46.367  28.103  35.852  1.00  0.00     0.020 A 
ATOM     66  C   UNL A   1      46.041  27.068  36.733  1.00  0.00     0.054 A 
BRANCH  66  67
ATOM     67  S   UNL A   1      47.347  26.168  37.615  1.00  0.00     0.124 S 
ATOM     68  O   UNL A   1      48.250  25.808  36.524  1.00  0.00    -0.237 OA
ATOM     69  O   UNL A   1      47.858  27.170  38.546  1.00  0.00    -0.237 OA
ATOM     70  O   UNL A   1      46.639  25.050  38.233  1.00  0.00    -0.744 OA
ENDBRANCH  66  67
ENDBRANCH  47  61
BRANCH  48  71
ATOM     71  C   UNL A   1      36.527  33.248  30.863  1.00  0.00    -0.014 A 
ATOM     72  C   UNL A   1      35.270  33.294  31.491  1.00  0.00     0.010 A 
ATOM     73  C   UNL A   1      36.700  33.894  29.625  1.00  0.00     0.010 A 
ATOM     74  C   UNL A   1      34.206  33.977  30.893  1.00  0.00     0.020 A 
ATOM     75  C   UNL A   1      35.644  34.595  29.036  1.00  0.00     0.020 A 
ATOM     76  C   UNL A   1      34.401  34.628  29.672  1.00  0.00     0.054 A 
BRANCH  76  77
ATOM     77  S   UNL A   1      33.035  35.587  28.960  1.00  0.00     0.124 S 
ATOM     78  O   UNL A   1      32.258  35.934  30.146  1.00  0.00    -0.237 OA
ATOM     79  O   UNL A   1      33.730  36.697  28.311  1.00  0.00    -0.237 OA
ATOM     80  O   UNL A   1      32.398  34.643  28.044  1.00  0.00    -0.744 OA
ENDBRANCH  76  77
ENDBRANCH  48  71
BRANCH  60  81
ATOM     81  C   UNL A   1      39.928  34.279  36.870  1.00  0.00    -0.014 A 
ATOM     82  C   UNL A   1      40.598  35.510  36.777  1.00  0.00     0.010 A 
ATOM     83  C   UNL A   1      39.082  34.037  37.969  1.00  0.00     0.010 A 
ATOM     84  C   UNL A   1      40.445  36.474  37.777  1.00  0.00     0.020 A 
ATOM     85  C   UNL A   1      38.910  35.008  38.958  1.00  0.00     0.020 A 
ATOM     86  C   UNL A   1      39.603  36.216  38.863  1.00  0.00     0.054 A 
BRANCH  86  87
ATOM     87  S   UNL A   1      39.385  37.499  40.126  1.00  0.00     0.124 S 
ATOM     88  O   UNL A   1      40.731  38.054  40.231  1.00  0.00    -0.237 OA
ATOM     89  O   UNL A   1      38.387  38.380  39.522  1.00  0.00    -0.237 OA
ATOM     90  O   UNL A   1      38.922  36.757  41.296  1.00  0.00    -0.744 OA
ENDBRANCH  86  87
ENDBRANCH  60  81
ENDBRANCH  34  35
ENDBRANCH  26  29
ENDBRANCH  24  25
ENDBRANCH   1  24
TORSDOF 15
ENDMDL
MODEL 2
REMARK VINA RESULT:     -12.0      6.284     11.833
REMARK SMILES C[C@]12CCC(=O)N1[C@H](C(=O)N1CCC[C@@H]1C(=O)NCCCNC(=O)c1ccc(-c3c4nc(c(-c5ccc(S(=O)(=O)[O-])cc5)c5ccc([nH]5)c(-c5ccc(S(=O)(=O)[O-])cc5)c5nc(c(-c6ccc(S(=O)(=O)[O-])cc6)c6ccc3[nH]6)C=C5)C=C4)cc1)CS2
REMARK SMILES IDX 20 1 19 2 18 3 16 4 17 5 15 7 11 8 12 9 13 10 14 11 9 12
REMARK SMILES IDX 10 13 8 14 1 15 2 16 3 17 7 18 86 19 4 20 5 21 85 22 6 23
REMARK SMILES IDX 21 24 22 25 23 26 24 28 25 29 26 30 84 31 27 32 83 33 28 34
REMARK SMILES IDX 29 35 30 36 77 37 31 38 82 39 76 40 78 41 32 42 81 43 75 44
REMARK SMILES IDX 74 45 33 47 63 48 44 49 62 50 45 51 48 52 61 53 79 54 46 55
REMARK SMILES IDX 47 56 60 58 80 59 49 60 34 61 35 62 43 63 36 64 42 65 37 66
REMARK SMILES IDX 38 67 39 68 40 69 41 70 64 71 65 72 73 73 66 74 72 75 67 76
REMARK SMILES IDX 68 77 69 78 70 79 71 80 50 81 51 82 59 83 52 84 58 85 53 86
REMARK SMILES IDX 54 87 55 88 56 89 57 90
REMARK H PARENT 18 6 22 27 78 46 48 57
REMARK Flexibility Score: inf
ROOT
ATOM      1  C   UNL A   1      34.082  30.572  27.385  1.00  0.00     0.042 C 
ENDROOT
BRANCH   1   2
ATOM      2  C   UNL A   1      34.112  29.182  26.768  1.00  0.00     0.117 C 
BRANCH   2   3
ATOM      3  N   UNL A   1      34.144  29.143  25.314  1.00  0.00    -0.354 N 
ATOM      4  C   UNL A   1      33.110  29.062  24.414  1.00  0.00     0.242 C 
ATOM      5  O   UNL A   1      33.384  29.246  23.224  1.00  0.00    -0.273 OA
ATOM      6  H   UNL A   1      35.043  29.179  24.915  1.00  0.00     0.163 HD
BRANCH   4   7
ATOM      7  C   UNL A   1      31.686  28.642  24.869  1.00  0.00     0.174 C 
ATOM      8  N   UNL A   1      31.441  27.181  24.791  1.00  0.00    -0.329 N 
ATOM      9  C   UNL A   1      30.319  26.873  23.928  1.00  0.00     0.120 C 
ATOM     10  C   UNL A   1      30.173  28.077  23.039  1.00  0.00     0.024 C 
ATOM     11  C   UNL A   1      30.585  29.220  23.952  1.00  0.00     0.037 C 
BRANCH   8  12
ATOM     12  C   UNL A   1      32.015  26.140  25.491  1.00  0.00     0.246 C 
ATOM     13  O   UNL A   1      31.510  25.780  26.563  1.00  0.00    -0.272 OA
BRANCH  12  14
ATOM     14  C   UNL A   1      33.316  25.491  24.983  1.00  0.00     0.186 C 
ATOM     15  C   UNL A   1      30.986  23.251  24.578  1.00  0.00     0.047 C 
ATOM     16  C   UNL A   1      32.445  23.354  24.133  1.00  0.00     0.087 C 
ATOM     17  C   UNL A   1      33.054  21.962  23.992  1.00  0.00     0.049 C 
ATOM     18  N   UNL A   1      33.305  24.027  25.080  1.00  0.00    -0.315 N 
ATOM     19  S   UNL A   1      32.600  24.375  22.615  1.00  0.00    -0.131 SA
ATOM     20  C   UNL A   1      34.525  22.154  24.310  1.00  0.00     0.103 C 
ATOM     21  C   UNL A   1      34.532  23.369  25.206  1.00  0.00     0.224 C 
ATOM     22  C   UNL A   1      33.486  25.753  23.472  1.00  0.00     0.107 C 
ATOM     23  O   UNL A   1      35.506  23.787  25.810  1.00  0.00    -0.275 OA
ENDBRANCH  12  14
ENDBRANCH   8  12
ENDBRANCH   4   7
ENDBRANCH   2   3
ENDBRANCH   1   2
BRANCH   1  24
ATOM     24  C   UNL A   1      35.354  31.024  28.089  1.00  0.00     0.118 C 
BRANCH  24  25
ATOM     25  N   UNL A   1      35.302  30.922  29.542  1.00  0.00    -0.352 N 
ATOM     26  C   UNL A   1      36.274  30.614  30.468  1.00  0.00     0.251 C 
ATOM     27  H   UNL A   1      34.416  31.105  29.930  1.00  0.00     0.163 HD
ATOM     28  O   UNL A   1      35.952  30.501  31.649  1.00  0.00    -0.269 OA
BRANCH  26  29
ATOM     29  C   UNL A   1      37.683  30.374  30.068  1.00  0.00     0.039 A 
ATOM     30  C   UNL A   1      38.639  30.161  31.069  1.00  0.00     0.014 A 
ATOM     31  C   UNL A   1      38.084  30.372  28.732  1.00  0.00     0.014 A 
ATOM     32  C   UNL A   1      39.960  29.851  30.726  1.00  0.00     0.010 A 
ATOM     33  C   UNL A   1      39.373  29.967  28.388  1.00  0.00     0.010 A 
ATOM     34  C   UNL A   1      40.327  29.698  29.380  1.00  0.00    -0.014 A 
BRANCH  34  35
ATOM     35  C   UNL A   1      41.691  29.250  28.984  1.00  0.00     0.031 A 
ATOM     36  C   UNL A   1      42.825  30.237  28.904  1.00  0.00     0.074 A 
ATOM     37  C   UNL A   1      41.891  27.971  28.604  1.00  0.00     0.049 A 
ATOM     38  N   UNL A   1      44.049  30.057  28.474  1.00  0.00    -0.248 NA
ATOM     39  C   UNL A   1      42.537  31.614  29.334  1.00  0.00     0.031 C 
ATOM     40  C   UNL A   1      40.870  26.923  28.578  1.00  0.00     0.029 A 
ATOM     41  N   UNL A   1      43.024  27.341  28.149  1.00  0.00    -0.354 N 
ATOM     42  C   UNL A   1      44.665  31.300  28.554  1.00  0.00     0.074 A 
ATOM     43  C   UNL A   1      43.666  32.234  29.028  1.00  0.00     0.031 C 
ATOM     44  C   UNL A   1      41.424  25.778  28.145  1.00  0.00     0.029 A 
ATOM     45  C   UNL A   1      42.828  26.018  27.827  1.00  0.00     0.049 A 
ATOM     46  H   UNL A   1      43.894  27.794  28.060  1.00  0.00     0.167 HD
ATOM     47  C   UNL A   1      45.949  31.636  28.279  1.00  0.00     0.031 A 
ATOM     48  C   UNL A   1      43.675  25.100  27.322  1.00  0.00     0.031 A 
ATOM     49  C   UNL A   1      46.948  30.707  27.823  1.00  0.00     0.049 A 
ATOM     50  C   UNL A   1      45.101  25.482  27.048  1.00  0.00     0.074 A 
ATOM     51  C   UNL A   1      48.289  30.940  27.568  1.00  0.00     0.029 A 
ATOM     52  N   UNL A   1      46.718  29.366  27.556  1.00  0.00    -0.354 N 
ATOM     53  N   UNL A   1      45.678  26.652  27.184  1.00  0.00    -0.248 NA
ATOM     54  C   UNL A   1      45.993  24.419  26.566  1.00  0.00     0.031 C 
ATOM     55  C   UNL A   1      48.861  29.746  27.113  1.00  0.00     0.029 A 
ATOM     56  C   UNL A   1      47.887  28.760  27.128  1.00  0.00     0.049 A 
ATOM     57  H   UNL A   1      45.850  28.911  27.656  1.00  0.00     0.167 HD
ATOM     58  C   UNL A   1      47.007  26.463  26.820  1.00  0.00     0.074 A 
ATOM     59  C   UNL A   1      47.150  25.063  26.473  1.00  0.00     0.031 C 
ATOM     60  C   UNL A   1      48.015  27.367  26.778  1.00  0.00     0.031 A 
BRANCH  47  61
ATOM     61  C   UNL A   1      46.334  33.080  28.465  1.00  0.00    -0.014 A 
ATOM     62  C   UNL A   1      46.233  33.998  27.403  1.00  0.00     0.010 A 
ATOM     63  C   UNL A   1      46.809  33.526  29.712  1.00  0.00     0.010 A 
ATOM     64  C   UNL A   1      46.664  35.317  27.563  1.00  0.00     0.020 A 
ATOM     65  C   UNL A   1      47.213  34.854  29.885  1.00  0.00     0.020 A 
ATOM     66  C   UNL A   1      47.163  35.733  28.801  1.00  0.00     0.054 A 
BRANCH  66  67
ATOM     67  S   UNL A   1      47.735  37.446  28.980  1.00  0.00     0.124 S 
ATOM     68  O   UNL A   1      49.179  37.296  28.818  1.00  0.00    -0.237 OA
ATOM     69  O   UNL A   1      47.049  38.132  27.888  1.00  0.00    -0.237 OA
ATOM     70  O   UNL A   1      47.293  37.819  30.321  1.00  0.00    -0.744 OA
ENDBRANCH  66  67
ENDBRANCH  47  61
BRANCH  48  71
ATOM     71  C   UNL A   1      43.185  23.720  27.063  1.00  0.00    -0.014 A 
ATOM     72  C   UNL A   1      42.826  23.324  25.763  1.00  0.00     0.010 A 
ATOM     73  C   UNL A   1      43.129  22.778  28.107  1.00  0.00     0.010 A 
ATOM     74  C   UNL A   1      42.420  22.009  25.510  1.00  0.00     0.020 A 
ATOM     75  C   UNL A   1      42.745  21.458  27.854  1.00  0.00     0.020 A 
ATOM     76  C   UNL A   1      42.389  21.083  26.556  1.00  0.00     0.054 A 
BRANCH  76  77
ATOM     77  S   UNL A   1      41.952  19.360  26.189  1.00  0.00     0.124 S 
ATOM     78  O   UNL A   1      42.325  18.683  27.427  1.00  0.00    -0.237 OA
ATOM     79  O   UNL A   1      40.518  19.447  25.921  1.00  0.00    -0.237 OA
ATOM     80  O   UNL A   1      42.775  19.041  25.025  1.00  0.00    -0.744 OA
ENDBRANCH  76  77
ENDBRANCH  48  71
BRANCH  60  81
ATOM     81  C   UNL A   1      49.373  26.871  26.361  1.00  0.00    -0.014 A 
ATOM     82  C   UNL A   1      50.189  26.153  27.251  1.00  0.00     0.010 A 
ATOM     83  C   UNL A   1      49.813  27.081  25.040  1.00  0.00     0.010 A 
ATOM     84  C   UNL A   1      51.435  25.675  26.837  1.00  0.00     0.020 A 
ATOM     85  C   UNL A   1      51.048  26.585  24.617  1.00  0.00     0.020 A 
ATOM     86  C   UNL A   1      51.858  25.896  25.522  1.00  0.00     0.054 A 
BRANCH  86  87
ATOM     87  S   UNL A   1      53.459  25.228  24.993  1.00  0.00     0.124 S 
ATOM     88  O   UNL A   1      53.303  23.805  25.278  1.00  0.00    -0.237 OA
ATOM     89  O   UNL A   1      53.506  25.584  23.576  1.00  0.00    -0.237 OA
ATOM     90  O   UNL A   1      54.423  25.932  25.836  1.00  0.00    -0.744 OA
ENDBRANCH  86  87
ENDBRANCH  60  81
ENDBRANCH  34  35
ENDBRANCH  26  29
ENDBRANCH  24  25
ENDBRANCH   1  24
TORSDOF 15
ENDMDL
MODEL 3
REMARK VINA RESULT:     -11.8      6.078     10.709
REMARK SMILES C[C@]12CCC(=O)N1[C@H](C(=O)N1CCC[C@@H]1C(=O)NCCCNC(=O)c1ccc(-c3c4nc(c(-c5ccc(S(=O)(=O)[O-])cc5)c5ccc([nH]5)c(-c5ccc(S(=O)(=O)[O-])cc5)c5nc(c(-c6ccc(S(=O)(=O)[O-])cc6)c6ccc3[nH]6)C=C5)C=C4)cc1)CS2
REMARK SMILES IDX 20 1 19 2 18 3 16 4 17 5 15 7 11 8 12 9 13 10 14 11 9 12
REMARK SMILES IDX 10 13 8 14 1 15 2 16 3 17 7 18 86 19 4 20 5 21 85 22 6 23
REMARK SMILES IDX 21 24 22 25 23 26 24 28 25 29 26 30 84 31 27 32 83 33 28 34
REMARK SMILES IDX 29 35 30 36 77 37 31 38 82 39 76 40 78 41 32 42 81 43 75 44
REMARK SMILES IDX 74 45 33 47 63 48 44 49 62 50 45 51 48 52 61 53 79 54 46 55
REMARK SMILES IDX 47 56 60 58 80 59 49 60 34 61 35 62 43 63 36 64 42 65 37 66
REMARK SMILES IDX 38 67 39 68 40 69 41 70 64 71 65 72 73 73 66 74 72 75 67 76
REMARK SMILES IDX 68 77 69 78 70 79 71 80 50 81 51 82 59 83 52 84 58 85 53 86
REMARK SMILES IDX 54 87 55 88 56 89 57 90
REMARK H PARENT 18 6 22 27 78 46 48 57
REMARK Flexibility Score: inf
ROOT
ATOM      1  C   UNL A   1      38.108  20.570  25.058  1.00  0.00     0.042 C 
ENDROOT
BRANCH   1   2
ATOM      2  C   UNL A   1      37.318  21.847  24.816  1.00  0.00     0.117 C 
BRANCH   2   3
ATOM      3  N   UNL A   1      36.186  22.061  25.705  1.00  0.00    -0.354 N 
ATOM      4  C   UNL A   1      34.955  21.452  25.723  1.00  0.00     0.242 C 
ATOM      5  O   UNL A   1      34.235  21.667  26.703  1.00  0.00    -0.273 OA
ATOM      6  H   UNL A   1      36.321  22.747  26.397  1.00  0.00     0.163 HD
BRANCH   4   7
ATOM      7  C   UNL A   1      34.456  20.625  24.507  1.00  0.00     0.174 C 
ATOM      8  N   UNL A   1      33.065  20.943  24.100  1.00  0.00    -0.329 N 
ATOM      9  C   UNL A   1      32.213  19.772  24.149  1.00  0.00     0.120 C 
ATOM     10  C   UNL A   1      32.911  18.825  25.084  1.00  0.00     0.024 C 
ATOM     11  C   UNL A   1      34.380  19.113  24.819  1.00  0.00     0.037 C 
BRANCH   8  12
ATOM     12  C   UNL A   1      32.529  22.104  23.581  1.00  0.00     0.246 C 
ATOM     13  O   UNL A   1      32.837  22.454  22.434  1.00  0.00    -0.272 OA
BRANCH  12  14
ATOM     14  C   UNL A   1      31.623  22.994  24.452  1.00  0.00     0.186 C 
ATOM     15  C   UNL A   1      34.359  24.698  23.983  1.00  0.00     0.047 C 
ATOM     16  C   UNL A   1      32.994  25.032  24.582  1.00  0.00     0.087 C 
ATOM     17  C   UNL A   1      33.131  26.131  25.633  1.00  0.00     0.049 C 
ATOM     18  N   UNL A   1      32.375  23.935  25.291  1.00  0.00    -0.315 N 
ATOM     19  S   UNL A   1      31.776  25.430  23.266  1.00  0.00    -0.131 SA
ATOM     20  C   UNL A   1      32.017  25.854  26.624  1.00  0.00     0.103 C 
ATOM     21  C   UNL A   1      31.783  24.370  26.480  1.00  0.00     0.224 C 
ATOM     22  C   UNL A   1      30.763  23.912  23.560  1.00  0.00     0.107 C 
ATOM     23  O   UNL A   1      31.061  23.702  27.203  1.00  0.00    -0.275 OA
ENDBRANCH  12  14
ENDBRANCH   8  12
ENDBRANCH   4   7
ENDBRANCH   2   3
ENDBRANCH   1   2
BRANCH   1  24
ATOM     24  C   UNL A   1      39.214  20.650  26.102  1.00  0.00     0.118 C 
BRANCH  24  25
ATOM     25  N   UNL A   1      40.204  19.586  26.005  1.00  0.00    -0.352 N 
ATOM     26  C   UNL A   1      41.577  19.607  26.117  1.00  0.00     0.251 C 
ATOM     27  H   UNL A   1      39.826  18.694  25.829  1.00  0.00     0.163 HD
ATOM     28  O   UNL A   1      42.205  18.572  25.901  1.00  0.00    -0.269 OA
BRANCH  26  29
ATOM     29  C   UNL A   1      42.313  20.853  26.446  1.00  0.00     0.039 A 
ATOM     30  C   UNL A   1      42.776  21.658  25.398  1.00  0.00     0.014 A 
ATOM     31  C   UNL A   1      42.573  21.233  27.763  1.00  0.00     0.014 A 
ATOM     32  C   UNL A   1      43.401  22.880  25.673  1.00  0.00     0.010 A 
ATOM     33  C   UNL A   1      43.106  22.493  28.036  1.00  0.00     0.010 A 
ATOM     34  C   UNL A   1      43.524  23.334  26.994  1.00  0.00    -0.014 A 
BRANCH  34  35
ATOM     35  C   UNL A   1      44.072  24.680  27.315  1.00  0.00     0.031 A 
ATOM     36  C   UNL A   1      43.155  25.801  27.728  1.00  0.00     0.074 A 
ATOM     37  C   UNL A   1      45.388  24.926  27.144  1.00  0.00     0.049 A 
ATOM     38  N   UNL A   1      43.432  27.062  27.937  1.00  0.00    -0.248 NA
ATOM     39  C   UNL A   1      41.732  25.463  27.895  1.00  0.00     0.031 C 
ATOM     40  C   UNL A   1      46.383  23.950  26.694  1.00  0.00     0.029 A 
ATOM     41  N   UNL A   1      46.112  26.081  27.313  1.00  0.00    -0.354 N 
ATOM     42  C   UNL A   1      42.219  27.673  28.232  1.00  0.00     0.074 A 
ATOM     43  C   UNL A   1      41.198  26.653  28.127  1.00  0.00     0.031 C 
ATOM     44  C   UNL A   1      47.587  24.542  26.638  1.00  0.00     0.029 A 
ATOM     45  C   UNL A   1      47.446  25.946  27.009  1.00  0.00     0.049 A 
ATOM     46  H   UNL A   1      45.712  26.927  27.622  1.00  0.00     0.167 HD
ATOM     47  C   UNL A   1      41.974  28.961  28.579  1.00  0.00     0.031 A 
ATOM     48  C   UNL A   1      48.447  26.849  27.014  1.00  0.00     0.031 A 
ATOM     49  C   UNL A   1      42.988  29.974  28.700  1.00  0.00     0.049 A 
ATOM     50  C   UNL A   1      48.161  28.264  27.427  1.00  0.00     0.074 A 
ATOM     51  C   UNL A   1      42.845  31.293  29.097  1.00  0.00     0.029 A 
ATOM     52  N   UNL A   1      44.334  29.782  28.428  1.00  0.00    -0.354 N 
ATOM     53  N   UNL A   1      47.014  28.808  27.756  1.00  0.00    -0.248 NA
ATOM     54  C   UNL A   1      49.306  29.184  27.481  1.00  0.00     0.031 C 
ATOM     55  C   UNL A   1      44.102  31.907  29.031  1.00  0.00     0.029 A 
ATOM     56  C   UNL A   1      45.032  30.959  28.637  1.00  0.00     0.049 A 
ATOM     57  H   UNL A   1      44.734  28.932  28.131  1.00  0.00     0.167 HD
ATOM     58  C   UNL A   1      47.301  30.132  28.074  1.00  0.00     0.074 A 
ATOM     59  C   UNL A   1      48.732  30.300  27.912  1.00  0.00     0.031 C 
ATOM     60  C   UNL A   1      46.455  31.115  28.465  1.00  0.00     0.031 A 
BRANCH  47  61
ATOM     61  C   UNL A   1      40.539  29.336  28.846  1.00  0.00    -0.014 A 
ATOM     62  C   UNL A   1      40.073  29.522  30.161  1.00  0.00     0.010 A 
ATOM     63  C   UNL A   1      39.643  29.495  27.773  1.00  0.00     0.010 A 
ATOM     64  C   UNL A   1      38.724  29.795  30.403  1.00  0.00     0.020 A 
ATOM     65  C   UNL A   1      38.298  29.798  28.010  1.00  0.00     0.020 A 
ATOM     66  C   UNL A   1      37.843  29.918  29.324  1.00  0.00     0.054 A 
BRANCH  66  67
ATOM     67  S   UNL A   1      36.092  30.252  29.663  1.00  0.00     0.124 S 
ATOM     68  O   UNL A   1      35.436  29.547  28.565  1.00  0.00    -0.237 OA
ATOM     69  O   UNL A   1      35.901  29.666  30.988  1.00  0.00    -0.237 OA
ATOM     70  O   UNL A   1      36.001  31.709  29.611  1.00  0.00    -0.744 OA
ENDBRANCH  66  67
ENDBRANCH  47  61
BRANCH  48  71
ATOM     71  C   UNL A   1      49.818  26.421  26.629  1.00  0.00    -0.014 A 
ATOM     72  C   UNL A   1      50.699  25.904  27.593  1.00  0.00     0.010 A 
ATOM     73  C   UNL A   1      50.227  26.476  25.284  1.00  0.00     0.010 A 
ATOM     74  C   UNL A   1      51.968  25.448  27.220  1.00  0.00     0.020 A 
ATOM     75  C   UNL A   1      51.486  26.001  24.904  1.00  0.00     0.020 A 
ATOM     76  C   UNL A   1      52.351  25.493  25.876  1.00  0.00     0.054 A 
BRANCH  76  77
ATOM     77  S   UNL A   1      53.963  24.809  25.399  1.00  0.00     0.124 S 
ATOM     78  O   UNL A   1      53.620  23.430  25.066  1.00  0.00    -0.237 OA
ATOM     79  O   UNL A   1      54.346  25.657  24.273  1.00  0.00    -0.237 OA
ATOM     80  O   UNL A   1      54.775  24.982  26.602  1.00  0.00    -0.744 OA
ENDBRANCH  76  77
ENDBRANCH  48  71
BRANCH  60  81
ATOM     81  C   UNL A   1      47.054  32.463  28.766  1.00  0.00    -0.014 A 
ATOM     82  C   UNL A   1      47.408  32.823  30.077  1.00  0.00     0.010 A 
ATOM     83  C   UNL A   1      47.314  33.358  27.712  1.00  0.00     0.010 A 
ATOM     84  C   UNL A   1      47.989  34.068  30.334  1.00  0.00     0.020 A 
ATOM     85  C   UNL A   1      47.915  34.594  27.963  1.00  0.00     0.020 A 
ATOM     86  C   UNL A   1      48.237  34.947  29.275  1.00  0.00     0.054 A 
BRANCH  86  87
ATOM     87  S   UNL A   1      49.033  36.539  29.626  1.00  0.00     0.124 S 
ATOM     88  O   UNL A   1      50.058  36.159  30.592  1.00  0.00    -0.237 OA
ATOM     89  O   UNL A   1      49.527  36.949  28.313  1.00  0.00    -0.237 OA
ATOM     90  O   UNL A   1      47.946  37.359  30.157  1.00  0.00    -0.744 OA
ENDBRANCH  86  87
ENDBRANCH  60  81
ENDBRANCH  34  35
ENDBRANCH  26  29
ENDBRANCH  24  25
ENDBRANCH   1  24
TORSDOF 15
ENDMDL
