MODEL 1
REMARK VINA RESULT:     -11.2      0.000      0.000
REMARK SMILES CCOC(=O)C1=NN(c2ccc(C)cc2Cl)[C@@](C)(C(=O)NCCCNC(=O)c2ccc(-c3c4nc(c(-c5ccc(S(=O)(=O)[O-])cc5)c5ccc([nH]5)c(-c5ccc(S(=O)(=O)[O-])cc5)c5nc(c(-c6ccc(S(=O)(=O)[O-])cc6)c6ccc3[nH]6)C=C5)C=C4)cc2)C1
REMARK SMILES IDX 23 1 22 2 21 3 19 4 20 5 17 7 6 8 7 9 88 10 8 11 18 12 4 13
REMARK SMILES IDX 5 14 3 15 2 16 1 17 9 18 10 19 15 20 11 21 14 22 16 23 12 24
REMARK SMILES IDX 13 25 24 26 25 27 26 28 27 30 28 31 29 32 87 33 30 34 86 35
REMARK SMILES IDX 31 36 32 37 33 38 80 39 34 40 85 41 79 42 81 43 35 44 84 45
REMARK SMILES IDX 78 46 77 47 36 49 66 50 47 51 65 52 48 53 51 54 64 55 82 56
REMARK SMILES IDX 49 57 50 58 63 60 83 61 52 62 37 63 38 64 46 65 39 66 45 67
REMARK SMILES IDX 40 68 41 69 42 70 43 71 44 72 67 73 68 74 76 75 69 76 75 77
REMARK SMILES IDX 70 78 71 79 72 80 73 81 74 82 53 83 54 84 62 85 55 86 61 87
REMARK SMILES IDX 56 88 57 89 58 90 59 91 60 92
REMARK H PARENT 21 6 25 29 81 48 51 59
REMARK Flexibility Score: inf
ROOT
ATOM      1  C   UNL A   1      36.076  23.727  24.624  1.00  0.00     0.042 C 
ENDROOT
BRANCH   1   2
ATOM      2  C   UNL A   1      34.577  24.015  24.576  1.00  0.00     0.117 C 
BRANCH   2   3
ATOM      3  N   UNL A   1      34.270  25.319  24.020  1.00  0.00    -0.354 N 
ATOM      4  C   UNL A   1      33.214  26.167  24.126  1.00  0.00     0.248 C 
ATOM      5  O   UNL A   1      33.330  27.199  23.449  1.00  0.00    -0.272 OA
ATOM      6  H   UNL A   1      34.983  25.664  23.436  1.00  0.00     0.163 HD
BRANCH   4   7
ATOM      7  C   UNL A   1      31.957  25.936  25.022  1.00  0.00     0.144 C 
ATOM      8  C   UNL A   1      30.063  26.672  23.884  1.00  0.00     0.149 C 
ATOM      9  N   UNL A   1      30.039  25.386  23.728  1.00  0.00    -0.169 NA
ATOM     10  C   UNL A   1      31.047  27.191  24.874  1.00  0.00     0.106 C 
ATOM     11  N   UNL A   1      31.064  24.881  24.482  1.00  0.00    -0.248 N 
ATOM     12  C   UNL A   1      32.262  25.792  26.512  1.00  0.00     0.048 C 
BRANCH   8  13
ATOM     13  C   UNL A   1      29.127  27.630  23.191  1.00  0.00     0.354 C 
ATOM     14  O   UNL A   1      27.929  27.625  23.418  1.00  0.00    -0.245 OA
BRANCH  13  15
ATOM     15  O   UNL A   1      29.792  28.398  22.307  1.00  0.00    -0.461 OA
BRANCH  15  16
ATOM     16  C   UNL A   1      29.308  29.737  22.158  1.00  0.00     0.230 C 
ATOM     17  C   UNL A   1      29.432  30.504  23.462  1.00  0.00     0.049 C 
ENDBRANCH  15  16
ENDBRANCH  13  15
ENDBRANCH   8  13
BRANCH  11  18
ATOM     18  C   UNL A   1      31.381  23.534  24.324  1.00  0.00     0.079 A 
ATOM     19  C   UNL A   1      31.783  23.072  23.060  1.00  0.00     0.030 A 
ATOM     20  C   UNL A   1      31.383  22.598  25.380  1.00  0.00     0.066 A 
ATOM     21  C   UNL A   1      32.143  21.737  22.841  1.00  0.00     0.006 A 
ATOM     22  C   UNL A   1      31.757  21.263  25.166  1.00  0.00     0.026 A 
ATOM     23  Cl  UNL A   1      30.822  22.999  26.972  1.00  0.00    -0.082 Cl
ATOM     24  C   UNL A   1      32.141  20.823  23.896  1.00  0.00    -0.049 A 
ATOM     25  C   UNL A   1      32.486  19.380  23.668  1.00  0.00     0.044 C 
ENDBRANCH  11  18
ENDBRANCH   4   7
ENDBRANCH   2   3
ENDBRANCH   1   2
BRANCH   1  26
ATOM     26  C   UNL A   1      36.683  23.605  26.018  1.00  0.00     0.118 C 
BRANCH  26  27
ATOM     27  N   UNL A   1      37.802  22.680  26.066  1.00  0.00    -0.352 N 
ATOM     28  C   UNL A   1      39.106  22.916  26.425  1.00  0.00     0.251 C 
ATOM     29  H   UNL A   1      37.597  21.754  25.802  1.00  0.00     0.163 HD
ATOM     30  O   UNL A   1      39.950  22.041  26.244  1.00  0.00    -0.269 OA
BRANCH  28  31
ATOM     31  C   UNL A   1      39.508  24.219  27.005  1.00  0.00     0.039 A 
ATOM     32  C   UNL A   1      40.148  25.150  26.180  1.00  0.00     0.014 A 
ATOM     33  C   UNL A   1      39.300  24.512  28.357  1.00  0.00     0.014 A 
ATOM     34  C   UNL A   1      40.531  26.392  26.693  1.00  0.00     0.010 A 
ATOM     35  C   UNL A   1      39.656  25.764  28.862  1.00  0.00     0.010 A 
ATOM     36  C   UNL A   1      40.273  26.714  28.034  1.00  0.00    -0.014 A 
BRANCH  36  37
ATOM     37  C   UNL A   1      40.670  28.028  28.593  1.00  0.00     0.031 A 
ATOM     38  C   UNL A   1      42.083  28.261  29.038  1.00  0.00     0.074 A 
ATOM     39  C   UNL A   1      39.757  29.005  28.744  1.00  0.00     0.049 A 
ATOM     40  N   UNL A   1      42.576  29.266  29.716  1.00  0.00    -0.248 NA
ATOM     41  C   UNL A   1      43.063  27.218  28.698  1.00  0.00     0.031 C 
ATOM     42  C   UNL A   1      38.343  28.915  28.377  1.00  0.00     0.029 A 
ATOM     43  N   UNL A   1      39.891  30.272  29.253  1.00  0.00    -0.354 N 
ATOM     44  C   UNL A   1      43.905  28.942  29.953  1.00  0.00     0.074 A 
ATOM     45  C   UNL A   1      44.154  27.673  29.299  1.00  0.00     0.031 C 
ATOM     46  C   UNL A   1      37.744  30.086  28.653  1.00  0.00     0.029 A 
ATOM     47  C   UNL A   1      38.727  31.000  29.230  1.00  0.00     0.049 A 
ATOM     48  H   UNL A   1      40.741  30.626  29.601  1.00  0.00     0.167 HD
ATOM     49  C   UNL A   1      44.824  29.622  30.680  1.00  0.00     0.031 A 
ATOM     50  C   UNL A   1      38.479  32.261  29.629  1.00  0.00     0.031 A 
ATOM     51  C   UNL A   1      44.595  30.900  31.293  1.00  0.00     0.049 A 
ATOM     52  C   UNL A   1      39.579  33.087  30.225  1.00  0.00     0.074 A 
ATOM     53  C   UNL A   1      45.414  31.621  32.144  1.00  0.00     0.029 A 
ATOM     54  N   UNL A   1      43.467  31.675  31.074  1.00  0.00    -0.354 N 
ATOM     55  N   UNL A   1      40.794  32.716  30.546  1.00  0.00    -0.248 NA
ATOM     56  C   UNL A   1      39.278  34.498  30.502  1.00  0.00     0.031 C 
ATOM     57  C   UNL A   1      44.797  32.855  32.404  1.00  0.00     0.029 A 
ATOM     58  C   UNL A   1      43.594  32.893  31.718  1.00  0.00     0.049 A 
ATOM     59  H   UNL A   1      42.688  31.399  30.538  1.00  0.00     0.167 HD
ATOM     60  C   UNL A   1      41.399  33.844  31.087  1.00  0.00     0.074 A 
ATOM     61  C   UNL A   1      40.427  34.917  31.018  1.00  0.00     0.031 C 
ATOM     62  C   UNL A   1      42.640  33.964  31.617  1.00  0.00     0.031 A 
BRANCH  49  63
ATOM     63  C   UNL A   1      46.145  28.941  30.872  1.00  0.00    -0.014 A 
ATOM     64  C   UNL A   1      46.358  28.080  31.961  1.00  0.00     0.010 A 
ATOM     65  C   UNL A   1      47.204  29.224  29.991  1.00  0.00     0.010 A 
ATOM     66  C   UNL A   1      47.630  27.547  32.196  1.00  0.00     0.020 A 
ATOM     67  C   UNL A   1      48.474  28.691  30.222  1.00  0.00     0.020 A 
ATOM     68  C   UNL A   1      48.683  27.876  31.337  1.00  0.00     0.054 A 
BRANCH  68  69
ATOM     69  S   UNL A   1      50.354  27.248  31.658  1.00  0.00     0.124 S 
ATOM     70  O   UNL A   1      51.185  28.332  31.141  1.00  0.00    -0.237 OA
ATOM     71  O   UNL A   1      50.384  27.076  33.109  1.00  0.00    -0.237 OA
ATOM     72  O   UNL A   1      50.391  26.007  30.888  1.00  0.00    -0.744 OA
ENDBRANCH  68  69
ENDBRANCH  49  63
BRANCH  50  73
ATOM     73  C   UNL A   1      37.118  32.820  29.449  1.00  0.00    -0.014 A 
ATOM     74  C   UNL A   1      36.228  32.864  30.536  1.00  0.00     0.010 A 
ATOM     75  C   UNL A   1      36.733  33.369  28.215  1.00  0.00     0.010 A 
ATOM     76  C   UNL A   1      34.975  33.466  30.397  1.00  0.00     0.020 A 
ATOM     77  C   UNL A   1      35.482  33.974  28.075  1.00  0.00     0.020 A 
ATOM     78  C   UNL A   1      34.611  34.020  29.168  1.00  0.00     0.054 A 
BRANCH  78  79
ATOM     79  S   UNL A   1      33.031  34.897  29.003  1.00  0.00     0.124 S 
ATOM     80  O   UNL A   1      32.508  34.838  30.365  1.00  0.00    -0.237 OA
ATOM     81  O   UNL A   1      33.430  36.224  28.538  1.00  0.00    -0.237 OA
ATOM     82  O   UNL A   1      32.317  34.092  28.015  1.00  0.00    -0.744 OA
ENDBRANCH  78  79
ENDBRANCH  50  73
BRANCH  62  83
ATOM     83  C   UNL A   1      43.019  35.311  32.156  1.00  0.00    -0.014 A 
ATOM     84  C   UNL A   1      42.626  35.692  33.451  1.00  0.00     0.010 A 
ATOM     85  C   UNL A   1      43.781  36.195  31.375  1.00  0.00     0.010 A 
ATOM     86  C   UNL A   1      42.973  36.949  33.952  1.00  0.00     0.020 A 
ATOM     87  C   UNL A   1      44.129  37.454  31.873  1.00  0.00     0.020 A 
ATOM     88  C   UNL A   1      43.712  37.828  33.154  1.00  0.00     0.054 A 
BRANCH  88  89
ATOM     89  S   UNL A   1      44.182  39.453  33.811  1.00  0.00     0.124 S 
ATOM     90  O   UNL A   1      44.981  40.001  32.718  1.00  0.00    -0.237 OA
ATOM     91  O   UNL A   1      42.896  40.108  34.038  1.00  0.00    -0.237 OA
ATOM     92  O   UNL A   1      44.925  39.122  35.025  1.00  0.00    -0.744 OA
ENDBRANCH  88  89
ENDBRANCH  62  83
ENDBRANCH  36  37
ENDBRANCH  28  31
ENDBRANCH  26  27
ENDBRANCH   1  26
TORSDOF 17
ENDMDL
MODEL 2
REMARK VINA RESULT:     -11.2      4.122      9.255
REMARK SMILES CCOC(=O)C1=NN(c2ccc(C)cc2Cl)[C@@](C)(C(=O)NCCCNC(=O)c2ccc(-c3c4nc(c(-c5ccc(S(=O)(=O)[O-])cc5)c5ccc([nH]5)c(-c5ccc(S(=O)(=O)[O-])cc5)c5nc(c(-c6ccc(S(=O)(=O)[O-])cc6)c6ccc3[nH]6)C=C5)C=C4)cc2)C1
REMARK SMILES IDX 23 1 22 2 21 3 19 4 20 5 17 7 6 8 7 9 88 10 8 11 18 12 4 13
REMARK SMILES IDX 5 14 3 15 2 16 1 17 9 18 10 19 15 20 11 21 14 22 16 23 12 24
REMARK SMILES IDX 13 25 24 26 25 27 26 28 27 30 28 31 29 32 87 33 30 34 86 35
REMARK SMILES IDX 31 36 32 37 33 38 80 39 34 40 85 41 79 42 81 43 35 44 84 45
REMARK SMILES IDX 78 46 77 47 36 49 66 50 47 51 65 52 48 53 51 54 64 55 82 56
REMARK SMILES IDX 49 57 50 58 63 60 83 61 52 62 37 63 38 64 46 65 39 66 45 67
REMARK SMILES IDX 40 68 41 69 42 70 43 71 44 72 67 73 68 74 76 75 69 76 75 77
REMARK SMILES IDX 70 78 71 79 72 80 73 81 74 82 53 83 54 84 62 85 55 86 61 87
REMARK SMILES IDX 56 88 57 89 58 90 59 91 60 92
REMARK H PARENT 21 6 25 29 81 48 51 59
REMARK Flexibility Score: inf
ROOT
ATOM      1  C   UNL A   1      34.477  30.548  27.699  1.00  0.00     0.042 C 
ENDROOT
BRANCH   1   2
ATOM      2  C   UNL A   1      34.548  29.171  27.041  1.00  0.00     0.117 C 
BRANCH   2   3
ATOM      3  N   UNL A   1      34.379  29.223  25.602  1.00  0.00    -0.354 N 
ATOM      4  C   UNL A   1      33.404  28.813  24.749  1.00  0.00     0.248 C 
ATOM      5  O   UNL A   1      33.662  29.021  23.555  1.00  0.00    -0.272 OA
ATOM      6  H   UNL A   1      35.138  29.648  25.141  1.00  0.00     0.163 HD
BRANCH   4   7
ATOM      7  C   UNL A   1      32.051  28.160  25.172  1.00  0.00     0.144 C 
ATOM      8  C   UNL A   1      30.514  28.394  23.438  1.00  0.00     0.149 C 
ATOM      9  N   UNL A   1      30.929  27.172  23.323  1.00  0.00    -0.169 NA
ATOM     10  C   UNL A   1      30.911  29.102  24.688  1.00  0.00     0.106 C 
ATOM     11  N   UNL A   1      31.747  26.933  24.395  1.00  0.00    -0.248 N 
ATOM     12  C   UNL A   1      31.873  28.000  26.681  1.00  0.00     0.048 C 
BRANCH   8  13
ATOM     13  C   UNL A   1      29.620  29.086  22.441  1.00  0.00     0.354 C 
ATOM     14  O   UNL A   1      30.079  29.662  21.468  1.00  0.00    -0.245 OA
BRANCH  13  15
ATOM     15  O   UNL A   1      28.330  29.007  22.815  1.00  0.00    -0.461 OA
BRANCH  15  16
ATOM     16  C   UNL A   1      27.536  30.172  22.565  1.00  0.00     0.230 C 
ATOM     17  C   UNL A   1      27.775  31.227  23.630  1.00  0.00     0.049 C 
ENDBRANCH  15  16
ENDBRANCH  13  15
ENDBRANCH   8  13
BRANCH  11  18
ATOM     18  C   UNL A   1      32.486  25.753  24.395  1.00  0.00     0.079 A 
ATOM     19  C   UNL A   1      33.599  25.645  23.544  1.00  0.00     0.030 A 
ATOM     20  C   UNL A   1      32.222  24.661  25.248  1.00  0.00     0.066 A 
ATOM     21  C   UNL A   1      34.400  24.497  23.518  1.00  0.00     0.006 A 
ATOM     22  C   UNL A   1      33.032  23.515  25.232  1.00  0.00     0.026 A 
ATOM     23  Cl  UNL A   1      30.830  24.610  26.283  1.00  0.00    -0.082 Cl
ATOM     24  C   UNL A   1      34.128  23.425  24.368  1.00  0.00    -0.049 A 
ATOM     25  C   UNL A   1      34.953  22.173  24.322  1.00  0.00     0.044 C 
ENDBRANCH  11  18
ENDBRANCH   4   7
ENDBRANCH   2   3
ENDBRANCH   1   2
BRANCH   1  26
ATOM     26  C   UNL A   1      35.716  30.975  28.478  1.00  0.00     0.118 C 
BRANCH  26  27
ATOM     27  N   UNL A   1      35.637  30.640  29.889  1.00  0.00    -0.352 N 
ATOM     28  C   UNL A   1      36.561  30.006  30.682  1.00  0.00     0.251 C 
ATOM     29  H   UNL A   1      34.802  30.905  30.340  1.00  0.00     0.163 HD
ATOM     30  O   UNL A   1      36.246  29.663  31.820  1.00  0.00    -0.269 OA
BRANCH  28  31
ATOM     31  C   UNL A   1      37.921  29.712  30.173  1.00  0.00     0.039 A 
ATOM     32  C   UNL A   1      38.177  29.890  28.809  1.00  0.00     0.014 A 
ATOM     33  C   UNL A   1      38.925  29.221  31.013  1.00  0.00     0.014 A 
ATOM     34  C   UNL A   1      39.451  29.630  28.298  1.00  0.00     0.010 A 
ATOM     35  C   UNL A   1      40.206  28.990  30.508  1.00  0.00     0.010 A 
ATOM     36  C   UNL A   1      40.479  29.194  29.147  1.00  0.00    -0.014 A 
BRANCH  36  37
ATOM     37  C   UNL A   1      41.837  28.917  28.621  1.00  0.00     0.031 A 
ATOM     38  C   UNL A   1      42.161  27.570  28.046  1.00  0.00     0.074 A 
ATOM     39  C   UNL A   1      42.798  29.856  28.695  1.00  0.00     0.049 A 
ATOM     40  N   UNL A   1      43.327  27.080  27.711  1.00  0.00    -0.248 NA
ATOM     41  C   UNL A   1      41.033  26.648  27.845  1.00  0.00     0.031 C 
ATOM     42  C   UNL A   1      42.634  31.202  29.247  1.00  0.00     0.029 A 
ATOM     43  N   UNL A   1      44.111  29.813  28.300  1.00  0.00    -0.354 N 
ATOM     44  C   UNL A   1      43.086  25.765  27.333  1.00  0.00     0.074 A 
ATOM     45  C   UNL A   1      41.656  25.554  27.430  1.00  0.00     0.031 C 
ATOM     46  C   UNL A   1      43.799  31.864  29.136  1.00  0.00     0.029 A 
ATOM     47  C   UNL A   1      44.791  30.986  28.521  1.00  0.00     0.049 A 
ATOM     48  H   UNL A   1      44.527  29.018  27.896  1.00  0.00     0.167 HD
ATOM     49  C   UNL A   1      43.978  24.811  26.975  1.00  0.00     0.031 A 
ATOM     50  C   UNL A   1      46.069  31.316  28.258  1.00  0.00     0.031 A 
ATOM     51  C   UNL A   1      45.391  25.028  26.836  1.00  0.00     0.049 A 
ATOM     52  C   UNL A   1      46.989  30.308  27.640  1.00  0.00     0.074 A 
ATOM     53  C   UNL A   1      46.397  24.109  26.591  1.00  0.00     0.029 A 
ATOM     54  N   UNL A   1      45.994  26.275  26.882  1.00  0.00    -0.354 N 
ATOM     55  N   UNL A   1      46.768  29.038  27.403  1.00  0.00    -0.248 NA
ATOM     56  C   UNL A   1      48.324  30.778  27.245  1.00  0.00     0.031 C 
ATOM     57  C   UNL A   1      47.604  24.810  26.446  1.00  0.00     0.029 A 
ATOM     58  C   UNL A   1      47.344  26.161  26.607  1.00  0.00     0.049 A 
ATOM     59  H   UNL A   1      45.528  27.119  27.083  1.00  0.00     0.167 HD
ATOM     60  C   UNL A   1      47.946  28.548  26.853  1.00  0.00     0.074 A 
ATOM     61  C   UNL A   1      48.864  29.666  26.761  1.00  0.00     0.031 C 
ATOM     62  C   UNL A   1      48.242  27.278  26.485  1.00  0.00     0.031 A 
BRANCH  49  63
ATOM     63  C   UNL A   1      43.421  23.437  26.758  1.00  0.00    -0.014 A 
ATOM     64  C   UNL A   1      42.997  22.654  27.844  1.00  0.00     0.010 A 
ATOM     65  C   UNL A   1      43.388  22.900  25.459  1.00  0.00     0.010 A 
ATOM     66  C   UNL A   1      42.592  21.331  27.640  1.00  0.00     0.020 A 
ATOM     67  C   UNL A   1      42.982  21.581  25.252  1.00  0.00     0.020 A 
ATOM     68  C   UNL A   1      42.610  20.797  26.348  1.00  0.00     0.054 A 
BRANCH  68  69
ATOM     69  S   UNL A   1      42.151  19.065  26.068  1.00  0.00     0.124 S 
ATOM     70  O   UNL A   1      42.960  18.727  24.900  1.00  0.00    -0.237 OA
ATOM     71  O   UNL A   1      42.540  18.401  27.310  1.00  0.00    -0.237 OA
ATOM     72  O   UNL A   1      40.711  19.143  25.834  1.00  0.00    -0.744 OA
ENDBRANCH  68  69
ENDBRANCH  49  63
BRANCH  50  73
ATOM     73  C   UNL A   1      46.537  32.688  28.568  1.00  0.00    -0.014 A 
ATOM     74  C   UNL A   1      46.349  33.721  27.633  1.00  0.00     0.010 A 
ATOM     75  C   UNL A   1      47.106  32.979  29.818  1.00  0.00     0.010 A 
ATOM     76  C   UNL A   1      46.710  35.032  27.950  1.00  0.00     0.020 A 
ATOM     77  C   UNL A   1      47.464  34.290  30.138  1.00  0.00     0.020 A 
ATOM     78  C   UNL A   1      47.263  35.310  29.202  1.00  0.00     0.054 A 
BRANCH  78  79
ATOM     79  S   UNL A   1      47.638  37.023  29.667  1.00  0.00     0.124 S 
ATOM     80  O   UNL A   1      46.518  37.749  29.075  1.00  0.00    -0.237 OA
ATOM     81  O   UNL A   1      47.658  36.978  31.128  1.00  0.00    -0.237 OA
ATOM     82  O   UNL A   1      48.940  37.249  29.044  1.00  0.00    -0.744 OA
ENDBRANCH  78  79
ENDBRANCH  50  73
BRANCH  62  83
ATOM     83  C   UNL A   1      49.616  27.034  25.938  1.00  0.00    -0.014 A 
ATOM     84  C   UNL A   1      50.638  26.558  26.778  1.00  0.00     0.010 A 
ATOM     85  C   UNL A   1      49.888  27.267  24.580  1.00  0.00     0.010 A 
ATOM     86  C   UNL A   1      51.921  26.336  26.272  1.00  0.00     0.020 A 
ATOM     87  C   UNL A   1      51.170  27.048  24.070  1.00  0.00     0.020 A 
ATOM     88  C   UNL A   1      52.183  26.595  24.922  1.00  0.00     0.054 A 
BRANCH  88  89
ATOM     89  S   UNL A   1      53.842  26.287  24.257  1.00  0.00     0.124 S 
ATOM     90  O   UNL A   1      54.514  27.556  24.521  1.00  0.00    -0.237 OA
ATOM     91  O   UNL A   1      54.315  25.152  25.048  1.00  0.00    -0.237 OA
ATOM     92  O   UNL A   1      53.590  25.992  22.849  1.00  0.00    -0.744 OA
ENDBRANCH  88  89
ENDBRANCH  62  83
ENDBRANCH  36  37
ENDBRANCH  28  31
ENDBRANCH  26  27
ENDBRANCH   1  26
TORSDOF 17
ENDMDL
MODEL 3
REMARK VINA RESULT:     -11.2      3.899      9.527
REMARK SMILES CCOC(=O)C1=NN(c2ccc(C)cc2Cl)[C@@](C)(C(=O)NCCCNC(=O)c2ccc(-c3c4nc(c(-c5ccc(S(=O)(=O)[O-])cc5)c5ccc([nH]5)c(-c5ccc(S(=O)(=O)[O-])cc5)c5nc(c(-c6ccc(S(=O)(=O)[O-])cc6)c6ccc3[nH]6)C=C5)C=C4)cc2)C1
REMARK SMILES IDX 23 1 22 2 21 3 19 4 20 5 17 7 6 8 7 9 88 10 8 11 18 12 4 13
REMARK SMILES IDX 5 14 3 15 2 16 1 17 9 18 10 19 15 20 11 21 14 22 16 23 12 24
REMARK SMILES IDX 13 25 24 26 25 27 26 28 27 30 28 31 29 32 87 33 30 34 86 35
REMARK SMILES IDX 31 36 32 37 33 38 80 39 34 40 85 41 79 42 81 43 35 44 84 45
REMARK SMILES IDX 78 46 77 47 36 49 66 50 47 51 65 52 48 53 51 54 64 55 82 56
REMARK SMILES IDX 49 57 50 58 63 60 83 61 52 62 37 63 38 64 46 65 39 66 45 67
REMARK SMILES IDX 40 68 41 69 42 70 43 71 44 72 67 73 68 74 76 75 69 76 75 77
REMARK SMILES IDX 70 78 71 79 72 80 73 81 74 82 53 83 54 84 62 85 55 86 61 87
REMARK SMILES IDX 56 88 57 89 58 90 59 91 60 92
REMARK H PARENT 21 6 25 29 81 48 51 59
REMARK Flexibility Score: inf
ROOT
ATOM      1  C   UNL A   1      34.219  31.365  27.668  1.00  0.00     0.042 C 
ENDROOT
BRANCH   1   2
ATOM      2  C   UNL A   1      33.561  30.036  27.304  1.00  0.00     0.117 C 
BRANCH   2   3
ATOM      3  N   UNL A   1      33.882  29.597  25.959  1.00  0.00    -0.354 N 
ATOM      4  C   UNL A   1      33.286  28.759  25.071  1.00  0.00     0.248 C 
ATOM      5  O   UNL A   1      33.913  28.625  24.010  1.00  0.00    -0.272 OA
ATOM      6  H   UNL A   1      34.715  29.993  25.614  1.00  0.00     0.163 HD
BRANCH   4   7
ATOM      7  C   UNL A   1      31.926  28.026  25.294  1.00  0.00     0.144 C 
ATOM      8  C   UNL A   1      30.567  28.352  23.431  1.00  0.00     0.149 C 
ATOM      9  N   UNL A   1      31.044  27.159  23.262  1.00  0.00    -0.169 NA
ATOM     10  C   UNL A   1      30.802  28.966  24.768  1.00  0.00     0.106 C 
ATOM     11  N   UNL A   1      31.757  26.860  24.392  1.00  0.00    -0.248 N 
ATOM     12  C   UNL A   1      31.600  27.734  26.758  1.00  0.00     0.048 C 
BRANCH   8  13
ATOM     13  C   UNL A   1      29.752  29.095  22.403  1.00  0.00     0.354 C 
ATOM     14  O   UNL A   1      30.279  29.662  21.461  1.00  0.00    -0.245 OA
BRANCH  13  15
ATOM     15  O   UNL A   1      28.443  29.069  22.716  1.00  0.00    -0.461 OA
BRANCH  15  16
ATOM     16  C   UNL A   1      27.713  30.271  22.447  1.00  0.00     0.230 C 
ATOM     17  C   UNL A   1      27.759  31.209  23.638  1.00  0.00     0.049 C 
ENDBRANCH  15  16
ENDBRANCH  13  15
ENDBRANCH   8  13
BRANCH  11  18
ATOM     18  C   UNL A   1      32.543  25.710  24.376  1.00  0.00     0.079 A 
ATOM     19  C   UNL A   1      33.576  25.604  23.429  1.00  0.00     0.030 A 
ATOM     20  C   UNL A   1      32.407  24.652  25.299  1.00  0.00     0.066 A 
ATOM     21  C   UNL A   1      34.419  24.487  23.379  1.00  0.00     0.006 A 
ATOM     22  C   UNL A   1      33.260  23.539  25.258  1.00  0.00     0.026 A 
ATOM     23  Cl  UNL A   1      31.121  24.599  26.463  1.00  0.00    -0.082 Cl
ATOM     24  C   UNL A   1      34.273  23.449  24.299  1.00  0.00    -0.049 A 
ATOM     25  C   UNL A   1      35.144  22.228  24.232  1.00  0.00     0.044 C 
ENDBRANCH  11  18
ENDBRANCH   4   7
ENDBRANCH   2   3
ENDBRANCH   1   2
BRANCH   1  26
ATOM     26  C   UNL A   1      35.570  31.267  28.367  1.00  0.00     0.118 C 
BRANCH  26  27
ATOM     27  N   UNL A   1      35.451  31.152  29.810  1.00  0.00    -0.352 N 
ATOM     28  C   UNL A   1      36.332  30.609  30.712  1.00  0.00     0.251 C 
ATOM     29  H   UNL A   1      34.620  31.514  30.196  1.00  0.00     0.163 HD
ATOM     30  O   UNL A   1      35.982  30.453  31.880  1.00  0.00    -0.269 OA
BRANCH  28  31
ATOM     31  C   UNL A   1      37.688  30.189  30.286  1.00  0.00     0.039 A 
ATOM     32  C   UNL A   1      38.527  29.584  31.228  1.00  0.00     0.014 A 
ATOM     33  C   UNL A   1      38.152  30.427  28.988  1.00  0.00     0.014 A 
ATOM     34  C   UNL A   1      39.808  29.168  30.856  1.00  0.00     0.010 A 
ATOM     35  C   UNL A   1      39.421  29.985  28.609  1.00  0.00     0.010 A 
ATOM     36  C   UNL A   1      40.259  29.351  29.540  1.00  0.00    -0.014 A 
BRANCH  36  37
ATOM     37  C   UNL A   1      41.613  28.912  29.129  1.00  0.00     0.031 A 
ATOM     38  C   UNL A   1      42.766  29.871  29.191  1.00  0.00     0.074 A 
ATOM     39  C   UNL A   1      41.810  27.667  28.658  1.00  0.00     0.049 A 
ATOM     40  N   UNL A   1      43.973  29.735  28.705  1.00  0.00    -0.248 NA
ATOM     41  C   UNL A   1      42.521  31.155  29.863  1.00  0.00     0.031 C 
ATOM     42  C   UNL A   1      40.781  26.635  28.521  1.00  0.00     0.029 A 
ATOM     43  N   UNL A   1      42.955  27.062  28.204  1.00  0.00    -0.354 N 
ATOM     44  C   UNL A   1      44.610  30.945  28.942  1.00  0.00     0.074 A 
ATOM     45  C   UNL A   1      43.673  31.782  29.663  1.00  0.00     0.031 C 
ATOM     46  C   UNL A   1      41.346  25.516  28.036  1.00  0.00     0.029 A 
ATOM     47  C   UNL A   1      42.770  25.758  27.815  1.00  0.00     0.049 A 
ATOM     48  H   UNL A   1      43.825  27.518  28.163  1.00  0.00     0.167 HD
ATOM     49  C   UNL A   1      45.850  31.337  28.563  1.00  0.00     0.031 A 
ATOM     50  C   UNL A   1      43.648  24.858  27.335  1.00  0.00     0.031 A 
ATOM     51  C   UNL A   1      46.799  30.497  27.887  1.00  0.00     0.049 A 
ATOM     52  C   UNL A   1      45.083  25.246  27.138  1.00  0.00     0.074 A 
ATOM     53  C   UNL A   1      48.034  30.825  27.356  1.00  0.00     0.029 A 
ATOM     54  N   UNL A   1      46.631  29.135  27.694  1.00  0.00    -0.354 N 
ATOM     55  N   UNL A   1      45.632  26.430  27.258  1.00  0.00    -0.248 NA
ATOM     56  C   UNL A   1      46.015  24.178  26.751  1.00  0.00     0.031 C 
ATOM     57  C   UNL A   1      48.632  29.647  26.880  1.00  0.00     0.029 A 
ATOM     58  C   UNL A   1      47.763  28.593  27.112  1.00  0.00     0.049 A 
ATOM     59  H   UNL A   1      45.822  28.627  27.936  1.00  0.00     0.167 HD
ATOM     60  C   UNL A   1      46.972  26.256  26.938  1.00  0.00     0.074 A 
ATOM     61  C   UNL A   1      47.157  24.846  26.652  1.00  0.00     0.031 C 
ATOM     62  C   UNL A   1      47.951  27.190  26.863  1.00  0.00     0.031 A 
BRANCH  49  63
ATOM     63  C   UNL A   1      46.205  32.766  28.846  1.00  0.00    -0.014 A 
ATOM     64  C   UNL A   1      45.930  33.774  27.907  1.00  0.00     0.010 A 
ATOM     65  C   UNL A   1      46.883  33.088  30.034  1.00  0.00     0.010 A 
ATOM     66  C   UNL A   1      46.374  35.081  28.131  1.00  0.00     0.020 A 
ATOM     67  C   UNL A   1      47.324  34.393  30.262  1.00  0.00     0.020 A 
ATOM     68  C   UNL A   1      47.088  35.375  29.297  1.00  0.00     0.054 A 
BRANCH  68  69
ATOM     69  S   UNL A   1      47.728  37.048  29.578  1.00  0.00     0.124 S 
ATOM     70  O   UNL A   1      47.215  37.765  28.414  1.00  0.00    -0.237 OA
ATOM     71  O   UNL A   1      47.137  37.432  30.858  1.00  0.00    -0.237 OA
ATOM     72  O   UNL A   1      49.175  36.844  29.603  1.00  0.00    -0.744 OA
ENDBRANCH  68  69
ENDBRANCH  49  63
BRANCH  50  73
ATOM     73  C   UNL A   1      43.180  23.486  27.029  1.00  0.00    -0.014 A 
ATOM     74  C   UNL A   1      43.000  23.087  25.693  1.00  0.00     0.010 A 
ATOM     75  C   UNL A   1      42.980  22.557  28.063  1.00  0.00     0.010 A 
ATOM     76  C   UNL A   1      42.641  21.771  25.393  1.00  0.00     0.020 A 
ATOM     77  C   UNL A   1      42.624  21.240  27.764  1.00  0.00     0.020 A 
ATOM     78  C   UNL A   1      42.459  20.854  26.430  1.00  0.00     0.054 A 
BRANCH  78  79
ATOM     79  S   UNL A   1      42.097  19.117  26.050  1.00  0.00     0.124 S 
ATOM     80  O   UNL A   1      42.552  18.441  27.260  1.00  0.00    -0.237 OA
ATOM     81  O   UNL A   1      40.651  19.115  25.833  1.00  0.00    -0.237 OA
ATOM     82  O   UNL A   1      42.895  18.877  24.850  1.00  0.00    -0.744 OA
ENDBRANCH  78  79
ENDBRANCH  50  73
BRANCH  62  83
ATOM     83  C   UNL A   1      49.315  26.712  26.463  1.00  0.00    -0.014 A 
ATOM     84  C   UNL A   1      50.159  26.107  27.410  1.00  0.00     0.010 A 
ATOM     85  C   UNL A   1      49.751  26.854  25.136  1.00  0.00     0.010 A 
ATOM     86  C   UNL A   1      51.432  25.667  27.041  1.00  0.00     0.020 A 
ATOM     87  C   UNL A   1      51.025  26.415  24.763  1.00  0.00     0.020 A 
ATOM     88  C   UNL A   1      51.863  25.836  25.721  1.00  0.00     0.054 A 
BRANCH  88  89
ATOM     89  S   UNL A   1      53.507  25.245  25.233  1.00  0.00     0.124 S 
ATOM     90  O   UNL A   1      53.384  23.804  25.435  1.00  0.00    -0.237 OA
ATOM     91  O   UNL A   1      53.619  25.676  23.841  1.00  0.00    -0.237 OA
ATOM     92  O   UNL A   1      54.400  25.933  26.162  1.00  0.00    -0.744 OA
ENDBRANCH  88  89
ENDBRANCH  62  83
ENDBRANCH  36  37
ENDBRANCH  28  31
ENDBRANCH  26  27
ENDBRANCH   1  26
TORSDOF 17
ENDMDL
