MODEL 1
REMARK VINA RESULT:     -12.9      0.000      0.000
REMARK SMILES Cc1n[nH]c(C[N@H+]2CCC[C@H](c3cccc(C(=O)NCCCNC(=O)c4ccc(-c5c6nc(c(-c7ccc(S(=O)(=O)[O-])cc7)c7ccc([nH]7)c(-c7ccc(S(=O)(=O)[O-])cc7)c7nc(c(-c8ccc(S(=O)(=O)[O-])cc8)c8ccc5[nH]8)C=C7)C=C6)cc4)c3)C2)n1
REMARK SMILES IDX 21 1 20 2 19 3 17 4 18 5 16 7 12 8 13 9 86 10 14 11 15 12
REMARK SMILES IDX 11 13 7 14 8 15 87 16 9 18 10 19 6 20 5 21 1 22 2 23 3 24
REMARK SMILES IDX 88 25 4 26 22 28 23 29 24 30 25 32 26 33 27 34 85 35 28 36
REMARK SMILES IDX 84 37 29 38 30 39 31 40 78 41 32 42 83 43 77 44 79 45 33 46
REMARK SMILES IDX 82 47 76 48 75 49 34 51 64 52 45 53 63 54 46 55 49 56 62 57
REMARK SMILES IDX 80 58 47 59 48 60 61 62 81 63 50 64 35 65 36 66 44 67 37 68
REMARK SMILES IDX 43 69 38 70 39 71 40 72 41 73 42 74 65 75 66 76 74 77 67 78
REMARK SMILES IDX 73 79 68 80 69 81 70 82 71 83 72 84 51 85 52 86 60 87 53 88
REMARK SMILES IDX 59 89 54 90 55 91 56 92 57 93 58 94
REMARK H PARENT 19 6 7 17 4 27 23 31 79 50 49 61
REMARK Flexibility Score: inf
ROOT
ATOM      1  C   UNL A   1      38.772  22.002  26.160  1.00  0.00     0.042 C 
ENDROOT
BRANCH   1   2
ATOM      2  C   UNL A   1      37.765  23.078  25.722  1.00  0.00     0.118 C 
BRANCH   2   3
ATOM      3  N   UNL A   1      37.479  23.034  24.296  1.00  0.00    -0.352 N 
ATOM      4  C   UNL A   1      36.345  22.773  23.563  1.00  0.00     0.251 C 
ATOM      5  O   UNL A   1      36.413  22.967  22.349  1.00  0.00    -0.269 OA
ATOM      6  H   UNL A   1      38.263  23.235  23.737  1.00  0.00     0.163 HD
BRANCH   4   7
ATOM      7  C   UNL A   1      35.051  22.298  24.139  1.00  0.00     0.040 A 
ATOM      8  C   UNL A   1      32.651  22.539  24.614  1.00  0.00    -0.039 A 
ATOM      9  C   UNL A   1      32.653  21.277  25.212  1.00  0.00     0.004 A 
ATOM     10  C   UNL A   1      33.873  23.040  24.139  1.00  0.00     0.018 A 
ATOM     11  C   UNL A   1      33.832  20.534  25.289  1.00  0.00     0.001 A 
ATOM     12  C   UNL A   1      35.017  21.034  24.740  1.00  0.00     0.014 A 
BRANCH   8  13
ATOM     13  C   UNL A   1      31.427  23.434  24.465  1.00  0.00     0.074 C 
ATOM     14  N   UNL A   1      32.413  25.750  24.547  1.00  0.00    -0.328 N 
ATOM     15  C   UNL A   1      31.763  26.026  25.832  1.00  0.00     0.262 C 
ATOM     16  C   UNL A   1      31.646  24.775  23.743  1.00  0.00     0.270 C 
ATOM     17  H   UNL A   1      33.316  25.329  24.771  1.00  0.00     0.348 HD
ATOM     18  C   UNL A   1      31.516  24.747  26.635  1.00  0.00     0.062 C 
ATOM     19  C   UNL A   1      30.731  23.728  25.816  1.00  0.00     0.020 C 
BRANCH  14  20
ATOM     20  C   UNL A   1      32.705  26.974  23.774  1.00  0.00     0.340 C 
BRANCH  20  21
ATOM     21  C   UNL A   1      31.492  27.749  23.378  1.00  0.00     0.179 A 
ATOM     22  C   UNL A   1      29.262  30.461  23.513  1.00  0.00     0.092 C 
ATOM     23  C   UNL A   1      30.013  29.235  23.180  1.00  0.00     0.147 A 
ATOM     24  N   UNL A   1      30.037  28.684  21.961  1.00  0.00    -0.159 NA
ATOM     25  N   UNL A   1      30.836  28.640  24.092  1.00  0.00    -0.211 NA
ATOM     26  N   UNL A   1      30.967  27.725  22.119  1.00  0.00    -0.258 N 
ATOM     27  H   UNL A   1      31.233  27.088  21.417  1.00  0.00     0.192 HD
ENDBRANCH  20  21
ENDBRANCH  14  20
ENDBRANCH   8  13
ENDBRANCH   4   7
ENDBRANCH   2   3
ENDBRANCH   1   2
BRANCH   1  28
ATOM     28  C   UNL A   1      39.997  22.604  26.825  1.00  0.00     0.118 C 
BRANCH  28  29
ATOM     29  N   UNL A   1      41.221  22.264  26.103  1.00  0.00    -0.352 N 
ATOM     30  C   UNL A   1      42.244  23.091  25.685  1.00  0.00     0.251 C 
ATOM     31  H   UNL A   1      41.331  21.310  25.884  1.00  0.00     0.163 HD
ATOM     32  O   UNL A   1      43.045  22.702  24.853  1.00  0.00    -0.269 OA
BRANCH  30  33
ATOM     33  C   UNL A   1      42.318  24.458  26.231  1.00  0.00     0.039 A 
ATOM     34  C   UNL A   1      41.693  25.508  25.558  1.00  0.00     0.014 A 
ATOM     35  C   UNL A   1      42.958  24.674  27.449  1.00  0.00     0.014 A 
ATOM     36  C   UNL A   1      41.621  26.752  26.176  1.00  0.00     0.010 A 
ATOM     37  C   UNL A   1      42.770  25.865  28.116  1.00  0.00     0.010 A 
ATOM     38  C   UNL A   1      42.123  26.919  27.479  1.00  0.00    -0.014 A 
BRANCH  38  39
ATOM     39  C   UNL A   1      41.852  28.163  28.197  1.00  0.00     0.031 A 
ATOM     40  C   UNL A   1      42.880  29.232  28.037  1.00  0.00     0.074 A 
ATOM     41  C   UNL A   1      40.698  28.454  28.835  1.00  0.00     0.049 A 
ATOM     42  N   UNL A   1      43.718  29.654  28.924  1.00  0.00    -0.248 NA
ATOM     43  C   UNL A   1      43.081  29.819  26.703  1.00  0.00     0.031 C 
ATOM     44  C   UNL A   1      39.440  27.701  28.860  1.00  0.00     0.029 A 
ATOM     45  N   UNL A   1      40.387  29.582  29.528  1.00  0.00    -0.354 N 
ATOM     46  C   UNL A   1      44.425  30.698  28.334  1.00  0.00     0.074 A 
ATOM     47  C   UNL A   1      44.101  30.652  26.930  1.00  0.00     0.031 C 
ATOM     48  C   UNL A   1      38.449  28.501  29.311  1.00  0.00     0.029 A 
ATOM     49  C   UNL A   1      39.032  29.745  29.777  1.00  0.00     0.049 A 
ATOM     50  H   UNL A   1      41.065  30.228  29.828  1.00  0.00     0.167 HD
ATOM     51  C   UNL A   1      45.062  31.646  29.082  1.00  0.00     0.031 A 
ATOM     52  C   UNL A   1      38.430  30.840  30.302  1.00  0.00     0.031 A 
ATOM     53  C   UNL A   1      45.169  31.252  30.464  1.00  0.00     0.049 A 
ATOM     54  C   UNL A   1      39.470  31.588  31.052  1.00  0.00     0.074 A 
ATOM     55  C   UNL A   1      45.718  30.171  31.127  1.00  0.00     0.029 A 
ATOM     56  N   UNL A   1      44.295  31.832  31.356  1.00  0.00    -0.354 N 
ATOM     57  N   UNL A   1      40.051  31.125  32.125  1.00  0.00    -0.248 NA
ATOM     58  C   UNL A   1      40.189  32.649  30.364  1.00  0.00     0.031 C 
ATOM     59  C   UNL A   1      44.777  29.861  32.153  1.00  0.00     0.029 A 
ATOM     60  C   UNL A   1      43.758  30.815  32.103  1.00  0.00     0.049 A 
ATOM     61  H   UNL A   1      44.095  32.792  31.442  1.00  0.00     0.167 HD
ATOM     62  C   UNL A   1      41.378  31.514  32.008  1.00  0.00     0.074 A 
ATOM     63  C   UNL A   1      41.381  32.529  30.955  1.00  0.00     0.031 C 
ATOM     64  C   UNL A   1      42.390  30.791  32.578  1.00  0.00     0.031 A 
BRANCH  51  65
ATOM     65  C   UNL A   1      45.254  33.082  28.655  1.00  0.00    -0.014 A 
ATOM     66  C   UNL A   1      46.528  33.673  28.814  1.00  0.00     0.010 A 
ATOM     67  C   UNL A   1      44.181  33.950  28.376  1.00  0.00     0.010 A 
ATOM     68  C   UNL A   1      46.695  35.063  28.791  1.00  0.00     0.020 A 
ATOM     69  C   UNL A   1      44.345  35.336  28.306  1.00  0.00     0.020 A 
ATOM     70  C   UNL A   1      45.595  35.886  28.556  1.00  0.00     0.054 A 
BRANCH  70  71
ATOM     71  S   UNL A   1      45.797  37.683  28.654  1.00  0.00     0.124 S 
ATOM     72  O   UNL A   1      45.101  37.993  29.899  1.00  0.00    -0.237 OA
ATOM     73  O   UNL A   1      47.249  37.830  28.684  1.00  0.00    -0.237 OA
ATOM     74  O   UNL A   1      45.151  38.165  27.435  1.00  0.00    -0.744 OA
ENDBRANCH  70  71
ENDBRANCH  51  65
BRANCH  52  75
ATOM     75  C   UNL A   1      37.116  31.418  29.923  1.00  0.00    -0.014 A 
ATOM     76  C   UNL A   1      36.216  31.870  30.905  1.00  0.00     0.010 A 
ATOM     77  C   UNL A   1      36.860  31.781  28.584  1.00  0.00     0.010 A 
ATOM     78  C   UNL A   1      35.145  32.716  30.569  1.00  0.00     0.020 A 
ATOM     79  C   UNL A   1      35.790  32.615  28.240  1.00  0.00     0.020 A 
ATOM     80  C   UNL A   1      34.954  33.103  29.240  1.00  0.00     0.054 A 
BRANCH  80  81
ATOM     81  S   UNL A   1      33.695  34.353  28.843  1.00  0.00     0.124 S 
ATOM     82  O   UNL A   1      32.856  33.653  27.875  1.00  0.00    -0.237 OA
ATOM     83  O   UNL A   1      33.083  34.612  30.142  1.00  0.00    -0.237 OA
ATOM     84  O   UNL A   1      34.474  35.464  28.299  1.00  0.00    -0.744 OA
ENDBRANCH  80  81
ENDBRANCH  52  75
BRANCH  64  85
ATOM     85  C   UNL A   1      42.057  29.714  33.586  1.00  0.00    -0.014 A 
ATOM     86  C   UNL A   1      41.669  28.405  33.241  1.00  0.00     0.010 A 
ATOM     87  C   UNL A   1      42.322  29.996  34.940  1.00  0.00     0.010 A 
ATOM     88  C   UNL A   1      41.531  27.414  34.227  1.00  0.00     0.020 A 
ATOM     89  C   UNL A   1      42.207  29.009  35.922  1.00  0.00     0.020 A 
ATOM     90  C   UNL A   1      41.804  27.723  35.563  1.00  0.00     0.054 A 
BRANCH  90  91
ATOM     91  S   UNL A   1      41.682  26.427  36.826  1.00  0.00     0.124 S 
ATOM     92  O   UNL A   1      41.792  25.203  36.037  1.00  0.00    -0.237 OA
ATOM     93  O   UNL A   1      42.817  26.715  37.701  1.00  0.00    -0.237 OA
ATOM     94  O   UNL A   1      40.371  26.653  37.435  1.00  0.00    -0.744 OA
ENDBRANCH  90  91
ENDBRANCH  64  85
ENDBRANCH  38  39
ENDBRANCH  30  33
ENDBRANCH  28  29
ENDBRANCH   1  28
TORSDOF 16
ENDMDL
MODEL 2
REMARK VINA RESULT:     -12.8      1.167      2.025
REMARK SMILES Cc1n[nH]c(C[N@H+]2CCC[C@H](c3cccc(C(=O)NCCCNC(=O)c4ccc(-c5c6nc(c(-c7ccc(S(=O)(=O)[O-])cc7)c7ccc([nH]7)c(-c7ccc(S(=O)(=O)[O-])cc7)c7nc(c(-c8ccc(S(=O)(=O)[O-])cc8)c8ccc5[nH]8)C=C7)C=C6)cc4)c3)C2)n1
REMARK SMILES IDX 21 1 20 2 19 3 17 4 18 5 16 7 12 8 13 9 86 10 14 11 15 12
REMARK SMILES IDX 11 13 7 14 8 15 87 16 9 18 10 19 6 20 5 21 1 22 2 23 3 24
REMARK SMILES IDX 88 25 4 26 22 28 23 29 24 30 25 32 26 33 27 34 85 35 28 36
REMARK SMILES IDX 84 37 29 38 30 39 31 40 78 41 32 42 83 43 77 44 79 45 33 46
REMARK SMILES IDX 82 47 76 48 75 49 34 51 64 52 45 53 63 54 46 55 49 56 62 57
REMARK SMILES IDX 80 58 47 59 48 60 61 62 81 63 50 64 35 65 36 66 44 67 37 68
REMARK SMILES IDX 43 69 38 70 39 71 40 72 41 73 42 74 65 75 66 76 74 77 67 78
REMARK SMILES IDX 73 79 68 80 69 81 70 82 71 83 72 84 51 85 52 86 60 87 53 88
REMARK SMILES IDX 59 89 54 90 55 91 56 92 57 93 58 94
REMARK H PARENT 19 6 7 17 4 27 23 31 79 50 49 61
REMARK Flexibility Score: inf
ROOT
ATOM      1  C   UNL A   1      38.537  22.148  25.685  1.00  0.00     0.042 C 
ENDROOT
BRANCH   1   2
ATOM      2  C   UNL A   1      37.405  23.184  25.780  1.00  0.00     0.118 C 
BRANCH   2   3
ATOM      3  N   UNL A   1      36.240  22.681  26.491  1.00  0.00    -0.352 N 
ATOM      4  C   UNL A   1      34.884  22.813  26.304  1.00  0.00     0.251 C 
ATOM      5  O   UNL A   1      34.156  22.123  27.019  1.00  0.00    -0.269 OA
ATOM      6  H   UNL A   1      36.471  22.129  27.272  1.00  0.00     0.163 HD
BRANCH   4   7
ATOM      7  C   UNL A   1      34.249  23.708  25.290  1.00  0.00     0.040 A 
ATOM      8  C   UNL A   1      33.245  25.836  24.576  1.00  0.00    -0.039 A 
ATOM      9  C   UNL A   1      33.116  25.329  23.282  1.00  0.00     0.004 A 
ATOM     10  C   UNL A   1      33.762  24.983  25.564  1.00  0.00     0.018 A 
ATOM     11  C   UNL A   1      33.532  24.030  22.987  1.00  0.00     0.001 A 
ATOM     12  C   UNL A   1      34.111  23.233  23.980  1.00  0.00     0.014 A 
BRANCH   8  13
ATOM     13  C   UNL A   1      32.834  27.237  25.013  1.00  0.00     0.074 C 
ATOM     14  N   UNL A   1      31.169  27.909  23.247  1.00  0.00    -0.328 N 
ATOM     15  C   UNL A   1      32.073  28.943  22.731  1.00  0.00     0.262 C 
ATOM     16  C   UNL A   1      31.391  27.658  24.687  1.00  0.00     0.270 C 
ATOM     17  H   UNL A   1      31.400  27.053  22.742  1.00  0.00     0.348 HD
ATOM     18  C   UNL A   1      33.541  28.604  22.995  1.00  0.00     0.062 C 
ATOM     19  C   UNL A   1      33.784  28.334  24.477  1.00  0.00     0.020 C 
BRANCH  14  20
ATOM     20  C   UNL A   1      29.748  28.192  22.963  1.00  0.00     0.340 C 
BRANCH  20  21
ATOM     21  C   UNL A   1      29.476  29.603  22.558  1.00  0.00     0.179 A 
ATOM     22  C   UNL A   1      28.029  32.126  20.587  1.00  0.00     0.092 C 
ATOM     23  C   UNL A   1      28.728  31.331  21.614  1.00  0.00     0.147 A 
ATOM     24  N   UNL A   1      28.934  31.749  22.868  1.00  0.00    -0.159 NA
ATOM     25  N   UNL A   1      29.117  30.045  21.370  1.00  0.00    -0.211 NA
ATOM     26  N   UNL A   1      29.433  30.640  23.442  1.00  0.00    -0.258 N 
ATOM     27  H   UNL A   1      29.729  30.585  24.379  1.00  0.00     0.192 HD
ENDBRANCH  20  21
ENDBRANCH  14  20
ENDBRANCH   8  13
ENDBRANCH   4   7
ENDBRANCH   2   3
ENDBRANCH   1   2
BRANCH   1  28
ATOM     28  C   UNL A   1      39.702  22.489  26.596  1.00  0.00     0.118 C 
BRANCH  28  29
ATOM     29  N   UNL A   1      40.974  22.043  26.033  1.00  0.00    -0.352 N 
ATOM     30  C   UNL A   1      42.106  22.779  25.746  1.00  0.00     0.251 C 
ATOM     31  H   UNL A   1      41.031  21.081  25.830  1.00  0.00     0.163 HD
ATOM     32  O   UNL A   1      42.969  22.318  25.021  1.00  0.00    -0.269 OA
BRANCH  30  33
ATOM     33  C   UNL A   1      42.223  24.142  26.296  1.00  0.00     0.039 A 
ATOM     34  C   UNL A   1      41.751  25.229  25.561  1.00  0.00     0.014 A 
ATOM     35  C   UNL A   1      42.746  24.319  27.575  1.00  0.00     0.014 A 
ATOM     36  C   UNL A   1      41.708  26.481  26.168  1.00  0.00     0.010 A 
ATOM     37  C   UNL A   1      42.579  25.526  28.218  1.00  0.00     0.010 A 
ATOM     38  C   UNL A   1      42.082  26.620  27.516  1.00  0.00    -0.014 A 
BRANCH  38  39
ATOM     39  C   UNL A   1      41.830  27.887  28.203  1.00  0.00     0.031 A 
ATOM     40  C   UNL A   1      42.872  28.937  28.009  1.00  0.00     0.074 A 
ATOM     41  C   UNL A   1      40.684  28.209  28.837  1.00  0.00     0.049 A 
ATOM     42  N   UNL A   1      43.719  29.371  28.881  1.00  0.00    -0.248 NA
ATOM     43  C   UNL A   1      43.075  29.485  26.659  1.00  0.00     0.031 C 
ATOM     44  C   UNL A   1      39.416  27.474  28.888  1.00  0.00     0.029 A 
ATOM     45  N   UNL A   1      40.390  29.360  29.501  1.00  0.00    -0.354 N 
ATOM     46  C   UNL A   1      44.437  30.390  28.261  1.00  0.00     0.074 A 
ATOM     47  C   UNL A   1      44.106  30.311  26.860  1.00  0.00     0.031 C 
ATOM     48  C   UNL A   1      38.437  28.299  29.321  1.00  0.00     0.029 A 
ATOM     49  C   UNL A   1      39.039  29.547  29.751  1.00  0.00     0.049 A 
ATOM     50  H   UNL A   1      41.078  30.004  29.781  1.00  0.00     0.167 HD
ATOM     51  C   UNL A   1      45.090  31.349  28.980  1.00  0.00     0.031 A 
ATOM     52  C   UNL A   1      38.453  30.663  30.249  1.00  0.00     0.031 A 
ATOM     53  C   UNL A   1      45.197  30.990  30.372  1.00  0.00     0.049 A 
ATOM     54  C   UNL A   1      39.506  31.417  30.974  1.00  0.00     0.074 A 
ATOM     55  C   UNL A   1      45.735  29.920  31.061  1.00  0.00     0.029 A 
ATOM     56  N   UNL A   1      44.336  31.606  31.252  1.00  0.00    -0.354 N 
ATOM     57  N   UNL A   1      40.086  30.976  32.057  1.00  0.00    -0.248 NA
ATOM     58  C   UNL A   1      40.236  32.450  30.255  1.00  0.00     0.031 C 
ATOM     59  C   UNL A   1      44.795  29.650  32.100  1.00  0.00     0.029 A 
ATOM     60  C   UNL A   1      43.789  30.616  32.028  1.00  0.00     0.049 A 
ATOM     61  H   UNL A   1      44.148  32.571  31.313  1.00  0.00     0.167 HD
ATOM     62  C   UNL A   1      41.417  31.343  31.925  1.00  0.00     0.074 A 
ATOM     63  C   UNL A   1      41.429  32.331  30.845  1.00  0.00     0.031 C 
ATOM     64  C   UNL A   1      42.423  30.623  32.509  1.00  0.00     0.031 A 
BRANCH  51  65
ATOM     65  C   UNL A   1      45.299  32.771  28.514  1.00  0.00    -0.014 A 
ATOM     66  C   UNL A   1      46.568  33.364  28.694  1.00  0.00     0.010 A 
ATOM     67  C   UNL A   1      44.237  33.631  28.174  1.00  0.00     0.010 A 
ATOM     68  C   UNL A   1      46.740  34.753  28.633  1.00  0.00     0.020 A 
ATOM     69  C   UNL A   1      44.407  35.013  28.065  1.00  0.00     0.020 A 
ATOM     70  C   UNL A   1      45.649  35.570  28.337  1.00  0.00     0.054 A 
BRANCH  70  71
ATOM     71  S   UNL A   1      45.852  37.368  28.385  1.00  0.00     0.124 S 
ATOM     72  O   UNL A   1      47.303  37.506  28.335  1.00  0.00    -0.237 OA
ATOM     73  O   UNL A   1      45.131  37.793  27.188  1.00  0.00    -0.237 OA
ATOM     74  O   UNL A   1      45.226  37.748  29.651  1.00  0.00    -0.744 OA
ENDBRANCH  70  71
ENDBRANCH  51  65
BRANCH  52  75
ATOM     75  C   UNL A   1      37.145  31.248  29.860  1.00  0.00    -0.014 A 
ATOM     76  C   UNL A   1      36.156  31.509  30.825  1.00  0.00     0.010 A 
ATOM     77  C   UNL A   1      36.972  31.808  28.577  1.00  0.00     0.010 A 
ATOM     78  C   UNL A   1      35.074  32.361  30.539  1.00  0.00     0.020 A 
ATOM     79  C   UNL A   1      35.892  32.648  28.282  1.00  0.00     0.020 A 
ATOM     80  C   UNL A   1      34.963  32.944  29.275  1.00  0.00     0.054 A 
BRANCH  80  81
ATOM     81  S   UNL A   1      33.681  34.197  28.977  1.00  0.00     0.124 S 
ATOM     82  O   UNL A   1      34.419  35.234  28.262  1.00  0.00    -0.237 OA
ATOM     83  O   UNL A   1      32.696  33.464  28.187  1.00  0.00    -0.237 OA
ATOM     84  O   UNL A   1      33.239  34.565  30.321  1.00  0.00    -0.744 OA
ENDBRANCH  80  81
ENDBRANCH  52  75
BRANCH  64  85
ATOM     85  C   UNL A   1      42.080  29.577  33.547  1.00  0.00    -0.014 A 
ATOM     86  C   UNL A   1      41.680  28.263  33.238  1.00  0.00     0.010 A 
ATOM     87  C   UNL A   1      42.347  29.895  34.892  1.00  0.00     0.010 A 
ATOM     88  C   UNL A   1      41.534  27.301  34.252  1.00  0.00     0.020 A 
ATOM     89  C   UNL A   1      42.223  28.938  35.902  1.00  0.00     0.020 A 
ATOM     90  C   UNL A   1      41.809  27.646  35.579  1.00  0.00     0.054 A 
BRANCH  90  91
ATOM     91  S   UNL A   1      41.676  26.386  36.878  1.00  0.00     0.124 S 
ATOM     92  O   UNL A   1      42.859  26.646  37.695  1.00  0.00    -0.237 OA
ATOM     93  O   UNL A   1      40.395  26.700  37.508  1.00  0.00    -0.237 OA
ATOM     94  O   UNL A   1      41.700  25.121  36.144  1.00  0.00    -0.744 OA
ENDBRANCH  90  91
ENDBRANCH  64  85
ENDBRANCH  38  39
ENDBRANCH  30  33
ENDBRANCH  28  29
ENDBRANCH   1  28
TORSDOF 16
ENDMDL
MODEL 3
REMARK VINA RESULT:     -12.7      1.781      2.543
REMARK SMILES Cc1n[nH]c(C[N@H+]2CCC[C@H](c3cccc(C(=O)NCCCNC(=O)c4ccc(-c5c6nc(c(-c7ccc(S(=O)(=O)[O-])cc7)c7ccc([nH]7)c(-c7ccc(S(=O)(=O)[O-])cc7)c7nc(c(-c8ccc(S(=O)(=O)[O-])cc8)c8ccc5[nH]8)C=C7)C=C6)cc4)c3)C2)n1
REMARK SMILES IDX 21 1 20 2 19 3 17 4 18 5 16 7 12 8 13 9 86 10 14 11 15 12
REMARK SMILES IDX 11 13 7 14 8 15 87 16 9 18 10 19 6 20 5 21 1 22 2 23 3 24
REMARK SMILES IDX 88 25 4 26 22 28 23 29 24 30 25 32 26 33 27 34 85 35 28 36
REMARK SMILES IDX 84 37 29 38 30 39 31 40 78 41 32 42 83 43 77 44 79 45 33 46
REMARK SMILES IDX 82 47 76 48 75 49 34 51 64 52 45 53 63 54 46 55 49 56 62 57
REMARK SMILES IDX 80 58 47 59 48 60 61 62 81 63 50 64 35 65 36 66 44 67 37 68
REMARK SMILES IDX 43 69 38 70 39 71 40 72 41 73 42 74 65 75 66 76 74 77 67 78
REMARK SMILES IDX 73 79 68 80 69 81 70 82 71 83 72 84 51 85 52 86 60 87 53 88
REMARK SMILES IDX 59 89 54 90 55 91 56 92 57 93 58 94
REMARK H PARENT 19 6 7 17 4 27 23 31 79 50 49 61
REMARK Flexibility Score: inf
ROOT
ATOM      1  C   UNL A   1      36.551  22.446  24.728  1.00  0.00     0.042 C 
ENDROOT
BRANCH   1   2
ATOM      2  C   UNL A   1      35.813  21.209  25.264  1.00  0.00     0.118 C 
BRANCH   2   3
ATOM      3  N   UNL A   1      35.203  21.436  26.565  1.00  0.00    -0.352 N 
ATOM      4  C   UNL A   1      34.002  21.972  26.970  1.00  0.00     0.251 C 
ATOM      5  O   UNL A   1      33.732  21.880  28.168  1.00  0.00    -0.269 OA
ATOM      6  H   UNL A   1      35.769  21.145  27.315  1.00  0.00     0.163 HD
BRANCH   4   7
ATOM      7  C   UNL A   1      33.013  22.625  26.061  1.00  0.00     0.040 A 
ATOM      8  C   UNL A   1      31.572  24.498  25.384  1.00  0.00    -0.039 A 
ATOM      9  C   UNL A   1      31.194  23.783  24.246  1.00  0.00     0.004 A 
ATOM     10  C   UNL A   1      32.436  23.870  26.294  1.00  0.00     0.018 A 
ATOM     11  C   UNL A   1      31.702  22.504  24.015  1.00  0.00     0.001 A 
ATOM     12  C   UNL A   1      32.619  21.938  24.906  1.00  0.00     0.014 A 
BRANCH   8  13
ATOM     13  C   UNL A   1      31.091  25.900  25.735  1.00  0.00     0.074 C 
ATOM     14  N   UNL A   1      31.149  27.087  23.515  1.00  0.00    -0.328 N 
ATOM     15  C   UNL A   1      32.242  27.957  23.963  1.00  0.00     0.262 C 
ATOM     16  C   UNL A   1      30.303  26.646  24.644  1.00  0.00     0.270 C 
ATOM     17  H   UNL A   1      31.592  26.260  23.115  1.00  0.00     0.348 HD
ATOM     18  C   UNL A   1      33.096  27.293  25.044  1.00  0.00     0.062 C 
ATOM     19  C   UNL A   1      32.236  26.825  26.213  1.00  0.00     0.020 C 
BRANCH  14  20
ATOM     20  C   UNL A   1      30.337  27.689  22.438  1.00  0.00     0.340 C 
BRANCH  20  21
ATOM     21  C   UNL A   1      29.226  28.559  22.925  1.00  0.00     0.179 A 
ATOM     22  C   UNL A   1      27.571  31.613  23.450  1.00  0.00     0.092 C 
ATOM     23  C   UNL A   1      27.969  30.197  23.339  1.00  0.00     0.147 A 
ATOM     24  N   UNL A   1      27.100  29.186  23.217  1.00  0.00    -0.159 NA
ATOM     25  N   UNL A   1      29.282  29.836  23.240  1.00  0.00    -0.211 NA
ATOM     26  N   UNL A   1      27.925  28.151  22.979  1.00  0.00    -0.258 N 
ATOM     27  H   UNL A   1      27.629  27.220  22.860  1.00  0.00     0.192 HD
ENDBRANCH  20  21
ENDBRANCH  14  20
ENDBRANCH   8  13
ENDBRANCH   4   7
ENDBRANCH   2   3
ENDBRANCH   1   2
BRANCH   1  28
ATOM     28  C   UNL A   1      37.481  23.049  25.765  1.00  0.00     0.118 C 
BRANCH  28  29
ATOM     29  N   UNL A   1      38.451  22.071  26.253  1.00  0.00    -0.352 N 
ATOM     30  C   UNL A   1      39.728  22.275  26.733  1.00  0.00     0.251 C 
ATOM     31  H   UNL A   1      38.149  21.134  26.235  1.00  0.00     0.163 HD
ATOM     32  O   UNL A   1      40.504  21.341  26.827  1.00  0.00    -0.269 OA
BRANCH  30  33
ATOM     33  C   UNL A   1      40.143  23.646  27.084  1.00  0.00     0.039 A 
ATOM     34  C   UNL A   1      39.376  24.731  26.660  1.00  0.00     0.014 A 
ATOM     35  C   UNL A   1      41.261  23.836  27.891  1.00  0.00     0.014 A 
ATOM     36  C   UNL A   1      39.680  25.999  27.148  1.00  0.00     0.010 A 
ATOM     37  C   UNL A   1      41.479  25.065  28.476  1.00  0.00     0.010 A 
ATOM     38  C   UNL A   1      40.708  26.158  28.094  1.00  0.00    -0.014 A 
BRANCH  38  39
ATOM     39  C   UNL A   1      40.877  27.450  28.757  1.00  0.00     0.031 A 
ATOM     40  C   UNL A   1      41.932  28.334  28.179  1.00  0.00     0.074 A 
ATOM     41  C   UNL A   1      40.062  27.942  29.714  1.00  0.00     0.049 A 
ATOM     42  N   UNL A   1      43.072  28.640  28.702  1.00  0.00    -0.248 NA
ATOM     43  C   UNL A   1      41.750  28.840  26.810  1.00  0.00     0.031 C 
ATOM     44  C   UNL A   1      38.793  27.405  30.215  1.00  0.00     0.029 A 
ATOM     45  N   UNL A   1      40.168  29.126  30.376  1.00  0.00    -0.354 N 
ATOM     46  C   UNL A   1      43.678  29.538  27.829  1.00  0.00     0.074 A 
ATOM     47  C   UNL A   1      42.894  29.504  26.619  1.00  0.00     0.031 C 
ATOM     48  C   UNL A   1      38.138  28.367  30.900  1.00  0.00     0.029 A 
ATOM     49  C   UNL A   1      39.016  29.513  31.044  1.00  0.00     0.049 A 
ATOM     50  H   UNL A   1      40.993  29.662  30.381  1.00  0.00     0.167 HD
ATOM     51  C   UNL A   1      44.659  30.391  28.243  1.00  0.00     0.031 A 
ATOM     52  C   UNL A   1      38.790  30.706  31.647  1.00  0.00     0.031 A 
ATOM     53  C   UNL A   1      45.170  30.025  29.540  1.00  0.00     0.049 A 
ATOM     54  C   UNL A   1      40.118  31.297  31.947  1.00  0.00     0.074 A 
ATOM     55  C   UNL A   1      45.751  28.890  30.071  1.00  0.00     0.029 A 
ATOM     56  N   UNL A   1      44.744  30.765  30.620  1.00  0.00    -0.354 N 
ATOM     57  N   UNL A   1      40.957  30.778  32.803  1.00  0.00    -0.248 NA
ATOM     58  C   UNL A   1      40.705  32.207  30.976  1.00  0.00     0.031 C 
ATOM     59  C   UNL A   1      45.180  28.766  31.373  1.00  0.00     0.029 A 
ATOM     60  C   UNL A   1      44.352  29.871  31.583  1.00  0.00     0.049 A 
ATOM     61  H   UNL A   1      44.723  31.748  30.689  1.00  0.00     0.167 HD
ATOM     62  C   UNL A   1      42.206  30.943  32.223  1.00  0.00     0.074 A 
ATOM     63  C   UNL A   1      41.997  31.914  31.148  1.00  0.00     0.031 C 
ATOM     64  C   UNL A   1      43.238  30.083  32.483  1.00  0.00     0.031 A 
BRANCH  51  65
ATOM     65  C   UNL A   1      44.898  31.765  27.661  1.00  0.00    -0.014 A 
ATOM     66  C   UNL A   1      46.165  32.056  27.109  1.00  0.00     0.010 A 
ATOM     67  C   UNL A   1      44.037  32.855  27.888  1.00  0.00     0.010 A 
ATOM     68  C   UNL A   1      46.580  33.376  26.891  1.00  0.00     0.020 A 
ATOM     69  C   UNL A   1      44.423  34.173  27.631  1.00  0.00     0.020 A 
ATOM     70  C   UNL A   1      45.709  34.428  27.173  1.00  0.00     0.054 A 
BRANCH  70  71
ATOM     71  S   UNL A   1      46.297  36.132  27.008  1.00  0.00     0.124 S 
ATOM     72  O   UNL A   1      47.183  36.032  25.854  1.00  0.00    -0.237 OA
ATOM     73  O   UNL A   1      45.054  36.869  26.793  1.00  0.00    -0.237 OA
ATOM     74  O   UNL A   1      46.955  36.390  28.287  1.00  0.00    -0.744 OA
ENDBRANCH  70  71
ENDBRANCH  51  65
BRANCH  52  75
ATOM     75  C   UNL A   1      37.522  31.478  31.677  1.00  0.00    -0.014 A 
ATOM     76  C   UNL A   1      36.709  31.485  32.824  1.00  0.00     0.010 A 
ATOM     77  C   UNL A   1      37.249  32.432  30.675  1.00  0.00     0.010 A 
ATOM     78  C   UNL A   1      35.710  32.459  32.996  1.00  0.00     0.020 A 
ATOM     79  C   UNL A   1      36.248  33.398  30.834  1.00  0.00     0.020 A 
ATOM     80  C   UNL A   1      35.502  33.425  32.008  1.00  0.00     0.054 A 
BRANCH  80  81
ATOM     81  S   UNL A   1      34.352  34.797  32.324  1.00  0.00     0.124 S 
ATOM     82  O   UNL A   1      35.165  35.705  33.129  1.00  0.00    -0.237 OA
ATOM     83  O   UNL A   1      34.030  35.259  30.979  1.00  0.00    -0.237 OA
ATOM     84  O   UNL A   1      33.245  34.160  33.037  1.00  0.00    -0.744 OA
ENDBRANCH  80  81
ENDBRANCH  52  75
BRANCH  64  85
ATOM     85  C   UNL A   1      43.115  29.103  33.630  1.00  0.00    -0.014 A 
ATOM     86  C   UNL A   1      43.529  29.376  34.947  1.00  0.00     0.010 A 
ATOM     87  C   UNL A   1      42.386  27.923  33.391  1.00  0.00     0.010 A 
ATOM     88  C   UNL A   1      43.238  28.482  35.991  1.00  0.00     0.020 A 
ATOM     89  C   UNL A   1      42.075  27.040  34.427  1.00  0.00     0.020 A 
ATOM     90  C   UNL A   1      42.510  27.319  35.723  1.00  0.00     0.054 A 
BRANCH  90  91
ATOM     91  S   UNL A   1      42.084  26.194  37.082  1.00  0.00     0.124 S 
ATOM     92  O   UNL A   1      43.062  26.550  38.106  1.00  0.00    -0.237 OA
ATOM     93  O   UNL A   1      40.699  26.554  37.382  1.00  0.00    -0.237 OA
ATOM     94  O   UNL A   1      42.255  24.862  36.502  1.00  0.00    -0.744 OA
ENDBRANCH  90  91
ENDBRANCH  64  85
ENDBRANCH  38  39
ENDBRANCH  30  33
ENDBRANCH  28  29
ENDBRANCH   1  28
TORSDOF 16
ENDMDL
