MODEL 1
REMARK VINA RESULT:     -12.8      0.000      0.000
REMARK SMILES C[C@H]1[C@@H](C(=O)NCCCNC(=O)c2ccc(-c3c4nc(c(-c5ccc(S(=O)(=O)[O-])cc5)c5ccc([nH]5)c(-c5ccc(S(=O)(=O)[O-])cc5)c5nc(c(-c6ccc(S(=O)(=O)[O-])cc6)c6ccc3[nH]6)C=C5)C=C4)cc2)CC[N@@H+]1Cc1cc(F)c(F)c(F)c1
REMARK SMILES IDX 8 1 7 2 6 3 4 4 5 5 3 7 1 8 2 9 75 10 73 11 74 12 76 14
REMARK SMILES IDX 77 15 78 16 85 17 79 18 83 19 80 20 81 21 84 22 82 23 9 24
REMARK SMILES IDX 10 25 11 26 12 28 13 29 14 30 72 31 15 32 71 33 16 34 17 35
REMARK SMILES IDX 18 36 65 37 19 38 70 39 64 40 66 41 20 42 69 43 63 44 62 45
REMARK SMILES IDX 21 47 51 48 32 49 50 50 33 51 36 52 49 53 67 54 34 55 35 56
REMARK SMILES IDX 48 58 68 59 37 60 22 61 23 62 31 63 24 64 30 65 25 66 26 67
REMARK SMILES IDX 27 68 28 69 29 70 52 71 53 72 61 73 54 74 60 75 55 76 56 77
REMARK SMILES IDX 57 78 58 79 59 80 38 81 39 82 47 83 40 84 46 85 41 86 42 87
REMARK SMILES IDX 43 88 44 89 45 90
REMARK H PARENT 6 6 75 13 10 27 66 46 36 57
REMARK Flexibility Score: inf
ROOT
ATOM      1  C   UNL A   1      39.969  21.900  26.842  1.00  0.00     0.042 C 
ENDROOT
BRANCH   1   2
ATOM      2  C   UNL A   1      38.747  21.805  25.925  1.00  0.00     0.117 C 
BRANCH   2   3
ATOM      3  N   UNL A   1      37.875  22.940  26.157  1.00  0.00    -0.356 N 
ATOM      4  C   UNL A   1      36.576  23.151  25.815  1.00  0.00     0.229 C 
ATOM      5  O   UNL A   1      36.218  24.332  25.791  1.00  0.00    -0.275 OA
ATOM      6  H   UNL A   1      38.295  23.684  26.646  1.00  0.00     0.163 HD
BRANCH   4   7
ATOM      7  C   UNL A   1      35.589  21.991  25.657  1.00  0.00     0.142 C 
ATOM      8  C   UNL A   1      34.544  22.967  23.429  1.00  0.00     0.076 C 
ATOM      9  C   UNL A   1      34.461  22.011  24.600  1.00  0.00     0.193 C 
ATOM     10  N   UNL A   1      33.208  22.322  25.309  1.00  0.00    -0.328 N 
ATOM     11  C   UNL A   1      34.793  21.849  26.967  1.00  0.00     0.081 C 
ATOM     12  C   UNL A   1      33.531  22.642  26.690  1.00  0.00     0.263 C 
ATOM     13  H   UNL A   1      32.792  23.154  24.892  1.00  0.00     0.348 HD
BRANCH  10  14
ATOM     14  C   UNL A   1      32.083  21.418  25.068  1.00  0.00     0.299 C 
BRANCH  14  15
ATOM     15  C   UNL A   1      32.420  20.011  24.617  1.00  0.00     0.012 A 
ATOM     16  C   UNL A   1      32.844  19.040  25.540  1.00  0.00     0.052 A 
ATOM     17  C   UNL A   1      32.312  19.645  23.265  1.00  0.00     0.052 A 
ATOM     18  C   UNL A   1      33.117  17.740  25.118  1.00  0.00     0.162 A 
ATOM     19  C   UNL A   1      32.571  18.336  22.864  1.00  0.00     0.162 A 
ATOM     20  F   UNL A   1      33.518  16.830  26.017  1.00  0.00    -0.204 F 
ATOM     21  C   UNL A   1      32.971  17.381  23.785  1.00  0.00     0.194 A 
ATOM     22  F   UNL A   1      32.417  18.006  21.574  1.00  0.00    -0.204 F 
ATOM     23  F   UNL A   1      33.216  16.123  23.391  1.00  0.00    -0.200 F 
ENDBRANCH  14  15
ENDBRANCH  10  14
ENDBRANCH   4   7
ENDBRANCH   2   3
ENDBRANCH   1   2
BRANCH   1  24
ATOM     24  C   UNL A   1      40.313  23.318  27.281  1.00  0.00     0.118 C 
BRANCH  24  25
ATOM     25  N   UNL A   1      40.916  24.085  26.209  1.00  0.00    -0.352 N 
ATOM     26  C   UNL A   1      41.135  25.435  26.115  1.00  0.00     0.251 C 
ATOM     27  H   UNL A   1      41.213  23.557  25.432  1.00  0.00     0.163 HD
ATOM     28  O   UNL A   1      41.426  25.908  25.012  1.00  0.00    -0.269 OA
BRANCH  26  29
ATOM     29  C   UNL A   1      41.017  26.333  27.291  1.00  0.00     0.039 A 
ATOM     30  C   UNL A   1      39.942  26.146  28.168  1.00  0.00     0.014 A 
ATOM     31  C   UNL A   1      41.898  27.397  27.509  1.00  0.00     0.014 A 
ATOM     32  C   UNL A   1      39.770  27.000  29.262  1.00  0.00     0.010 A 
ATOM     33  C   UNL A   1      41.777  28.192  28.650  1.00  0.00     0.010 A 
ATOM     34  C   UNL A   1      40.695  28.022  29.526  1.00  0.00    -0.014 A 
BRANCH  34  35
ATOM     35  C   UNL A   1      40.513  28.942  30.682  1.00  0.00     0.031 A 
ATOM     36  C   UNL A   1      41.381  28.805  31.910  1.00  0.00     0.074 A 
ATOM     37  C   UNL A   1      39.554  29.887  30.646  1.00  0.00     0.049 A 
ATOM     38  N   UNL A   1      41.361  29.503  33.017  1.00  0.00    -0.248 NA
ATOM     39  C   UNL A   1      42.384  27.727  31.901  1.00  0.00     0.031 C 
ATOM     40  C   UNL A   1      38.614  30.099  29.543  1.00  0.00     0.029 A 
ATOM     41  N   UNL A   1      39.208  30.848  31.564  1.00  0.00    -0.354 N 
ATOM     42  C   UNL A   1      42.331  28.940  33.840  1.00  0.00     0.074 A 
ATOM     43  C   UNL A   1      42.884  27.811  33.125  1.00  0.00     0.031 C 
ATOM     44  C   UNL A   1      37.821  31.142  29.836  1.00  0.00     0.029 A 
ATOM     45  C   UNL A   1      38.172  31.654  31.157  1.00  0.00     0.049 A 
ATOM     46  H   UNL A   1      39.661  30.951  32.432  1.00  0.00     0.167 HD
ATOM     47  C   UNL A   1      42.745  29.336  35.068  1.00  0.00     0.031 A 
ATOM     48  C   UNL A   1      37.570  32.690  31.773  1.00  0.00     0.031 A 
ATOM     49  C   UNL A   1      42.211  30.470  35.774  1.00  0.00     0.049 A 
ATOM     50  C   UNL A   1      38.059  33.129  33.124  1.00  0.00     0.074 A 
ATOM     51  C   UNL A   1      42.598  30.983  37.001  1.00  0.00     0.029 A 
ATOM     52  N   UNL A   1      41.177  31.272  35.315  1.00  0.00    -0.354 N 
ATOM     53  N   UNL A   1      39.017  32.617  33.860  1.00  0.00    -0.248 NA
ATOM     54  C   UNL A   1      37.399  34.298  33.722  1.00  0.00     0.031 C 
ATOM     55  C   UNL A   1      41.772  32.072  37.300  1.00  0.00     0.029 A 
ATOM     56  C   UNL A   1      40.904  32.268  36.238  1.00  0.00     0.049 A 
ATOM     57  H   UNL A   1      40.707  31.152  34.458  1.00  0.00     0.167 HD
ATOM     58  C   UNL A   1      39.085  33.410  34.999  1.00  0.00     0.074 A 
ATOM     59  C   UNL A   1      38.086  34.449  34.846  1.00  0.00     0.031 C 
ATOM     60  C   UNL A   1      39.899  33.288  36.077  1.00  0.00     0.031 A 
BRANCH  47  61
ATOM     61  C   UNL A   1      43.836  28.530  35.725  1.00  0.00    -0.014 A 
ATOM     62  C   UNL A   1      45.192  28.842  35.516  1.00  0.00     0.010 A 
ATOM     63  C   UNL A   1      43.505  27.461  36.575  1.00  0.00     0.010 A 
ATOM     64  C   UNL A   1      46.196  28.069  36.104  1.00  0.00     0.020 A 
ATOM     65  C   UNL A   1      44.507  26.701  37.189  1.00  0.00     0.020 A 
ATOM     66  C   UNL A   1      45.847  26.998  36.931  1.00  0.00     0.054 A 
BRANCH  66  67
ATOM     67  S   UNL A   1      47.169  26.014  37.688  1.00  0.00     0.124 S 
ATOM     68  O   UNL A   1      47.113  26.456  39.080  1.00  0.00    -0.237 OA
ATOM     69  O   UNL A   1      46.729  24.642  37.447  1.00  0.00    -0.237 OA
ATOM     70  O   UNL A   1      48.366  26.418  36.955  1.00  0.00    -0.744 OA
ENDBRANCH  66  67
ENDBRANCH  47  61
BRANCH  48  71
ATOM     71  C   UNL A   1      36.448  33.398  31.099  1.00  0.00    -0.014 A 
ATOM     72  C   UNL A   1      35.270  33.706  31.802  1.00  0.00     0.010 A 
ATOM     73  C   UNL A   1      36.565  33.794  29.753  1.00  0.00     0.010 A 
ATOM     74  C   UNL A   1      34.227  34.389  31.171  1.00  0.00     0.020 A 
ATOM     75  C   UNL A   1      35.534  34.498  29.126  1.00  0.00     0.020 A 
ATOM     76  C   UNL A   1      34.366  34.784  29.837  1.00  0.00     0.054 A 
BRANCH  76  77
ATOM     77  S   UNL A   1      33.029  35.733  29.058  1.00  0.00     0.124 S 
ATOM     78  O   UNL A   1      32.221  36.121  30.209  1.00  0.00    -0.237 OA
ATOM     79  O   UNL A   1      33.753  36.816  28.397  1.00  0.00    -0.237 OA
ATOM     80  O   UNL A   1      32.411  34.766  28.152  1.00  0.00    -0.744 OA
ENDBRANCH  76  77
ENDBRANCH  48  71
BRANCH  60  81
ATOM     81  C   UNL A   1      39.757  34.317  37.165  1.00  0.00    -0.014 A 
ATOM     82  C   UNL A   1      38.933  34.084  38.281  1.00  0.00     0.010 A 
ATOM     83  C   UNL A   1      40.484  35.519  37.088  1.00  0.00     0.010 A 
ATOM     84  C   UNL A   1      38.808  35.053  39.281  1.00  0.00     0.020 A 
ATOM     85  C   UNL A   1      40.381  36.478  38.098  1.00  0.00     0.020 A 
ATOM     86  C   UNL A   1      39.530  36.246  39.180  1.00  0.00     0.054 A 
BRANCH  86  87
ATOM     87  S   UNL A   1      39.370  37.480  40.500  1.00  0.00     0.124 S 
ATOM     88  O   UNL A   1      40.700  38.082  40.514  1.00  0.00    -0.237 OA
ATOM     89  O   UNL A   1      38.295  38.340  40.011  1.00  0.00    -0.237 OA
ATOM     90  O   UNL A   1      39.034  36.682  41.678  1.00  0.00    -0.744 OA
ENDBRANCH  86  87
ENDBRANCH  60  81
ENDBRANCH  34  35
ENDBRANCH  26  29
ENDBRANCH  24  25
ENDBRANCH   1  24
TORSDOF 15
ENDMDL
MODEL 2
REMARK VINA RESULT:     -12.6      4.527     10.152
REMARK SMILES C[C@H]1[C@@H](C(=O)NCCCNC(=O)c2ccc(-c3c4nc(c(-c5ccc(S(=O)(=O)[O-])cc5)c5ccc([nH]5)c(-c5ccc(S(=O)(=O)[O-])cc5)c5nc(c(-c6ccc(S(=O)(=O)[O-])cc6)c6ccc3[nH]6)C=C5)C=C4)cc2)CC[N@@H+]1Cc1cc(F)c(F)c(F)c1
REMARK SMILES IDX 8 1 7 2 6 3 4 4 5 5 3 7 1 8 2 9 75 10 73 11 74 12 76 14
REMARK SMILES IDX 77 15 78 16 85 17 79 18 83 19 80 20 81 21 84 22 82 23 9 24
REMARK SMILES IDX 10 25 11 26 12 28 13 29 14 30 72 31 15 32 71 33 16 34 17 35
REMARK SMILES IDX 18 36 65 37 19 38 70 39 64 40 66 41 20 42 69 43 63 44 62 45
REMARK SMILES IDX 21 47 51 48 32 49 50 50 33 51 36 52 49 53 67 54 34 55 35 56
REMARK SMILES IDX 48 58 68 59 37 60 22 61 23 62 31 63 24 64 30 65 25 66 26 67
REMARK SMILES IDX 27 68 28 69 29 70 52 71 53 72 61 73 54 74 60 75 55 76 56 77
REMARK SMILES IDX 57 78 58 79 59 80 38 81 39 82 47 83 40 84 46 85 41 86 42 87
REMARK SMILES IDX 43 88 44 89 45 90
REMARK H PARENT 6 6 75 13 10 27 66 46 36 57
REMARK Flexibility Score: inf
ROOT
ATOM      1  C   UNL A   1      33.875  27.907  25.804  1.00  0.00     0.042 C 
ENDROOT
BRANCH   1   2
ATOM      2  C   UNL A   1      32.685  27.751  24.855  1.00  0.00     0.117 C 
BRANCH   2   3
ATOM      3  N   UNL A   1      33.123  27.127  23.622  1.00  0.00    -0.356 N 
ATOM      4  C   UNL A   1      33.260  25.817  23.285  1.00  0.00     0.229 C 
ATOM      5  O   UNL A   1      34.010  25.587  22.332  1.00  0.00    -0.275 OA
ATOM      6  H   UNL A   1      33.363  27.759  22.907  1.00  0.00     0.163 HD
BRANCH   4   7
ATOM      7  C   UNL A   1      32.395  24.729  23.928  1.00  0.00     0.142 C 
ATOM      8  C   UNL A   1      34.208  24.139  25.764  1.00  0.00     0.076 C 
ATOM      9  C   UNL A   1      32.946  23.774  25.011  1.00  0.00     0.193 C 
ATOM     10  N   UNL A   1      33.205  22.480  24.358  1.00  0.00    -0.328 N 
ATOM     11  C   UNL A   1      31.959  23.743  22.828  1.00  0.00     0.081 C 
ATOM     12  C   UNL A   1      32.993  22.639  22.928  1.00  0.00     0.263 C 
ATOM     13  H   UNL A   1      34.184  22.232  24.496  1.00  0.00     0.348 HD
BRANCH  10  14
ATOM     14  C   UNL A   1      32.628  21.299  25.001  1.00  0.00     0.299 C 
BRANCH  14  15
ATOM     15  C   UNL A   1      33.019  19.950  24.430  1.00  0.00     0.012 A 
ATOM     16  C   UNL A   1      32.252  19.345  23.420  1.00  0.00     0.052 A 
ATOM     17  C   UNL A   1      34.161  19.277  24.896  1.00  0.00     0.052 A 
ATOM     18  C   UNL A   1      32.643  18.121  22.879  1.00  0.00     0.162 A 
ATOM     19  C   UNL A   1      34.547  18.065  24.329  1.00  0.00     0.162 A 
ATOM     20  F   UNL A   1      31.896  17.564  21.915  1.00  0.00    -0.204 F 
ATOM     21  C   UNL A   1      33.793  17.484  23.322  1.00  0.00     0.194 A 
ATOM     22  F   UNL A   1      35.665  17.467  24.765  1.00  0.00    -0.204 F 
ATOM     23  F   UNL A   1      34.173  16.318  22.781  1.00  0.00    -0.200 F 
ENDBRANCH  14  15
ENDBRANCH  10  14
ENDBRANCH   4   7
ENDBRANCH   2   3
ENDBRANCH   1   2
BRANCH   1  24
ATOM     24  C   UNL A   1      33.492  28.266  27.234  1.00  0.00     0.118 C 
BRANCH  24  25
ATOM     25  N   UNL A   1      33.440  29.701  27.437  1.00  0.00    -0.352 N 
ATOM     26  C   UNL A   1      34.371  30.540  27.994  1.00  0.00     0.251 C 
ATOM     27  H   UNL A   1      32.614  30.138  27.126  1.00  0.00     0.163 HD
ATOM     28  O   UNL A   1      34.021  31.684  28.303  1.00  0.00    -0.269 OA
BRANCH  26  29
ATOM     29  C   UNL A   1      35.767  30.105  28.247  1.00  0.00     0.039 A 
ATOM     30  C   UNL A   1      36.104  29.654  29.528  1.00  0.00     0.014 A 
ATOM     31  C   UNL A   1      36.766  30.200  27.273  1.00  0.00     0.014 A 
ATOM     32  C   UNL A   1      37.420  29.279  29.819  1.00  0.00     0.010 A 
ATOM     33  C   UNL A   1      38.058  29.742  27.538  1.00  0.00     0.010 A 
ATOM     34  C   UNL A   1      38.408  29.302  28.823  1.00  0.00    -0.014 A 
BRANCH  34  35
ATOM     35  C   UNL A   1      39.813  28.915  29.127  1.00  0.00     0.031 A 
ATOM     36  C   UNL A   1      40.743  29.892  29.804  1.00  0.00     0.074 A 
ATOM     37  C   UNL A   1      40.269  27.697  28.775  1.00  0.00     0.049 A 
ATOM     38  N   UNL A   1      42.000  29.741  30.137  1.00  0.00    -0.248 NA
ATOM     39  C   UNL A   1      40.195  31.220  30.129  1.00  0.00     0.031 C 
ATOM     40  C   UNL A   1      39.492  26.673  28.071  1.00  0.00     0.029 A 
ATOM     41  N   UNL A   1      41.497  27.112  28.958  1.00  0.00    -0.354 N 
ATOM     42  C   UNL A   1      42.397  30.955  30.690  1.00  0.00     0.074 A 
ATOM     43  C   UNL A   1      41.263  31.848  30.600  1.00  0.00     0.031 C 
ATOM     44  C   UNL A   1      40.252  25.578  27.911  1.00  0.00     0.029 A 
ATOM     45  C   UNL A   1      41.577  25.830  28.470  1.00  0.00     0.049 A 
ATOM     46  H   UNL A   1      42.250  27.568  29.399  1.00  0.00     0.167 HD
ATOM     47  C   UNL A   1      43.586  31.293  31.244  1.00  0.00     0.031 A 
ATOM     48  C   UNL A   1      42.599  24.951  28.470  1.00  0.00     0.031 A 
ATOM     49  C   UNL A   1      44.710  30.402  31.353  1.00  0.00     0.049 A 
ATOM     50  C   UNL A   1      43.902  25.338  29.112  1.00  0.00     0.074 A 
ATOM     51  C   UNL A   1      45.941  30.635  31.944  1.00  0.00     0.029 A 
ATOM     52  N   UNL A   1      44.741  29.104  30.865  1.00  0.00    -0.354 N 
ATOM     53  N   UNL A   1      44.236  26.472  29.680  1.00  0.00    -0.248 NA
ATOM     54  C   UNL A   1      44.961  24.319  29.129  1.00  0.00     0.031 C 
ATOM     55  C   UNL A   1      46.729  29.489  31.778  1.00  0.00     0.029 A 
ATOM     56  C   UNL A   1      45.972  28.527  31.129  1.00  0.00     0.049 A 
ATOM     57  H   UNL A   1      43.996  28.658  30.400  1.00  0.00     0.167 HD
ATOM     58  C   UNL A   1      45.538  26.298  30.136  1.00  0.00     0.074 A 
ATOM     59  C   UNL A   1      45.922  24.942  29.797  1.00  0.00     0.031 C 
ATOM     60  C   UNL A   1      46.343  27.181  30.776  1.00  0.00     0.031 A 
BRANCH  47  61
ATOM     61  C   UNL A   1      43.727  32.695  31.779  1.00  0.00    -0.014 A 
ATOM     62  C   UNL A   1      44.208  33.736  30.964  1.00  0.00     0.010 A 
ATOM     63  C   UNL A   1      43.355  32.982  33.104  1.00  0.00     0.010 A 
ATOM     64  C   UNL A   1      44.363  35.025  31.478  1.00  0.00     0.020 A 
ATOM     65  C   UNL A   1      43.482  34.279  33.615  1.00  0.00     0.020 A 
ATOM     66  C   UNL A   1      44.007  35.287  32.803  1.00  0.00     0.054 A 
BRANCH  66  67
ATOM     67  S   UNL A   1      44.212  36.971  33.445  1.00  0.00     0.124 S 
ATOM     68  O   UNL A   1      43.743  37.780  32.322  1.00  0.00    -0.237 OA
ATOM     69  O   UNL A   1      43.349  36.975  34.624  1.00  0.00    -0.237 OA
ATOM     70  O   UNL A   1      45.642  37.064  33.724  1.00  0.00    -0.744 OA
ENDBRANCH  66  67
ENDBRANCH  47  61
BRANCH  48  71
ATOM     71  C   UNL A   1      42.416  23.607  27.859  1.00  0.00    -0.014 A 
ATOM     72  C   UNL A   1      42.766  23.377  26.517  1.00  0.00     0.010 A 
ATOM     73  C   UNL A   1      41.916  22.539  28.629  1.00  0.00     0.010 A 
ATOM     74  C   UNL A   1      42.611  22.108  25.953  1.00  0.00     0.020 A 
ATOM     75  C   UNL A   1      41.783  21.264  28.075  1.00  0.00     0.020 A 
ATOM     76  C   UNL A   1      42.124  21.057  26.736  1.00  0.00     0.054 A 
BRANCH  76  77
ATOM     77  S   UNL A   1      41.998  19.401  26.005  1.00  0.00     0.124 S 
ATOM     78  O   UNL A   1      42.837  19.529  24.818  1.00  0.00    -0.237 OA
ATOM     79  O   UNL A   1      42.526  18.546  27.065  1.00  0.00    -0.237 OA
ATOM     80  O   UNL A   1      40.566  19.250  25.750  1.00  0.00    -0.744 OA
ENDBRANCH  76  77
ENDBRANCH  48  71
BRANCH  60  81
ATOM     81  C   UNL A   1      47.714  26.701  31.169  1.00  0.00    -0.014 A 
ATOM     82  C   UNL A   1      47.953  26.153  32.442  1.00  0.00     0.010 A 
ATOM     83  C   UNL A   1      48.769  26.767  30.240  1.00  0.00     0.010 A 
ATOM     84  C   UNL A   1      49.234  25.716  32.792  1.00  0.00     0.020 A 
ATOM     85  C   UNL A   1      50.044  26.309  30.580  1.00  0.00     0.020 A 
ATOM     86  C   UNL A   1      50.272  25.802  31.860  1.00  0.00     0.054 A 
BRANCH  86  87
ATOM     87  S   UNL A   1      51.921  25.207  32.329  1.00  0.00     0.124 S 
ATOM     88  O   UNL A   1      52.053  25.721  33.689  1.00  0.00    -0.237 OA
ATOM     89  O   UNL A   1      51.786  23.757  32.215  1.00  0.00    -0.237 OA
ATOM     90  O   UNL A   1      52.804  25.823  31.341  1.00  0.00    -0.744 OA
ENDBRANCH  86  87
ENDBRANCH  60  81
ENDBRANCH  34  35
ENDBRANCH  26  29
ENDBRANCH  24  25
ENDBRANCH   1  24
TORSDOF 15
ENDMDL
MODEL 3
REMARK VINA RESULT:     -12.1      6.032     12.540
REMARK SMILES C[C@H]1[C@@H](C(=O)NCCCNC(=O)c2ccc(-c3c4nc(c(-c5ccc(S(=O)(=O)[O-])cc5)c5ccc([nH]5)c(-c5ccc(S(=O)(=O)[O-])cc5)c5nc(c(-c6ccc(S(=O)(=O)[O-])cc6)c6ccc3[nH]6)C=C5)C=C4)cc2)CC[N@@H+]1Cc1cc(F)c(F)c(F)c1
REMARK SMILES IDX 8 1 7 2 6 3 4 4 5 5 3 7 1 8 2 9 75 10 73 11 74 12 76 14
REMARK SMILES IDX 77 15 78 16 85 17 79 18 83 19 80 20 81 21 84 22 82 23 9 24
REMARK SMILES IDX 10 25 11 26 12 28 13 29 14 30 72 31 15 32 71 33 16 34 17 35
REMARK SMILES IDX 18 36 65 37 19 38 70 39 64 40 66 41 20 42 69 43 63 44 62 45
REMARK SMILES IDX 21 47 51 48 32 49 50 50 33 51 36 52 49 53 67 54 34 55 35 56
REMARK SMILES IDX 48 58 68 59 37 60 22 61 23 62 31 63 24 64 30 65 25 66 26 67
REMARK SMILES IDX 27 68 28 69 29 70 52 71 53 72 61 73 54 74 60 75 55 76 56 77
REMARK SMILES IDX 57 78 58 79 59 80 38 81 39 82 47 83 40 84 46 85 41 86 42 87
REMARK SMILES IDX 43 88 44 89 45 90
REMARK H PARENT 6 6 75 13 10 27 66 46 36 57
REMARK Flexibility Score: inf
ROOT
ATOM      1  C   UNL A   1      34.726  32.649  29.934  1.00  0.00     0.042 C 
ENDROOT
BRANCH   1   2
ATOM      2  C   UNL A   1      34.460  34.042  30.507  1.00  0.00     0.117 C 
BRANCH   2   3
ATOM      3  N   UNL A   1      34.139  33.936  31.917  1.00  0.00    -0.356 N 
ATOM      4  C   UNL A   1      34.912  33.605  32.986  1.00  0.00     0.229 C 
ATOM      5  O   UNL A   1      34.300  33.218  33.985  1.00  0.00    -0.275 OA
ATOM      6  H   UNL A   1      33.202  34.138  32.139  1.00  0.00     0.163 HD
BRANCH   4   7
ATOM      7  C   UNL A   1      36.419  33.876  33.000  1.00  0.00     0.142 C 
ATOM      8  C   UNL A   1      37.022  31.506  31.987  1.00  0.00     0.076 C 
ATOM      9  C   UNL A   1      37.456  32.769  32.701  1.00  0.00     0.193 C 
ATOM     10  N   UNL A   1      38.025  32.348  33.992  1.00  0.00    -0.328 N 
ATOM     11  C   UNL A   1      36.821  34.310  34.422  1.00  0.00     0.081 C 
ATOM     12  C   UNL A   1      37.292  33.017  35.056  1.00  0.00     0.263 C 
ATOM     13  H   UNL A   1      37.880  31.346  34.105  1.00  0.00     0.348 HD
BRANCH  10  14
ATOM     14  C   UNL A   1      39.486  32.330  34.084  1.00  0.00     0.299 C 
BRANCH  14  15
ATOM     15  C   UNL A   1      40.174  31.018  33.761  1.00  0.00     0.012 A 
ATOM     16  C   UNL A   1      41.553  30.855  33.981  1.00  0.00     0.052 A 
ATOM     17  C   UNL A   1      39.447  29.935  33.240  1.00  0.00     0.052 A 
ATOM     18  C   UNL A   1      42.167  29.632  33.713  1.00  0.00     0.162 A 
ATOM     19  C   UNL A   1      40.074  28.715  32.998  1.00  0.00     0.162 A 
ATOM     20  F   UNL A   1      43.482  29.499  33.932  1.00  0.00    -0.204 F 
ATOM     21  C   UNL A   1      41.430  28.558  33.233  1.00  0.00     0.194 A 
ATOM     22  F   UNL A   1      39.345  27.687  32.540  1.00  0.00    -0.204 F 
ATOM     23  F   UNL A   1      42.025  27.380  32.999  1.00  0.00    -0.200 F 
ENDBRANCH  14  15
ENDBRANCH  10  14
ENDBRANCH   4   7
ENDBRANCH   2   3
ENDBRANCH   1   2
BRANCH   1  24
ATOM     24  C   UNL A   1      34.471  32.530  28.436  1.00  0.00     0.118 C 
BRANCH  24  25
ATOM     25  N   UNL A   1      33.849  31.265  28.092  1.00  0.00    -0.352 N 
ATOM     26  C   UNL A   1      34.426  30.046  27.845  1.00  0.00     0.251 C 
ATOM     27  H   UNL A   1      32.867  31.285  28.028  1.00  0.00     0.163 HD
ATOM     28  O   UNL A   1      33.737  29.166  27.319  1.00  0.00    -0.269 OA
BRANCH  26  29
ATOM     29  C   UNL A   1      35.846  29.769  28.175  1.00  0.00     0.039 A 
ATOM     30  C   UNL A   1      36.814  29.970  27.184  1.00  0.00     0.014 A 
ATOM     31  C   UNL A   1      36.236  29.247  29.412  1.00  0.00     0.014 A 
ATOM     32  C   UNL A   1      38.157  29.676  27.441  1.00  0.00     0.010 A 
ATOM     33  C   UNL A   1      37.587  29.038  29.698  1.00  0.00     0.010 A 
ATOM     34  C   UNL A   1      38.561  29.224  28.707  1.00  0.00    -0.014 A 
BRANCH  34  35
ATOM     35  C   UNL A   1      39.987  28.898  28.986  1.00  0.00     0.031 A 
ATOM     36  C   UNL A   1      40.895  29.926  29.614  1.00  0.00     0.074 A 
ATOM     37  C   UNL A   1      40.479  27.688  28.654  1.00  0.00     0.049 A 
ATOM     38  N   UNL A   1      42.165  29.830  29.918  1.00  0.00    -0.248 NA
ATOM     39  C   UNL A   1      40.306  31.241  29.917  1.00  0.00     0.031 C 
ATOM     40  C   UNL A   1      39.724  26.617  27.997  1.00  0.00     0.029 A 
ATOM     41  N   UNL A   1      41.732  27.153  28.821  1.00  0.00    -0.354 N 
ATOM     42  C   UNL A   1      42.529  31.072  30.429  1.00  0.00     0.074 A 
ATOM     43  C   UNL A   1      41.361  31.920  30.344  1.00  0.00     0.031 C 
ATOM     44  C   UNL A   1      40.521  25.547  27.847  1.00  0.00     0.029 A 
ATOM     45  C   UNL A   1      41.848  25.862  28.365  1.00  0.00     0.049 A 
ATOM     46  H   UNL A   1      42.478  27.649  29.232  1.00  0.00     0.167 HD
ATOM     47  C   UNL A   1      43.718  31.468  30.945  1.00  0.00     0.031 A 
ATOM     48  C   UNL A   1      42.902  25.022  28.363  1.00  0.00     0.031 A 
ATOM     49  C   UNL A   1      44.877  30.623  31.049  1.00  0.00     0.049 A 
ATOM     50  C   UNL A   1      44.205  25.473  28.961  1.00  0.00     0.074 A 
ATOM     51  C   UNL A   1      46.112  30.916  31.601  1.00  0.00     0.029 A 
ATOM     52  N   UNL A   1      44.944  29.314  30.594  1.00  0.00    -0.354 N 
ATOM     53  N   UNL A   1      44.510  26.634  29.491  1.00  0.00    -0.248 NA
ATOM     54  C   UNL A   1      45.301  24.495  28.979  1.00  0.00     0.031 C 
ATOM     55  C   UNL A   1      46.938  29.797  31.446  1.00  0.00     0.029 A 
ATOM     56  C   UNL A   1      46.202  28.790  30.842  1.00  0.00     0.049 A 
ATOM     57  H   UNL A   1      44.206  28.829  30.160  1.00  0.00     0.167 HD
ATOM     58  C   UNL A   1      45.828  26.520  29.918  1.00  0.00     0.074 A 
ATOM     59  C   UNL A   1      46.254  25.171  29.606  1.00  0.00     0.031 C 
ATOM     60  C   UNL A   1      46.615  27.450  30.515  1.00  0.00     0.031 A 
BRANCH  47  61
ATOM     61  C   UNL A   1      43.819  32.889  31.439  1.00  0.00    -0.014 A 
ATOM     62  C   UNL A   1      43.671  33.192  32.805  1.00  0.00     0.010 A 
ATOM     63  C   UNL A   1      44.083  33.931  30.533  1.00  0.00     0.010 A 
ATOM     64  C   UNL A   1      43.736  34.515  33.248  1.00  0.00     0.020 A 
ATOM     65  C   UNL A   1      44.176  35.255  30.977  1.00  0.00     0.020 A 
ATOM     66  C   UNL A   1      43.980  35.540  32.330  1.00  0.00     0.054 A 
BRANCH  66  67
ATOM     67  S   UNL A   1      44.065  37.249  32.932  1.00  0.00     0.124 S 
ATOM     68  O   UNL A   1      44.047  38.008  31.684  1.00  0.00    -0.237 OA
ATOM     69  O   UNL A   1      42.862  37.362  33.752  1.00  0.00    -0.237 OA
ATOM     70  O   UNL A   1      45.324  37.294  33.670  1.00  0.00    -0.744 OA
ENDBRANCH  66  67
ENDBRANCH  47  61
BRANCH  48  71
ATOM     71  C   UNL A   1      42.755  23.656  27.792  1.00  0.00    -0.014 A 
ATOM     72  C   UNL A   1      42.361  22.579  28.605  1.00  0.00     0.010 A 
ATOM     73  C   UNL A   1      42.981  23.432  26.421  1.00  0.00     0.010 A 
ATOM     74  C   UNL A   1      42.204  21.301  28.062  1.00  0.00     0.020 A 
ATOM     75  C   UNL A   1      42.801  22.161  25.869  1.00  0.00     0.020 A 
ATOM     76  C   UNL A   1      42.422  21.100  26.695  1.00  0.00     0.054 A 
BRANCH  76  77
ATOM     77  S   UNL A   1      42.143  19.449  25.995  1.00  0.00     0.124 S 
ATOM     78  O   UNL A   1      43.000  19.472  24.814  1.00  0.00    -0.237 OA
ATOM     79  O   UNL A   1      42.578  18.569  27.078  1.00  0.00    -0.237 OA
ATOM     80  O   UNL A   1      40.706  19.431  25.729  1.00  0.00    -0.744 OA
ENDBRANCH  76  77
ENDBRANCH  48  71
BRANCH  60  81
ATOM     81  C   UNL A   1      48.012  27.031  30.886  1.00  0.00    -0.014 A 
ATOM     82  C   UNL A   1      48.271  26.359  32.094  1.00  0.00     0.010 A 
ATOM     83  C   UNL A   1      49.074  27.282  29.998  1.00  0.00     0.010 A 
ATOM     84  C   UNL A   1      49.576  25.982  32.425  1.00  0.00     0.020 A 
ATOM     85  C   UNL A   1      50.375  26.885  30.316  1.00  0.00     0.020 A 
ATOM     86  C   UNL A   1      50.620  26.252  31.536  1.00  0.00     0.054 A 
BRANCH  86  87
ATOM     87  S   UNL A   1      52.301  25.732  31.976  1.00  0.00     0.124 S 
ATOM     88  O   UNL A   1      53.041  26.030  30.753  1.00  0.00    -0.237 OA
ATOM     89  O   UNL A   1      52.613  26.584  33.122  1.00  0.00    -0.237 OA
ATOM     90  O   UNL A   1      52.153  24.312  32.286  1.00  0.00    -0.744 OA
ENDBRANCH  86  87
ENDBRANCH  60  81
ENDBRANCH  34  35
ENDBRANCH  26  29
ENDBRANCH  24  25
ENDBRANCH   1  24
TORSDOF 15
ENDMDL
