MODEL 1
REMARK VINA RESULT:     -13.2      0.000      0.000
REMARK SMILES Cc1n[nH]c2c1[C@@]1(C(=O)N([C@@H](C)C(=O)NCCCNC(=O)c3ccc(-c4c5nc(c(-c6ccc(S(=O)(=O)[O-])cc6)c6ccc([nH]6)c(-c6ccc(S(=O)(=O)[O-])cc6)c6nc(c(-c7ccc(S(=O)(=O)[O-])cc7)c7ccc4[nH]7)C=C6)C=C5)cc3)c3ccccc31)C(C#N)=C(N)O2
REMARK SMILES IDX 17 1 16 2 15 3 13 4 14 5 11 7 12 8 10 9 1 10 2 11 3 12 6 13
REMARK SMILES IDX 4 14 5 15 7 16 93 18 8 19 87 20 88 21 91 22 9 23 82 24 86 25
REMARK SMILES IDX 83 26 85 27 84 28 89 29 90 30 92 31 18 34 19 35 20 36 21 38
REMARK SMILES IDX 22 39 23 40 81 41 24 42 80 43 25 44 26 45 27 46 74 47 28 48
REMARK SMILES IDX 79 49 73 50 75 51 29 52 78 53 72 54 71 55 30 57 60 58 41 59
REMARK SMILES IDX 59 60 42 61 45 62 58 63 76 64 43 65 44 66 57 68 77 69 46 70
REMARK SMILES IDX 31 71 32 72 40 73 33 74 39 75 34 76 35 77 36 78 37 79 38 80
REMARK SMILES IDX 61 81 62 82 70 83 63 84 69 85 64 86 65 87 66 88 67 89 68 90
REMARK SMILES IDX 47 91 48 92 56 93 49 94 55 95 50 96 51 97 52 98 53 99 54 100
REMARK H PARENT 15 6 4 17 92 32 92 33 19 37 75 56 45 67
REMARK Flexibility Score: inf
ROOT
ATOM      1  C   UNL A   1      35.206  21.744  26.209  1.00  0.00     0.042 C 
ENDROOT
BRANCH   1   2
ATOM      2  C   UNL A   1      33.860  22.190  25.622  1.00  0.00     0.117 C 
BRANCH   2   3
ATOM      3  N   UNL A   1      32.983  22.819  26.602  1.00  0.00    -0.354 N 
ATOM      4  C   UNL A   1      31.795  23.477  26.524  1.00  0.00     0.242 C 
ATOM      5  O   UNL A   1      31.298  23.803  27.614  1.00  0.00    -0.273 OA
ATOM      6  H   UNL A   1      33.324  22.752  27.523  1.00  0.00     0.163 HD
BRANCH   4   7
ATOM      7  C   UNL A   1      31.056  23.889  25.223  1.00  0.00     0.176 C 
ATOM      8  C   UNL A   1      31.211  22.946  24.035  1.00  0.00     0.042 C 
BRANCH   7   9
ATOM      9  N   UNL A   1      31.240  25.297  24.905  1.00  0.00    -0.298 N 
ATOM     10  C   UNL A   1      32.901  26.061  21.611  1.00  0.00     0.069 C 
ATOM     11  C   UNL A   1      33.376  27.317  22.242  1.00  0.00     0.068 A 
ATOM     12  N   UNL A   1      34.272  28.068  21.598  1.00  0.00    -0.177 NA
ATOM     13  C   UNL A   1      33.077  27.859  23.512  1.00  0.00     0.063 A 
ATOM     14  N   UNL A   1      34.653  29.005  22.492  1.00  0.00    -0.246 N 
ATOM     15  C   UNL A   1      33.944  28.912  23.656  1.00  0.00     0.222 A 
ATOM     16  C   UNL A   1      32.239  27.429  24.660  1.00  0.00     0.149 C 
ATOM     17  H   UNL A   1      35.356  29.675  22.324  1.00  0.00     0.193 HD
ATOM     18  O   UNL A   1      34.137  29.651  24.744  1.00  0.00    -0.422 OA
ATOM     19  C   UNL A   1      32.477  25.937  24.910  1.00  0.00     0.248 C 
ATOM     20  C   UNL A   1      30.801  27.448  24.219  1.00  0.00     0.002 A 
ATOM     21  C   UNL A   1      32.515  28.260  25.915  1.00  0.00     0.114 C 
ATOM     22  C   UNL A   1      33.408  29.293  25.900  1.00  0.00     0.208 C 
ATOM     23  O   UNL A   1      33.575  25.400  25.016  1.00  0.00    -0.273 OA
ATOM     24  C   UNL A   1      30.244  26.177  24.428  1.00  0.00     0.050 A 
ATOM     25  C   UNL A   1      30.056  28.490  23.681  1.00  0.00     0.008 A 
ATOM     26  C   UNL A   1      28.924  25.926  24.104  1.00  0.00     0.027 A 
ATOM     27  C   UNL A   1      28.732  28.236  23.331  1.00  0.00     0.001 A 
ATOM     28  C   UNL A   1      28.170  26.967  23.545  1.00  0.00     0.002 A 
BRANCH  21  29
ATOM     29  C   UNL A   1      31.772  27.962  27.208  1.00  0.00     0.102 C 
ATOM     30  N   UNL A   1      31.156  27.715  28.280  1.00  0.00    -0.193 NA
ENDBRANCH  21  29
BRANCH  22  31
ATOM     31  N   UNL A   1      33.698  30.098  26.963  1.00  0.00    -0.369 N 
ATOM     32  H   UNL A   1      33.073  30.158  27.721  1.00  0.00     0.159 HD
ATOM     33  H   UNL A   1      34.533  30.619  26.972  1.00  0.00     0.159 HD
ENDBRANCH  22  31
ENDBRANCH   7   9
ENDBRANCH   4   7
ENDBRANCH   2   3
ENDBRANCH   1   2
BRANCH   1  34
ATOM     34  C   UNL A   1      36.418  22.550  25.767  1.00  0.00     0.118 C 
BRANCH  34  35
ATOM     35  N   UNL A   1      37.641  21.781  25.770  1.00  0.00    -0.352 N 
ATOM     36  C   UNL A   1      38.917  21.993  26.211  1.00  0.00     0.251 C 
ATOM     37  H   UNL A   1      37.529  20.894  25.358  1.00  0.00     0.163 HD
ATOM     38  O   UNL A   1      39.690  21.044  26.036  1.00  0.00    -0.269 OA
BRANCH  36  39
ATOM     39  C   UNL A   1      39.446  23.238  26.852  1.00  0.00     0.039 A 
ATOM     40  C   UNL A   1      40.556  23.344  27.692  1.00  0.00     0.014 A 
ATOM     41  C   UNL A   1      38.728  24.416  26.561  1.00  0.00     0.014 A 
ATOM     42  C   UNL A   1      40.915  24.581  28.246  1.00  0.00     0.010 A 
ATOM     43  C   UNL A   1      39.090  25.651  27.100  1.00  0.00     0.010 A 
ATOM     44  C   UNL A   1      40.174  25.737  27.967  1.00  0.00    -0.014 A 
BRANCH  44  45
ATOM     45  C   UNL A   1      40.606  27.017  28.543  1.00  0.00     0.031 A 
ATOM     46  C   UNL A   1      41.929  27.551  28.097  1.00  0.00     0.074 A 
ATOM     47  C   UNL A   1      39.827  27.817  29.303  1.00  0.00     0.049 A 
ATOM     48  N   UNL A   1      42.972  27.829  28.814  1.00  0.00    -0.248 NA
ATOM     49  C   UNL A   1      42.120  27.779  26.657  1.00  0.00     0.031 C 
ATOM     50  C   UNL A   1      38.393  27.683  29.573  1.00  0.00     0.029 A 
ATOM     51  N   UNL A   1      40.148  29.001  29.907  1.00  0.00    -0.354 N 
ATOM     52  C   UNL A   1      43.902  28.411  27.950  1.00  0.00     0.074 A 
ATOM     53  C   UNL A   1      43.361  28.264  26.621  1.00  0.00     0.031 C 
ATOM     54  C   UNL A   1      37.926  28.848  30.080  1.00  0.00     0.029 A 
ATOM     55  C   UNL A   1      39.048  29.741  30.316  1.00  0.00     0.049 A 
ATOM     56  H   UNL A   1      41.076  29.301  30.041  1.00  0.00     0.167 HD
ATOM     57  C   UNL A   1      44.988  29.109  28.392  1.00  0.00     0.031 A 
ATOM     58  C   UNL A   1      39.047  31.021  30.760  1.00  0.00     0.031 A 
ATOM     59  C   UNL A   1      45.237  28.900  29.791  1.00  0.00     0.049 A 
ATOM     60  C   UNL A   1      40.412  31.352  31.226  1.00  0.00     0.074 A 
ATOM     61  C   UNL A   1      45.571  27.818  30.578  1.00  0.00     0.029 A 
ATOM     62  N   UNL A   1      44.853  29.897  30.652  1.00  0.00    -0.354 N 
ATOM     63  N   UNL A   1      40.977  30.818  32.270  1.00  0.00    -0.248 NA
ATOM     64  C   UNL A   1      41.303  32.086  30.341  1.00  0.00     0.031 C 
ATOM     65  C   UNL A   1      44.955  28.069  31.837  1.00  0.00     0.029 A 
ATOM     66  C   UNL A   1      44.298  29.300  31.753  1.00  0.00     0.049 A 
ATOM     67  H   UNL A   1      44.957  30.866  30.505  1.00  0.00     0.167 HD
ATOM     68  C   UNL A   1      42.327  30.790  31.966  1.00  0.00     0.074 A 
ATOM     69  C   UNL A   1      42.479  31.711  30.846  1.00  0.00     0.031 C 
ATOM     70  C   UNL A   1      43.142  29.814  32.461  1.00  0.00     0.031 A 
BRANCH  57  71
ATOM     71  C   UNL A   1      45.673  30.225  27.634  1.00  0.00    -0.014 A 
ATOM     72  C   UNL A   1      44.981  31.328  27.099  1.00  0.00     0.010 A 
ATOM     73  C   UNL A   1      47.083  30.318  27.672  1.00  0.00     0.010 A 
ATOM     74  C   UNL A   1      45.648  32.462  26.625  1.00  0.00     0.020 A 
ATOM     75  C   UNL A   1      47.760  31.470  27.243  1.00  0.00     0.020 A 
ATOM     76  C   UNL A   1      47.034  32.537  26.721  1.00  0.00     0.054 A 
BRANCH  76  77
ATOM     77  S   UNL A   1      47.846  34.088  26.257  1.00  0.00     0.124 S 
ATOM     78  O   UNL A   1      47.028  34.533  25.132  1.00  0.00    -0.237 OA
ATOM     79  O   UNL A   1      47.727  34.882  27.477  1.00  0.00    -0.237 OA
ATOM     80  O   UNL A   1      49.206  33.675  25.917  1.00  0.00    -0.744 OA
ENDBRANCH  76  77
ENDBRANCH  57  71
BRANCH  58  81
ATOM     81  C   UNL A   1      38.036  32.073  30.494  1.00  0.00    -0.014 A 
ATOM     82  C   UNL A   1      36.863  32.127  31.273  1.00  0.00     0.010 A 
ATOM     83  C   UNL A   1      38.066  32.808  29.293  1.00  0.00     0.010 A 
ATOM     84  C   UNL A   1      35.730  32.813  30.831  1.00  0.00     0.020 A 
ATOM     85  C   UNL A   1      36.929  33.495  28.840  1.00  0.00     0.020 A 
ATOM     86  C   UNL A   1      35.756  33.458  29.595  1.00  0.00     0.054 A 
BRANCH  86  87
ATOM     87  S   UNL A   1      34.203  34.147  28.956  1.00  0.00     0.124 S 
ATOM     88  O   UNL A   1      33.682  33.036  28.164  1.00  0.00    -0.237 OA
ATOM     89  O   UNL A   1      33.464  34.443  30.181  1.00  0.00    -0.237 OA
ATOM     90  O   UNL A   1      34.629  35.316  28.191  1.00  0.00    -0.744 OA
ENDBRANCH  86  87
ENDBRANCH  58  81
BRANCH  70  91
ATOM     91  C   UNL A   1      42.665  28.994  33.638  1.00  0.00    -0.014 A 
ATOM     92  C   UNL A   1      43.296  29.207  34.877  1.00  0.00     0.010 A 
ATOM     93  C   UNL A   1      41.774  27.910  33.514  1.00  0.00     0.010 A 
ATOM     94  C   UNL A   1      43.084  28.339  35.948  1.00  0.00     0.020 A 
ATOM     95  C   UNL A   1      41.534  27.051  34.595  1.00  0.00     0.020 A 
ATOM     96  C   UNL A   1      42.220  27.254  35.793  1.00  0.00     0.054 A 
BRANCH  96  97
ATOM     97  S   UNL A   1      42.075  26.075  37.158  1.00  0.00     0.124 S 
ATOM     98  O   UNL A   1      43.029  26.630  38.119  1.00  0.00    -0.237 OA
ATOM     99  O   UNL A   1      40.668  26.185  37.538  1.00  0.00    -0.237 OA
ATOM    100  O   UNL A   1      42.452  24.797  36.560  1.00  0.00    -0.744 OA
ENDBRANCH  96  97
ENDBRANCH  70  91
ENDBRANCH  44  45
ENDBRANCH  36  39
ENDBRANCH  34  35
ENDBRANCH   1  34
TORSDOF 16
ENDMDL
MODEL 2
REMARK VINA RESULT:     -13.2      2.014      2.940
REMARK SMILES Cc1n[nH]c2c1[C@@]1(C(=O)N([C@@H](C)C(=O)NCCCNC(=O)c3ccc(-c4c5nc(c(-c6ccc(S(=O)(=O)[O-])cc6)c6ccc([nH]6)c(-c6ccc(S(=O)(=O)[O-])cc6)c6nc(c(-c7ccc(S(=O)(=O)[O-])cc7)c7ccc4[nH]7)C=C6)C=C5)cc3)c3ccccc31)C(C#N)=C(N)O2
REMARK SMILES IDX 17 1 16 2 15 3 13 4 14 5 11 7 12 8 10 9 1 10 2 11 3 12 6 13
REMARK SMILES IDX 4 14 5 15 7 16 93 18 8 19 87 20 88 21 91 22 9 23 82 24 86 25
REMARK SMILES IDX 83 26 85 27 84 28 89 29 90 30 92 31 18 34 19 35 20 36 21 38
REMARK SMILES IDX 22 39 23 40 81 41 24 42 80 43 25 44 26 45 27 46 74 47 28 48
REMARK SMILES IDX 79 49 73 50 75 51 29 52 78 53 72 54 71 55 30 57 60 58 41 59
REMARK SMILES IDX 59 60 42 61 45 62 58 63 76 64 43 65 44 66 57 68 77 69 46 70
REMARK SMILES IDX 31 71 32 72 40 73 33 74 39 75 34 76 35 77 36 78 37 79 38 80
REMARK SMILES IDX 61 81 62 82 70 83 63 84 69 85 64 86 65 87 66 88 67 89 68 90
REMARK SMILES IDX 47 91 48 92 56 93 49 94 55 95 50 96 51 97 52 98 53 99 54 100
REMARK H PARENT 15 6 4 17 92 32 92 33 19 37 75 56 45 67
REMARK Flexibility Score: inf
ROOT
ATOM      1  C   UNL A   1      39.088  21.147  25.661  1.00  0.00     0.042 C 
ENDROOT
BRANCH   1   2
ATOM      2  C   UNL A   1      37.922  22.140  25.764  1.00  0.00     0.117 C 
BRANCH   2   3
ATOM      3  N   UNL A   1      36.636  21.562  25.395  1.00  0.00    -0.354 N 
ATOM      4  C   UNL A   1      35.341  21.939  25.577  1.00  0.00     0.242 C 
ATOM      5  O   UNL A   1      34.497  21.213  25.030  1.00  0.00    -0.273 OA
ATOM      6  H   UNL A   1      36.722  20.712  24.906  1.00  0.00     0.163 HD
BRANCH   4   7
ATOM      7  C   UNL A   1      34.845  23.138  26.428  1.00  0.00     0.176 C 
ATOM      8  C   UNL A   1      34.320  22.804  27.820  1.00  0.00     0.042 C 
BRANCH   7   9
ATOM      9  N   UNL A   1      33.999  24.044  25.665  1.00  0.00    -0.298 N 
ATOM     10  C   UNL A   1      33.017  22.900  22.212  1.00  0.00     0.069 C 
ATOM     11  C   UNL A   1      32.917  24.337  21.859  1.00  0.00     0.068 A 
ATOM     12  N   UNL A   1      32.752  24.682  20.580  1.00  0.00    -0.177 NA
ATOM     13  C   UNL A   1      33.038  25.480  22.682  1.00  0.00     0.063 A 
ATOM     14  N   UNL A   1      32.904  26.023  20.555  1.00  0.00    -0.246 N 
ATOM     15  C   UNL A   1      33.070  26.537  21.810  1.00  0.00     0.222 A 
ATOM     16  C   UNL A   1      33.305  25.704  24.126  1.00  0.00     0.149 C 
ATOM     17  H   UNL A   1      32.895  26.564  19.732  1.00  0.00     0.193 HD
ATOM     18  O   UNL A   1      33.309  27.812  22.101  1.00  0.00    -0.422 OA
ATOM     19  C   UNL A   1      34.441  24.775  24.564  1.00  0.00     0.248 C 
ATOM     20  C   UNL A   1      32.137  25.161  24.904  1.00  0.00     0.002 A 
ATOM     21  C   UNL A   1      33.628  27.169  24.429  1.00  0.00     0.114 C 
ATOM     22  C   UNL A   1      33.610  28.117  23.447  1.00  0.00     0.208 C 
ATOM     23  O   UNL A   1      35.518  24.649  23.991  1.00  0.00    -0.273 OA
ATOM     24  C   UNL A   1      32.607  24.219  25.831  1.00  0.00     0.050 A 
ATOM     25  C   UNL A   1      30.787  25.470  24.800  1.00  0.00     0.008 A 
ATOM     26  C   UNL A   1      31.730  23.568  26.679  1.00  0.00     0.027 A 
ATOM     27  C   UNL A   1      29.896  24.801  25.636  1.00  0.00     0.001 A 
ATOM     28  C   UNL A   1      30.364  23.861  26.569  1.00  0.00     0.002 A 
BRANCH  21  29
ATOM     29  C   UNL A   1      33.953  27.601  25.850  1.00  0.00     0.102 C 
ATOM     30  N   UNL A   1      34.222  27.958  27.029  1.00  0.00    -0.193 NA
ENDBRANCH  21  29
BRANCH  22  31
ATOM     31  N   UNL A   1      33.862  29.446  23.632  1.00  0.00    -0.369 N 
ATOM     32  H   UNL A   1      34.314  29.964  22.927  1.00  0.00     0.159 HD
ATOM     33  H   UNL A   1      33.590  29.886  24.469  1.00  0.00     0.159 HD
ENDBRANCH  22  31
ENDBRANCH   7   9
ENDBRANCH   4   7
ENDBRANCH   2   3
ENDBRANCH   1   2
BRANCH   1  34
ATOM     34  C   UNL A   1      40.314  21.480  26.497  1.00  0.00     0.118 C 
BRANCH  34  35
ATOM     35  N   UNL A   1      41.457  21.860  25.698  1.00  0.00    -0.352 N 
ATOM     36  C   UNL A   1      42.162  23.015  25.504  1.00  0.00     0.251 C 
ATOM     37  H   UNL A   1      41.812  21.110  25.170  1.00  0.00     0.163 HD
ATOM     38  O   UNL A   1      43.118  22.913  24.728  1.00  0.00    -0.269 OA
BRANCH  36  39
ATOM     39  C   UNL A   1      41.877  24.349  26.119  1.00  0.00     0.039 A 
ATOM     40  C   UNL A   1      40.996  25.323  25.644  1.00  0.00     0.014 A 
ATOM     41  C   UNL A   1      42.586  24.629  27.305  1.00  0.00     0.014 A 
ATOM     42  C   UNL A   1      40.855  26.546  26.315  1.00  0.00     0.010 A 
ATOM     43  C   UNL A   1      42.439  25.840  27.984  1.00  0.00     0.010 A 
ATOM     44  C   UNL A   1      41.588  26.817  27.478  1.00  0.00    -0.014 A 
BRANCH  44  45
ATOM     45  C   UNL A   1      41.384  28.099  28.167  1.00  0.00     0.031 A 
ATOM     46  C   UNL A   1      42.420  29.155  27.956  1.00  0.00     0.074 A 
ATOM     47  C   UNL A   1      40.258  28.443  28.827  1.00  0.00     0.049 A 
ATOM     48  N   UNL A   1      43.160  29.750  28.838  1.00  0.00    -0.248 NA
ATOM     49  C   UNL A   1      42.683  29.583  26.574  1.00  0.00     0.031 C 
ATOM     50  C   UNL A   1      38.980  27.725  28.863  1.00  0.00     0.029 A 
ATOM     51  N   UNL A   1      39.990  29.590  29.522  1.00  0.00    -0.354 N 
ATOM     52  C   UNL A   1      43.873  30.737  28.155  1.00  0.00     0.074 A 
ATOM     53  C   UNL A   1      43.613  30.522  26.753  1.00  0.00     0.031 C 
ATOM     54  C   UNL A   1      38.020  28.551  29.339  1.00  0.00     0.029 A 
ATOM     55  C   UNL A   1      38.641  29.788  29.783  1.00  0.00     0.049 A 
ATOM     56  H   UNL A   1      40.690  30.218  29.812  1.00  0.00     0.167 HD
ATOM     57  C   UNL A   1      44.516  31.759  28.790  1.00  0.00     0.031 A 
ATOM     58  C   UNL A   1      38.063  30.910  30.274  1.00  0.00     0.031 A 
ATOM     59  C   UNL A   1      44.649  31.526  30.201  1.00  0.00     0.049 A 
ATOM     60  C   UNL A   1      39.104  31.707  30.961  1.00  0.00     0.074 A 
ATOM     61  C   UNL A   1      45.292  30.592  30.985  1.00  0.00     0.029 A 
ATOM     62  N   UNL A   1      43.786  32.197  31.031  1.00  0.00    -0.354 N 
ATOM     63  N   UNL A   1      39.701  31.338  32.058  1.00  0.00    -0.248 NA
ATOM     64  C   UNL A   1      39.724  32.819  30.258  1.00  0.00     0.031 C 
ATOM     65  C   UNL A   1      44.473  30.450  32.142  1.00  0.00     0.029 A 
ATOM     66  C   UNL A   1      43.388  31.321  32.006  1.00  0.00     0.049 A 
ATOM     67  H   UNL A   1      43.505  33.137  30.942  1.00  0.00     0.167 HD
ATOM     68  C   UNL A   1      40.972  31.879  31.969  1.00  0.00     0.074 A 
ATOM     69  C   UNL A   1      40.877  32.892  30.925  1.00  0.00     0.031 C 
ATOM     70  C   UNL A   1      42.043  31.261  32.545  1.00  0.00     0.031 A 
BRANCH  57  71
ATOM     71  C   UNL A   1      44.777  33.126  28.194  1.00  0.00    -0.014 A 
ATOM     72  C   UNL A   1      43.751  34.035  27.877  1.00  0.00     0.010 A 
ATOM     73  C   UNL A   1      46.098  33.631  28.186  1.00  0.00     0.010 A 
ATOM     74  C   UNL A   1      44.016  35.373  27.565  1.00  0.00     0.020 A 
ATOM     75  C   UNL A   1      46.371  34.982  27.922  1.00  0.00     0.020 A 
ATOM     76  C   UNL A   1      45.324  35.845  27.612  1.00  0.00     0.054 A 
BRANCH  76  77
ATOM     77  S   UNL A   1      45.607  37.618  27.372  1.00  0.00     0.124 S 
ATOM     78  O   UNL A   1      46.098  38.025  28.685  1.00  0.00    -0.237 OA
ATOM     79  O   UNL A   1      46.593  37.635  26.295  1.00  0.00    -0.237 OA
ATOM     80  O   UNL A   1      44.287  38.130  27.011  1.00  0.00    -0.744 OA
ENDBRANCH  76  77
ENDBRANCH  57  71
BRANCH  58  81
ATOM     81  C   UNL A   1      36.755  31.497  29.896  1.00  0.00    -0.014 A 
ATOM     82  C   UNL A   1      36.563  31.992  28.591  1.00  0.00     0.010 A 
ATOM     83  C   UNL A   1      35.821  31.861  30.885  1.00  0.00     0.010 A 
ATOM     84  C   UNL A   1      35.532  32.888  28.300  1.00  0.00     0.020 A 
ATOM     85  C   UNL A   1      34.786  32.766  30.601  1.00  0.00     0.020 A 
ATOM     86  C   UNL A   1      34.675  33.303  29.318  1.00  0.00     0.054 A 
BRANCH  86  87
ATOM     87  S   UNL A   1      33.493  34.631  28.953  1.00  0.00     0.124 S 
ATOM     88  O   UNL A   1      32.580  33.975  28.020  1.00  0.00    -0.237 OA
ATOM     89  O   UNL A   1      32.934  34.926  30.270  1.00  0.00    -0.237 OA
ATOM     90  O   UNL A   1      34.321  35.688  28.379  1.00  0.00    -0.744 OA
ENDBRANCH  86  87
ENDBRANCH  58  81
BRANCH  70  91
ATOM     91  C   UNL A   1      41.797  30.205  33.598  1.00  0.00    -0.014 A 
ATOM     92  C   UNL A   1      42.245  30.472  34.904  1.00  0.00     0.010 A 
ATOM     93  C   UNL A   1      41.326  28.911  33.299  1.00  0.00     0.010 A 
ATOM     94  C   UNL A   1      42.270  29.469  35.873  1.00  0.00     0.020 A 
ATOM     95  C   UNL A   1      41.322  27.906  34.276  1.00  0.00     0.020 A 
ATOM     96  C   UNL A   1      41.827  28.187  35.546  1.00  0.00     0.054 A 
BRANCH  96  97
ATOM     97  S   UNL A   1      42.001  26.880  36.786  1.00  0.00     0.124 S 
ATOM     98  O   UNL A   1      40.696  26.935  37.446  1.00  0.00    -0.237 OA
ATOM     99  O   UNL A   1      42.244  25.689  35.976  1.00  0.00    -0.237 OA
ATOM    100  O   UNL A   1      43.136  27.314  37.597  1.00  0.00    -0.744 OA
ENDBRANCH  96  97
ENDBRANCH  70  91
ENDBRANCH  44  45
ENDBRANCH  36  39
ENDBRANCH  34  35
ENDBRANCH   1  34
TORSDOF 16
ENDMDL
MODEL 3
REMARK VINA RESULT:     -12.8      2.398      8.891
REMARK SMILES Cc1n[nH]c2c1[C@@]1(C(=O)N([C@@H](C)C(=O)NCCCNC(=O)c3ccc(-c4c5nc(c(-c6ccc(S(=O)(=O)[O-])cc6)c6ccc([nH]6)c(-c6ccc(S(=O)(=O)[O-])cc6)c6nc(c(-c7ccc(S(=O)(=O)[O-])cc7)c7ccc4[nH]7)C=C6)C=C5)cc3)c3ccccc31)C(C#N)=C(N)O2
REMARK SMILES IDX 17 1 16 2 15 3 13 4 14 5 11 7 12 8 10 9 1 10 2 11 3 12 6 13
REMARK SMILES IDX 4 14 5 15 7 16 93 18 8 19 87 20 88 21 91 22 9 23 82 24 86 25
REMARK SMILES IDX 83 26 85 27 84 28 89 29 90 30 92 31 18 34 19 35 20 36 21 38
REMARK SMILES IDX 22 39 23 40 81 41 24 42 80 43 25 44 26 45 27 46 74 47 28 48
REMARK SMILES IDX 79 49 73 50 75 51 29 52 78 53 72 54 71 55 30 57 60 58 41 59
REMARK SMILES IDX 59 60 42 61 45 62 58 63 76 64 43 65 44 66 57 68 77 69 46 70
REMARK SMILES IDX 31 71 32 72 40 73 33 74 39 75 34 76 35 77 36 78 37 79 38 80
REMARK SMILES IDX 61 81 62 82 70 83 63 84 69 85 64 86 65 87 66 88 67 89 68 90
REMARK SMILES IDX 47 91 48 92 56 93 49 94 55 95 50 96 51 97 52 98 53 99 54 100
REMARK H PARENT 15 6 4 17 92 32 92 33 19 37 75 56 45 67
REMARK Flexibility Score: inf
ROOT
ATOM      1  C   UNL A   1      35.215  31.185  27.690  1.00  0.00     0.042 C 
ENDROOT
BRANCH   1   2
ATOM      2  C   UNL A   1      34.727  29.808  27.220  1.00  0.00     0.117 C 
BRANCH   2   3
ATOM      3  N   UNL A   1      33.570  29.874  26.337  1.00  0.00    -0.354 N 
ATOM      4  C   UNL A   1      33.208  29.222  25.199  1.00  0.00     0.242 C 
ATOM      5  O   UNL A   1      32.078  29.497  24.768  1.00  0.00    -0.273 OA
ATOM      6  H   UNL A   1      32.902  30.537  26.627  1.00  0.00     0.163 HD
BRANCH   4   7
ATOM      7  C   UNL A   1      34.086  28.230  24.391  1.00  0.00     0.176 C 
ATOM      8  C   UNL A   1      34.434  28.646  22.966  1.00  0.00     0.042 C 
BRANCH   7   9
ATOM      9  N   UNL A   1      33.631  26.854  24.525  1.00  0.00    -0.298 N 
ATOM     10  C   UNL A   1      29.973  26.375  25.291  1.00  0.00     0.069 C 
ATOM     11  C   UNL A   1      30.367  25.104  25.949  1.00  0.00     0.068 A 
ATOM     12  N   UNL A   1      29.462  24.436  26.667  1.00  0.00    -0.177 NA
ATOM     13  C   UNL A   1      31.629  24.471  26.006  1.00  0.00     0.063 A 
ATOM     14  N   UNL A   1      30.157  23.463  27.293  1.00  0.00    -0.246 N 
ATOM     15  C   UNL A   1      31.469  23.451  26.909  1.00  0.00     0.222 A 
ATOM     16  C   UNL A   1      32.983  24.789  25.484  1.00  0.00     0.149 C 
ATOM     17  H   UNL A   1      29.766  22.838  27.946  1.00  0.00     0.193 HD
ATOM     18  O   UNL A   1      32.413  22.655  27.399  1.00  0.00    -0.422 OA
ATOM     19  C   UNL A   1      33.269  26.272  25.738  1.00  0.00     0.248 C 
ATOM     20  C   UNL A   1      32.927  24.733  23.981  1.00  0.00     0.002 A 
ATOM     21  C   UNL A   1      34.061  23.894  26.100  1.00  0.00     0.114 C 
ATOM     22  C   UNL A   1      33.741  22.906  26.987  1.00  0.00     0.208 C 
ATOM     23  O   UNL A   1      33.128  26.850  26.810  1.00  0.00    -0.273 OA
ATOM     24  C   UNL A   1      33.364  25.961  23.464  1.00  0.00     0.050 A 
ATOM     25  C   UNL A   1      32.525  23.694  23.152  1.00  0.00     0.008 A 
ATOM     26  C   UNL A   1      33.410  26.172  22.098  1.00  0.00     0.027 A 
ATOM     27  C   UNL A   1      32.548  23.908  21.776  1.00  0.00     0.001 A 
ATOM     28  C   UNL A   1      32.990  25.135  21.254  1.00  0.00     0.002 A 
BRANCH  21  29
ATOM     29  C   UNL A   1      35.519  24.077  25.711  1.00  0.00     0.102 C 
ATOM     30  N   UNL A   1      36.729  24.229  25.389  1.00  0.00    -0.193 NA
ENDBRANCH  21  29
BRANCH  22  31
ATOM     31  N   UNL A   1      34.632  22.050  27.565  1.00  0.00    -0.369 N 
ATOM     32  H   UNL A   1      34.412  21.094  27.652  1.00  0.00     0.159 HD
ATOM     33  H   UNL A   1      35.496  22.388  27.895  1.00  0.00     0.159 HD
ENDBRANCH  22  31
ENDBRANCH   7   9
ENDBRANCH   4   7
ENDBRANCH   2   3
ENDBRANCH   1   2
BRANCH   1  34
ATOM     34  C   UNL A   1      34.129  32.157  28.124  1.00  0.00     0.118 C 
BRANCH  34  35
ATOM     35  N   UNL A   1      34.091  32.362  29.554  1.00  0.00    -0.352 N 
ATOM     36  C   UNL A   1      34.921  32.061  30.598  1.00  0.00     0.251 C 
ATOM     37  H   UNL A   1      33.276  32.829  29.846  1.00  0.00     0.163 HD
ATOM     38  O   UNL A   1      34.520  32.438  31.704  1.00  0.00    -0.269 OA
BRANCH  36  39
ATOM     39  C   UNL A   1      36.223  31.326  30.520  1.00  0.00     0.039 A 
ATOM     40  C   UNL A   1      37.483  31.872  30.269  1.00  0.00     0.014 A 
ATOM     41  C   UNL A   1      36.141  29.934  30.727  1.00  0.00     0.014 A 
ATOM     42  C   UNL A   1      38.616  31.050  30.196  1.00  0.00     0.010 A 
ATOM     43  C   UNL A   1      37.268  29.112  30.668  1.00  0.00     0.010 A 
ATOM     44  C   UNL A   1      38.512  29.664  30.378  1.00  0.00    -0.014 A 
BRANCH  44  45
ATOM     45  C   UNL A   1      39.730  28.845  30.326  1.00  0.00     0.031 A 
ATOM     46  C   UNL A   1      40.416  28.565  31.624  1.00  0.00     0.074 A 
ATOM     47  C   UNL A   1      40.168  28.193  29.227  1.00  0.00     0.049 A 
ATOM     48  N   UNL A   1      41.629  28.856  31.976  1.00  0.00    -0.248 NA
ATOM     49  C   UNL A   1      39.637  27.895  32.675  1.00  0.00     0.031 C 
ATOM     50  C   UNL A   1      39.476  28.022  27.946  1.00  0.00     0.029 A 
ATOM     51  N   UNL A   1      41.299  27.440  29.073  1.00  0.00    -0.354 N 
ATOM     52  C   UNL A   1      41.826  28.276  33.230  1.00  0.00     0.074 A 
ATOM     53  C   UNL A   1      40.538  27.784  33.652  1.00  0.00     0.031 C 
ATOM     54  C   UNL A   1      40.083  27.039  27.242  1.00  0.00     0.029 A 
ATOM     55  C   UNL A   1      41.285  26.628  27.947  1.00  0.00     0.049 A 
ATOM     56  H   UNL A   1      42.054  27.470  29.703  1.00  0.00     0.167 HD
ATOM     57  C   UNL A   1      43.063  28.106  33.781  1.00  0.00     0.031 A 
ATOM     58  C   UNL A   1      42.165  25.645  27.642  1.00  0.00     0.031 A 
ATOM     59  C   UNL A   1      44.073  28.863  33.097  1.00  0.00     0.049 A 
ATOM     60  C   UNL A   1      43.413  25.885  28.401  1.00  0.00     0.074 A 
ATOM     61  C   UNL A   1      44.319  30.203  32.881  1.00  0.00     0.029 A 
ATOM     62  N   UNL A   1      44.895  28.178  32.237  1.00  0.00    -0.354 N 
ATOM     63  N   UNL A   1      44.213  26.891  28.192  1.00  0.00    -0.248 NA
ATOM     64  C   UNL A   1      43.641  25.152  29.636  1.00  0.00     0.031 C 
ATOM     65  C   UNL A   1      44.947  30.265  31.604  1.00  0.00     0.029 A 
ATOM     66  C   UNL A   1      45.068  28.958  31.124  1.00  0.00     0.049 A 
ATOM     67  H   UNL A   1      45.288  27.288  32.392  1.00  0.00     0.167 HD
ATOM     68  C   UNL A   1      44.761  27.170  29.432  1.00  0.00     0.074 A 
ATOM     69  C   UNL A   1      44.491  25.986  30.238  1.00  0.00     0.031 C 
ATOM     70  C   UNL A   1      45.127  28.440  29.770  1.00  0.00     0.031 A 
BRANCH  57  71
ATOM     71  C   UNL A   1      43.433  27.021  34.770  1.00  0.00    -0.014 A 
ATOM     72  C   UNL A   1      43.426  25.651  34.447  1.00  0.00     0.010 A 
ATOM     73  C   UNL A   1      44.056  27.383  35.986  1.00  0.00     0.010 A 
ATOM     74  C   UNL A   1      44.003  24.689  35.282  1.00  0.00     0.020 A 
ATOM     75  C   UNL A   1      44.681  26.432  36.808  1.00  0.00     0.020 A 
ATOM     76  C   UNL A   1      44.648  25.088  36.448  1.00  0.00     0.054 A 
BRANCH  76  77
ATOM     77  S   UNL A   1      45.532  23.835  37.413  1.00  0.00     0.124 S 
ATOM     78  O   UNL A   1      46.914  24.292  37.309  1.00  0.00    -0.237 OA
ATOM     79  O   UNL A   1      44.920  23.967  38.733  1.00  0.00    -0.237 OA
ATOM     80  O   UNL A   1      45.231  22.588  36.713  1.00  0.00    -0.744 OA
ENDBRANCH  76  77
ENDBRANCH  57  71
BRANCH  58  81
ATOM     81  C   UNL A   1      41.879  24.336  27.005  1.00  0.00    -0.014 A 
ATOM     82  C   UNL A   1      40.894  23.492  27.557  1.00  0.00     0.010 A 
ATOM     83  C   UNL A   1      42.776  23.783  26.071  1.00  0.00     0.010 A 
ATOM     84  C   UNL A   1      40.860  22.128  27.259  1.00  0.00     0.020 A 
ATOM     85  C   UNL A   1      42.750  22.412  25.772  1.00  0.00     0.020 A 
ATOM     86  C   UNL A   1      41.816  21.588  26.400  1.00  0.00     0.054 A 
BRANCH  86  87
ATOM     87  S   UNL A   1      41.874  19.784  26.212  1.00  0.00     0.124 S 
ATOM     88  O   UNL A   1      40.507  19.478  25.796  1.00  0.00    -0.237 OA
ATOM     89  O   UNL A   1      42.895  19.608  25.181  1.00  0.00    -0.237 OA
ATOM     90  O   UNL A   1      42.245  19.306  27.541  1.00  0.00    -0.744 OA
ENDBRANCH  86  87
ENDBRANCH  58  81
BRANCH  70  91
ATOM     91  C   UNL A   1      45.297  29.467  28.675  1.00  0.00    -0.014 A 
ATOM     92  C   UNL A   1      46.581  30.011  28.486  1.00  0.00     0.010 A 
ATOM     93  C   UNL A   1      44.214  30.040  27.978  1.00  0.00     0.010 A 
ATOM     94  C   UNL A   1      46.775  31.121  27.665  1.00  0.00     0.020 A 
ATOM     95  C   UNL A   1      44.407  31.138  27.130  1.00  0.00     0.020 A 
ATOM     96  C   UNL A   1      45.683  31.691  27.008  1.00  0.00     0.054 A 
BRANCH  96  97
ATOM     97  S   UNL A   1      45.951  33.210  26.062  1.00  0.00     0.124 S 
ATOM     98  O   UNL A   1      45.037  33.013  24.937  1.00  0.00    -0.237 OA
ATOM     99  O   UNL A   1      45.565  34.257  27.006  1.00  0.00    -0.237 OA
ATOM    100  O   UNL A   1      47.374  33.173  25.734  1.00  0.00    -0.744 OA
ENDBRANCH  96  97
ENDBRANCH  70  91
ENDBRANCH  44  45
ENDBRANCH  36  39
ENDBRANCH  34  35
ENDBRANCH   1  34
TORSDOF 16
ENDMDL
