MODEL 1
REMARK VINA RESULT:     -10.6      0.000      0.000
REMARK SMILES O=C(NCCCNC(=O)[C@H]1CC[C@@H](C(F)F)[NH2+]1)c1ccc(-c2c3nc(c(-c4ccc(S(=O)(=O)[O-])cc4)c4ccc([nH]4)c(-c4ccc(S(=O)(=O)[O-])cc4)c4nc(c(-c5ccc(S(=O)(=O)[O-])cc5)c5ccc2[nH]5)C=C4)C=C3)cc1
REMARK SMILES IDX 4 1 3 2 1 3 2 4 18 6 19 7 77 8 20 9 76 10 21 11 22 12 23 13
REMARK SMILES IDX 70 14 24 15 75 16 69 17 71 18 25 19 74 20 68 21 67 22 26 24
REMARK SMILES IDX 56 25 37 26 55 27 38 28 41 29 54 30 72 31 39 32 40 33 53 35
REMARK SMILES IDX 73 36 42 37 27 38 28 39 36 40 29 41 35 42 30 43 31 44 32 45
REMARK SMILES IDX 33 46 34 47 57 48 58 49 66 50 59 51 65 52 60 53 61 54 62 55
REMARK SMILES IDX 63 56 64 57 43 58 44 59 52 60 45 61 51 62 46 63 47 64 48 65
REMARK SMILES IDX 49 66 50 67 5 68 6 69 7 70 8 71 9 73 10 74 11 75 17 76 12 77
REMARK SMILES IDX 13 78 14 81 15 82 16 83
REMARK H PARENT 3 5 71 23 41 34 7 72 17 79 17 80
REMARK Flexibility Score: inf
ROOT
ATOM      1  C   UNL A   1      33.974  28.249  26.616  1.00  0.00     0.118 C 
ENDROOT
BRANCH   1   2
ATOM      2  N   UNL A   1      33.758  29.599  27.122  1.00  0.00    -0.352 N 
ATOM      3  O   UNL A   1      34.080  31.426  28.389  1.00  0.00    -0.269 OA
ATOM      4  C   UNL A   1      34.550  30.389  27.915  1.00  0.00     0.251 C 
ATOM      5  H   UNL A   1      32.907  30.010  26.850  1.00  0.00     0.163 HD
BRANCH   4   6
ATOM      6  C   UNL A   1      35.944  30.007  28.221  1.00  0.00     0.039 A 
ATOM      7  C   UNL A   1      36.961  30.162  27.274  1.00  0.00     0.014 A 
ATOM      8  C   UNL A   1      36.251  29.535  29.500  1.00  0.00     0.014 A 
ATOM      9  C   UNL A   1      38.252  29.721  27.558  1.00  0.00     0.010 A 
ATOM     10  C   UNL A   1      37.563  29.168  29.811  1.00  0.00     0.010 A 
ATOM     11  C   UNL A   1      38.569  29.232  28.834  1.00  0.00    -0.014 A 
BRANCH  11  12
ATOM     12  C   UNL A   1      39.963  28.845  29.164  1.00  0.00     0.031 A 
ATOM     13  C   UNL A   1      40.913  29.838  29.769  1.00  0.00     0.074 A 
ATOM     14  C   UNL A   1      40.383  27.597  28.875  1.00  0.00     0.049 A 
ATOM     15  N   UNL A   1      42.185  29.700  30.045  1.00  0.00    -0.248 NA
ATOM     16  C   UNL A   1      40.367  31.164  30.099  1.00  0.00     0.031 C 
ATOM     17  C   UNL A   1      39.554  26.545  28.284  1.00  0.00     0.029 A 
ATOM     18  N   UNL A   1      41.614  27.009  29.023  1.00  0.00    -0.354 N 
ATOM     19  C   UNL A   1      42.599  30.926  30.553  1.00  0.00     0.074 A 
ATOM     20  C   UNL A   1      41.448  31.802  30.526  1.00  0.00     0.031 C 
ATOM     21  C   UNL A   1      40.295  25.440  28.124  1.00  0.00     0.029 A 
ATOM     22  C   UNL A   1      41.665  25.725  28.538  1.00  0.00     0.049 A 
ATOM     23  H   UNL A   1      42.384  27.462  29.437  1.00  0.00     0.167 HD
ATOM     24  C   UNL A   1      43.828  31.287  30.997  1.00  0.00     0.031 A 
ATOM     25  C   UNL A   1      42.703  24.877  28.400  1.00  0.00     0.031 A 
ATOM     26  C   UNL A   1      44.972  30.411  31.000  1.00  0.00     0.049 A 
ATOM     27  C   UNL A   1      44.066  25.307  28.855  1.00  0.00     0.074 A 
ATOM     28  C   UNL A   1      46.250  30.667  31.465  1.00  0.00     0.029 A 
ATOM     29  N   UNL A   1      44.980  29.116  30.500  1.00  0.00    -0.354 N 
ATOM     30  N   UNL A   1      44.431  26.454  29.377  1.00  0.00    -0.248 NA
ATOM     31  C   UNL A   1      45.156  24.334  28.711  1.00  0.00     0.031 C 
ATOM     32  C   UNL A   1      47.047  29.552  31.186  1.00  0.00     0.029 A 
ATOM     33  C   UNL A   1      46.249  28.572  30.615  1.00  0.00     0.049 A 
ATOM     34  H   UNL A   1      44.199  28.652  30.120  1.00  0.00     0.167 HD
ATOM     35  C   UNL A   1      45.787  26.332  29.650  1.00  0.00     0.074 A 
ATOM     36  C   UNL A   1      46.178  24.998  29.237  1.00  0.00     0.031 C 
ATOM     37  C   UNL A   1      46.627  27.242  30.201  1.00  0.00     0.031 A 
BRANCH  24  38
ATOM     38  C   UNL A   1      44.007  32.710  31.463  1.00  0.00    -0.014 A 
ATOM     39  C   UNL A   1      44.374  33.736  30.573  1.00  0.00     0.010 A 
ATOM     40  C   UNL A   1      43.802  33.027  32.819  1.00  0.00     0.010 A 
ATOM     41  C   UNL A   1      44.603  35.033  31.042  1.00  0.00     0.020 A 
ATOM     42  C   UNL A   1      43.998  34.329  33.288  1.00  0.00     0.020 A 
ATOM     43  C   UNL A   1      44.426  35.318  32.400  1.00  0.00     0.054 A 
BRANCH  43  44
ATOM     44  S   UNL A   1      44.768  36.998  32.989  1.00  0.00     0.124 S 
ATOM     45  O   UNL A   1      46.229  37.001  33.052  1.00  0.00    -0.237 OA
ATOM     46  O   UNL A   1      44.185  37.832  31.942  1.00  0.00    -0.237 OA
ATOM     47  O   UNL A   1      44.091  37.060  34.282  1.00  0.00    -0.744 OA
ENDBRANCH  43  44
ENDBRANCH  24  38
BRANCH  25  48
ATOM     48  C   UNL A   1      42.465  23.548  27.774  1.00  0.00    -0.014 A 
ATOM     49  C   UNL A   1      42.670  23.354  26.399  1.00  0.00     0.010 A 
ATOM     50  C   UNL A   1      42.123  22.444  28.580  1.00  0.00     0.010 A 
ATOM     51  C   UNL A   1      42.551  22.077  25.841  1.00  0.00     0.020 A 
ATOM     52  C   UNL A   1      42.030  21.163  28.032  1.00  0.00     0.020 A 
ATOM     53  C   UNL A   1      42.243  20.988  26.664  1.00  0.00     0.054 A 
BRANCH  53  54
ATOM     54  S   UNL A   1      42.200  19.327  25.934  1.00  0.00     0.124 S 
ATOM     55  O   UNL A   1      43.063  19.484  24.769  1.00  0.00    -0.237 OA
ATOM     56  O   UNL A   1      42.735  18.497  27.011  1.00  0.00    -0.237 OA
ATOM     57  O   UNL A   1      40.783  19.118  25.643  1.00  0.00    -0.744 OA
ENDBRANCH  53  54
ENDBRANCH  25  48
BRANCH  37  58
ATOM     58  C   UNL A   1      48.055  26.827  30.439  1.00  0.00    -0.014 A 
ATOM     59  C   UNL A   1      49.075  27.157  29.530  1.00  0.00     0.010 A 
ATOM     60  C   UNL A   1      48.392  26.193  31.650  1.00  0.00     0.010 A 
ATOM     61  C   UNL A   1      50.407  26.859  29.830  1.00  0.00     0.020 A 
ATOM     62  C   UNL A   1      49.724  25.918  31.963  1.00  0.00     0.020 A 
ATOM     63  C   UNL A   1      50.724  26.251  31.049  1.00  0.00     0.054 A 
BRANCH  63  64
ATOM     64  S   UNL A   1      52.469  25.968  31.457  1.00  0.00     0.124 S 
ATOM     65  O   UNL A   1      52.433  24.632  32.043  1.00  0.00    -0.237 OA
ATOM     66  O   UNL A   1      53.122  26.066  30.154  1.00  0.00    -0.237 OA
ATOM     67  O   UNL A   1      52.788  27.048  32.389  1.00  0.00    -0.744 OA
ENDBRANCH  63  64
ENDBRANCH  37  58
ENDBRANCH  11  12
ENDBRANCH   4   6
ENDBRANCH   1   2
BRANCH   1  68
ATOM     68  C   UNL A   1      32.672  27.531  26.274  1.00  0.00     0.042 C 
BRANCH  68  69
ATOM     69  C   UNL A   1      32.039  27.968  24.961  1.00  0.00     0.118 C 
BRANCH  69  70
ATOM     70  N   UNL A   1      31.420  29.277  25.038  1.00  0.00    -0.351 N 
ATOM     71  C   UNL A   1      30.589  29.905  24.153  1.00  0.00     0.278 C 
ATOM     72  H   UNL A   1      31.628  29.791  25.852  1.00  0.00     0.163 HD
ATOM     73  O   UNL A   1      30.065  30.960  24.514  1.00  0.00    -0.268 OA
BRANCH  71  74
ATOM     74  C   UNL A   1      30.334  29.277  22.766  1.00  0.00     0.273 C 
ATOM     75  C   UNL A   1      29.064  28.446  22.726  1.00  0.00     0.082 C 
ATOM     76  N   UNL A   1      30.120  30.340  21.750  1.00  0.00    -0.329 N 
ATOM     77  C   UNL A   1      27.971  29.462  22.476  1.00  0.00     0.078 C 
ATOM     78  C   UNL A   1      28.645  30.551  21.641  1.00  0.00     0.251 C 
ATOM     79  H   UNL A   1      30.499  30.044  20.850  1.00  0.00     0.347 HD
ATOM     80  H   UNL A   1      30.592  31.202  22.022  1.00  0.00     0.347 HD
BRANCH  78  81
ATOM     81  C   UNL A   1      28.144  31.959  22.014  1.00  0.00     0.399 C 
ATOM     82  F   UNL A   1      27.405  31.887  23.154  1.00  0.00    -0.204 F 
ATOM     83  F   UNL A   1      29.171  32.801  22.271  1.00  0.00    -0.204 F 
ENDBRANCH  78  81
ENDBRANCH  71  74
ENDBRANCH  69  70
ENDBRANCH  68  69
ENDBRANCH   1  68
TORSDOF 14
ENDMDL
MODEL 2
REMARK VINA RESULT:     -10.4      5.107     11.613
REMARK SMILES O=C(NCCCNC(=O)[C@H]1CC[C@@H](C(F)F)[NH2+]1)c1ccc(-c2c3nc(c(-c4ccc(S(=O)(=O)[O-])cc4)c4ccc([nH]4)c(-c4ccc(S(=O)(=O)[O-])cc4)c4nc(c(-c5ccc(S(=O)(=O)[O-])cc5)c5ccc2[nH]5)C=C4)C=C3)cc1
REMARK SMILES IDX 4 1 3 2 1 3 2 4 18 6 19 7 77 8 20 9 76 10 21 11 22 12 23 13
REMARK SMILES IDX 70 14 24 15 75 16 69 17 71 18 25 19 74 20 68 21 67 22 26 24
REMARK SMILES IDX 56 25 37 26 55 27 38 28 41 29 54 30 72 31 39 32 40 33 53 35
REMARK SMILES IDX 73 36 42 37 27 38 28 39 36 40 29 41 35 42 30 43 31 44 32 45
REMARK SMILES IDX 33 46 34 47 57 48 58 49 66 50 59 51 65 52 60 53 61 54 62 55
REMARK SMILES IDX 63 56 64 57 43 58 44 59 52 60 45 61 51 62 46 63 47 64 48 65
REMARK SMILES IDX 49 66 50 67 5 68 6 69 7 70 8 71 9 73 10 74 11 75 17 76 12 77
REMARK SMILES IDX 13 78 14 81 15 82 16 83
REMARK H PARENT 3 5 71 23 41 34 7 72 17 79 17 80
REMARK Flexibility Score: inf
ROOT
ATOM      1  C   UNL A   1      40.825  21.559  26.419  1.00  0.00     0.118 C 
ENDROOT
BRANCH   1   2
ATOM      2  N   UNL A   1      39.480  21.814  25.919  1.00  0.00    -0.352 N 
ATOM      3  O   UNL A   1      37.469  22.804  25.757  1.00  0.00    -0.269 OA
ATOM      4  C   UNL A   1      38.648  22.887  26.111  1.00  0.00     0.251 C 
ATOM      5  H   UNL A   1      39.108  21.102  25.351  1.00  0.00     0.163 HD
BRANCH   4   6
ATOM      6  C   UNL A   1      39.137  24.127  26.749  1.00  0.00     0.039 A 
ATOM      7  C   UNL A   1      38.873  24.402  28.094  1.00  0.00     0.014 A 
ATOM      8  C   UNL A   1      39.923  25.007  26.000  1.00  0.00     0.014 A 
ATOM      9  C   UNL A   1      39.277  25.613  28.650  1.00  0.00     0.010 A 
ATOM     10  C   UNL A   1      40.396  26.187  26.582  1.00  0.00     0.010 A 
ATOM     11  C   UNL A   1      40.054  26.512  27.904  1.00  0.00    -0.014 A 
BRANCH  11  12
ATOM     12  C   UNL A   1      40.558  27.762  28.525  1.00  0.00     0.031 A 
ATOM     13  C   UNL A   1      41.952  27.837  29.079  1.00  0.00     0.074 A 
ATOM     14  C   UNL A   1      39.733  28.824  28.625  1.00  0.00     0.049 A 
ATOM     15  N   UNL A   1      42.530  28.815  29.727  1.00  0.00    -0.248 NA
ATOM     16  C   UNL A   1      42.806  26.654  28.890  1.00  0.00     0.031 C 
ATOM     17  C   UNL A   1      38.358  28.871  28.126  1.00  0.00     0.029 A 
ATOM     18  N   UNL A   1      39.926  30.058  29.192  1.00  0.00    -0.354 N 
ATOM     19  C   UNL A   1      43.803  28.359  30.049  1.00  0.00     0.074 A 
ATOM     20  C   UNL A   1      43.905  27.007  29.543  1.00  0.00     0.031 C 
ATOM     21  C   UNL A   1      37.831  30.072  28.404  1.00  0.00     0.029 A 
ATOM     22  C   UNL A   1      38.806  30.854  29.157  1.00  0.00     0.049 A 
ATOM     23  H   UNL A   1      40.782  30.345  29.585  1.00  0.00     0.167 HD
ATOM     24  C   UNL A   1      44.794  29.008  30.709  1.00  0.00     0.031 A 
ATOM     25  C   UNL A   1      38.568  32.062  29.702  1.00  0.00     0.031 A 
ATOM     26  C   UNL A   1      44.674  30.348  31.224  1.00  0.00     0.049 A 
ATOM     27  C   UNL A   1      39.661  32.749  30.468  1.00  0.00     0.074 A 
ATOM     28  C   UNL A   1      45.631  31.109  31.873  1.00  0.00     0.029 A 
ATOM     29  N   UNL A   1      43.521  31.120  31.167  1.00  0.00    -0.354 N 
ATOM     30  N   UNL A   1      40.875  32.323  30.722  1.00  0.00    -0.248 NA
ATOM     31  C   UNL A   1      39.359  34.078  31.014  1.00  0.00     0.031 C 
ATOM     32  C   UNL A   1      45.038  32.314  32.264  1.00  0.00     0.029 A 
ATOM     33  C   UNL A   1      43.733  32.336  31.796  1.00  0.00     0.049 A 
ATOM     34  H   UNL A   1      42.678  30.844  30.741  1.00  0.00     0.167 HD
ATOM     35  C   UNL A   1      41.493  33.342  31.435  1.00  0.00     0.074 A 
ATOM     36  C   UNL A   1      40.519  34.407  31.570  1.00  0.00     0.031 C 
ATOM     37  C   UNL A   1      42.756  33.390  31.923  1.00  0.00     0.031 A 
BRANCH  24  38
ATOM     38  C   UNL A   1      46.074  28.251  30.957  1.00  0.00    -0.014 A 
ATOM     39  C   UNL A   1      46.253  27.462  32.108  1.00  0.00     0.010 A 
ATOM     40  C   UNL A   1      47.119  28.328  30.016  1.00  0.00     0.010 A 
ATOM     41  C   UNL A   1      47.475  26.827  32.350  1.00  0.00     0.020 A 
ATOM     42  C   UNL A   1      48.332  27.669  30.237  1.00  0.00     0.020 A 
ATOM     43  C   UNL A   1      48.511  26.947  31.418  1.00  0.00     0.054 A 
BRANCH  43  44
ATOM     44  S   UNL A   1      50.099  26.146  31.775  1.00  0.00     0.124 S 
ATOM     45  O   UNL A   1      50.731  26.135  30.458  1.00  0.00    -0.237 OA
ATOM     46  O   UNL A   1      50.702  27.047  32.752  1.00  0.00    -0.237 OA
ATOM     47  O   UNL A   1      49.718  24.834  32.293  1.00  0.00    -0.744 OA
ENDBRANCH  43  44
ENDBRANCH  24  38
BRANCH  25  48
ATOM     48  C   UNL A   1      37.217  32.665  29.548  1.00  0.00    -0.014 A 
ATOM     49  C   UNL A   1      36.278  32.601  30.590  1.00  0.00     0.010 A 
ATOM     50  C   UNL A   1      36.901  33.393  28.384  1.00  0.00     0.010 A 
ATOM     51  C   UNL A   1      35.052  33.265  30.477  1.00  0.00     0.020 A 
ATOM     52  C   UNL A   1      35.690  34.080  28.279  1.00  0.00     0.020 A 
ATOM     53  C   UNL A   1      34.771  34.010  29.327  1.00  0.00     0.054 A 
BRANCH  53  54
ATOM     54  S   UNL A   1      33.220  34.949  29.251  1.00  0.00     0.124 S 
ATOM     55  O   UNL A   1      32.434  34.160  28.308  1.00  0.00    -0.237 OA
ATOM     56  O   UNL A   1      32.765  34.915  30.639  1.00  0.00    -0.237 OA
ATOM     57  O   UNL A   1      33.639  36.265  28.774  1.00  0.00    -0.744 OA
ENDBRANCH  53  54
ENDBRANCH  25  48
BRANCH  37  58
ATOM     58  C   UNL A   1      43.193  34.652  32.620  1.00  0.00    -0.014 A 
ATOM     59  C   UNL A   1      43.756  35.725  31.909  1.00  0.00     0.010 A 
ATOM     60  C   UNL A   1      42.929  34.801  33.995  1.00  0.00     0.010 A 
ATOM     61  C   UNL A   1      44.047  36.926  32.562  1.00  0.00     0.020 A 
ATOM     62  C   UNL A   1      43.195  36.008  34.644  1.00  0.00     0.020 A 
ATOM     63  C   UNL A   1      43.755  37.064  33.923  1.00  0.00     0.054 A 
BRANCH  63  64
ATOM     64  S   UNL A   1      44.049  38.666  34.722  1.00  0.00     0.124 S 
ATOM     65  O   UNL A   1      43.836  38.347  36.131  1.00  0.00    -0.237 OA
ATOM     66  O   UNL A   1      45.428  38.962  34.346  1.00  0.00    -0.237 OA
ATOM     67  O   UNL A   1      43.044  39.542  34.124  1.00  0.00    -0.744 OA
ENDBRANCH  63  64
ENDBRANCH  37  58
ENDBRANCH  11  12
ENDBRANCH   4   6
ENDBRANCH   1   2
BRANCH   1  68
ATOM     68  C   UNL A   1      41.159  20.072  26.483  1.00  0.00     0.042 C 
BRANCH  68  69
ATOM     69  C   UNL A   1      42.643  19.755  26.372  1.00  0.00     0.118 C 
BRANCH  69  70
ATOM     70  N   UNL A   1      43.102  19.662  25.000  1.00  0.00    -0.351 N 
ATOM     71  C   UNL A   1      44.337  19.913  24.473  1.00  0.00     0.278 C 
ATOM     72  H   UNL A   1      42.421  19.373  24.350  1.00  0.00     0.163 HD
ATOM     73  O   UNL A   1      44.525  19.613  23.292  1.00  0.00    -0.268 OA
BRANCH  71  74
ATOM     74  C   UNL A   1      45.435  20.542  25.358  1.00  0.00     0.273 C 
ATOM     75  C   UNL A   1      46.491  21.272  24.548  1.00  0.00     0.082 C 
ATOM     76  N   UNL A   1      44.851  21.583  26.243  1.00  0.00    -0.329 N 
ATOM     77  C   UNL A   1      45.887  22.641  24.313  1.00  0.00     0.078 C 
ATOM     78  C   UNL A   1      45.022  22.894  25.547  1.00  0.00     0.251 C 
ATOM     79  H   UNL A   1      45.341  21.596  27.138  1.00  0.00     0.347 HD
ATOM     80  H   UNL A   1      43.866  21.394  26.426  1.00  0.00     0.347 HD
BRANCH  78  81
ATOM     81  C   UNL A   1      43.719  23.637  25.197  1.00  0.00     0.399 C 
ATOM     82  F   UNL A   1      44.023  24.847  24.654  1.00  0.00    -0.204 F 
ATOM     83  F   UNL A   1      42.996  22.967  24.271  1.00  0.00    -0.204 F 
ENDBRANCH  78  81
ENDBRANCH  71  74
ENDBRANCH  69  70
ENDBRANCH  68  69
ENDBRANCH   1  68
TORSDOF 14
ENDMDL
MODEL 3
REMARK VINA RESULT:     -10.4      3.391      5.305
REMARK SMILES O=C(NCCCNC(=O)[C@H]1CC[C@@H](C(F)F)[NH2+]1)c1ccc(-c2c3nc(c(-c4ccc(S(=O)(=O)[O-])cc4)c4ccc([nH]4)c(-c4ccc(S(=O)(=O)[O-])cc4)c4nc(c(-c5ccc(S(=O)(=O)[O-])cc5)c5ccc2[nH]5)C=C4)C=C3)cc1
REMARK SMILES IDX 4 1 3 2 1 3 2 4 18 6 19 7 77 8 20 9 76 10 21 11 22 12 23 13
REMARK SMILES IDX 70 14 24 15 75 16 69 17 71 18 25 19 74 20 68 21 67 22 26 24
REMARK SMILES IDX 56 25 37 26 55 27 38 28 41 29 54 30 72 31 39 32 40 33 53 35
REMARK SMILES IDX 73 36 42 37 27 38 28 39 36 40 29 41 35 42 30 43 31 44 32 45
REMARK SMILES IDX 33 46 34 47 57 48 58 49 66 50 59 51 65 52 60 53 61 54 62 55
REMARK SMILES IDX 63 56 64 57 43 58 44 59 52 60 45 61 51 62 46 63 47 64 48 65
REMARK SMILES IDX 49 66 50 67 5 68 6 69 7 70 8 71 9 73 10 74 11 75 17 76 12 77
REMARK SMILES IDX 13 78 14 81 15 82 16 83
REMARK H PARENT 3 5 71 23 41 34 7 72 17 79 17 80
REMARK Flexibility Score: inf
ROOT
ATOM      1  C   UNL A   1      34.684  32.971  28.003  1.00  0.00     0.118 C 
ENDROOT
BRANCH   1   2
ATOM      2  N   UNL A   1      33.936  31.761  27.684  1.00  0.00    -0.352 N 
ATOM      3  O   UNL A   1      33.587  29.621  27.096  1.00  0.00    -0.269 OA
ATOM      4  C   UNL A   1      34.354  30.460  27.575  1.00  0.00     0.251 C 
ATOM      5  H   UNL A   1      32.976  31.900  27.519  1.00  0.00     0.163 HD
BRANCH   4   6
ATOM      6  C   UNL A   1      35.708  30.056  28.006  1.00  0.00     0.039 A 
ATOM      7  C   UNL A   1      36.790  30.090  27.121  1.00  0.00     0.014 A 
ATOM      8  C   UNL A   1      35.912  29.686  29.338  1.00  0.00     0.014 A 
ATOM      9  C   UNL A   1      38.039  29.629  27.528  1.00  0.00     0.010 A 
ATOM     10  C   UNL A   1      37.184  29.299  29.768  1.00  0.00     0.010 A 
ATOM     11  C   UNL A   1      38.252  29.241  28.859  1.00  0.00    -0.014 A 
BRANCH  11  12
ATOM     12  C   UNL A   1      39.605  28.833  29.314  1.00  0.00     0.031 A 
ATOM     13  C   UNL A   1      40.486  29.793  30.063  1.00  0.00     0.074 A 
ATOM     14  C   UNL A   1      40.055  27.600  29.011  1.00  0.00     0.049 A 
ATOM     15  N   UNL A   1      41.721  29.637  30.463  1.00  0.00    -0.248 NA
ATOM     16  C   UNL A   1      39.906  31.103  30.396  1.00  0.00     0.031 C 
ATOM     17  C   UNL A   1      39.292  26.580  28.287  1.00  0.00     0.029 A 
ATOM     18  N   UNL A   1      41.263  27.000  29.259  1.00  0.00    -0.354 N 
ATOM     19  C   UNL A   1      42.079  30.835  31.069  1.00  0.00     0.074 A 
ATOM     20  C   UNL A   1      40.935  31.716  30.965  1.00  0.00     0.031 C 
ATOM     21  C   UNL A   1      40.048  25.481  28.153  1.00  0.00     0.029 A 
ATOM     22  C   UNL A   1      41.367  25.740  28.720  1.00  0.00     0.049 A 
ATOM     23  H   UNL A   1      41.986  27.430  29.772  1.00  0.00     0.167 HD
ATOM     24  C   UNL A   1      43.254  31.170  31.657  1.00  0.00     0.031 A 
ATOM     25  C   UNL A   1      42.414  24.896  28.651  1.00  0.00     0.031 A 
ATOM     26  C   UNL A   1      44.392  30.290  31.737  1.00  0.00     0.049 A 
ATOM     27  C   UNL A   1      43.722  25.299  29.267  1.00  0.00     0.074 A 
ATOM     28  C   UNL A   1      45.615  30.519  32.345  1.00  0.00     0.029 A 
ATOM     29  N   UNL A   1      44.455  29.021  31.179  1.00  0.00    -0.354 N 
ATOM     30  N   UNL A   1      44.029  26.417  29.879  1.00  0.00    -0.248 NA
ATOM     31  C   UNL A   1      44.822  24.329  29.191  1.00  0.00     0.031 C 
ATOM     32  C   UNL A   1      46.437  29.415  32.097  1.00  0.00     0.029 A 
ATOM     33  C   UNL A   1      45.705  28.467  31.400  1.00  0.00     0.049 A 
ATOM     34  H   UNL A   1      43.718  28.579  30.698  1.00  0.00     0.167 HD
ATOM     35  C   UNL A   1      45.349  26.277  30.286  1.00  0.00     0.074 A 
ATOM     36  C   UNL A   1      45.782  24.963  29.852  1.00  0.00     0.031 C 
ATOM     37  C   UNL A   1      46.125  27.156  30.965  1.00  0.00     0.031 A 
BRANCH  24  38
ATOM     38  C   UNL A   1      43.382  32.568  32.206  1.00  0.00    -0.014 A 
ATOM     39  C   UNL A   1      43.069  32.865  33.546  1.00  0.00     0.010 A 
ATOM     40  C   UNL A   1      43.827  33.606  31.366  1.00  0.00     0.010 A 
ATOM     41  C   UNL A   1      43.128  34.182  34.012  1.00  0.00     0.020 A 
ATOM     42  C   UNL A   1      43.919  34.919  31.836  1.00  0.00     0.020 A 
ATOM     43  C   UNL A   1      43.540  35.203  33.149  1.00  0.00     0.054 A 
BRANCH  43  44
ATOM     44  S   UNL A   1      43.569  36.907  33.768  1.00  0.00     0.124 S 
ATOM     45  O   UNL A   1      44.776  36.905  34.593  1.00  0.00    -0.237 OA
ATOM     46  O   UNL A   1      43.650  37.694  32.542  1.00  0.00    -0.237 OA
ATOM     47  O   UNL A   1      42.314  37.032  34.505  1.00  0.00    -0.744 OA
ENDBRANCH  43  44
ENDBRANCH  24  38
BRANCH  25  48
ATOM     48  C   UNL A   1      42.245  23.599  27.941  1.00  0.00    -0.014 A 
ATOM     49  C   UNL A   1      42.678  23.444  26.615  1.00  0.00     0.010 A 
ATOM     50  C   UNL A   1      41.733  22.483  28.631  1.00  0.00     0.010 A 
ATOM     51  C   UNL A   1      42.615  22.192  25.994  1.00  0.00     0.020 A 
ATOM     52  C   UNL A   1      41.694  21.226  28.024  1.00  0.00     0.020 A 
ATOM     53  C   UNL A   1      42.135  21.089  26.707  1.00  0.00     0.054 A 
BRANCH  53  54
ATOM     54  S   UNL A   1      42.163  19.456  25.915  1.00  0.00     0.124 S 
ATOM     55  O   UNL A   1      40.780  19.308  25.475  1.00  0.00    -0.237 OA
ATOM     56  O   UNL A   1      43.149  19.641  24.853  1.00  0.00    -0.237 OA
ATOM     57  O   UNL A   1      42.580  18.561  26.992  1.00  0.00    -0.744 OA
ENDBRANCH  53  54
ENDBRANCH  25  48
BRANCH  37  58
ATOM     58  C   UNL A   1      47.521  26.725  31.330  1.00  0.00    -0.014 A 
ATOM     59  C   UNL A   1      47.795  26.086  32.552  1.00  0.00     0.010 A 
ATOM     60  C   UNL A   1      48.552  26.867  30.382  1.00  0.00     0.010 A 
ATOM     61  C   UNL A   1      49.077  25.595  32.816  1.00  0.00     0.020 A 
ATOM     62  C   UNL A   1      49.826  26.355  30.633  1.00  0.00     0.020 A 
ATOM     63  C   UNL A   1      50.081  25.723  31.851  1.00  0.00     0.054 A 
BRANCH  63  64
ATOM     64  S   UNL A   1      51.707  24.988  32.179  1.00  0.00     0.124 S 
ATOM     65  O   UNL A   1      51.440  23.564  32.002  1.00  0.00    -0.237 OA
ATOM     66  O   UNL A   1      52.548  25.602  31.155  1.00  0.00    -0.237 OA
ATOM     67  O   UNL A   1      52.005  25.400  33.550  1.00  0.00    -0.744 OA
ENDBRANCH  63  64
ENDBRANCH  37  58
ENDBRANCH  11  12
ENDBRANCH   4   6
ENDBRANCH   1   2
BRANCH   1  68
ATOM     68  C   UNL A   1      33.801  34.078  28.572  1.00  0.00     0.042 C 
BRANCH  68  69
ATOM     69  C   UNL A   1      33.920  34.266  30.078  1.00  0.00     0.118 C 
BRANCH  69  70
ATOM     70  N   UNL A   1      34.510  33.123  30.747  1.00  0.00    -0.351 N 
ATOM     71  C   UNL A   1      34.978  33.004  32.025  1.00  0.00     0.278 C 
ATOM     72  H   UNL A   1      34.583  32.309  30.198  1.00  0.00     0.163 HD
ATOM     73  O   UNL A   1      35.295  31.878  32.413  1.00  0.00    -0.268 OA
BRANCH  71  74
ATOM     74  C   UNL A   1      35.081  34.256  32.922  1.00  0.00     0.273 C 
ATOM     75  C   UNL A   1      35.374  33.912  34.372  1.00  0.00     0.082 C 
ATOM     76  N   UNL A   1      36.224  35.103  32.497  1.00  0.00    -0.329 N 
ATOM     77  C   UNL A   1      36.879  33.752  34.410  1.00  0.00     0.078 C 
ATOM     78  C   UNL A   1      37.394  34.716  33.342  1.00  0.00     0.251 C 
ATOM     79  H   UNL A   1      36.001  36.089  32.639  1.00  0.00     0.347 HD
ATOM     80  H   UNL A   1      36.429  34.966  31.507  1.00  0.00     0.347 HD
BRANCH  78  81
ATOM     81  C   UNL A   1      38.605  34.145  32.582  1.00  0.00     0.399 C 
ATOM     82  F   UNL A   1      38.633  34.664  31.324  1.00  0.00    -0.204 F 
ATOM     83  F   UNL A   1      39.772  34.495  33.171  1.00  0.00    -0.204 F 
ENDBRANCH  78  81
ENDBRANCH  71  74
ENDBRANCH  69  70
ENDBRANCH  68  69
ENDBRANCH   1  68
TORSDOF 14
ENDMDL
