MODEL 1
REMARK VINA RESULT:     -12.0      0.000      0.000
REMARK SMILES O=C(NCCCNC(=O)[C@H]1CCCCN1C(=O)c1cn2ccccc2n1)c1ccc(-c2c3nc(c(-c4ccc(S(=O)(=O)[O-])cc4)c4ccc([nH]4)c(-c4ccc(S(=O)(=O)[O-])cc4)c4nc(c(-c5ccc(S(=O)(=O)[O-])cc5)c5ccc2[nH]5)C=C4)C=C3)cc1
REMARK SMILES IDX 4 1 3 2 1 3 2 4 27 6 28 7 86 8 29 9 85 10 30 11 31 12 32 13
REMARK SMILES IDX 79 14 33 15 84 16 78 17 80 18 34 19 83 20 77 21 76 22 35 24
REMARK SMILES IDX 65 25 46 26 64 27 47 28 50 29 63 30 81 31 48 32 49 33 62 35
REMARK SMILES IDX 82 36 51 37 36 38 37 39 45 40 38 41 44 42 39 43 40 44 41 45
REMARK SMILES IDX 42 46 43 47 66 48 67 49 75 50 68 51 74 52 69 53 70 54 71 55
REMARK SMILES IDX 72 56 73 57 52 58 53 59 61 60 54 61 60 62 55 63 56 64 57 65
REMARK SMILES IDX 58 66 59 67 5 68 6 69 7 70 8 71 9 73 10 74 11 75 15 76 12 77
REMARK SMILES IDX 14 78 13 79 16 80 17 81 18 82 19 83 26 84 20 85 25 86 21 87
REMARK SMILES IDX 24 88 22 89 23 90
REMARK H PARENT 3 5 80 23 50 34 7 72
REMARK Flexibility Score: inf
ROOT
ATOM      1  C   UNL A   1      33.414  28.451  27.294  1.00  0.00     0.118 C 
ENDROOT
BRANCH   1   2
ATOM      2  N   UNL A   1      33.377  29.903  27.435  1.00  0.00    -0.352 N 
ATOM      3  O   UNL A   1      33.955  31.905  28.288  1.00  0.00    -0.269 OA
ATOM      4  C   UNL A   1      34.286  30.758  28.016  1.00  0.00     0.251 C 
ATOM      5  H   UNL A   1      32.579  30.338  27.057  1.00  0.00     0.163 HD
BRANCH   4   6
ATOM      6  C   UNL A   1      35.653  30.280  28.311  1.00  0.00     0.039 A 
ATOM      7  C   UNL A   1      36.650  30.401  27.345  1.00  0.00     0.014 A 
ATOM      8  C   UNL A   1      35.957  29.742  29.565  1.00  0.00     0.014 A 
ATOM      9  C   UNL A   1      37.889  29.823  27.552  1.00  0.00     0.010 A 
ATOM     10  C   UNL A   1      37.255  29.292  29.828  1.00  0.00     0.010 A 
ATOM     11  C   UNL A   1      38.226  29.318  28.816  1.00  0.00    -0.014 A 
BRANCH  11  12
ATOM     12  C   UNL A   1      39.647  28.982  29.067  1.00  0.00     0.031 A 
ATOM     13  C   UNL A   1      40.238  27.674  28.634  1.00  0.00     0.074 A 
ATOM     14  C   UNL A   1      40.409  29.926  29.662  1.00  0.00     0.049 A 
ATOM     15  N   UNL A   1      41.472  27.260  28.760  1.00  0.00    -0.248 NA
ATOM     16  C   UNL A   1      39.342  26.703  27.986  1.00  0.00     0.031 C 
ATOM     17  C   UNL A   1      39.920  31.229  30.133  1.00  0.00     0.029 A 
ATOM     18  N   UNL A   1      41.748  29.961  29.944  1.00  0.00    -0.354 N 
ATOM     19  C   UNL A   1      41.497  25.972  28.238  1.00  0.00     0.074 A 
ATOM     20  C   UNL A   1      40.154  25.670  27.796  1.00  0.00     0.031 C 
ATOM     21  C   UNL A   1      40.952  31.957  30.578  1.00  0.00     0.029 A 
ATOM     22  C   UNL A   1      42.156  31.143  30.517  1.00  0.00     0.049 A 
ATOM     23  H   UNL A   1      42.359  29.213  29.755  1.00  0.00     0.167 HD
ATOM     24  C   UNL A   1      42.551  25.126  28.149  1.00  0.00     0.031 A 
ATOM     25  C   UNL A   1      43.360  31.522  30.981  1.00  0.00     0.031 A 
ATOM     26  C   UNL A   1      43.885  25.455  28.584  1.00  0.00     0.049 A 
ATOM     27  C   UNL A   1      44.495  30.550  30.886  1.00  0.00     0.074 A 
ATOM     28  C   UNL A   1      45.031  24.686  28.491  1.00  0.00     0.029 A 
ATOM     29  N   UNL A   1      44.250  26.643  29.201  1.00  0.00    -0.354 N 
ATOM     30  N   UNL A   1      44.507  29.354  30.348  1.00  0.00    -0.248 NA
ATOM     31  C   UNL A   1      45.775  30.969  31.470  1.00  0.00     0.031 C 
ATOM     32  C   UNL A   1      46.077  25.383  29.104  1.00  0.00     0.029 A 
ATOM     33  C   UNL A   1      45.595  26.610  29.529  1.00  0.00     0.049 A 
ATOM     34  H   UNL A   1      43.642  27.397  29.378  1.00  0.00     0.167 HD
ATOM     35  C   UNL A   1      45.795  28.873  30.534  1.00  0.00     0.074 A 
ATOM     36  C   UNL A   1      46.543  29.924  31.197  1.00  0.00     0.031 C 
ATOM     37  C   UNL A   1      46.310  27.666  30.199  1.00  0.00     0.031 A 
BRANCH  24  38
ATOM     38  C   UNL A   1      42.316  23.745  27.595  1.00  0.00    -0.014 A 
ATOM     39  C   UNL A   1      42.582  23.442  26.249  1.00  0.00     0.010 A 
ATOM     40  C   UNL A   1      41.928  22.711  28.467  1.00  0.00     0.010 A 
ATOM     41  C   UNL A   1      42.457  22.129  25.783  1.00  0.00     0.020 A 
ATOM     42  C   UNL A   1      41.820  21.394  28.010  1.00  0.00     0.020 A 
ATOM     43  C   UNL A   1      42.082  21.112  26.669  1.00  0.00     0.054 A 
BRANCH  43  44
ATOM     44  S   UNL A   1      41.998  19.406  26.054  1.00  0.00     0.124 S 
ATOM     45  O   UNL A   1      40.587  19.284  25.697  1.00  0.00    -0.237 OA
ATOM     46  O   UNL A   1      42.930  19.426  24.929  1.00  0.00    -0.237 OA
ATOM     47  O   UNL A   1      42.423  18.603  27.197  1.00  0.00    -0.744 OA
ENDBRANCH  43  44
ENDBRANCH  24  38
BRANCH  25  48
ATOM     48  C   UNL A   1      43.520  32.845  31.641  1.00  0.00    -0.014 A 
ATOM     49  C   UNL A   1      43.818  33.997  30.895  1.00  0.00     0.010 A 
ATOM     50  C   UNL A   1      43.367  32.955  33.038  1.00  0.00     0.010 A 
ATOM     51  C   UNL A   1      43.989  35.228  31.537  1.00  0.00     0.020 A 
ATOM     52  C   UNL A   1      43.501  34.188  33.677  1.00  0.00     0.020 A 
ATOM     53  C   UNL A   1      43.833  35.314  32.924  1.00  0.00     0.054 A 
BRANCH  53  54
ATOM     54  S   UNL A   1      44.037  36.921  33.737  1.00  0.00     0.124 S 
ATOM     55  O   UNL A   1      44.203  37.816  32.596  1.00  0.00    -0.237 OA
ATOM     56  O   UNL A   1      42.788  37.065  34.479  1.00  0.00    -0.237 OA
ATOM     57  O   UNL A   1      45.226  36.735  34.567  1.00  0.00    -0.744 OA
ENDBRANCH  53  54
ENDBRANCH  25  48
BRANCH  37  58
ATOM     58  C   UNL A   1      47.753  27.428  30.546  1.00  0.00    -0.014 A 
ATOM     59  C   UNL A   1      48.779  27.833  29.674  1.00  0.00     0.010 A 
ATOM     60  C   UNL A   1      48.085  26.823  31.770  1.00  0.00     0.010 A 
ATOM     61  C   UNL A   1      50.115  27.608  30.007  1.00  0.00     0.020 A 
ATOM     62  C   UNL A   1      49.422  26.621  32.119  1.00  0.00     0.020 A 
ATOM     63  C   UNL A   1      50.427  27.002  31.227  1.00  0.00     0.054 A 
BRANCH  63  64
ATOM     64  S   UNL A   1      52.171  26.755  31.655  1.00  0.00     0.124 S 
ATOM     65  O   UNL A   1      52.503  28.015  32.315  1.00  0.00    -0.237 OA
ATOM     66  O   UNL A   1      52.125  25.582  32.525  1.00  0.00    -0.237 OA
ATOM     67  O   UNL A   1      52.818  26.540  30.363  1.00  0.00    -0.744 OA
ENDBRANCH  63  64
ENDBRANCH  37  58
ENDBRANCH  11  12
ENDBRANCH   4   6
ENDBRANCH   1   2
BRANCH   1  68
ATOM     68  C   UNL A   1      32.065  27.820  27.585  1.00  0.00     0.042 C 
BRANCH  68  69
ATOM     69  C   UNL A   1      31.587  26.944  26.447  1.00  0.00     0.117 C 
BRANCH  69  70
ATOM     70  N   UNL A   1      31.187  25.625  26.898  1.00  0.00    -0.354 N 
ATOM     71  C   UNL A   1      31.481  24.364  26.505  1.00  0.00     0.242 C 
ATOM     72  H   UNL A   1      30.563  25.654  27.660  1.00  0.00     0.163 HD
ATOM     73  O   UNL A   1      31.021  23.479  27.242  1.00  0.00    -0.273 OA
BRANCH  71  74
ATOM     74  C   UNL A   1      32.287  23.978  25.236  1.00  0.00     0.174 C 
ATOM     75  C   UNL A   1      33.494  24.782  24.745  1.00  0.00     0.035 C 
ATOM     76  N   UNL A   1      32.782  22.597  25.415  1.00  0.00    -0.325 N 
ATOM     77  C   UNL A   1      34.674  24.714  25.724  1.00  0.00     0.004 C 
ATOM     78  C   UNL A   1      33.820  22.452  26.438  1.00  0.00     0.121 C 
ATOM     79  C   UNL A   1      35.049  23.267  26.046  1.00  0.00     0.022 C 
BRANCH  76  80
ATOM     80  C   UNL A   1      32.475  21.664  24.420  1.00  0.00     0.274 C 
ATOM     81  O   UNL A   1      31.931  21.984  23.364  1.00  0.00    -0.267 OA
BRANCH  80  82
ATOM     82  C   UNL A   1      32.918  20.289  24.634  1.00  0.00     0.147 A 
ATOM     83  C   UNL A   1      34.177  19.763  24.407  1.00  0.00     0.127 A 
ATOM     84  N   UNL A   1      32.065  19.305  25.107  1.00  0.00    -0.223 NA
ATOM     85  N   UNL A   1      34.079  18.429  24.699  1.00  0.00    -0.306 N 
ATOM     86  C   UNL A   1      32.782  18.204  25.144  1.00  0.00     0.137 A 
ATOM     87  C   UNL A   1      35.035  17.423  24.582  1.00  0.00     0.093 A 
ATOM     88  C   UNL A   1      32.446  16.878  25.532  1.00  0.00     0.048 A 
ATOM     89  C   UNL A   1      34.708  16.166  24.929  1.00  0.00     0.018 A 
ATOM     90  C   UNL A   1      33.366  15.900  25.429  1.00  0.00     0.005 A 
ENDBRANCH  80  82
ENDBRANCH  76  80
ENDBRANCH  71  74
ENDBRANCH  69  70
ENDBRANCH  68  69
ENDBRANCH   1  68
TORSDOF 15
ENDMDL
MODEL 2
REMARK VINA RESULT:     -11.9      1.710      2.510
REMARK SMILES O=C(NCCCNC(=O)[C@H]1CCCCN1C(=O)c1cn2ccccc2n1)c1ccc(-c2c3nc(c(-c4ccc(S(=O)(=O)[O-])cc4)c4ccc([nH]4)c(-c4ccc(S(=O)(=O)[O-])cc4)c4nc(c(-c5ccc(S(=O)(=O)[O-])cc5)c5ccc2[nH]5)C=C4)C=C3)cc1
REMARK SMILES IDX 4 1 3 2 1 3 2 4 27 6 28 7 86 8 29 9 85 10 30 11 31 12 32 13
REMARK SMILES IDX 79 14 33 15 84 16 78 17 80 18 34 19 83 20 77 21 76 22 35 24
REMARK SMILES IDX 65 25 46 26 64 27 47 28 50 29 63 30 81 31 48 32 49 33 62 35
REMARK SMILES IDX 82 36 51 37 36 38 37 39 45 40 38 41 44 42 39 43 40 44 41 45
REMARK SMILES IDX 42 46 43 47 66 48 67 49 75 50 68 51 74 52 69 53 70 54 71 55
REMARK SMILES IDX 72 56 73 57 52 58 53 59 61 60 54 61 60 62 55 63 56 64 57 65
REMARK SMILES IDX 58 66 59 67 5 68 6 69 7 70 8 71 9 73 10 74 11 75 15 76 12 77
REMARK SMILES IDX 14 78 13 79 16 80 17 81 18 82 19 83 26 84 20 85 25 86 21 87
REMARK SMILES IDX 24 88 22 89 23 90
REMARK H PARENT 3 5 80 23 50 34 7 72
REMARK Flexibility Score: inf
ROOT
ATOM      1  C   UNL A   1      34.070  28.758  26.316  1.00  0.00     0.118 C 
ENDROOT
BRANCH   1   2
ATOM      2  N   UNL A   1      33.896  30.065  26.945  1.00  0.00    -0.352 N 
ATOM      3  O   UNL A   1      34.191  31.650  28.516  1.00  0.00    -0.269 OA
ATOM      4  C   UNL A   1      34.648  30.685  27.917  1.00  0.00     0.251 C 
ATOM      5  H   UNL A   1      33.122  30.581  26.624  1.00  0.00     0.163 HD
BRANCH   4   6
ATOM      6  C   UNL A   1      35.998  30.174  28.231  1.00  0.00     0.039 A 
ATOM      7  C   UNL A   1      37.024  30.313  27.298  1.00  0.00     0.014 A 
ATOM      8  C   UNL A   1      36.259  29.589  29.474  1.00  0.00     0.014 A 
ATOM      9  C   UNL A   1      38.248  29.709  27.518  1.00  0.00     0.010 A 
ATOM     10  C   UNL A   1      37.543  29.108  29.756  1.00  0.00     0.010 A 
ATOM     11  C   UNL A   1      38.542  29.155  28.772  1.00  0.00    -0.014 A 
BRANCH  11  12
ATOM     12  C   UNL A   1      39.950  28.787  29.049  1.00  0.00     0.031 A 
ATOM     13  C   UNL A   1      40.525  27.474  28.612  1.00  0.00     0.074 A 
ATOM     14  C   UNL A   1      40.718  29.708  29.673  1.00  0.00     0.049 A 
ATOM     15  N   UNL A   1      41.747  27.033  28.759  1.00  0.00    -0.248 NA
ATOM     16  C   UNL A   1      39.625  26.529  27.931  1.00  0.00     0.031 C 
ATOM     17  C   UNL A   1      40.243  31.014  30.150  1.00  0.00     0.029 A 
ATOM     18  N   UNL A   1      42.050  29.712  29.984  1.00  0.00    -0.354 N 
ATOM     19  C   UNL A   1      41.759  25.752  28.221  1.00  0.00     0.074 A 
ATOM     20  C   UNL A   1      40.420  25.482  27.745  1.00  0.00     0.031 C 
ATOM     21  C   UNL A   1      41.279  31.716  30.628  1.00  0.00     0.029 A 
ATOM     22  C   UNL A   1      42.468  30.879  30.582  1.00  0.00     0.049 A 
ATOM     23  H   UNL A   1      42.651  28.955  29.799  1.00  0.00     0.167 HD
ATOM     24  C   UNL A   1      42.798  24.886  28.143  1.00  0.00     0.031 A 
ATOM     25  C   UNL A   1      43.669  31.228  31.077  1.00  0.00     0.031 A 
ATOM     26  C   UNL A   1      44.128  25.183  28.611  1.00  0.00     0.049 A 
ATOM     27  C   UNL A   1      44.787  30.235  30.994  1.00  0.00     0.074 A 
ATOM     28  C   UNL A   1      45.261  24.393  28.533  1.00  0.00     0.029 A 
ATOM     29  N   UNL A   1      44.502  26.356  29.252  1.00  0.00    -0.354 N 
ATOM     30  N   UNL A   1      44.787  29.046  30.441  1.00  0.00    -0.248 NA
ATOM     31  C   UNL A   1      46.061  30.621  31.611  1.00  0.00     0.031 C 
ATOM     32  C   UNL A   1      46.306  25.061  29.178  1.00  0.00     0.029 A 
ATOM     33  C   UNL A   1      45.839  26.292  29.609  1.00  0.00     0.049 A 
ATOM     34  H   UNL A   1      43.905  27.119  29.426  1.00  0.00     0.167 HD
ATOM     35  C   UNL A   1      46.061  28.537  30.647  1.00  0.00     0.074 A 
ATOM     36  C   UNL A   1      46.814  29.564  31.340  1.00  0.00     0.031 C 
ATOM     37  C   UNL A   1      46.560  27.324  30.308  1.00  0.00     0.031 A 
BRANCH  24  38
ATOM     38  C   UNL A   1      42.548  23.518  27.566  1.00  0.00    -0.014 A 
ATOM     39  C   UNL A   1      42.835  23.228  26.221  1.00  0.00     0.010 A 
ATOM     40  C   UNL A   1      42.123  22.480  28.416  1.00  0.00     0.010 A 
ATOM     41  C   UNL A   1      42.695  21.923  25.735  1.00  0.00     0.020 A 
ATOM     42  C   UNL A   1      42.001  21.171  27.939  1.00  0.00     0.020 A 
ATOM     43  C   UNL A   1      42.283  20.902  26.599  1.00  0.00     0.054 A 
BRANCH  43  44
ATOM     44  S   UNL A   1      42.180  19.207  25.960  1.00  0.00     0.124 S 
ATOM     45  O   UNL A   1      43.027  19.281  24.771  1.00  0.00    -0.237 OA
ATOM     46  O   UNL A   1      42.717  18.415  27.064  1.00  0.00    -0.237 OA
ATOM     47  O   UNL A   1      40.755  19.019  25.698  1.00  0.00    -0.744 OA
ENDBRANCH  43  44
ENDBRANCH  24  38
BRANCH  25  48
ATOM     48  C   UNL A   1      43.840  32.539  31.758  1.00  0.00    -0.014 A 
ATOM     49  C   UNL A   1      43.670  32.664  33.148  1.00  0.00     0.010 A 
ATOM     50  C   UNL A   1      44.183  33.680  31.006  1.00  0.00     0.010 A 
ATOM     51  C   UNL A   1      43.812  33.910  33.766  1.00  0.00     0.020 A 
ATOM     52  C   UNL A   1      44.359  34.918  31.624  1.00  0.00     0.020 A 
ATOM     53  C   UNL A   1      44.151  35.030  32.999  1.00  0.00     0.054 A 
BRANCH  53  54
ATOM     54  S   UNL A   1      44.351  36.633  33.820  1.00  0.00     0.124 S 
ATOM     55  O   UNL A   1      44.782  36.235  35.156  1.00  0.00    -0.237 OA
ATOM     56  O   UNL A   1      45.364  37.290  32.998  1.00  0.00    -0.237 OA
ATOM     57  O   UNL A   1      43.017  37.226  33.741  1.00  0.00    -0.744 OA
ENDBRANCH  53  54
ENDBRANCH  25  48
BRANCH  37  58
ATOM     58  C   UNL A   1      47.989  27.054  30.683  1.00  0.00    -0.014 A 
ATOM     59  C   UNL A   1      48.308  26.428  31.901  1.00  0.00     0.010 A 
ATOM     60  C   UNL A   1      49.021  27.401  29.793  1.00  0.00     0.010 A 
ATOM     61  C   UNL A   1      49.640  26.181  32.237  1.00  0.00     0.020 A 
ATOM     62  C   UNL A   1      50.353  27.131  30.115  1.00  0.00     0.020 A 
ATOM     63  C   UNL A   1      50.653  26.536  31.343  1.00  0.00     0.054 A 
BRANCH  63  64
ATOM     64  S   UNL A   1      52.373  26.170  31.786  1.00  0.00     0.124 S 
ATOM     65  O   UNL A   1      52.647  27.185  32.799  1.00  0.00    -0.237 OA
ATOM     66  O   UNL A   1      52.292  24.797  32.276  1.00  0.00    -0.237 OA
ATOM     67  O   UNL A   1      53.097  26.335  30.527  1.00  0.00    -0.744 OA
ENDBRANCH  63  64
ENDBRANCH  37  58
ENDBRANCH  11  12
ENDBRANCH   4   6
ENDBRANCH   1   2
BRANCH   1  68
ATOM     68  C   UNL A   1      33.028  27.761  26.788  1.00  0.00     0.042 C 
BRANCH  68  69
ATOM     69  C   UNL A   1      31.971  27.501  25.736  1.00  0.00     0.117 C 
BRANCH  69  70
ATOM     70  N   UNL A   1      31.072  26.428  26.113  1.00  0.00    -0.354 N 
ATOM     71  C   UNL A   1      31.213  25.092  26.276  1.00  0.00     0.242 C 
ATOM     72  H   UNL A   1      30.155  26.741  26.292  1.00  0.00     0.163 HD
ATOM     73  O   UNL A   1      30.211  24.524  26.737  1.00  0.00    -0.273 OA
BRANCH  71  74
ATOM     74  C   UNL A   1      32.474  24.264  25.908  1.00  0.00     0.174 C 
ATOM     75  C   UNL A   1      32.633  22.788  26.280  1.00  0.00     0.035 C 
ATOM     76  N   UNL A   1      32.641  24.320  24.441  1.00  0.00    -0.325 N 
ATOM     77  C   UNL A   1      31.621  21.893  25.550  1.00  0.00     0.004 C 
ATOM     78  C   UNL A   1      31.619  23.591  23.686  1.00  0.00     0.121 C 
ATOM     79  C   UNL A   1      31.679  22.107  24.037  1.00  0.00     0.022 C 
BRANCH  76  80
ATOM     80  C   UNL A   1      33.873  24.755  23.944  1.00  0.00     0.274 C 
ATOM     81  O   UNL A   1      33.987  25.783  23.278  1.00  0.00    -0.267 OA
BRANCH  80  82
ATOM     82  C   UNL A   1      35.057  23.992  24.332  1.00  0.00     0.147 A 
ATOM     83  C   UNL A   1      35.431  22.735  23.894  1.00  0.00     0.127 A 
ATOM     84  N   UNL A   1      35.980  24.477  25.245  1.00  0.00    -0.223 NA
ATOM     85  N   UNL A   1      36.572  22.427  24.585  1.00  0.00    -0.306 N 
ATOM     86  C   UNL A   1      36.879  23.529  25.375  1.00  0.00     0.137 A 
ATOM     87  C   UNL A   1      37.329  21.257  24.573  1.00  0.00     0.093 A 
ATOM     88  C   UNL A   1      38.052  23.451  26.176  1.00  0.00     0.048 A 
ATOM     89  C   UNL A   1      38.424  21.179  25.348  1.00  0.00     0.018 A 
ATOM     90  C   UNL A   1      38.793  22.327  26.166  1.00  0.00     0.005 A 
ENDBRANCH  80  82
ENDBRANCH  76  80
ENDBRANCH  71  74
ENDBRANCH  69  70
ENDBRANCH  68  69
ENDBRANCH   1  68
TORSDOF 15
ENDMDL
MODEL 3
REMARK VINA RESULT:     -11.9      2.118      4.158
REMARK SMILES O=C(NCCCNC(=O)[C@H]1CCCCN1C(=O)c1cn2ccccc2n1)c1ccc(-c2c3nc(c(-c4ccc(S(=O)(=O)[O-])cc4)c4ccc([nH]4)c(-c4ccc(S(=O)(=O)[O-])cc4)c4nc(c(-c5ccc(S(=O)(=O)[O-])cc5)c5ccc2[nH]5)C=C4)C=C3)cc1
REMARK SMILES IDX 4 1 3 2 1 3 2 4 27 6 28 7 86 8 29 9 85 10 30 11 31 12 32 13
REMARK SMILES IDX 79 14 33 15 84 16 78 17 80 18 34 19 83 20 77 21 76 22 35 24
REMARK SMILES IDX 65 25 46 26 64 27 47 28 50 29 63 30 81 31 48 32 49 33 62 35
REMARK SMILES IDX 82 36 51 37 36 38 37 39 45 40 38 41 44 42 39 43 40 44 41 45
REMARK SMILES IDX 42 46 43 47 66 48 67 49 75 50 68 51 74 52 69 53 70 54 71 55
REMARK SMILES IDX 72 56 73 57 52 58 53 59 61 60 54 61 60 62 55 63 56 64 57 65
REMARK SMILES IDX 58 66 59 67 5 68 6 69 7 70 8 71 9 73 10 74 11 75 15 76 12 77
REMARK SMILES IDX 14 78 13 79 16 80 17 81 18 82 19 83 26 84 20 85 25 86 21 87
REMARK SMILES IDX 24 88 22 89 23 90
REMARK H PARENT 3 5 80 23 50 34 7 72
REMARK Flexibility Score: inf
ROOT
ATOM      1  C   UNL A   1      33.356  28.546  27.219  1.00  0.00     0.118 C 
ENDROOT
BRANCH   1   2
ATOM      2  N   UNL A   1      33.305  29.993  27.409  1.00  0.00    -0.352 N 
ATOM      3  O   UNL A   1      33.855  31.968  28.339  1.00  0.00    -0.269 OA
ATOM      4  C   UNL A   1      34.199  30.834  28.033  1.00  0.00     0.251 C 
ATOM      5  H   UNL A   1      32.510  30.435  27.034  1.00  0.00     0.163 HD
BRANCH   4   6
ATOM      6  C   UNL A   1      35.565  30.355  28.333  1.00  0.00     0.039 A 
ATOM      7  C   UNL A   1      36.554  30.433  27.355  1.00  0.00     0.014 A 
ATOM      8  C   UNL A   1      35.876  29.861  29.603  1.00  0.00     0.014 A 
ATOM      9  C   UNL A   1      37.790  29.854  27.572  1.00  0.00     0.010 A 
ATOM     10  C   UNL A   1      37.173  29.410  29.871  1.00  0.00     0.010 A 
ATOM     11  C   UNL A   1      38.135  29.392  28.850  1.00  0.00    -0.014 A 
BRANCH  11  12
ATOM     12  C   UNL A   1      39.555  29.054  29.101  1.00  0.00     0.031 A 
ATOM     13  C   UNL A   1      40.144  27.743  28.670  1.00  0.00     0.074 A 
ATOM     14  C   UNL A   1      40.320  29.997  29.693  1.00  0.00     0.049 A 
ATOM     15  N   UNL A   1      41.376  27.327  28.796  1.00  0.00    -0.248 NA
ATOM     16  C   UNL A   1      39.245  26.772  28.026  1.00  0.00     0.031 C 
ATOM     17  C   UNL A   1      39.834  31.303  30.160  1.00  0.00     0.029 A 
ATOM     18  N   UNL A   1      41.659  30.030  29.973  1.00  0.00    -0.354 N 
ATOM     19  C   UNL A   1      41.398  26.038  28.278  1.00  0.00     0.074 A 
ATOM     20  C   UNL A   1      40.054  25.737  27.838  1.00  0.00     0.031 C 
ATOM     21  C   UNL A   1      40.868  32.030  30.602  1.00  0.00     0.029 A 
ATOM     22  C   UNL A   1      42.070  31.213  30.542  1.00  0.00     0.049 A 
ATOM     23  H   UNL A   1      42.269  29.281  29.785  1.00  0.00     0.167 HD
ATOM     24  C   UNL A   1      42.450  25.189  28.190  1.00  0.00     0.031 A 
ATOM     25  C   UNL A   1      43.275  31.591  31.004  1.00  0.00     0.031 A 
ATOM     26  C   UNL A   1      43.785  25.517  28.623  1.00  0.00     0.049 A 
ATOM     27  C   UNL A   1      44.409  30.616  30.911  1.00  0.00     0.074 A 
ATOM     28  C   UNL A   1      44.930  24.745  28.531  1.00  0.00     0.029 A 
ATOM     29  N   UNL A   1      44.153  26.705  29.236  1.00  0.00    -0.354 N 
ATOM     30  N   UNL A   1      44.417  29.418  30.376  1.00  0.00    -0.248 NA
ATOM     31  C   UNL A   1      45.689  31.034  31.492  1.00  0.00     0.031 C 
ATOM     32  C   UNL A   1      45.978  25.442  29.141  1.00  0.00     0.029 A 
ATOM     33  C   UNL A   1      45.498  26.671  29.563  1.00  0.00     0.049 A 
ATOM     34  H   UNL A   1      43.547  27.461  29.412  1.00  0.00     0.167 HD
ATOM     35  C   UNL A   1      45.704  28.936  30.561  1.00  0.00     0.074 A 
ATOM     36  C   UNL A   1      46.455  29.987  31.221  1.00  0.00     0.031 C 
ATOM     37  C   UNL A   1      46.217  27.727  30.229  1.00  0.00     0.031 A 
BRANCH  24  38
ATOM     38  C   UNL A   1      42.212  23.807  27.640  1.00  0.00    -0.014 A 
ATOM     39  C   UNL A   1      42.459  23.505  26.291  1.00  0.00     0.010 A 
ATOM     40  C   UNL A   1      41.840  22.772  28.518  1.00  0.00     0.010 A 
ATOM     41  C   UNL A   1      42.332  22.190  25.827  1.00  0.00     0.020 A 
ATOM     42  C   UNL A   1      41.731  21.454  28.063  1.00  0.00     0.020 A 
ATOM     43  C   UNL A   1      41.973  21.173  26.719  1.00  0.00     0.054 A 
BRANCH  43  44
ATOM     44  S   UNL A   1      41.887  19.467  26.105  1.00  0.00     0.124 S 
ATOM     45  O   UNL A   1      42.333  18.705  27.269  1.00  0.00    -0.237 OA
ATOM     46  O   UNL A   1      40.473  19.321  25.765  1.00  0.00    -0.237 OA
ATOM     47  O   UNL A   1      42.802  19.459  24.967  1.00  0.00    -0.744 OA
ENDBRANCH  43  44
ENDBRANCH  24  38
BRANCH  25  48
ATOM     48  C   UNL A   1      43.438  32.915  31.661  1.00  0.00    -0.014 A 
ATOM     49  C   UNL A   1      43.201  33.079  33.036  1.00  0.00     0.010 A 
ATOM     50  C   UNL A   1      43.841  34.030  30.899  1.00  0.00     0.010 A 
ATOM     51  C   UNL A   1      43.337  34.338  33.630  1.00  0.00     0.020 A 
ATOM     52  C   UNL A   1      44.012  35.280  31.495  1.00  0.00     0.020 A 
ATOM     53  C   UNL A   1      43.737  35.430  32.854  1.00  0.00     0.054 A 
BRANCH  53  54
ATOM     54  S   UNL A   1      43.928  37.051  33.644  1.00  0.00     0.124 S 
ATOM     55  O   UNL A   1      45.276  36.959  34.196  1.00  0.00    -0.237 OA
ATOM     56  O   UNL A   1      43.763  37.974  32.525  1.00  0.00    -0.237 OA
ATOM     57  O   UNL A   1      42.848  37.079  34.628  1.00  0.00    -0.744 OA
ENDBRANCH  53  54
ENDBRANCH  25  48
BRANCH  37  58
ATOM     58  C   UNL A   1      47.659  27.487  30.575  1.00  0.00    -0.014 A 
ATOM     59  C   UNL A   1      48.013  26.811  31.756  1.00  0.00     0.010 A 
ATOM     60  C   UNL A   1      48.668  27.915  29.694  1.00  0.00     0.010 A 
ATOM     61  C   UNL A   1      49.357  26.594  32.066  1.00  0.00     0.020 A 
ATOM     62  C   UNL A   1      50.012  27.675  29.989  1.00  0.00     0.020 A 
ATOM     63  C   UNL A   1      50.347  27.029  31.181  1.00  0.00     0.054 A 
BRANCH  63  64
ATOM     64  S   UNL A   1      52.083  26.701  31.587  1.00  0.00     0.124 S 
ATOM     65  O   UNL A   1      52.583  28.040  31.885  1.00  0.00    -0.237 OA
ATOM     66  O   UNL A   1      51.980  25.799  32.731  1.00  0.00    -0.237 OA
ATOM     67  O   UNL A   1      52.615  26.095  30.368  1.00  0.00    -0.744 OA
ENDBRANCH  63  64
ENDBRANCH  37  58
ENDBRANCH  11  12
ENDBRANCH   4   6
ENDBRANCH   1   2
BRANCH   1  68
ATOM     68  C   UNL A   1      32.052  27.879  27.615  1.00  0.00     0.042 C 
BRANCH  68  69
ATOM     69  C   UNL A   1      31.400  27.165  26.450  1.00  0.00     0.117 C 
BRANCH  69  70
ATOM     70  N   UNL A   1      31.649  25.737  26.471  1.00  0.00    -0.354 N 
ATOM     71  C   UNL A   1      32.514  24.921  25.824  1.00  0.00     0.242 C 
ATOM     72  H   UNL A   1      31.060  25.253  27.094  1.00  0.00     0.163 HD
ATOM     73  O   UNL A   1      32.498  23.745  26.217  1.00  0.00    -0.273 OA
BRANCH  71  74
ATOM     74  C   UNL A   1      33.450  25.337  24.657  1.00  0.00     0.174 C 
ATOM     75  C   UNL A   1      34.694  24.534  24.268  1.00  0.00     0.035 C 
ATOM     76  N   UNL A   1      32.634  25.418  23.428  1.00  0.00    -0.325 N 
ATOM     77  C   UNL A   1      34.341  23.146  23.717  1.00  0.00     0.004 C 
ATOM     78  C   UNL A   1      32.155  24.126  22.931  1.00  0.00     0.121 C 
ATOM     79  C   UNL A   1      33.343  23.242  22.563  1.00  0.00     0.022 C 
BRANCH  76  80
ATOM     80  C   UNL A   1      32.670  26.612  22.703  1.00  0.00     0.274 C 
ATOM     81  O   UNL A   1      33.627  26.923  21.995  1.00  0.00    -0.267 OA
BRANCH  80  82
ATOM     82  C   UNL A   1      31.473  27.449  22.734  1.00  0.00     0.147 A 
ATOM     83  C   UNL A   1      31.390  28.812  22.511  1.00  0.00     0.127 A 
ATOM     84  N   UNL A   1      30.219  26.932  23.019  1.00  0.00    -0.223 NA
ATOM     85  N   UNL A   1      30.076  29.139  22.710  1.00  0.00    -0.306 N 
ATOM     86  C   UNL A   1      29.400  27.958  22.992  1.00  0.00     0.137 A 
ATOM     87  C   UNL A   1      29.458  30.387  22.675  1.00  0.00     0.093 A 
ATOM     88  C   UNL A   1      27.998  28.046  23.216  1.00  0.00     0.048 A 
ATOM     89  C   UNL A   1      28.136  30.469  22.909  1.00  0.00     0.018 A 
ATOM     90  C   UNL A   1      27.390  29.247  23.177  1.00  0.00     0.005 A 
ENDBRANCH  80  82
ENDBRANCH  76  80
ENDBRANCH  71  74
ENDBRANCH  69  70
ENDBRANCH  68  69
ENDBRANCH   1  68
TORSDOF 15
ENDMDL
