MODEL 1
REMARK VINA RESULT:     -13.4      0.000      0.000
REMARK SMILES COc1ccc(NC(=O)N[C@@H]2C=C[C@H](C(=O)NCCCNC(=O)c3ccc(-c4c5nc(c(-c6ccc(S(=O)(=O)[O-])cc6)c6ccc([nH]6)c(-c6ccc(S(=O)(=O)[O-])cc6)c6nc(c(-c7ccc(S(=O)(=O)[O-])cc7)c7ccc4[nH]7)C=C6)C=C5)cc3)C2)c(C)c1
REMARK SMILES IDX 19 1 18 2 17 3 15 4 16 5 14 7 11 8 12 9 84 10 13 11 10 12
REMARK SMILES IDX 7 13 8 14 9 16 6 18 3 19 4 20 87 21 5 22 85 23 86 24 2 25
REMARK SMILES IDX 1 26 20 27 21 28 22 29 23 31 24 32 25 33 83 34 26 35 82 36
REMARK SMILES IDX 27 37 28 38 29 39 76 40 30 41 81 42 75 43 77 44 31 45 80 46
REMARK SMILES IDX 74 47 73 48 32 50 62 51 43 52 61 53 44 54 47 55 60 56 78 57
REMARK SMILES IDX 45 58 46 59 59 61 79 62 48 63 33 64 34 65 42 66 35 67 41 68
REMARK SMILES IDX 36 69 37 70 38 71 39 72 40 73 63 74 64 75 72 76 65 77 71 78
REMARK SMILES IDX 66 79 67 80 68 81 69 82 70 83 49 84 50 85 58 86 51 87 57 88
REMARK SMILES IDX 52 89 53 90 54 91 55 92 56 93
REMARK H PARENT 17 6 7 15 10 17 21 30 77 49 47 60
REMARK Flexibility Score: inf
ROOT
ATOM      1  C   UNL A   1      36.437  21.269  25.014  1.00  0.00     0.042 C 
ENDROOT
BRANCH   1   2
ATOM      2  C   UNL A   1      35.359  21.366  26.080  1.00  0.00     0.117 C 
BRANCH   2   3
ATOM      3  N   UNL A   1      34.179  20.577  25.736  1.00  0.00    -0.356 N 
ATOM      4  C   UNL A   1      32.866  20.811  25.529  1.00  0.00     0.227 C 
ATOM      5  O   UNL A   1      32.200  19.785  25.300  1.00  0.00    -0.274 OA
ATOM      6  H   UNL A   1      34.400  19.624  25.625  1.00  0.00     0.163 HD
BRANCH   4   7
ATOM      7  C   UNL A   1      32.087  22.147  25.564  1.00  0.00     0.103 C 
ATOM      8  C   UNL A   1      31.817  24.994  24.005  1.00  0.00     0.107 C 
ATOM      9  C   UNL A   1      32.628  25.261  25.783  1.00  0.00    -0.006 C 
ATOM     10  C   UNL A   1      31.374  23.023  23.891  1.00  0.00     0.047 C 
ATOM     11  C   UNL A   1      32.895  23.626  26.648  1.00  0.00    -0.016 C 
BRANCH   8  12
ATOM     12  N   UNL A   1      32.937  25.467  23.078  1.00  0.00    -0.332 N 
ATOM     13  N   UNL A   1      32.346  27.739  22.403  1.00  0.00    -0.308 N 
ATOM     14  C   UNL A   1      33.184  26.636  22.375  1.00  0.00     0.319 C 
ATOM     15  H   UNL A   1      32.470  28.412  21.694  1.00  0.00     0.171 HD
ATOM     16  O   UNL A   1      34.183  26.652  21.652  1.00  0.00    -0.248 OA
ATOM     17  H   UNL A   1      33.639  24.789  22.952  1.00  0.00     0.165 HD
BRANCH  13  18
ATOM     18  C   UNL A   1      31.313  27.993  23.365  1.00  0.00     0.046 A 
ATOM     19  C   UNL A   1      29.004  30.941  23.582  1.00  0.00     0.119 A 
ATOM     20  C   UNL A   1      28.589  29.602  22.422  1.00  0.00     0.048 A 
ATOM     21  C   UNL A   1      30.463  30.766  24.592  1.00  0.00     0.052 A 
ATOM     22  C   UNL A   1      29.807  27.963  22.426  1.00  0.00     0.030 A 
ATOM     23  C   UNL A   1      31.566  29.348  24.488  1.00  0.00    -0.024 A 
ATOM     24  C   UNL A   1      32.496  29.093  25.642  1.00  0.00     0.047 C 
BRANCH  19  25
ATOM     25  O   UNL A   1      28.213  32.032  23.782  1.00  0.00    -0.497 OA
ATOM     26  C   UNL A   1      28.673  33.121  22.993  1.00  0.00     0.278 C 
ENDBRANCH  19  25
ENDBRANCH  13  18
ENDBRANCH   8  12
ENDBRANCH   4   7
ENDBRANCH   2   3
ENDBRANCH   1   2
BRANCH   1  27
ATOM     27  C   UNL A   1      37.589  22.248  25.110  1.00  0.00     0.118 C 
BRANCH  27  28
ATOM     28  N   UNL A   1      38.539  21.882  26.167  1.00  0.00    -0.352 N 
ATOM     29  C   UNL A   1      39.516  22.661  26.771  1.00  0.00     0.251 C 
ATOM     30  H   UNL A   1      38.474  20.955  26.493  1.00  0.00     0.163 HD
ATOM     31  O   UNL A   1      40.481  22.203  27.368  1.00  0.00    -0.269 OA
BRANCH  29  32
ATOM     32  C   UNL A   1      39.255  24.111  26.803  1.00  0.00     0.039 A 
ATOM     33  C   UNL A   1      40.076  24.865  25.951  1.00  0.00     0.014 A 
ATOM     34  C   UNL A   1      38.761  24.620  27.992  1.00  0.00     0.014 A 
ATOM     35  C   UNL A   1      40.669  26.014  26.440  1.00  0.00     0.010 A 
ATOM     36  C   UNL A   1      39.479  25.649  28.541  1.00  0.00     0.010 A 
ATOM     37  C   UNL A   1      40.462  26.305  27.777  1.00  0.00    -0.014 A 
BRANCH  37  38
ATOM     38  C   UNL A   1      41.081  27.400  28.484  1.00  0.00     0.031 A 
ATOM     39  C   UNL A   1      40.226  28.592  28.603  1.00  0.00     0.074 A 
ATOM     40  C   UNL A   1      42.205  27.170  29.195  1.00  0.00     0.049 A 
ATOM     41  N   UNL A   1      40.596  29.702  29.117  1.00  0.00    -0.248 NA
ATOM     42  C   UNL A   1      38.840  28.625  28.118  1.00  0.00     0.031 C 
ATOM     43  C   UNL A   1      42.745  27.931  30.316  1.00  0.00     0.029 A 
ATOM     44  N   UNL A   1      43.234  26.289  28.863  1.00  0.00    -0.354 N 
ATOM     45  C   UNL A   1      39.451  30.426  29.366  1.00  0.00     0.074 A 
ATOM     46  C   UNL A   1      38.402  29.771  28.638  1.00  0.00     0.031 C 
ATOM     47  C   UNL A   1      44.066  27.692  30.413  1.00  0.00     0.029 A 
ATOM     48  C   UNL A   1      44.441  26.899  29.251  1.00  0.00     0.049 A 
ATOM     49  H   UNL A   1      43.134  25.406  28.440  1.00  0.00     0.167 HD
ATOM     50  C   UNL A   1      39.526  31.400  30.308  1.00  0.00     0.031 A 
ATOM     51  C   UNL A   1      45.308  27.331  28.281  1.00  0.00     0.031 A 
ATOM     52  C   UNL A   1      40.927  31.633  30.663  1.00  0.00     0.049 A 
ATOM     53  C   UNL A   1      45.399  28.846  28.229  1.00  0.00     0.074 A 
ATOM     54  C   UNL A   1      41.713  31.225  31.725  1.00  0.00     0.029 A 
ATOM     55  N   UNL A   1      41.798  32.014  29.648  1.00  0.00    -0.354 N 
ATOM     56  N   UNL A   1      44.474  29.657  28.671  1.00  0.00    -0.248 NA
ATOM     57  C   UNL A   1      46.576  29.562  27.745  1.00  0.00     0.031 C 
ATOM     58  C   UNL A   1      43.071  31.258  31.290  1.00  0.00     0.029 A 
ATOM     59  C   UNL A   1      43.103  31.718  29.983  1.00  0.00     0.049 A 
ATOM     60  H   UNL A   1      41.520  32.437  28.803  1.00  0.00     0.167 HD
ATOM     61  C   UNL A   1      44.913  30.954  28.592  1.00  0.00     0.074 A 
ATOM     62  C   UNL A   1      46.233  30.838  27.995  1.00  0.00     0.031 C 
ATOM     63  C   UNL A   1      44.177  32.018  29.042  1.00  0.00     0.031 A 
BRANCH  50  64
ATOM     64  C   UNL A   1      38.352  31.948  31.079  1.00  0.00    -0.014 A 
ATOM     65  C   UNL A   1      38.193  33.346  31.139  1.00  0.00     0.010 A 
ATOM     66  C   UNL A   1      37.435  31.186  31.830  1.00  0.00     0.010 A 
ATOM     67  C   UNL A   1      37.200  33.950  31.919  1.00  0.00     0.020 A 
ATOM     68  C   UNL A   1      36.431  31.776  32.615  1.00  0.00     0.020 A 
ATOM     69  C   UNL A   1      36.324  33.160  32.657  1.00  0.00     0.054 A 
BRANCH  69  70
ATOM     70  S   UNL A   1      35.052  33.966  33.659  1.00  0.00     0.124 S 
ATOM     71  O   UNL A   1      35.387  33.521  35.008  1.00  0.00    -0.237 OA
ATOM     72  O   UNL A   1      35.287  35.380  33.382  1.00  0.00    -0.237 OA
ATOM     73  O   UNL A   1      33.800  33.432  33.126  1.00  0.00    -0.744 OA
ENDBRANCH  69  70
ENDBRANCH  50  64
BRANCH  51  74
ATOM     74  C   UNL A   1      45.372  26.379  27.122  1.00  0.00    -0.014 A 
ATOM     75  C   UNL A   1      46.119  25.193  27.329  1.00  0.00     0.010 A 
ATOM     76  C   UNL A   1      44.360  26.370  26.144  1.00  0.00     0.010 A 
ATOM     77  C   UNL A   1      45.710  23.983  26.761  1.00  0.00     0.020 A 
ATOM     78  C   UNL A   1      43.967  25.156  25.550  1.00  0.00     0.020 A 
ATOM     79  C   UNL A   1      44.590  23.962  25.932  1.00  0.00     0.054 A 
BRANCH  79  80
ATOM     80  S   UNL A   1      43.842  22.344  25.559  1.00  0.00     0.124 S 
ATOM     81  O   UNL A   1      43.524  21.837  26.891  1.00  0.00    -0.237 OA
ATOM     82  O   UNL A   1      42.687  22.720  24.737  1.00  0.00    -0.237 OA
ATOM     83  O   UNL A   1      44.904  21.633  24.856  1.00  0.00    -0.744 OA
ENDBRANCH  79  80
ENDBRANCH  51  74
BRANCH  63  84
ATOM     84  C   UNL A   1      44.418  33.478  28.702  1.00  0.00    -0.014 A 
ATOM     85  C   UNL A   1      45.198  34.355  29.467  1.00  0.00     0.010 A 
ATOM     86  C   UNL A   1      43.934  33.984  27.466  1.00  0.00     0.010 A 
ATOM     87  C   UNL A   1      45.419  35.679  29.062  1.00  0.00     0.020 A 
ATOM     88  C   UNL A   1      44.207  35.276  27.017  1.00  0.00     0.020 A 
ATOM     89  C   UNL A   1      44.922  36.130  27.841  1.00  0.00     0.054 A 
BRANCH  89  90
ATOM     90  S   UNL A   1      45.247  37.832  27.330  1.00  0.00     0.124 S 
ATOM     91  O   UNL A   1      43.943  38.241  26.815  1.00  0.00    -0.237 OA
ATOM     92  O   UNL A   1      45.656  38.468  28.579  1.00  0.00    -0.237 OA
ATOM     93  O   UNL A   1      46.302  37.699  26.329  1.00  0.00    -0.744 OA
ENDBRANCH  89  90
ENDBRANCH  63  84
ENDBRANCH  37  38
ENDBRANCH  29  32
ENDBRANCH  27  28
ENDBRANCH   1  27
TORSDOF 16
ENDMDL
MODEL 2
REMARK VINA RESULT:     -13.0      1.523      1.921
REMARK SMILES COc1ccc(NC(=O)N[C@@H]2C=C[C@H](C(=O)NCCCNC(=O)c3ccc(-c4c5nc(c(-c6ccc(S(=O)(=O)[O-])cc6)c6ccc([nH]6)c(-c6ccc(S(=O)(=O)[O-])cc6)c6nc(c(-c7ccc(S(=O)(=O)[O-])cc7)c7ccc4[nH]7)C=C6)C=C5)cc3)C2)c(C)c1
REMARK SMILES IDX 19 1 18 2 17 3 15 4 16 5 14 7 11 8 12 9 84 10 13 11 10 12
REMARK SMILES IDX 7 13 8 14 9 16 6 18 3 19 4 20 87 21 5 22 85 23 86 24 2 25
REMARK SMILES IDX 1 26 20 27 21 28 22 29 23 31 24 32 25 33 83 34 26 35 82 36
REMARK SMILES IDX 27 37 28 38 29 39 76 40 30 41 81 42 75 43 77 44 31 45 80 46
REMARK SMILES IDX 74 47 73 48 32 50 62 51 43 52 61 53 44 54 47 55 60 56 78 57
REMARK SMILES IDX 45 58 46 59 59 61 79 62 48 63 33 64 34 65 42 66 35 67 41 68
REMARK SMILES IDX 36 69 37 70 38 71 39 72 40 73 63 74 64 75 72 76 65 77 71 78
REMARK SMILES IDX 66 79 67 80 68 81 69 82 70 83 49 84 50 85 58 86 51 87 57 88
REMARK SMILES IDX 52 89 53 90 54 91 55 92 56 93
REMARK H PARENT 17 6 7 15 10 17 21 30 77 49 47 60
REMARK Flexibility Score: inf
ROOT
ATOM      1  C   UNL A   1      37.006  21.033  25.234  1.00  0.00     0.042 C 
ENDROOT
BRANCH   1   2
ATOM      2  C   UNL A   1      35.629  21.245  24.631  1.00  0.00     0.117 C 
BRANCH   2   3
ATOM      3  N   UNL A   1      34.598  20.504  25.351  1.00  0.00    -0.356 N 
ATOM      4  C   UNL A   1      33.397  20.774  25.903  1.00  0.00     0.227 C 
ATOM      5  O   UNL A   1      32.876  19.804  26.482  1.00  0.00    -0.274 OA
ATOM      6  H   UNL A   1      34.844  19.557  25.463  1.00  0.00     0.163 HD
BRANCH   4   7
ATOM      7  C   UNL A   1      32.606  22.104  25.940  1.00  0.00     0.103 C 
ATOM      8  C   UNL A   1      31.942  24.737  24.139  1.00  0.00     0.107 C 
ATOM      9  C   UNL A   1      33.100  25.222  25.662  1.00  0.00    -0.006 C 
ATOM     10  C   UNL A   1      31.537  22.766  24.361  1.00  0.00     0.047 C 
ATOM     11  C   UNL A   1      33.584  23.706  26.642  1.00  0.00    -0.016 C 
BRANCH   8  12
ATOM     12  N   UNL A   1      32.831  25.091  22.947  1.00  0.00    -0.332 N 
ATOM     13  N   UNL A   1      32.061  27.268  22.151  1.00  0.00    -0.308 N 
ATOM     14  C   UNL A   1      32.899  26.167  22.076  1.00  0.00     0.319 C 
ATOM     15  H   UNL A   1      32.019  27.850  21.357  1.00  0.00     0.171 HD
ATOM     16  O   UNL A   1      33.723  26.092  21.161  1.00  0.00    -0.248 OA
ATOM     17  H   UNL A   1      33.506  24.401  22.757  1.00  0.00     0.165 HD
BRANCH  13  18
ATOM     18  C   UNL A   1      31.249  27.639  23.272  1.00  0.00     0.046 A 
ATOM     19  C   UNL A   1      29.072  30.667  23.673  1.00  0.00     0.119 A 
ATOM     20  C   UNL A   1      28.412  29.244  22.749  1.00  0.00     0.048 A 
ATOM     21  C   UNL A   1      30.703  30.535  24.381  1.00  0.00     0.052 A 
ATOM     22  C   UNL A   1      29.584  27.574  22.662  1.00  0.00     0.030 A 
ATOM     23  C   UNL A   1      31.743  29.079  24.190  1.00  0.00    -0.024 A 
ATOM     24  C   UNL A   1      32.884  28.897  25.153  1.00  0.00     0.047 C 
BRANCH  19  25
ATOM     25  O   UNL A   1      28.352  31.795  23.926  1.00  0.00    -0.497 OA
ATOM     26  C   UNL A   1      28.510  32.724  22.861  1.00  0.00     0.278 C 
ENDBRANCH  19  25
ENDBRANCH  13  18
ENDBRANCH   8  12
ENDBRANCH   4   7
ENDBRANCH   2   3
ENDBRANCH   1   2
BRANCH   1  27
ATOM     27  C   UNL A   1      37.860  22.266  25.449  1.00  0.00     0.118 C 
BRANCH  27  28
ATOM     28  N   UNL A   1      38.960  22.019  26.389  1.00  0.00    -0.352 N 
ATOM     29  C   UNL A   1      39.915  22.905  26.869  1.00  0.00     0.251 C 
ATOM     30  H   UNL A   1      39.031  21.096  26.726  1.00  0.00     0.163 HD
ATOM     31  O   UNL A   1      40.985  22.559  27.350  1.00  0.00    -0.269 OA
BRANCH  29  32
ATOM     32  C   UNL A   1      39.509  24.320  26.923  1.00  0.00     0.039 A 
ATOM     33  C   UNL A   1      40.291  25.177  26.133  1.00  0.00     0.014 A 
ATOM     34  C   UNL A   1      38.912  24.743  28.099  1.00  0.00     0.014 A 
ATOM     35  C   UNL A   1      40.743  26.363  26.679  1.00  0.00     0.010 A 
ATOM     36  C   UNL A   1      39.497  25.822  28.708  1.00  0.00     0.010 A 
ATOM     37  C   UNL A   1      40.445  26.593  28.010  1.00  0.00    -0.014 A 
BRANCH  37  38
ATOM     38  C   UNL A   1      40.918  27.722  28.774  1.00  0.00     0.031 A 
ATOM     39  C   UNL A   1      40.011  28.880  28.749  1.00  0.00     0.074 A 
ATOM     40  C   UNL A   1      41.940  27.548  29.639  1.00  0.00     0.049 A 
ATOM     41  N   UNL A   1      40.263  30.012  29.287  1.00  0.00    -0.248 NA
ATOM     42  C   UNL A   1      38.705  28.851  28.077  1.00  0.00     0.031 C 
ATOM     43  C   UNL A   1      42.289  28.346  30.808  1.00  0.00     0.029 A 
ATOM     44  N   UNL A   1      43.037  26.704  29.470  1.00  0.00    -0.354 N 
ATOM     45  C   UNL A   1      39.068  30.693  29.361  1.00  0.00     0.074 A 
ATOM     46  C   UNL A   1      38.156  29.986  28.507  1.00  0.00     0.031 C 
ATOM     47  C   UNL A   1      43.592  28.162  31.092  1.00  0.00     0.029 A 
ATOM     48  C   UNL A   1      44.155  27.367  30.009  1.00  0.00     0.049 A 
ATOM     49  H   UNL A   1      43.030  25.811  29.055  1.00  0.00     0.167 HD
ATOM     50  C   UNL A   1      38.975  31.683  30.285  1.00  0.00     0.031 A 
ATOM     51  C   UNL A   1      45.131  27.819  29.160  1.00  0.00     0.031 A 
ATOM     52  C   UNL A   1      40.302  31.977  30.825  1.00  0.00     0.049 A 
ATOM     53  C   UNL A   1      45.172  29.335  29.091  1.00  0.00     0.074 A 
ATOM     54  C   UNL A   1      40.948  31.617  31.994  1.00  0.00     0.029 A 
ATOM     55  N   UNL A   1      41.291  32.378  29.932  1.00  0.00    -0.354 N 
ATOM     56  N   UNL A   1      44.164  30.115  29.384  1.00  0.00    -0.248 NA
ATOM     57  C   UNL A   1      46.376  30.091  28.760  1.00  0.00     0.031 C 
ATOM     58  C   UNL A   1      42.351  31.698  31.751  1.00  0.00     0.029 A 
ATOM     59  C   UNL A   1      42.547  32.139  30.452  1.00  0.00     0.049 A 
ATOM     60  H   UNL A   1      41.118  32.777  29.049  1.00  0.00     0.167 HD
ATOM     61  C   UNL A   1      44.561  31.428  29.340  1.00  0.00     0.074 A 
ATOM     62  C   UNL A   1      45.955  31.356  28.934  1.00  0.00     0.031 C 
ATOM     63  C   UNL A   1      43.731  32.468  29.662  1.00  0.00     0.031 A 
BRANCH  50  64
ATOM     64  C   UNL A   1      37.685  32.195  30.873  1.00  0.00    -0.014 A 
ATOM     65  C   UNL A   1      37.342  33.542  30.649  1.00  0.00     0.010 A 
ATOM     66  C   UNL A   1      36.820  31.466  31.715  1.00  0.00     0.010 A 
ATOM     67  C   UNL A   1      36.224  34.137  31.246  1.00  0.00     0.020 A 
ATOM     68  C   UNL A   1      35.693  32.046  32.318  1.00  0.00     0.020 A 
ATOM     69  C   UNL A   1      35.405  33.384  32.081  1.00  0.00     0.054 A 
BRANCH  69  70
ATOM     70  S   UNL A   1      33.967  34.176  32.841  1.00  0.00     0.124 S 
ATOM     71  O   UNL A   1      33.207  33.033  33.338  1.00  0.00    -0.237 OA
ATOM     72  O   UNL A   1      34.579  35.021  33.862  1.00  0.00    -0.237 OA
ATOM     73  O   UNL A   1      33.342  34.898  31.733  1.00  0.00    -0.744 OA
ENDBRANCH  69  70
ENDBRANCH  50  64
BRANCH  51  74
ATOM     74  C   UNL A   1      45.392  26.854  28.040  1.00  0.00    -0.014 A 
ATOM     75  C   UNL A   1      44.928  27.245  26.760  1.00  0.00     0.010 A 
ATOM     76  C   UNL A   1      46.457  25.939  28.114  1.00  0.00     0.010 A 
ATOM     77  C   UNL A   1      45.656  26.929  25.609  1.00  0.00     0.020 A 
ATOM     78  C   UNL A   1      47.173  25.597  26.951  1.00  0.00     0.020 A 
ATOM     79  C   UNL A   1      46.816  26.166  25.724  1.00  0.00     0.054 A 
BRANCH  79  80
ATOM     80  S   UNL A   1      47.952  26.131  24.300  1.00  0.00     0.124 S 
ATOM     81  O   UNL A   1      47.532  27.306  23.542  1.00  0.00    -0.237 OA
ATOM     82  O   UNL A   1      49.263  26.236  24.948  1.00  0.00    -0.237 OA
ATOM     83  O   UNL A   1      47.667  24.846  23.671  1.00  0.00    -0.744 OA
ENDBRANCH  79  80
ENDBRANCH  51  74
BRANCH  63  84
ATOM     84  C   UNL A   1      43.961  33.932  29.330  1.00  0.00    -0.014 A 
ATOM     85  C   UNL A   1      44.320  34.414  28.065  1.00  0.00     0.010 A 
ATOM     86  C   UNL A   1      43.680  34.912  30.319  1.00  0.00     0.010 A 
ATOM     87  C   UNL A   1      44.465  35.786  27.820  1.00  0.00     0.020 A 
ATOM     88  C   UNL A   1      43.749  36.283  30.068  1.00  0.00     0.020 A 
ATOM     89  C   UNL A   1      44.179  36.711  28.823  1.00  0.00     0.054 A 
BRANCH  89  90
ATOM     90  S   UNL A   1      44.344  38.474  28.471  1.00  0.00     0.124 S 
ATOM     91  O   UNL A   1      45.371  38.874  29.430  1.00  0.00    -0.237 OA
ATOM     92  O   UNL A   1      44.757  38.483  27.070  1.00  0.00    -0.237 OA
ATOM     93  O   UNL A   1      43.008  39.007  28.725  1.00  0.00    -0.744 OA
ENDBRANCH  89  90
ENDBRANCH  63  84
ENDBRANCH  37  38
ENDBRANCH  29  32
ENDBRANCH  27  28
ENDBRANCH   1  27
TORSDOF 16
ENDMDL
MODEL 3
REMARK VINA RESULT:     -12.7      2.513      3.431
REMARK SMILES COc1ccc(NC(=O)N[C@@H]2C=C[C@H](C(=O)NCCCNC(=O)c3ccc(-c4c5nc(c(-c6ccc(S(=O)(=O)[O-])cc6)c6ccc([nH]6)c(-c6ccc(S(=O)(=O)[O-])cc6)c6nc(c(-c7ccc(S(=O)(=O)[O-])cc7)c7ccc4[nH]7)C=C6)C=C5)cc3)C2)c(C)c1
REMARK SMILES IDX 19 1 18 2 17 3 15 4 16 5 14 7 11 8 12 9 84 10 13 11 10 12
REMARK SMILES IDX 7 13 8 14 9 16 6 18 3 19 4 20 87 21 5 22 85 23 86 24 2 25
REMARK SMILES IDX 1 26 20 27 21 28 22 29 23 31 24 32 25 33 83 34 26 35 82 36
REMARK SMILES IDX 27 37 28 38 29 39 76 40 30 41 81 42 75 43 77 44 31 45 80 46
REMARK SMILES IDX 74 47 73 48 32 50 62 51 43 52 61 53 44 54 47 55 60 56 78 57
REMARK SMILES IDX 45 58 46 59 59 61 79 62 48 63 33 64 34 65 42 66 35 67 41 68
REMARK SMILES IDX 36 69 37 70 38 71 39 72 40 73 63 74 64 75 72 76 65 77 71 78
REMARK SMILES IDX 66 79 67 80 68 81 69 82 70 83 49 84 50 85 58 86 51 87 57 88
REMARK SMILES IDX 52 89 53 90 54 91 55 92 56 93
REMARK H PARENT 17 6 7 15 10 17 21 30 77 49 47 60
REMARK Flexibility Score: inf
ROOT
ATOM      1  C   UNL A   1      38.285  21.449  25.669  1.00  0.00     0.042 C 
ENDROOT
BRANCH   1   2
ATOM      2  C   UNL A   1      37.241  21.375  24.569  1.00  0.00     0.117 C 
BRANCH   2   3
ATOM      3  N   UNL A   1      35.959  20.880  25.065  1.00  0.00    -0.356 N 
ATOM      4  C   UNL A   1      34.656  21.191  24.906  1.00  0.00     0.227 C 
ATOM      5  O   UNL A   1      33.884  20.502  25.595  1.00  0.00    -0.274 OA
ATOM      6  H   UNL A   1      36.079  20.117  25.677  1.00  0.00     0.163 HD
BRANCH   4   7
ATOM      7  C   UNL A   1      34.006  22.283  24.023  1.00  0.00     0.103 C 
ATOM      8  C   UNL A   1      31.647  24.529  24.054  1.00  0.00     0.107 C 
ATOM      9  C   UNL A   1      31.177  23.059  22.824  1.00  0.00    -0.006 C 
ATOM     10  C   UNL A   1      33.497  24.095  24.751  1.00  0.00     0.047 C 
ATOM     11  C   UNL A   1      32.465  21.706  22.878  1.00  0.00    -0.016 C 
BRANCH   8  12
ATOM     12  N   UNL A   1      30.522  24.442  25.087  1.00  0.00    -0.332 N 
ATOM     13  N   UNL A   1      30.793  26.380  26.549  1.00  0.00    -0.308 N 
ATOM     14  C   UNL A   1      30.138  25.219  26.168  1.00  0.00     0.319 C 
ATOM     15  H   UNL A   1      30.607  26.719  27.455  1.00  0.00     0.171 HD
ATOM     16  O   UNL A   1      29.192  24.807  26.843  1.00  0.00    -0.248 OA
ATOM     17  H   UNL A   1      29.942  23.659  24.952  1.00  0.00     0.165 HD
BRANCH  13  18
ATOM     18  C   UNL A   1      31.716  27.131  25.751  1.00  0.00     0.046 A 
ATOM     19  C   UNL A   1      33.532  30.291  26.641  1.00  0.00     0.119 A 
ATOM     20  C   UNL A   1      34.213  28.708  27.227  1.00  0.00     0.048 A 
ATOM     21  C   UNL A   1      32.060  30.259  25.634  1.00  0.00     0.052 A 
ATOM     22  C   UNL A   1      33.262  27.008  26.616  1.00  0.00     0.030 A 
ATOM     23  C   UNL A   1      31.195  28.741  25.206  1.00  0.00    -0.024 A 
ATOM     24  C   UNL A   1      30.249  28.775  24.037  1.00  0.00     0.047 C 
BRANCH  19  25
ATOM     25  O   UNL A   1      34.134  31.493  26.858  1.00  0.00    -0.497 OA
ATOM     26  C   UNL A   1      33.784  31.990  28.144  1.00  0.00     0.278 C 
ENDBRANCH  19  25
ENDBRANCH  13  18
ENDBRANCH   8  12
ENDBRANCH   4   7
ENDBRANCH   2   3
ENDBRANCH   1   2
BRANCH   1  27
ATOM     27  C   UNL A   1      38.638  22.826  26.192  1.00  0.00     0.118 C 
BRANCH  27  28
ATOM     28  N   UNL A   1      39.674  22.774  27.230  1.00  0.00    -0.352 N 
ATOM     29  C   UNL A   1      40.444  23.807  27.748  1.00  0.00     0.251 C 
ATOM     30  H   UNL A   1      39.847  21.883  27.612  1.00  0.00     0.163 HD
ATOM     31  O   UNL A   1      41.505  23.639  28.333  1.00  0.00    -0.269 OA
BRANCH  29  32
ATOM     32  C   UNL A   1      39.834  25.147  27.706  1.00  0.00     0.039 A 
ATOM     33  C   UNL A   1      40.379  26.000  26.734  1.00  0.00     0.014 A 
ATOM     34  C   UNL A   1      39.317  25.625  28.899  1.00  0.00     0.014 A 
ATOM     35  C   UNL A   1      40.702  27.297  27.088  1.00  0.00     0.010 A 
ATOM     36  C   UNL A   1      39.795  26.842  29.308  1.00  0.00     0.010 A 
ATOM     37  C   UNL A   1      40.527  27.645  28.415  1.00  0.00    -0.014 A 
BRANCH  37  38
ATOM     38  C   UNL A   1      40.904  28.915  28.987  1.00  0.00     0.031 A 
ATOM     39  C   UNL A   1      39.851  29.940  28.909  1.00  0.00     0.074 A 
ATOM     40  C   UNL A   1      42.006  28.983  29.764  1.00  0.00     0.049 A 
ATOM     41  N   UNL A   1      39.993  31.156  29.278  1.00  0.00    -0.248 NA
ATOM     42  C   UNL A   1      38.512  29.663  28.373  1.00  0.00     0.031 C 
ATOM     43  C   UNL A   1      42.338  29.966  30.789  1.00  0.00     0.029 A 
ATOM     44  N   UNL A   1      43.188  28.264  29.595  1.00  0.00    -0.354 N 
ATOM     45  C   UNL A   1      38.728  31.690  29.383  1.00  0.00     0.074 A 
ATOM     46  C   UNL A   1      37.853  30.770  28.713  1.00  0.00     0.031 C 
ATOM     47  C   UNL A   1      43.672  29.982  30.966  1.00  0.00     0.029 A 
ATOM     48  C   UNL A   1      44.248  29.125  29.939  1.00  0.00     0.049 A 
ATOM     49  H   UNL A   1      43.267  27.331  29.294  1.00  0.00     0.167 HD
ATOM     50  C   UNL A   1      38.577  32.775  30.184  1.00  0.00     0.031 A 
ATOM     51  C   UNL A   1      45.084  29.575  28.952  1.00  0.00     0.031 A 
ATOM     52  C   UNL A   1      39.893  33.298  30.554  1.00  0.00     0.049 A 
ATOM     53  C   UNL A   1      44.917  31.063  28.695  1.00  0.00     0.074 A 
ATOM     54  C   UNL A   1      40.672  33.178  31.691  1.00  0.00     0.029 A 
ATOM     55  N   UNL A   1      40.745  33.694  29.529  1.00  0.00    -0.354 N 
ATOM     56  N   UNL A   1      43.841  31.746  28.986  1.00  0.00    -0.248 NA
ATOM     57  C   UNL A   1      45.980  31.909  28.160  1.00  0.00     0.031 C 
ATOM     58  C   UNL A   1      42.027  33.396  31.306  1.00  0.00     0.029 A 
ATOM     59  C   UNL A   1      42.059  33.681  29.950  1.00  0.00     0.049 A 
ATOM     60  H   UNL A   1      40.450  33.948  28.624  1.00  0.00     0.167 HD
ATOM     61  C   UNL A   1      44.054  33.079  28.745  1.00  0.00     0.074 A 
ATOM     62  C   UNL A   1      45.408  33.124  28.219  1.00  0.00     0.031 C 
ATOM     63  C   UNL A   1      43.121  34.044  29.017  1.00  0.00     0.031 A 
BRANCH  50  64
ATOM     64  C   UNL A   1      37.282  33.199  30.827  1.00  0.00    -0.014 A 
ATOM     65  C   UNL A   1      36.289  33.768  30.006  1.00  0.00     0.010 A 
ATOM     66  C   UNL A   1      37.000  33.162  32.208  1.00  0.00     0.010 A 
ATOM     67  C   UNL A   1      35.101  34.293  30.528  1.00  0.00     0.020 A 
ATOM     68  C   UNL A   1      35.811  33.680  32.747  1.00  0.00     0.020 A 
ATOM     69  C   UNL A   1      34.869  34.249  31.900  1.00  0.00     0.054 A 
BRANCH  69  70
ATOM     70  S   UNL A   1      33.326  34.934  32.548  1.00  0.00     0.124 S 
ATOM     71  O   UNL A   1      32.635  35.354  31.332  1.00  0.00    -0.237 OA
ATOM     72  O   UNL A   1      32.744  33.790  33.243  1.00  0.00    -0.237 OA
ATOM     73  O   UNL A   1      33.768  36.026  33.415  1.00  0.00    -0.744 OA
ENDBRANCH  69  70
ENDBRANCH  50  64
BRANCH  51  74
ATOM     74  C   UNL A   1      45.381  28.509  27.938  1.00  0.00    -0.014 A 
ATOM     75  C   UNL A   1      45.013  28.800  26.601  1.00  0.00     0.010 A 
ATOM     76  C   UNL A   1      46.406  27.573  28.159  1.00  0.00     0.010 A 
ATOM     77  C   UNL A   1      45.800  28.363  25.531  1.00  0.00     0.020 A 
ATOM     78  C   UNL A   1      47.182  27.110  27.079  1.00  0.00     0.020 A 
ATOM     79  C   UNL A   1      46.923  27.580  25.787  1.00  0.00     0.054 A 
BRANCH  79  80
ATOM     80  S   UNL A   1      48.144  27.387  24.449  1.00  0.00     0.124 S 
ATOM     81  O   UNL A   1      48.431  25.956  24.498  1.00  0.00    -0.237 OA
ATOM     82  O   UNL A   1      47.389  27.837  23.275  1.00  0.00    -0.237 OA
ATOM     83  O   UNL A   1      49.239  28.259  24.859  1.00  0.00    -0.744 OA
ENDBRANCH  79  80
ENDBRANCH  51  74
BRANCH  63  84
ATOM     84  C   UNL A   1      43.127  35.468  28.488  1.00  0.00    -0.014 A 
ATOM     85  C   UNL A   1      42.579  35.864  27.262  1.00  0.00     0.010 A 
ATOM     86  C   UNL A   1      43.604  36.509  29.328  1.00  0.00     0.010 A 
ATOM     87  C   UNL A   1      42.576  37.207  26.863  1.00  0.00     0.020 A 
ATOM     88  C   UNL A   1      43.540  37.858  28.975  1.00  0.00     0.020 A 
ATOM     89  C   UNL A   1      43.056  38.195  27.722  1.00  0.00     0.054 A 
BRANCH  89  90
ATOM     90  S   UNL A   1      43.011  39.921  27.195  1.00  0.00     0.124 S 
ATOM     91  O   UNL A   1      44.117  39.970  26.242  1.00  0.00    -0.237 OA
ATOM     92  O   UNL A   1      41.677  40.044  26.614  1.00  0.00    -0.237 OA
ATOM     93  O   UNL A   1      43.216  40.668  28.433  1.00  0.00    -0.744 OA
ENDBRANCH  89  90
ENDBRANCH  63  84
ENDBRANCH  37  38
ENDBRANCH  29  32
ENDBRANCH  27  28
ENDBRANCH   1  27
TORSDOF 16
ENDMDL
