MODEL 1
REMARK VINA RESULT:     -12.8      0.000      0.000
REMARK SMILES O=C(N[C@@H]1C=C[C@@H](C(=O)NCCCNC(=O)c2ccc(-c3c4nc(c(-c5ccc(S(=O)(=O)[O-])cc5)c5ccc([nH]5)c(-c5ccc(S(=O)(=O)[O-])cc5)c5nc(c(-c6ccc(S(=O)(=O)[O-])cc6)c6ccc3[nH]6)C=C5)C=C4)cc2)C1)N[C@H]1CCCc2sccc21
REMARK SMILES IDX 12 1 11 2 10 3 8 4 9 5 7 7 4 8 5 9 77 10 6 11 3 12 1 13 2 14
REMARK SMILES IDX 78 15 79 18 80 19 87 20 81 21 83 22 86 23 82 24 84 25 85 26
REMARK SMILES IDX 13 27 14 28 15 29 16 31 17 32 18 33 76 34 19 35 75 36 20 37
REMARK SMILES IDX 21 38 22 39 69 40 23 41 74 42 68 43 70 44 24 45 73 46 67 47
REMARK SMILES IDX 66 48 25 50 55 51 36 52 54 53 37 54 40 55 53 56 71 57 38 58
REMARK SMILES IDX 39 59 52 61 72 62 41 63 26 64 27 65 35 66 28 67 34 68 29 69
REMARK SMILES IDX 30 70 31 71 32 72 33 73 56 74 57 75 65 76 58 77 64 78 59 79
REMARK SMILES IDX 60 80 61 81 62 82 63 83 42 84 43 85 51 86 44 87 50 88 45 89
REMARK SMILES IDX 46 90 47 91 48 92 49 93
REMARK H PARENT 10 6 3 16 78 17 14 30 70 49 40 60
REMARK Flexibility Score: inf
ROOT
ATOM      1  C   UNL A   1      39.963  22.114  26.602  1.00  0.00     0.042 C 
ENDROOT
BRANCH   1   2
ATOM      2  C   UNL A   1      38.582  21.660  26.149  1.00  0.00     0.117 C 
BRANCH   2   3
ATOM      3  N   UNL A   1      38.196  22.243  24.876  1.00  0.00    -0.356 N 
ATOM      4  C   UNL A   1      36.987  22.649  24.403  1.00  0.00     0.227 C 
ATOM      5  O   UNL A   1      36.974  23.179  23.287  1.00  0.00    -0.274 OA
ATOM      6  H   UNL A   1      38.941  22.366  24.245  1.00  0.00     0.163 HD
BRANCH   4   7
ATOM      7  C   UNL A   1      35.681  22.480  25.186  1.00  0.00     0.103 C 
ATOM      8  C   UNL A   1      33.385  23.305  24.787  1.00  0.00     0.107 C 
ATOM      9  C   UNL A   1      33.545  21.858  24.438  1.00  0.00    -0.006 C 
ATOM     10  C   UNL A   1      34.792  23.730  25.244  1.00  0.00     0.047 C 
ATOM     11  C   UNL A   1      34.787  21.407  24.649  1.00  0.00    -0.016 C 
BRANCH   8  12
ATOM     12  N   UNL A   1      32.427  23.375  25.865  1.00  0.00    -0.332 N 
ATOM     13  O   UNL A   1      30.899  24.149  27.270  1.00  0.00    -0.249 OA
ATOM     14  C   UNL A   1      31.696  24.395  26.368  1.00  0.00     0.315 C 
ATOM     15  N   UNL A   1      31.868  25.627  25.836  1.00  0.00    -0.331 N 
ATOM     16  H   UNL A   1      32.276  22.515  26.321  1.00  0.00     0.165 HD
ATOM     17  H   UNL A   1      32.589  25.765  25.181  1.00  0.00     0.166 HD
BRANCH  15  18
ATOM     18  C   UNL A   1      31.020  26.757  26.200  1.00  0.00     0.115 C 
ATOM     19  C   UNL A   1      31.725  27.673  27.233  1.00  0.00     0.030 C 
ATOM     20  C   UNL A   1      30.672  27.448  24.912  1.00  0.00    -0.012 A 
ATOM     21  C   UNL A   1      31.826  29.169  26.870  1.00  0.00     0.008 C 
ATOM     22  C   UNL A   1      31.219  28.662  24.552  1.00  0.00     0.010 A 
ATOM     23  C   UNL A   1      29.739  26.992  23.928  1.00  0.00     0.018 A 
ATOM     24  C   UNL A   1      32.184  29.419  25.401  1.00  0.00     0.047 C 
ATOM     25  S   UNL A   1      30.640  29.237  23.063  1.00  0.00    -0.149 S 
ATOM     26  C   UNL A   1      29.616  27.877  22.878  1.00  0.00     0.065 A 
ENDBRANCH  15  18
ENDBRANCH   8  12
ENDBRANCH   4   7
ENDBRANCH   2   3
ENDBRANCH   1   2
BRANCH   1  27
ATOM     27  C   UNL A   1      40.056  23.608  26.879  1.00  0.00     0.118 C 
BRANCH  27  28
ATOM     28  N   UNL A   1      40.899  24.300  25.912  1.00  0.00    -0.352 N 
ATOM     29  C   UNL A   1      41.379  25.585  25.918  1.00  0.00     0.251 C 
ATOM     30  H   UNL A   1      41.165  23.761  25.132  1.00  0.00     0.163 HD
ATOM     31  O   UNL A   1      41.894  26.039  24.894  1.00  0.00    -0.269 OA
BRANCH  29  32
ATOM     32  C   UNL A   1      41.269  26.427  27.127  1.00  0.00     0.039 A 
ATOM     33  C   UNL A   1      42.121  27.524  27.272  1.00  0.00     0.014 A 
ATOM     34  C   UNL A   1      40.344  26.126  28.130  1.00  0.00     0.014 A 
ATOM     35  C   UNL A   1      42.000  28.355  28.389  1.00  0.00     0.010 A 
ATOM     36  C   UNL A   1      40.161  27.004  29.194  1.00  0.00     0.010 A 
ATOM     37  C   UNL A   1      40.993  28.123  29.341  1.00  0.00    -0.014 A 
BRANCH  37  38
ATOM     38  C   UNL A   1      40.795  29.035  30.497  1.00  0.00     0.031 A 
ATOM     39  C   UNL A   1      41.658  28.903  31.723  1.00  0.00     0.074 A 
ATOM     40  C   UNL A   1      39.793  29.935  30.471  1.00  0.00     0.049 A 
ATOM     41  N   UNL A   1      41.601  29.570  32.847  1.00  0.00    -0.248 NA
ATOM     42  C   UNL A   1      42.705  27.868  31.693  1.00  0.00     0.031 C 
ATOM     43  C   UNL A   1      38.864  30.137  29.357  1.00  0.00     0.029 A 
ATOM     44  N   UNL A   1      39.387  30.848  31.412  1.00  0.00    -0.354 N 
ATOM     45  C   UNL A   1      42.586  29.024  33.662  1.00  0.00     0.074 A 
ATOM     46  C   UNL A   1      43.186  27.934  32.924  1.00  0.00     0.031 C 
ATOM     47  C   UNL A   1      38.023  31.138  29.663  1.00  0.00     0.029 A 
ATOM     48  C   UNL A   1      38.319  31.615  31.011  1.00  0.00     0.049 A 
ATOM     49  H   UNL A   1      39.820  30.945  32.290  1.00  0.00     0.167 HD
ATOM     50  C   UNL A   1      42.971  29.404  34.905  1.00  0.00     0.031 A 
ATOM     51  C   UNL A   1      37.649  32.591  31.653  1.00  0.00     0.031 A 
ATOM     52  C   UNL A   1      42.370  30.490  35.635  1.00  0.00     0.049 A 
ATOM     53  C   UNL A   1      38.075  32.982  33.040  1.00  0.00     0.074 A 
ATOM     54  C   UNL A   1      42.724  30.992  36.875  1.00  0.00     0.029 A 
ATOM     55  N   UNL A   1      41.285  31.234  35.197  1.00  0.00    -0.354 N 
ATOM     56  N   UNL A   1      39.053  32.499  33.769  1.00  0.00    -0.248 NA
ATOM     57  C   UNL A   1      37.313  34.059  33.687  1.00  0.00     0.031 C 
ATOM     58  C   UNL A   1      41.812  31.998  37.214  1.00  0.00     0.029 A 
ATOM     59  C   UNL A   1      40.934  32.170  36.156  1.00  0.00     0.049 A 
ATOM     60  H   UNL A   1      40.831  31.114  34.332  1.00  0.00     0.167 HD
ATOM     61  C   UNL A   1      39.042  33.232  34.951  1.00  0.00     0.074 A 
ATOM     62  C   UNL A   1      37.967  34.198  34.832  1.00  0.00     0.031 C 
ATOM     63  C   UNL A   1      39.854  33.118  36.032  1.00  0.00     0.031 A 
BRANCH  50  64
ATOM     64  C   UNL A   1      44.082  28.618  35.555  1.00  0.00    -0.014 A 
ATOM     65  C   UNL A   1      45.433  28.970  35.374  1.00  0.00     0.010 A 
ATOM     66  C   UNL A   1      43.771  27.508  36.362  1.00  0.00     0.010 A 
ATOM     67  C   UNL A   1      46.450  28.190  35.928  1.00  0.00     0.020 A 
ATOM     68  C   UNL A   1      44.785  26.745  36.949  1.00  0.00     0.020 A 
ATOM     69  C   UNL A   1      46.119  27.076  36.705  1.00  0.00     0.054 A 
BRANCH  69  70
ATOM     70  S   UNL A   1      47.459  26.069  37.398  1.00  0.00     0.124 S 
ATOM     71  O   UNL A   1      46.834  24.751  37.475  1.00  0.00    -0.237 OA
ATOM     72  O   UNL A   1      48.513  26.205  36.395  1.00  0.00    -0.237 OA
ATOM     73  O   UNL A   1      47.741  26.702  38.683  1.00  0.00    -0.744 OA
ENDBRANCH  69  70
ENDBRANCH  50  64
BRANCH  51  74
ATOM     74  C   UNL A   1      36.525  33.284  30.967  1.00  0.00    -0.014 A 
ATOM     75  C   UNL A   1      35.265  33.375  31.586  1.00  0.00     0.010 A 
ATOM     76  C   UNL A   1      36.719  33.898  29.717  1.00  0.00     0.010 A 
ATOM     77  C   UNL A   1      34.221  34.068  30.967  1.00  0.00     0.020 A 
ATOM     78  C   UNL A   1      35.686  34.615  29.108  1.00  0.00     0.020 A 
ATOM     79  C   UNL A   1      34.441  34.692  29.736  1.00  0.00     0.054 A 
BRANCH  79  80
ATOM     80  S   UNL A   1      33.098  35.661  28.996  1.00  0.00     0.124 S 
ATOM     81  O   UNL A   1      33.830  36.699  28.279  1.00  0.00    -0.237 OA
ATOM     82  O   UNL A   1      32.420  34.671  28.163  1.00  0.00    -0.237 OA
ATOM     83  O   UNL A   1      32.331  36.119  30.153  1.00  0.00    -0.744 OA
ENDBRANCH  79  80
ENDBRANCH  51  74
BRANCH  63  84
ATOM     84  C   UNL A   1      39.633  34.082  37.168  1.00  0.00    -0.014 A 
ATOM     85  C   UNL A   1      38.930  33.702  38.326  1.00  0.00     0.010 A 
ATOM     86  C   UNL A   1      40.187  35.374  37.098  1.00  0.00     0.010 A 
ATOM     87  C   UNL A   1      38.760  34.606  39.378  1.00  0.00     0.020 A 
ATOM     88  C   UNL A   1      40.045  36.270  38.160  1.00  0.00     0.020 A 
ATOM     89  C   UNL A   1      39.319  35.884  39.288  1.00  0.00     0.054 A 
BRANCH  89  90
ATOM     90  S   UNL A   1      39.122  37.023  40.686  1.00  0.00     0.124 S 
ATOM     91  O   UNL A   1      38.472  36.174  41.680  1.00  0.00    -0.237 OA
ATOM     92  O   UNL A   1      40.501  37.401  40.987  1.00  0.00    -0.237 OA
ATOM     93  O   UNL A   1      38.291  38.096  40.145  1.00  0.00    -0.744 OA
ENDBRANCH  89  90
ENDBRANCH  63  84
ENDBRANCH  37  38
ENDBRANCH  29  32
ENDBRANCH  27  28
ENDBRANCH   1  27
TORSDOF 15
ENDMDL
MODEL 2
REMARK VINA RESULT:     -12.5      0.451      8.118
REMARK SMILES O=C(N[C@@H]1C=C[C@@H](C(=O)NCCCNC(=O)c2ccc(-c3c4nc(c(-c5ccc(S(=O)(=O)[O-])cc5)c5ccc([nH]5)c(-c5ccc(S(=O)(=O)[O-])cc5)c5nc(c(-c6ccc(S(=O)(=O)[O-])cc6)c6ccc3[nH]6)C=C5)C=C4)cc2)C1)N[C@H]1CCCc2sccc21
REMARK SMILES IDX 12 1 11 2 10 3 8 4 9 5 7 7 4 8 5 9 77 10 6 11 3 12 1 13 2 14
REMARK SMILES IDX 78 15 79 18 80 19 87 20 81 21 83 22 86 23 82 24 84 25 85 26
REMARK SMILES IDX 13 27 14 28 15 29 16 31 17 32 18 33 76 34 19 35 75 36 20 37
REMARK SMILES IDX 21 38 22 39 69 40 23 41 74 42 68 43 70 44 24 45 73 46 67 47
REMARK SMILES IDX 66 48 25 50 55 51 36 52 54 53 37 54 40 55 53 56 71 57 38 58
REMARK SMILES IDX 39 59 52 61 72 62 41 63 26 64 27 65 35 66 28 67 34 68 29 69
REMARK SMILES IDX 30 70 31 71 32 72 33 73 56 74 57 75 65 76 58 77 64 78 59 79
REMARK SMILES IDX 60 80 61 81 62 82 63 83 42 84 43 85 51 86 44 87 50 88 45 89
REMARK SMILES IDX 46 90 47 91 48 92 49 93
REMARK H PARENT 10 6 3 16 78 17 14 30 70 49 40 60
REMARK Flexibility Score: inf
ROOT
ATOM      1  C   UNL A   1      39.900  22.157  26.578  1.00  0.00     0.042 C 
ENDROOT
BRANCH   1   2
ATOM      2  C   UNL A   1      38.519  21.701  26.127  1.00  0.00     0.117 C 
BRANCH   2   3
ATOM      3  N   UNL A   1      38.127  22.287  24.858  1.00  0.00    -0.356 N 
ATOM      4  C   UNL A   1      36.916  22.693  24.391  1.00  0.00     0.227 C 
ATOM      5  O   UNL A   1      36.898  23.228  23.277  1.00  0.00    -0.274 OA
ATOM      6  H   UNL A   1      38.870  22.414  24.224  1.00  0.00     0.163 HD
BRANCH   4   7
ATOM      7  C   UNL A   1      35.613  22.519  25.178  1.00  0.00     0.103 C 
ATOM      8  C   UNL A   1      33.299  23.277  24.751  1.00  0.00     0.107 C 
ATOM      9  C   UNL A   1      33.494  21.823  24.450  1.00  0.00    -0.006 C 
ATOM     10  C   UNL A   1      34.695  23.749  25.195  1.00  0.00     0.047 C 
ATOM     11  C   UNL A   1      34.745  21.409  24.676  1.00  0.00    -0.016 C 
BRANCH   8  12
ATOM     12  N   UNL A   1      32.338  23.359  25.826  1.00  0.00    -0.332 N 
ATOM     13  O   UNL A   1      30.824  24.157  27.233  1.00  0.00    -0.249 OA
ATOM     14  C   UNL A   1      31.631  24.392  26.337  1.00  0.00     0.315 C 
ATOM     15  N   UNL A   1      31.837  25.625  25.819  1.00  0.00    -0.331 N 
ATOM     16  H   UNL A   1      32.163  22.499  26.272  1.00  0.00     0.165 HD
ATOM     17  H   UNL A   1      32.564  25.752  25.168  1.00  0.00     0.166 HD
BRANCH  15  18
ATOM     18  C   UNL A   1      31.016  26.772  26.192  1.00  0.00     0.115 C 
ATOM     19  C   UNL A   1      31.763  27.691  27.192  1.00  0.00     0.030 C 
ATOM     20  C   UNL A   1      30.642  27.452  24.905  1.00  0.00    -0.012 A 
ATOM     21  C   UNL A   1      31.875  29.180  26.808  1.00  0.00     0.008 C 
ATOM     22  C   UNL A   1      31.197  28.653  24.514  1.00  0.00     0.010 A 
ATOM     23  C   UNL A   1      29.675  26.998  23.953  1.00  0.00     0.018 A 
ATOM     24  C   UNL A   1      32.196  29.406  25.326  1.00  0.00     0.047 C 
ATOM     25  S   UNL A   1      30.584  29.218  23.034  1.00  0.00    -0.149 S 
ATOM     26  C   UNL A   1      29.536  27.871  22.896  1.00  0.00     0.065 A 
ENDBRANCH  15  18
ENDBRANCH   8  12
ENDBRANCH   4   7
ENDBRANCH   2   3
ENDBRANCH   1   2
BRANCH   1  27
ATOM     27  C   UNL A   1      39.964  23.630  26.957  1.00  0.00     0.118 C 
BRANCH  27  28
ATOM     28  N   UNL A   1      40.697  24.423  25.978  1.00  0.00    -0.352 N 
ATOM     29  C   UNL A   1      41.097  25.735  26.024  1.00  0.00     0.251 C 
ATOM     30  H   UNL A   1      40.945  23.942  25.156  1.00  0.00     0.163 HD
ATOM     31  O   UNL A   1      41.514  26.272  24.996  1.00  0.00    -0.269 OA
BRANCH  29  32
ATOM     32  C   UNL A   1      41.014  26.506  27.281  1.00  0.00     0.039 A 
ATOM     33  C   UNL A   1      41.882  27.583  27.477  1.00  0.00     0.014 A 
ATOM     34  C   UNL A   1      40.099  26.158  28.278  1.00  0.00     0.014 A 
ATOM     35  C   UNL A   1      41.786  28.348  28.642  1.00  0.00     0.010 A 
ATOM     36  C   UNL A   1      39.942  26.975  29.393  1.00  0.00     0.010 A 
ATOM     37  C   UNL A   1      40.790  28.074  29.593  1.00  0.00    -0.014 A 
BRANCH  37  38
ATOM     38  C   UNL A   1      40.619  28.919  30.803  1.00  0.00     0.031 A 
ATOM     39  C   UNL A   1      39.552  29.980  30.842  1.00  0.00     0.074 A 
ATOM     40  C   UNL A   1      41.468  28.779  31.839  1.00  0.00     0.049 A 
ATOM     41  N   UNL A   1      39.284  30.847  31.784  1.00  0.00    -0.248 NA
ATOM     42  C   UNL A   1      38.690  30.101  29.655  1.00  0.00     0.031 C 
ATOM     43  C   UNL A   1      42.566  27.812  31.910  1.00  0.00     0.029 A 
ATOM     44  N   UNL A   1      41.542  29.452  33.033  1.00  0.00    -0.354 N 
ATOM     45  C   UNL A   1      38.242  31.626  31.298  1.00  0.00     0.074 A 
ATOM     46  C   UNL A   1      37.964  31.167  29.955  1.00  0.00     0.031 C 
ATOM     47  C   UNL A   1      43.178  27.929  33.099  1.00  0.00     0.029 A 
ATOM     48  C   UNL A   1      42.550  29.008  33.855  1.00  0.00     0.049 A 
ATOM     49  H   UNL A   1      40.930  30.184  33.277  1.00  0.00     0.167 HD
ATOM     50  C   UNL A   1      37.562  32.623  31.917  1.00  0.00     0.031 A 
ATOM     51  C   UNL A   1      42.931  29.423  35.079  1.00  0.00     0.031 A 
ATOM     52  C   UNL A   1      37.843  33.077  33.254  1.00  0.00     0.049 A 
ATOM     53  C   UNL A   1      42.181  30.546  35.739  1.00  0.00     0.074 A 
ATOM     54  C   UNL A   1      37.178  34.039  33.993  1.00  0.00     0.029 A 
ATOM     55  N   UNL A   1      38.879  32.607  34.048  1.00  0.00    -0.354 N 
ATOM     56  N   UNL A   1      41.153  31.227  35.290  1.00  0.00    -0.248 NA
ATOM     57  C   UNL A   1      42.636  30.949  37.076  1.00  0.00     0.031 C 
ATOM     58  C   UNL A   1      37.851  34.196  35.210  1.00  0.00     0.029 A 
ATOM     59  C   UNL A   1      38.892  33.283  35.258  1.00  0.00     0.049 A 
ATOM     60  H   UNL A   1      39.512  31.899  33.790  1.00  0.00     0.167 HD
ATOM     61  C   UNL A   1      40.820  32.121  36.301  1.00  0.00     0.074 A 
ATOM     62  C   UNL A   1      41.750  31.884  37.389  1.00  0.00     0.031 C 
ATOM     63  C   UNL A   1      39.830  33.048  36.328  1.00  0.00     0.031 A 
BRANCH  50  64
ATOM     64  C   UNL A   1      36.465  33.301  31.135  1.00  0.00    -0.014 A 
ATOM     65  C   UNL A   1      36.722  33.914  29.893  1.00  0.00     0.010 A 
ATOM     66  C   UNL A   1      35.156  33.327  31.648  1.00  0.00     0.010 A 
ATOM     67  C   UNL A   1      35.708  34.596  29.216  1.00  0.00     0.020 A 
ATOM     68  C   UNL A   1      34.130  33.978  30.957  1.00  0.00     0.020 A 
ATOM     69  C   UNL A   1      34.420  34.632  29.758  1.00  0.00     0.054 A 
BRANCH  69  70
ATOM     70  S   UNL A   1      33.127  35.540  28.868  1.00  0.00     0.124 S 
ATOM     71  O   UNL A   1      32.479  34.473  28.109  1.00  0.00    -0.237 OA
ATOM     72  O   UNL A   1      32.332  36.110  29.953  1.00  0.00    -0.237 OA
ATOM     73  O   UNL A   1      33.871  36.510  28.068  1.00  0.00    -0.744 OA
ENDBRANCH  69  70
ENDBRANCH  50  64
BRANCH  51  74
ATOM     74  C   UNL A   1      44.062  28.743  35.765  1.00  0.00    -0.014 A 
ATOM     75  C   UNL A   1      43.824  27.624  36.584  1.00  0.00     0.010 A 
ATOM     76  C   UNL A   1      45.385  29.177  35.567  1.00  0.00     0.010 A 
ATOM     77  C   UNL A   1      44.890  26.952  37.190  1.00  0.00     0.020 A 
ATOM     78  C   UNL A   1      46.455  28.491  36.149  1.00  0.00     0.020 A 
ATOM     79  C   UNL A   1      46.199  27.384  36.961  1.00  0.00     0.054 A 
BRANCH  79  80
ATOM     80  S   UNL A   1      47.569  26.441  37.685  1.00  0.00     0.124 S 
ATOM     81  O   UNL A   1      48.599  27.464  37.830  1.00  0.00    -0.237 OA
ATOM     82  O   UNL A   1      46.985  25.946  38.929  1.00  0.00    -0.237 OA
ATOM     83  O   UNL A   1      47.842  25.413  36.683  1.00  0.00    -0.744 OA
ENDBRANCH  79  80
ENDBRANCH  51  74
BRANCH  63  84
ATOM     84  C   UNL A   1      39.678  33.862  37.586  1.00  0.00    -0.014 A 
ATOM     85  C   UNL A   1      38.932  33.389  38.681  1.00  0.00     0.010 A 
ATOM     86  C   UNL A   1      40.340  35.100  37.693  1.00  0.00     0.010 A 
ATOM     87  C   UNL A   1      38.827  34.153  39.847  1.00  0.00     0.020 A 
ATOM     88  C   UNL A   1      40.262  35.851  38.868  1.00  0.00     0.020 A 
ATOM     89  C   UNL A   1      39.493  35.378  39.933  1.00  0.00     0.054 A 
BRANCH  89  90
ATOM     90  S   UNL A   1      39.377  36.328  41.474  1.00  0.00     0.124 S 
ATOM     91  O   UNL A   1      38.261  35.674  42.150  1.00  0.00    -0.237 OA
ATOM     92  O   UNL A   1      40.690  36.118  42.078  1.00  0.00    -0.237 OA
ATOM     93  O   UNL A   1      39.116  37.693  41.021  1.00  0.00    -0.744 OA
ENDBRANCH  89  90
ENDBRANCH  63  84
ENDBRANCH  37  38
ENDBRANCH  29  32
ENDBRANCH  27  28
ENDBRANCH   1  27
TORSDOF 15
ENDMDL
MODEL 3
REMARK VINA RESULT:     -12.3      4.573     10.498
REMARK SMILES O=C(N[C@@H]1C=C[C@@H](C(=O)NCCCNC(=O)c2ccc(-c3c4nc(c(-c5ccc(S(=O)(=O)[O-])cc5)c5ccc([nH]5)c(-c5ccc(S(=O)(=O)[O-])cc5)c5nc(c(-c6ccc(S(=O)(=O)[O-])cc6)c6ccc3[nH]6)C=C5)C=C4)cc2)C1)N[C@H]1CCCc2sccc21
REMARK SMILES IDX 12 1 11 2 10 3 8 4 9 5 7 7 4 8 5 9 77 10 6 11 3 12 1 13 2 14
REMARK SMILES IDX 78 15 79 18 80 19 87 20 81 21 83 22 86 23 82 24 84 25 85 26
REMARK SMILES IDX 13 27 14 28 15 29 16 31 17 32 18 33 76 34 19 35 75 36 20 37
REMARK SMILES IDX 21 38 22 39 69 40 23 41 74 42 68 43 70 44 24 45 73 46 67 47
REMARK SMILES IDX 66 48 25 50 55 51 36 52 54 53 37 54 40 55 53 56 71 57 38 58
REMARK SMILES IDX 39 59 52 61 72 62 41 63 26 64 27 65 35 66 28 67 34 68 29 69
REMARK SMILES IDX 30 70 31 71 32 72 33 73 56 74 57 75 65 76 58 77 64 78 59 79
REMARK SMILES IDX 60 80 61 81 62 82 63 83 42 84 43 85 51 86 44 87 50 88 45 89
REMARK SMILES IDX 46 90 47 91 48 92 49 93
REMARK H PARENT 10 6 3 16 78 17 14 30 70 49 40 60
REMARK Flexibility Score: inf
ROOT
ATOM      1  C   UNL A   1      32.561  28.472  26.137  1.00  0.00     0.042 C 
ENDROOT
BRANCH   1   2
ATOM      2  C   UNL A   1      32.676  29.389  24.928  1.00  0.00     0.117 C 
BRANCH   2   3
ATOM      3  N   UNL A   1      31.392  29.925  24.514  1.00  0.00    -0.356 N 
ATOM      4  C   UNL A   1      30.444  29.436  23.670  1.00  0.00     0.227 C 
ATOM      5  O   UNL A   1      29.402  30.092  23.560  1.00  0.00    -0.274 OA
ATOM      6  H   UNL A   1      31.168  30.796  24.915  1.00  0.00     0.163 HD
BRANCH   4   7
ATOM      7  C   UNL A   1      30.617  28.136  22.878  1.00  0.00     0.103 C 
ATOM      8  C   UNL A   1      32.108  26.188  23.184  1.00  0.00     0.107 C 
ATOM      9  C   UNL A   1      30.704  25.913  23.627  1.00  0.00    -0.006 C 
ATOM     10  C   UNL A   1      32.067  27.656  22.724  1.00  0.00     0.047 C 
ATOM     11  C   UNL A   1      29.894  26.966  23.467  1.00  0.00    -0.016 C 
BRANCH   8  12
ATOM     12  N   UNL A   1      32.386  25.290  22.087  1.00  0.00    -0.332 N 
ATOM     13  O   UNL A   1      33.202  23.598  20.914  1.00  0.00    -0.249 OA
ATOM     14  C   UNL A   1      33.210  24.225  21.970  1.00  0.00     0.315 C 
ATOM     15  N   UNL A   1      33.984  23.897  23.029  1.00  0.00    -0.331 N 
ATOM     16  H   UNL A   1      31.878  25.492  21.268  1.00  0.00     0.165 HD
ATOM     17  H   UNL A   1      34.006  24.500  23.807  1.00  0.00     0.166 HD
BRANCH  15  18
ATOM     18  C   UNL A   1      34.787  22.679  23.059  1.00  0.00     0.115 C 
ATOM     19  C   UNL A   1      36.251  22.987  23.465  1.00  0.00     0.030 C 
ATOM     20  C   UNL A   1      34.082  21.738  23.994  1.00  0.00    -0.012 A 
ATOM     21  C   UNL A   1      36.821  22.181  24.650  1.00  0.00     0.008 C 
ATOM     22  C   UNL A   1      34.563  21.448  25.254  1.00  0.00     0.010 A 
ATOM     23  C   UNL A   1      32.882  21.007  23.721  1.00  0.00     0.018 A 
ATOM     24  C   UNL A   1      35.829  22.012  25.807  1.00  0.00     0.047 C 
ATOM     25  S   UNL A   1      33.594  20.337  26.096  1.00  0.00    -0.149 S 
ATOM     26  C   UNL A   1      32.515  20.198  24.774  1.00  0.00     0.065 A 
ENDBRANCH  15  18
ENDBRANCH   8  12
ENDBRANCH   4   7
ENDBRANCH   2   3
ENDBRANCH   1   2
BRANCH   1  27
ATOM     27  C   UNL A   1      33.578  28.770  27.231  1.00  0.00     0.118 C 
BRANCH  27  28
ATOM     28  N   UNL A   1      33.550  30.167  27.647  1.00  0.00    -0.352 N 
ATOM     29  C   UNL A   1      34.477  30.899  28.346  1.00  0.00     0.251 C 
ATOM     30  H   UNL A   1      32.741  30.662  27.386  1.00  0.00     0.163 HD
ATOM     31  O   UNL A   1      34.161  32.006  28.785  1.00  0.00    -0.269 OA
BRANCH  29  32
ATOM     32  C   UNL A   1      35.833  30.365  28.589  1.00  0.00     0.039 A 
ATOM     33  C   UNL A   1      36.797  30.475  27.584  1.00  0.00     0.014 A 
ATOM     34  C   UNL A   1      36.153  29.737  29.795  1.00  0.00     0.014 A 
ATOM     35  C   UNL A   1      38.096  30.014  27.814  1.00  0.00     0.010 A 
ATOM     36  C   UNL A   1      37.467  29.363  30.058  1.00  0.00     0.010 A 
ATOM     37  C   UNL A   1      38.452  29.489  29.067  1.00  0.00    -0.014 A 
BRANCH  37  38
ATOM     38  C   UNL A   1      39.843  29.062  29.362  1.00  0.00     0.031 A 
ATOM     39  C   UNL A   1      40.803  30.012  30.027  1.00  0.00     0.074 A 
ATOM     40  C   UNL A   1      40.265  27.844  28.970  1.00  0.00     0.049 A 
ATOM     41  N   UNL A   1      42.067  29.840  30.318  1.00  0.00    -0.248 NA
ATOM     42  C   UNL A   1      40.281  31.341  30.390  1.00  0.00     0.031 C 
ATOM     43  C   UNL A   1      39.444  26.844  28.284  1.00  0.00     0.029 A 
ATOM     44  N   UNL A   1      41.492  27.241  29.089  1.00  0.00    -0.354 N 
ATOM     45  C   UNL A   1      42.494  31.040  30.875  1.00  0.00     0.074 A 
ATOM     46  C   UNL A   1      41.371  31.949  30.829  1.00  0.00     0.031 C 
ATOM     47  C   UNL A   1      40.178  25.739  28.079  1.00  0.00     0.029 A 
ATOM     48  C   UNL A   1      41.532  25.968  28.573  1.00  0.00     0.049 A 
ATOM     49  H   UNL A   1      42.269  27.678  29.506  1.00  0.00     0.167 HD
ATOM     50  C   UNL A   1      43.706  31.353  31.396  1.00  0.00     0.031 A 
ATOM     51  C   UNL A   1      42.545  25.082  28.500  1.00  0.00     0.031 A 
ATOM     52  C   UNL A   1      44.822  30.443  31.438  1.00  0.00     0.049 A 
ATOM     53  C   UNL A   1      43.888  25.456  29.060  1.00  0.00     0.074 A 
ATOM     54  C   UNL A   1      46.073  30.643  31.994  1.00  0.00     0.029 A 
ATOM     55  N   UNL A   1      44.824  29.167  30.895  1.00  0.00    -0.354 N 
ATOM     56  N   UNL A   1      44.255  26.572  29.645  1.00  0.00    -0.248 NA
ATOM     57  C   UNL A   1      44.951  24.447  28.961  1.00  0.00     0.031 C 
ATOM     58  C   UNL A   1      46.852  29.509  31.731  1.00  0.00     0.029 A 
ATOM     59  C   UNL A   1      46.065  28.578  31.074  1.00  0.00     0.049 A 
ATOM     60  H   UNL A   1      44.057  28.742  30.449  1.00  0.00     0.167 HD
ATOM     61  C   UNL A   1      45.585  26.389  30.008  1.00  0.00     0.074 A 
ATOM     62  C   UNL A   1      45.951  25.051  29.587  1.00  0.00     0.031 C 
ATOM     63  C   UNL A   1      46.422  27.250  30.639  1.00  0.00     0.031 A 
BRANCH  50  64
ATOM     64  C   UNL A   1      43.887  32.749  31.937  1.00  0.00    -0.014 A 
ATOM     65  C   UNL A   1      44.340  33.800  31.117  1.00  0.00     0.010 A 
ATOM     66  C   UNL A   1      43.599  33.016  33.288  1.00  0.00     0.010 A 
ATOM     67  C   UNL A   1      44.566  35.070  31.651  1.00  0.00     0.020 A 
ATOM     68  C   UNL A   1      43.790  34.295  33.819  1.00  0.00     0.020 A 
ATOM     69  C   UNL A   1      44.298  35.307  33.003  1.00  0.00     0.054 A 
BRANCH  69  70
ATOM     70  S   UNL A   1      44.619  36.961  33.676  1.00  0.00     0.124 S 
ATOM     71  O   UNL A   1      45.933  36.784  34.291  1.00  0.00    -0.237 OA
ATOM     72  O   UNL A   1      44.593  37.802  32.483  1.00  0.00    -0.237 OA
ATOM     73  O   UNL A   1      43.517  37.175  34.611  1.00  0.00    -0.744 OA
ENDBRANCH  69  70
ENDBRANCH  50  64
BRANCH  51  74
ATOM     74  C   UNL A   1      42.306  23.742  27.898  1.00  0.00    -0.014 A 
ATOM     75  C   UNL A   1      42.718  23.473  26.581  1.00  0.00     0.010 A 
ATOM     76  C   UNL A   1      41.711  22.714  28.653  1.00  0.00     0.010 A 
ATOM     77  C   UNL A   1      42.541  22.201  26.030  1.00  0.00     0.020 A 
ATOM     78  C   UNL A   1      41.558  21.434  28.115  1.00  0.00     0.020 A 
ATOM     79  C   UNL A   1      41.971  21.186  26.804  1.00  0.00     0.054 A 
BRANCH  79  80
ATOM     80  S   UNL A   1      41.834  19.521  26.098  1.00  0.00     0.124 S 
ATOM     81  O   UNL A   1      42.660  19.629  24.900  1.00  0.00    -0.237 OA
ATOM     82  O   UNL A   1      42.371  18.682  27.166  1.00  0.00    -0.237 OA
ATOM     83  O   UNL A   1      40.400  19.370  25.860  1.00  0.00    -0.744 OA
ENDBRANCH  79  80
ENDBRANCH  51  74
BRANCH  63  84
ATOM     84  C   UNL A   1      47.816  26.764  30.942  1.00  0.00    -0.014 A 
ATOM     85  C   UNL A   1      48.885  27.006  30.061  1.00  0.00     0.010 A 
ATOM     86  C   UNL A   1      48.068  26.101  32.158  1.00  0.00     0.010 A 
ATOM     87  C   UNL A   1      50.174  26.566  30.376  1.00  0.00     0.020 A 
ATOM     88  C   UNL A   1      49.360  25.688  32.490  1.00  0.00     0.020 A 
ATOM     89  C   UNL A   1      50.403  25.911  31.589  1.00  0.00     0.054 A 
BRANCH  89  90
ATOM     90  S   UNL A   1      52.093  25.392  31.994  1.00  0.00     0.124 S 
ATOM     91  O   UNL A   1      51.927  23.957  32.205  1.00  0.00    -0.237 OA
ATOM     92  O   UNL A   1      52.839  25.770  30.796  1.00  0.00    -0.237 OA
ATOM     93  O   UNL A   1      52.416  26.164  33.192  1.00  0.00    -0.744 OA
ENDBRANCH  89  90
ENDBRANCH  63  84
ENDBRANCH  37  38
ENDBRANCH  29  32
ENDBRANCH  27  28
ENDBRANCH   1  27
TORSDOF 15
ENDMDL
