MODEL 1
REMARK VINA RESULT:     -12.9      0.000      0.000
REMARK SMILES O=C(NCCCNC(=O)c1ccc(-c2c3nc(c(-c4ccc(S(=O)(=O)[O-])cc4)c4ccc([nH]4)c(-c4ccc(S(=O)(=O)[O-])cc4)c4nc(c(-c5ccc(S(=O)(=O)[O-])cc5)c5ccc2[nH]5)C=C4)C=C3)cc1)C1=Cc2cc(Cl)cc(-c3ccc(CO)cc3)c2O[C@@H]1C(F)(F)F
REMARK SMILES IDX 5 1 4 2 3 3 1 4 2 5 70 7 71 8 88 9 72 10 87 11 73 12 86 13
REMARK SMILES IDX 74 14 77 15 75 16 76 17 89 18 90 19 91 20 92 21 78 22 79 23
REMARK SMILES IDX 85 24 80 25 84 26 81 27 82 28 83 29 6 31 7 32 8 33 9 35
REMARK SMILES IDX 10 36 11 37 69 38 12 39 68 40 13 41 14 42 15 43 62 44 16 45
REMARK SMILES IDX 67 46 61 47 63 48 17 49 66 50 60 51 59 52 18 54 48 55 29 56
REMARK SMILES IDX 47 57 30 58 33 59 46 60 64 61 31 62 32 63 45 65 65 66 34 67
REMARK SMILES IDX 19 68 20 69 28 70 21 71 27 72 22 73 23 74 24 75 25 76 26 77
REMARK SMILES IDX 49 78 50 79 58 80 51 81 57 82 52 83 53 84 54 85 55 86 56 87
REMARK SMILES IDX 35 88 36 89 44 90 37 91 43 92 38 93 39 94 40 95 41 96 42 97
REMARK H PARENT 3 6 83 30 7 34 63 53 33 64
REMARK Flexibility Score: inf
ROOT
ATOM      1  C   UNL A   1      32.261  28.375  27.023  1.00  0.00     0.042 C 
ENDROOT
BRANCH   1   2
ATOM      2  C   UNL A   1      32.233  27.111  26.159  1.00  0.00     0.118 C 
BRANCH   2   3
ATOM      3  N   UNL A   1      31.629  25.967  26.851  1.00  0.00    -0.352 N 
ATOM      4  O   UNL A   1      31.452  23.804  27.525  1.00  0.00    -0.270 OA
ATOM      5  C   UNL A   1      31.894  24.626  26.734  1.00  0.00     0.251 C 
ATOM      6  H   UNL A   1      30.926  26.197  27.500  1.00  0.00     0.163 HD
BRANCH   5   7
ATOM      7  C   UNL A   1      32.801  24.230  25.650  1.00  0.00     0.067 C 
ATOM      8  C   UNL A   1      34.109  24.452  25.818  1.00  0.00     0.025 C 
ATOM      9  C   UNL A   1      32.266  23.308  24.603  1.00  0.00     0.314 C 
ATOM     10  C   UNL A   1      34.973  23.389  25.299  1.00  0.00     0.019 A 
ATOM     11  O   UNL A   1      33.044  22.090  24.536  1.00  0.00    -0.475 OA
ATOM     12  C   UNL A   1      36.331  23.433  25.630  1.00  0.00     0.032 A 
ATOM     13  C   UNL A   1      34.379  22.183  24.865  1.00  0.00     0.135 A 
ATOM     14  C   UNL A   1      37.070  22.257  25.626  1.00  0.00     0.042 A 
ATOM     15  C   UNL A   1      35.106  20.984  24.930  1.00  0.00     0.026 A 
ATOM     16  Cl  UNL A   1      38.698  22.280  26.177  1.00  0.00    -0.084 Cl
ATOM     17  C   UNL A   1      36.462  21.043  25.308  1.00  0.00     0.033 A 
BRANCH   9  18
ATOM     18  C   UNL A   1      32.144  24.003  23.236  1.00  0.00     0.429 C 
ATOM     19  F   UNL A   1      31.358  23.290  22.391  1.00  0.00    -0.167 F 
ATOM     20  F   UNL A   1      31.576  25.229  23.344  1.00  0.00    -0.167 F 
ATOM     21  F   UNL A   1      33.339  24.170  22.624  1.00  0.00    -0.167 F 
ENDBRANCH   9  18
BRANCH  15  22
ATOM     22  C   UNL A   1      34.466  19.661  24.845  1.00  0.00    -0.015 A 
ATOM     23  C   UNL A   1      33.196  19.479  25.416  1.00  0.00     0.009 A 
ATOM     24  C   UNL A   1      35.115  18.544  24.317  1.00  0.00     0.009 A 
ATOM     25  C   UNL A   1      32.632  18.214  25.561  1.00  0.00     0.007 A 
ATOM     26  C   UNL A   1      34.546  17.269  24.444  1.00  0.00     0.007 A 
ATOM     27  C   UNL A   1      33.318  17.092  25.098  1.00  0.00    -0.023 A 
BRANCH  27  28
ATOM     28  C   UNL A   1      32.787  15.720  25.406  1.00  0.00     0.191 C 
BRANCH  28  29
ATOM     29  O   UNL A   1      33.846  14.770  25.373  1.00  0.00    -0.392 OA
ATOM     30  H   UNL A   1      34.677  15.220  25.154  1.00  0.00     0.211 HD
ENDBRANCH  28  29
ENDBRANCH  27  28
ENDBRANCH  15  22
ENDBRANCH   5   7
ENDBRANCH   2   3
ENDBRANCH   1   2
BRANCH   1  31
ATOM     31  C   UNL A   1      33.472  29.258  26.728  1.00  0.00     0.118 C 
BRANCH  31  32
ATOM     32  N   UNL A   1      33.575  30.452  27.548  1.00  0.00    -0.352 N 
ATOM     33  C   UNL A   1      34.636  30.923  28.298  1.00  0.00     0.251 C 
ATOM     34  H   UNL A   1      32.765  31.012  27.573  1.00  0.00     0.163 HD
ATOM     35  O   UNL A   1      34.502  31.978  28.915  1.00  0.00    -0.269 OA
BRANCH  33  36
ATOM     36  C   UNL A   1      35.887  30.137  28.462  1.00  0.00     0.039 A 
ATOM     37  C   UNL A   1      36.815  30.160  27.413  1.00  0.00     0.014 A 
ATOM     38  C   UNL A   1      36.208  29.453  29.632  1.00  0.00     0.014 A 
ATOM     39  C   UNL A   1      38.094  29.628  27.594  1.00  0.00     0.010 A 
ATOM     40  C   UNL A   1      37.511  29.029  29.857  1.00  0.00     0.010 A 
ATOM     41  C   UNL A   1      38.475  29.132  28.848  1.00  0.00    -0.014 A 
BRANCH  41  42
ATOM     42  C   UNL A   1      39.884  28.776  29.148  1.00  0.00     0.031 A 
ATOM     43  C   UNL A   1      40.802  29.776  29.795  1.00  0.00     0.074 A 
ATOM     44  C   UNL A   1      40.354  27.582  28.732  1.00  0.00     0.049 A 
ATOM     45  N   UNL A   1      42.079  29.674  30.058  1.00  0.00    -0.248 NA
ATOM     46  C   UNL A   1      40.221  31.083  30.145  1.00  0.00     0.031 C 
ATOM     47  C   UNL A   1      39.579  26.570  28.003  1.00  0.00     0.029 A 
ATOM     48  N   UNL A   1      41.596  27.013  28.858  1.00  0.00    -0.354 N 
ATOM     49  C   UNL A   1      42.459  30.909  30.568  1.00  0.00     0.074 A 
ATOM     50  C   UNL A   1      41.293  31.763  30.525  1.00  0.00     0.031 C 
ATOM     51  C   UNL A   1      40.346  25.489  27.796  1.00  0.00     0.029 A 
ATOM     52  C   UNL A   1      41.673  25.739  28.343  1.00  0.00     0.049 A 
ATOM     53  H   UNL A   1      42.358  27.472  29.277  1.00  0.00     0.167 HD
ATOM     54  C   UNL A   1      43.666  31.293  31.050  1.00  0.00     0.031 A 
ATOM     55  C   UNL A   1      42.697  24.865  28.331  1.00  0.00     0.031 A 
ATOM     56  C   UNL A   1      44.806  30.418  31.125  1.00  0.00     0.049 A 
ATOM     57  C   UNL A   1      43.991  25.271  28.975  1.00  0.00     0.074 A 
ATOM     58  C   UNL A   1      46.060  30.672  31.651  1.00  0.00     0.029 A 
ATOM     59  N   UNL A   1      44.818  29.106  30.673  1.00  0.00    -0.354 N 
ATOM     60  N   UNL A   1      44.316  26.426  29.507  1.00  0.00    -0.248 NA
ATOM     61  C   UNL A   1      45.045  24.251  29.043  1.00  0.00     0.031 C 
ATOM     62  C   UNL A   1      46.836  29.515  31.502  1.00  0.00     0.029 A 
ATOM     63  C   UNL A   1      46.053  28.533  30.917  1.00  0.00     0.049 A 
ATOM     64  H   UNL A   1      44.059  28.650  30.242  1.00  0.00     0.167 HD
ATOM     65  C   UNL A   1      45.607  26.266  29.995  1.00  0.00     0.074 A 
ATOM     66  C   UNL A   1      45.991  24.897  29.710  1.00  0.00     0.031 C 
ATOM     67  C   UNL A   1      46.404  27.168  30.619  1.00  0.00     0.031 A 
BRANCH  54  68
ATOM     68  C   UNL A   1      43.792  32.713  31.537  1.00  0.00    -0.014 A 
ATOM     69  C   UNL A   1      43.517  33.048  32.876  1.00  0.00     0.010 A 
ATOM     70  C   UNL A   1      44.172  33.732  30.644  1.00  0.00     0.010 A 
ATOM     71  C   UNL A   1      43.549  34.380  33.297  1.00  0.00     0.020 A 
ATOM     72  C   UNL A   1      44.235  35.063  31.069  1.00  0.00     0.020 A 
ATOM     73  C   UNL A   1      43.896  35.381  32.387  1.00  0.00     0.054 A 
BRANCH  73  74
ATOM     74  S   UNL A   1      43.911  37.106  32.949  1.00  0.00     0.124 S 
ATOM     75  O   UNL A   1      43.763  37.832  31.691  1.00  0.00    -0.237 OA
ATOM     76  O   UNL A   1      42.758  37.164  33.845  1.00  0.00    -0.237 OA
ATOM     77  O   UNL A   1      45.210  37.245  33.602  1.00  0.00    -0.744 OA
ENDBRANCH  73  74
ENDBRANCH  54  68
BRANCH  55  78
ATOM     78  C   UNL A   1      42.508  23.506  27.753  1.00  0.00    -0.014 A 
ATOM     79  C   UNL A   1      42.873  23.248  26.419  1.00  0.00     0.010 A 
ATOM     80  C   UNL A   1      42.003  22.455  28.538  1.00  0.00     0.010 A 
ATOM     81  C   UNL A   1      42.721  21.969  25.875  1.00  0.00     0.020 A 
ATOM     82  C   UNL A   1      41.871  21.168  28.005  1.00  0.00     0.020 A 
ATOM     83  C   UNL A   1      42.221  20.935  26.673  1.00  0.00     0.054 A 
BRANCH  83  84
ATOM     84  S   UNL A   1      42.089  19.268  25.967  1.00  0.00     0.124 S 
ATOM     85  O   UNL A   1      42.654  18.444  27.030  1.00  0.00    -0.237 OA
ATOM     86  O   UNL A   1      40.651  19.127  25.752  1.00  0.00    -0.237 OA
ATOM     87  O   UNL A   1      42.887  19.352  24.746  1.00  0.00    -0.744 OA
ENDBRANCH  83  84
ENDBRANCH  55  78
BRANCH  67  88
ATOM     88  C   UNL A   1      47.756  26.680  31.060  1.00  0.00    -0.014 A 
ATOM     89  C   UNL A   1      48.846  26.666  30.174  1.00  0.00     0.010 A 
ATOM     90  C   UNL A   1      47.935  26.250  32.386  1.00  0.00     0.010 A 
ATOM     91  C   UNL A   1      50.087  26.183  30.595  1.00  0.00     0.020 A 
ATOM     92  C   UNL A   1      49.180  25.790  32.817  1.00  0.00     0.020 A 
ATOM     93  C   UNL A   1      50.243  25.740  31.913  1.00  0.00     0.054 A 
BRANCH  93  94
ATOM     94  S   UNL A   1      51.865  25.130  32.446  1.00  0.00     0.124 S 
ATOM     95  O   UNL A   1      52.760  25.786  31.498  1.00  0.00    -0.237 OA
ATOM     96  O   UNL A   1      51.952  25.603  33.826  1.00  0.00    -0.237 OA
ATOM     97  O   UNL A   1      51.752  23.681  32.298  1.00  0.00    -0.744 OA
ENDBRANCH  93  94
ENDBRANCH  67  88
ENDBRANCH  41  42
ENDBRANCH  33  36
ENDBRANCH  31  32
ENDBRANCH   1  31
TORSDOF 17
ENDMDL
MODEL 2
REMARK VINA RESULT:     -12.9      0.792      7.986
REMARK SMILES O=C(NCCCNC(=O)c1ccc(-c2c3nc(c(-c4ccc(S(=O)(=O)[O-])cc4)c4ccc([nH]4)c(-c4ccc(S(=O)(=O)[O-])cc4)c4nc(c(-c5ccc(S(=O)(=O)[O-])cc5)c5ccc2[nH]5)C=C4)C=C3)cc1)C1=Cc2cc(Cl)cc(-c3ccc(CO)cc3)c2O[C@@H]1C(F)(F)F
REMARK SMILES IDX 5 1 4 2 3 3 1 4 2 5 70 7 71 8 88 9 72 10 87 11 73 12 86 13
REMARK SMILES IDX 74 14 77 15 75 16 76 17 89 18 90 19 91 20 92 21 78 22 79 23
REMARK SMILES IDX 85 24 80 25 84 26 81 27 82 28 83 29 6 31 7 32 8 33 9 35
REMARK SMILES IDX 10 36 11 37 69 38 12 39 68 40 13 41 14 42 15 43 62 44 16 45
REMARK SMILES IDX 67 46 61 47 63 48 17 49 66 50 60 51 59 52 18 54 48 55 29 56
REMARK SMILES IDX 47 57 30 58 33 59 46 60 64 61 31 62 32 63 45 65 65 66 34 67
REMARK SMILES IDX 19 68 20 69 28 70 21 71 27 72 22 73 23 74 24 75 25 76 26 77
REMARK SMILES IDX 49 78 50 79 58 80 51 81 57 82 52 83 53 84 54 85 55 86 56 87
REMARK SMILES IDX 35 88 36 89 44 90 37 91 43 92 38 93 39 94 40 95 41 96 42 97
REMARK H PARENT 3 6 83 30 7 34 63 53 33 64
REMARK Flexibility Score: inf
ROOT
ATOM      1  C   UNL A   1      32.040  28.053  27.065  1.00  0.00     0.042 C 
ENDROOT
BRANCH   1   2
ATOM      2  C   UNL A   1      31.971  26.789  26.203  1.00  0.00     0.118 C 
BRANCH   2   3
ATOM      3  N   UNL A   1      31.422  25.639  26.930  1.00  0.00    -0.352 N 
ATOM      4  O   UNL A   1      31.315  23.478  27.622  1.00  0.00    -0.270 OA
ATOM      5  C   UNL A   1      31.703  24.302  26.806  1.00  0.00     0.251 C 
ATOM      6  H   UNL A   1      30.747  25.861  27.611  1.00  0.00     0.163 HD
BRANCH   5   7
ATOM      7  C   UNL A   1      32.562  23.915  25.681  1.00  0.00     0.067 C 
ATOM      8  C   UNL A   1      33.874  24.154  25.786  1.00  0.00     0.025 C 
ATOM      9  C   UNL A   1      31.990  22.985  24.662  1.00  0.00     0.314 C 
ATOM     10  C   UNL A   1      34.726  23.101  25.229  1.00  0.00     0.019 A 
ATOM     11  O   UNL A   1      32.780  21.776  24.560  1.00  0.00    -0.475 OA
ATOM     12  C   UNL A   1      36.097  23.162  25.494  1.00  0.00     0.032 A 
ATOM     13  C   UNL A   1      34.127  21.886  24.825  1.00  0.00     0.135 A 
ATOM     14  C   UNL A   1      36.850  21.996  25.457  1.00  0.00     0.042 A 
ATOM     15  C   UNL A   1      34.871  20.696  24.857  1.00  0.00     0.026 A 
ATOM     16  Cl  UNL A   1      38.502  22.041  25.929  1.00  0.00    -0.084 Cl
ATOM     17  C   UNL A   1      36.243  20.773  25.170  1.00  0.00     0.033 A 
BRANCH   9  18
ATOM     18  C   UNL A   1      31.794  23.675  23.302  1.00  0.00     0.429 C 
ATOM     19  F   UNL A   1      32.105  24.993  23.370  1.00  0.00    -0.167 F 
ATOM     20  F   UNL A   1      32.596  23.141  22.348  1.00  0.00    -0.167 F 
ATOM     21  F   UNL A   1      30.523  23.588  22.847  1.00  0.00    -0.167 F 
ENDBRANCH   9  18
BRANCH  15  22
ATOM     22  C   UNL A   1      34.245  19.365  24.805  1.00  0.00    -0.015 A 
ATOM     23  C   UNL A   1      33.020  19.161  25.462  1.00  0.00     0.009 A 
ATOM     24  C   UNL A   1      34.870  18.263  24.222  1.00  0.00     0.009 A 
ATOM     25  C   UNL A   1      32.486  17.887  25.634  1.00  0.00     0.007 A 
ATOM     26  C   UNL A   1      34.329  16.978  24.377  1.00  0.00     0.007 A 
ATOM     27  C   UNL A   1      33.151  16.778  25.113  1.00  0.00    -0.023 A 
BRANCH  27  28
ATOM     28  C   UNL A   1      32.662  15.397  25.445  1.00  0.00     0.191 C 
BRANCH  28  29
ATOM     29  O   UNL A   1      33.747  14.476  25.414  1.00  0.00    -0.392 OA
ATOM     30  H   UNL A   1      34.498  14.877  24.948  1.00  0.00     0.211 HD
ENDBRANCH  28  29
ENDBRANCH  27  28
ENDBRANCH  15  22
ENDBRANCH   5   7
ENDBRANCH   2   3
ENDBRANCH   1   2
BRANCH   1  31
ATOM     31  C   UNL A   1      33.357  28.807  26.893  1.00  0.00     0.118 C 
BRANCH  31  32
ATOM     32  N   UNL A   1      33.436  30.073  27.600  1.00  0.00    -0.352 N 
ATOM     33  C   UNL A   1      34.516  30.678  28.214  1.00  0.00     0.251 C 
ATOM     34  H   UNL A   1      32.592  30.577  27.648  1.00  0.00     0.163 HD
ATOM     35  O   UNL A   1      34.354  31.771  28.753  1.00  0.00    -0.269 OA
BRANCH  33  36
ATOM     36  C   UNL A   1      35.831  29.995  28.335  1.00  0.00     0.039 A 
ATOM     37  C   UNL A   1      36.713  30.081  27.249  1.00  0.00     0.014 A 
ATOM     38  C   UNL A   1      36.250  29.350  29.495  1.00  0.00     0.014 A 
ATOM     39  C   UNL A   1      38.036  29.654  27.383  1.00  0.00     0.010 A 
ATOM     40  C   UNL A   1      37.591  29.031  29.671  1.00  0.00     0.010 A 
ATOM     41  C   UNL A   1      38.504  29.201  28.625  1.00  0.00    -0.014 A 
BRANCH  41  42
ATOM     42  C   UNL A   1      39.946  28.960  28.871  1.00  0.00     0.031 A 
ATOM     43  C   UNL A   1      40.573  27.644  28.502  1.00  0.00     0.074 A 
ATOM     44  C   UNL A   1      40.659  29.898  29.530  1.00  0.00     0.049 A 
ATOM     45  N   UNL A   1      41.793  27.223  28.714  1.00  0.00    -0.248 NA
ATOM     46  C   UNL A   1      39.700  26.650  27.855  1.00  0.00     0.031 C 
ATOM     47  C   UNL A   1      40.129  31.174  30.027  1.00  0.00     0.029 A 
ATOM     48  N   UNL A   1      41.979  29.928  29.899  1.00  0.00    -0.354 N 
ATOM     49  C   UNL A   1      41.822  25.908  28.263  1.00  0.00     0.074 A 
ATOM     50  C   UNL A   1      40.485  25.583  27.818  1.00  0.00     0.031 C 
ATOM     51  C   UNL A   1      41.125  31.880  30.585  1.00  0.00     0.029 A 
ATOM     52  C   UNL A   1      42.352  31.097  30.519  1.00  0.00     0.049 A 
ATOM     53  H   UNL A   1      42.600  29.182  29.735  1.00  0.00     0.167 HD
ATOM     54  C   UNL A   1      42.873  25.056  28.203  1.00  0.00     0.031 A 
ATOM     55  C   UNL A   1      43.556  31.501  30.967  1.00  0.00     0.031 A 
ATOM     56  C   UNL A   1      44.207  25.408  28.611  1.00  0.00     0.049 A 
ATOM     57  C   UNL A   1      44.730  30.583  30.784  1.00  0.00     0.074 A 
ATOM     58  C   UNL A   1      45.364  24.653  28.538  1.00  0.00     0.029 A 
ATOM     59  N   UNL A   1      44.562  26.636  29.152  1.00  0.00    -0.354 N 
ATOM     60  N   UNL A   1      44.752  29.364  30.300  1.00  0.00    -0.248 NA
ATOM     61  C   UNL A   1      46.044  31.104  31.182  1.00  0.00     0.031 C 
ATOM     62  C   UNL A   1      46.417  25.421  29.052  1.00  0.00     0.029 A 
ATOM     63  C   UNL A   1      45.921  26.665  29.410  1.00  0.00     0.049 A 
ATOM     64  H   UNL A   1      43.938  27.377  29.328  1.00  0.00     0.167 HD
ATOM     65  C   UNL A   1      46.086  28.977  30.313  1.00  0.00     0.074 A 
ATOM     66  C   UNL A   1      46.839  30.101  30.835  1.00  0.00     0.031 C 
ATOM     67  C   UNL A   1      46.640  27.799  29.931  1.00  0.00     0.031 A 
BRANCH  54  68
ATOM     68  C   UNL A   1      42.607  23.673  27.667  1.00  0.00    -0.014 A 
ATOM     69  C   UNL A   1      42.238  22.620  28.525  1.00  0.00     0.010 A 
ATOM     70  C   UNL A   1      42.745  23.413  26.291  1.00  0.00     0.010 A 
ATOM     71  C   UNL A   1      42.082  21.322  28.032  1.00  0.00     0.020 A 
ATOM     72  C   UNL A   1      42.559  22.121  25.788  1.00  0.00     0.020 A 
ATOM     73  C   UNL A   1      42.256  21.079  26.667  1.00  0.00     0.054 A 
BRANCH  73  74
ATOM     74  S   UNL A   1      42.068  19.382  26.052  1.00  0.00     0.124 S 
ATOM     75  O   UNL A   1      42.980  19.375  24.911  1.00  0.00    -0.237 OA
ATOM     76  O   UNL A   1      42.490  18.575  27.195  1.00  0.00    -0.237 OA
ATOM     77  O   UNL A   1      40.649  19.291  25.719  1.00  0.00    -0.744 OA
ENDBRANCH  73  74
ENDBRANCH  54  68
BRANCH  55  78
ATOM     78  C   UNL A   1      43.713  32.857  31.560  1.00  0.00    -0.014 A 
ATOM     79  C   UNL A   1      44.045  33.953  30.743  1.00  0.00     0.010 A 
ATOM     80  C   UNL A   1      43.494  33.071  32.932  1.00  0.00     0.010 A 
ATOM     81  C   UNL A   1      44.172  35.234  31.287  1.00  0.00     0.020 A 
ATOM     82  C   UNL A   1      43.597  34.356  33.478  1.00  0.00     0.020 A 
ATOM     83  C   UNL A   1      43.946  35.428  32.653  1.00  0.00     0.054 A 
BRANCH  83  84
ATOM     84  S   UNL A   1      44.055  37.109  33.330  1.00  0.00     0.124 S 
ATOM     85  O   UNL A   1      43.730  37.926  32.166  1.00  0.00    -0.237 OA
ATOM     86  O   UNL A   1      43.051  37.090  34.391  1.00  0.00    -0.237 OA
ATOM     87  O   UNL A   1      45.437  37.199  33.795  1.00  0.00    -0.744 OA
ENDBRANCH  83  84
ENDBRANCH  55  78
BRANCH  67  88
ATOM     88  C   UNL A   1      48.135  27.692  30.038  1.00  0.00    -0.014 A 
ATOM     89  C   UNL A   1      48.966  28.057  28.966  1.00  0.00     0.010 A 
ATOM     90  C   UNL A   1      48.710  27.237  31.237  1.00  0.00     0.010 A 
ATOM     91  C   UNL A   1      50.352  27.923  29.075  1.00  0.00     0.020 A 
ATOM     92  C   UNL A   1      50.095  27.126  31.358  1.00  0.00     0.020 A 
ATOM     93  C   UNL A   1      50.907  27.450  30.269  1.00  0.00     0.054 A 
BRANCH  93  94
ATOM     94  S   UNL A   1      52.709  27.297  30.398  1.00  0.00     0.124 S 
ATOM     95  O   UNL A   1      52.862  25.924  30.869  1.00  0.00    -0.237 OA
ATOM     96  O   UNL A   1      53.154  27.545  29.028  1.00  0.00    -0.237 OA
ATOM     97  O   UNL A   1      53.073  28.332  31.362  1.00  0.00    -0.744 OA
ENDBRANCH  93  94
ENDBRANCH  67  88
ENDBRANCH  41  42
ENDBRANCH  33  36
ENDBRANCH  31  32
ENDBRANCH   1  31
TORSDOF 17
ENDMDL
MODEL 3
REMARK VINA RESULT:     -12.7      3.299      9.946
REMARK SMILES O=C(NCCCNC(=O)c1ccc(-c2c3nc(c(-c4ccc(S(=O)(=O)[O-])cc4)c4ccc([nH]4)c(-c4ccc(S(=O)(=O)[O-])cc4)c4nc(c(-c5ccc(S(=O)(=O)[O-])cc5)c5ccc2[nH]5)C=C4)C=C3)cc1)C1=Cc2cc(Cl)cc(-c3ccc(CO)cc3)c2O[C@@H]1C(F)(F)F
REMARK SMILES IDX 5 1 4 2 3 3 1 4 2 5 70 7 71 8 88 9 72 10 87 11 73 12 86 13
REMARK SMILES IDX 74 14 77 15 75 16 76 17 89 18 90 19 91 20 92 21 78 22 79 23
REMARK SMILES IDX 85 24 80 25 84 26 81 27 82 28 83 29 6 31 7 32 8 33 9 35
REMARK SMILES IDX 10 36 11 37 69 38 12 39 68 40 13 41 14 42 15 43 62 44 16 45
REMARK SMILES IDX 67 46 61 47 63 48 17 49 66 50 60 51 59 52 18 54 48 55 29 56
REMARK SMILES IDX 47 57 30 58 33 59 46 60 64 61 31 62 32 63 45 65 65 66 34 67
REMARK SMILES IDX 19 68 20 69 28 70 21 71 27 72 22 73 23 74 24 75 25 76 26 77
REMARK SMILES IDX 49 78 50 79 58 80 51 81 57 82 52 83 53 84 54 85 55 86 56 87
REMARK SMILES IDX 35 88 36 89 44 90 37 91 43 92 38 93 39 94 40 95 41 96 42 97
REMARK H PARENT 3 6 83 30 7 34 63 53 33 64
REMARK Flexibility Score: inf
ROOT
ATOM      1  C   UNL A   1      36.084  23.199  26.035  1.00  0.00     0.042 C 
ENDROOT
BRANCH   1   2
ATOM      2  C   UNL A   1      34.703  23.004  25.405  1.00  0.00     0.118 C 
BRANCH   2   3
ATOM      3  N   UNL A   1      34.581  23.654  24.095  1.00  0.00    -0.352 N 
ATOM      4  O   UNL A   1      34.154  25.357  22.653  1.00  0.00    -0.270 OA
ATOM      5  C   UNL A   1      33.999  24.848  23.754  1.00  0.00     0.251 C 
ATOM      6  H   UNL A   1      34.979  23.156  23.345  1.00  0.00     0.163 HD
BRANCH   5   7
ATOM      7  C   UNL A   1      33.237  25.530  24.807  1.00  0.00     0.067 C 
ATOM      8  C   UNL A   1      33.909  26.316  25.655  1.00  0.00     0.025 C 
ATOM      9  C   UNL A   1      31.751  25.583  24.661  1.00  0.00     0.314 C 
ATOM     10  C   UNL A   1      33.203  27.545  26.027  1.00  0.00     0.019 A 
ATOM     11  O   UNL A   1      31.281  26.952  24.633  1.00  0.00    -0.475 OA
ATOM     12  C   UNL A   1      33.918  28.522  26.725  1.00  0.00     0.032 A 
ATOM     13  C   UNL A   1      32.014  27.879  25.340  1.00  0.00     0.135 A 
ATOM     14  C   UNL A   1      33.507  29.846  26.654  1.00  0.00     0.042 A 
ATOM     15  C   UNL A   1      31.640  29.225  25.208  1.00  0.00     0.026 A 
ATOM     16  Cl  UNL A   1      34.468  31.071  27.384  1.00  0.00    -0.084 Cl
ATOM     17  C   UNL A   1      32.399  30.201  25.884  1.00  0.00     0.033 A 
BRANCH   9  18
ATOM     18  C   UNL A   1      31.039  24.739  25.732  1.00  0.00     0.429 C 
ATOM     19  F   UNL A   1      29.914  25.355  26.174  1.00  0.00    -0.167 F 
ATOM     20  F   UNL A   1      30.651  23.535  25.246  1.00  0.00    -0.167 F 
ATOM     21  F   UNL A   1      31.815  24.501  26.815  1.00  0.00    -0.167 F 
ENDBRANCH   9  18
BRANCH  15  22
ATOM     22  C   UNL A   1      30.642  29.680  24.226  1.00  0.00    -0.015 A 
ATOM     23  C   UNL A   1      30.652  29.126  22.936  1.00  0.00     0.009 A 
ATOM     24  C   UNL A   1      29.751  30.722  24.486  1.00  0.00     0.009 A 
ATOM     25  C   UNL A   1      29.886  29.659  21.903  1.00  0.00     0.007 A 
ATOM     26  C   UNL A   1      28.964  31.254  23.455  1.00  0.00     0.007 A 
ATOM     27  C   UNL A   1      29.051  30.748  22.150  1.00  0.00    -0.023 A 
BRANCH  27  28
ATOM     28  C   UNL A   1      28.357  31.425  21.002  1.00  0.00     0.191 C 
BRANCH  28  29
ATOM     29  O   UNL A   1      27.880  32.703  21.407  1.00  0.00    -0.392 OA
ATOM     30  H   UNL A   1      28.018  32.812  22.361  1.00  0.00     0.211 HD
ENDBRANCH  28  29
ENDBRANCH  27  28
ENDBRANCH  15  22
ENDBRANCH   5   7
ENDBRANCH   2   3
ENDBRANCH   1   2
BRANCH   1  31
ATOM     31  C   UNL A   1      37.213  23.112  25.009  1.00  0.00     0.118 C 
BRANCH  31  32
ATOM     32  N   UNL A   1      38.397  22.402  25.459  1.00  0.00    -0.352 N 
ATOM     33  C   UNL A   1      39.407  22.813  26.307  1.00  0.00     0.251 C 
ATOM     34  H   UNL A   1      38.494  21.488  25.106  1.00  0.00     0.163 HD
ATOM     35  O   UNL A   1      40.322  22.031  26.560  1.00  0.00    -0.269 OA
BRANCH  33  36
ATOM     36  C   UNL A   1      39.473  24.204  26.829  1.00  0.00     0.039 A 
ATOM     37  C   UNL A   1      38.936  24.449  28.100  1.00  0.00     0.014 A 
ATOM     38  C   UNL A   1      40.108  25.241  26.153  1.00  0.00     0.014 A 
ATOM     39  C   UNL A   1      39.162  25.674  28.733  1.00  0.00     0.010 A 
ATOM     40  C   UNL A   1      40.434  26.414  26.823  1.00  0.00     0.010 A 
ATOM     41  C   UNL A   1      39.984  26.634  28.129  1.00  0.00    -0.014 A 
BRANCH  41  42
ATOM     42  C   UNL A   1      40.437  27.842  28.861  1.00  0.00     0.031 A 
ATOM     43  C   UNL A   1      41.800  27.883  29.494  1.00  0.00     0.074 A 
ATOM     44  C   UNL A   1      39.566  28.857  29.041  1.00  0.00     0.049 A 
ATOM     45  N   UNL A   1      42.336  28.815  30.239  1.00  0.00    -0.248 NA
ATOM     46  C   UNL A   1      42.655  26.698  29.310  1.00  0.00     0.031 C 
ATOM     47  C   UNL A   1      38.180  28.884  28.557  1.00  0.00     0.029 A 
ATOM     48  N   UNL A   1      39.711  30.061  29.681  1.00  0.00    -0.354 N 
ATOM     49  C   UNL A   1      43.569  28.315  30.640  1.00  0.00     0.074 A 
ATOM     50  C   UNL A   1      43.678  26.976  30.104  1.00  0.00     0.031 C 
ATOM     51  C   UNL A   1      37.625  30.064  28.870  1.00  0.00     0.029 A 
ATOM     52  C   UNL A   1      38.596  30.863  29.606  1.00  0.00     0.049 A 
ATOM     53  H   UNL A   1      40.535  30.325  30.150  1.00  0.00     0.167 HD
ATOM     54  C   UNL A   1      44.534  28.924  31.371  1.00  0.00     0.031 A 
ATOM     55  C   UNL A   1      38.388  32.113  30.063  1.00  0.00     0.031 A 
ATOM     56  C   UNL A   1      44.428  30.272  31.862  1.00  0.00     0.049 A 
ATOM     57  C   UNL A   1      39.515  32.811  30.770  1.00  0.00     0.074 A 
ATOM     58  C   UNL A   1      45.363  31.017  32.557  1.00  0.00     0.029 A 
ATOM     59  N   UNL A   1      43.316  31.084  31.688  1.00  0.00    -0.354 N 
ATOM     60  N   UNL A   1      40.698  32.344  31.089  1.00  0.00    -0.248 NA
ATOM     61  C   UNL A   1      39.289  34.210  31.152  1.00  0.00     0.031 C 
ATOM     62  C   UNL A   1      44.807  32.277  32.817  1.00  0.00     0.029 A 
ATOM     63  C   UNL A   1      43.543  32.326  32.252  1.00  0.00     0.049 A 
ATOM     64  H   UNL A   1      42.486  30.814  31.230  1.00  0.00     0.167 HD
ATOM     65  C   UNL A   1      41.370  33.399  31.692  1.00  0.00     0.074 A 
ATOM     66  C   UNL A   1      40.464  34.532  31.673  1.00  0.00     0.031 C 
ATOM     67  C   UNL A   1      42.620  33.431  32.217  1.00  0.00     0.031 A 
BRANCH  54  68
ATOM     68  C   UNL A   1      45.781  28.129  31.662  1.00  0.00    -0.014 A 
ATOM     69  C   UNL A   1      46.816  28.028  30.714  1.00  0.00     0.010 A 
ATOM     70  C   UNL A   1      45.915  27.457  32.891  1.00  0.00     0.010 A 
ATOM     71  C   UNL A   1      47.926  27.216  30.957  1.00  0.00     0.020 A 
ATOM     72  C   UNL A   1      47.040  26.667  33.151  1.00  0.00     0.020 A 
ATOM     73  C   UNL A   1      48.025  26.530  32.170  1.00  0.00     0.054 A 
BRANCH  73  74
ATOM     74  S   UNL A   1      49.466  25.464  32.455  1.00  0.00     0.124 S 
ATOM     75  O   UNL A   1      49.780  25.019  31.100  1.00  0.00    -0.237 OA
ATOM     76  O   UNL A   1      50.433  26.381  33.053  1.00  0.00    -0.237 OA
ATOM     77  O   UNL A   1      48.957  24.429  33.352  1.00  0.00    -0.744 OA
ENDBRANCH  73  74
ENDBRANCH  54  68
BRANCH  55  78
ATOM     78  C   UNL A   1      37.092  32.795  29.800  1.00  0.00    -0.014 A 
ATOM     79  C   UNL A   1      36.042  32.703  30.731  1.00  0.00     0.010 A 
ATOM     80  C   UNL A   1      36.911  33.573  28.643  1.00  0.00     0.010 A 
ATOM     81  C   UNL A   1      34.830  33.360  30.504  1.00  0.00     0.020 A 
ATOM     82  C   UNL A   1      35.707  34.252  28.422  1.00  0.00     0.020 A 
ATOM     83  C   UNL A   1      34.670  34.132  29.350  1.00  0.00     0.054 A 
BRANCH  83  84
ATOM     84  S   UNL A   1      33.110  35.027  29.102  1.00  0.00     0.124 S 
ATOM     85  O   UNL A   1      33.575  36.305  28.573  1.00  0.00    -0.237 OA
ATOM     86  O   UNL A   1      32.399  34.171  28.156  1.00  0.00    -0.237 OA
ATOM     87  O   UNL A   1      32.530  35.076  30.442  1.00  0.00    -0.744 OA
ENDBRANCH  83  84
ENDBRANCH  55  78
BRANCH  67  88
ATOM     88  C   UNL A   1      43.081  34.746  32.780  1.00  0.00    -0.014 A 
ATOM     89  C   UNL A   1      43.771  35.674  31.983  1.00  0.00     0.010 A 
ATOM     90  C   UNL A   1      42.799  35.060  34.121  1.00  0.00     0.010 A 
ATOM     91  C   UNL A   1      44.216  36.879  32.532  1.00  0.00     0.020 A 
ATOM     92  C   UNL A   1      43.219  36.273  34.666  1.00  0.00     0.020 A 
ATOM     93  C   UNL A   1      43.944  37.166  33.874  1.00  0.00     0.054 A 
BRANCH  93  94
ATOM     94  S   UNL A   1      44.516  38.741  34.566  1.00  0.00     0.124 S 
ATOM     95  O   UNL A   1      43.480  39.664  34.113  1.00  0.00    -0.237 OA
ATOM     96  O   UNL A   1      44.538  38.475  36.003  1.00  0.00    -0.237 OA
ATOM     97  O   UNL A   1      45.829  38.928  33.955  1.00  0.00    -0.744 OA
ENDBRANCH  93  94
ENDBRANCH  67  88
ENDBRANCH  41  42
ENDBRANCH  33  36
ENDBRANCH  31  32
ENDBRANCH   1  31
TORSDOF 17
ENDMDL
