MODEL 1
REMARK VINA RESULT:     -11.7      0.000      0.000
REMARK SMILES O=C(NCCCNC(=O)c1ccc(-c2c3nc(c(-c4ccc(S(=O)(=O)[O-])cc4)c4ccc([nH]4)c(-c4ccc(S(=O)(=O)[O-])cc4)c4nc(c(-c5ccc(S(=O)(=O)[O-])cc5)c5ccc2[nH]5)C=C4)C=C3)cc1)C1=Cc2c(cc(Cl)c(Cl)c2Cl)O[C@H]1C(F)(F)F
REMARK SMILES IDX 6 1 5 2 4 3 3 4 1 5 2 6 70 8 71 9 82 10 72 11 81 12 73 13
REMARK SMILES IDX 79 14 74 15 77 16 80 17 75 18 78 19 76 20 83 21 84 22 85 23
REMARK SMILES IDX 86 24 7 25 8 26 9 28 10 29 11 30 69 31 12 32 68 33 13 34
REMARK SMILES IDX 14 35 15 36 62 37 16 38 67 39 61 40 63 41 17 42 66 43 60 44
REMARK SMILES IDX 59 45 18 47 48 48 29 49 47 50 30 51 33 52 46 53 64 54 31 55
REMARK SMILES IDX 32 56 45 58 65 59 34 60 19 61 20 62 28 63 21 64 27 65 22 66
REMARK SMILES IDX 23 67 24 68 25 69 26 70 49 71 50 72 58 73 51 74 57 75 52 76
REMARK SMILES IDX 53 77 54 78 55 79 56 80 35 81 36 82 44 83 37 84 43 85 38 86
REMARK SMILES IDX 39 87 40 88 41 89 42 90
REMARK H PARENT 3 7 7 27 63 46 33 57
REMARK Flexibility Score: inf
ROOT
ATOM      1  C   UNL A   1      33.529  28.602  26.734  1.00  0.00     0.118 C 
ENDROOT
BRANCH   1   2
ATOM      2  C   UNL A   1      34.069  28.589  25.316  1.00  0.00     0.042 C 
BRANCH   2   3
ATOM      3  C   UNL A   1      33.075  28.183  24.252  1.00  0.00     0.118 C 
BRANCH   3   4
ATOM      4  N   UNL A   1      33.485  27.188  23.286  1.00  0.00    -0.352 N 
ATOM      5  O   UNL A   1      33.975  25.099  22.581  1.00  0.00    -0.270 OA
ATOM      6  C   UNL A   1      33.581  25.833  23.482  1.00  0.00     0.251 C 
ATOM      7  H   UNL A   1      33.723  27.520  22.390  1.00  0.00     0.163 HD
BRANCH   6   8
ATOM      8  C   UNL A   1      33.265  25.241  24.814  1.00  0.00     0.067 C 
ATOM      9  C   UNL A   1      34.263  24.824  25.614  1.00  0.00     0.027 C 
ATOM     10  C   UNL A   1      31.887  24.643  24.942  1.00  0.00     0.314 C 
ATOM     11  C   UNL A   1      34.324  23.336  25.651  1.00  0.00     0.037 A 
ATOM     12  O   UNL A   1      31.910  23.221  25.288  1.00  0.00    -0.475 OA
ATOM     13  C   UNL A   1      33.139  22.620  25.415  1.00  0.00     0.131 A 
ATOM     14  C   UNL A   1      35.563  22.664  25.669  1.00  0.00     0.072 A 
ATOM     15  C   UNL A   1      33.195  21.261  25.114  1.00  0.00     0.069 A 
ATOM     16  C   UNL A   1      35.623  21.303  25.322  1.00  0.00     0.079 A 
ATOM     17  Cl  UNL A   1      37.010  23.571  26.003  1.00  0.00    -0.082 Cl
ATOM     18  C   UNL A   1      34.435  20.619  25.015  1.00  0.00     0.064 A 
ATOM     19  Cl  UNL A   1      37.155  20.497  25.194  1.00  0.00    -0.081 Cl
ATOM     20  Cl  UNL A   1      34.431  18.998  24.411  1.00  0.00    -0.083 Cl
BRANCH  10  21
ATOM     21  C   UNL A   1      31.010  25.425  25.939  1.00  0.00     0.429 C 
ATOM     22  F   UNL A   1      31.684  25.803  27.050  1.00  0.00    -0.167 F 
ATOM     23  F   UNL A   1      30.513  26.552  25.374  1.00  0.00    -0.167 F 
ATOM     24  F   UNL A   1      29.953  24.691  26.364  1.00  0.00    -0.167 F 
ENDBRANCH  10  21
ENDBRANCH   6   8
ENDBRANCH   3   4
ENDBRANCH   2   3
ENDBRANCH   1   2
BRANCH   1  25
ATOM     25  N   UNL A   1      33.534  29.915  27.375  1.00  0.00    -0.352 N 
ATOM     26  C   UNL A   1      34.501  30.600  28.077  1.00  0.00     0.251 C 
ATOM     27  H   UNL A   1      32.684  30.404  27.289  1.00  0.00     0.163 HD
ATOM     28  O   UNL A   1      34.217  31.697  28.559  1.00  0.00    -0.269 OA
BRANCH  26  29
ATOM     29  C   UNL A   1      35.853  30.036  28.292  1.00  0.00     0.039 A 
ATOM     30  C   UNL A   1      36.801  30.113  27.264  1.00  0.00     0.014 A 
ATOM     31  C   UNL A   1      36.202  29.428  29.494  1.00  0.00     0.014 A 
ATOM     32  C   UNL A   1      38.113  29.677  27.489  1.00  0.00     0.010 A 
ATOM     33  C   UNL A   1      37.532  29.136  29.765  1.00  0.00     0.010 A 
ATOM     34  C   UNL A   1      38.506  29.242  28.764  1.00  0.00    -0.014 A 
BRANCH  34  35
ATOM     35  C   UNL A   1      39.911  28.872  29.083  1.00  0.00     0.031 A 
ATOM     36  C   UNL A   1      40.840  29.900  29.684  1.00  0.00     0.074 A 
ATOM     37  C   UNL A   1      40.379  27.653  28.744  1.00  0.00     0.049 A 
ATOM     38  N   UNL A   1      42.126  29.819  29.909  1.00  0.00    -0.248 NA
ATOM     39  C   UNL A   1      40.255  31.207  30.035  1.00  0.00     0.031 C 
ATOM     40  C   UNL A   1      39.601  26.589  28.104  1.00  0.00     0.029 A 
ATOM     41  N   UNL A   1      41.631  27.105  28.878  1.00  0.00    -0.354 N 
ATOM     42  C   UNL A   1      42.506  31.069  30.389  1.00  0.00     0.074 A 
ATOM     43  C   UNL A   1      41.330  31.908  30.363  1.00  0.00     0.031 C 
ATOM     44  C   UNL A   1      40.381  25.509  27.935  1.00  0.00     0.029 A 
ATOM     45  C   UNL A   1      41.727  25.817  28.405  1.00  0.00     0.049 A 
ATOM     46  H   UNL A   1      42.390  27.589  29.278  1.00  0.00     0.167 HD
ATOM     47  C   UNL A   1      43.717  31.476  30.836  1.00  0.00     0.031 A 
ATOM     48  C   UNL A   1      42.781  24.980  28.346  1.00  0.00     0.031 A 
ATOM     49  C   UNL A   1      44.872  30.622  30.902  1.00  0.00     0.049 A 
ATOM     50  C   UNL A   1      44.111  25.446  28.874  1.00  0.00     0.074 A 
ATOM     51  C   UNL A   1      46.125  30.910  31.413  1.00  0.00     0.029 A 
ATOM     52  N   UNL A   1      44.914  29.312  30.450  1.00  0.00    -0.354 N 
ATOM     53  N   UNL A   1      44.430  26.611  29.387  1.00  0.00    -0.248 NA
ATOM     54  C   UNL A   1      45.220  24.483  28.824  1.00  0.00     0.031 C 
ATOM     55  C   UNL A   1      46.940  29.790  31.222  1.00  0.00     0.029 A 
ATOM     56  C   UNL A   1      46.177  28.785  30.649  1.00  0.00     0.049 A 
ATOM     57  H   UNL A   1      44.156  28.829  30.047  1.00  0.00     0.167 HD
ATOM     58  C   UNL A   1      45.768  26.509  29.750  1.00  0.00     0.074 A 
ATOM     59  C   UNL A   1      46.192  25.165  29.413  1.00  0.00     0.031 C 
ATOM     60  C   UNL A   1      46.576  27.443  30.311  1.00  0.00     0.031 A 
BRANCH  47  61
ATOM     61  C   UNL A   1      43.852  32.903  31.302  1.00  0.00    -0.014 A 
ATOM     62  C   UNL A   1      44.215  33.930  30.411  1.00  0.00     0.010 A 
ATOM     63  C   UNL A   1      43.562  33.232  32.639  1.00  0.00     0.010 A 
ATOM     64  C   UNL A   1      44.322  35.250  30.856  1.00  0.00     0.020 A 
ATOM     65  C   UNL A   1      43.637  34.556  33.080  1.00  0.00     0.020 A 
ATOM     66  C   UNL A   1      44.031  35.555  32.188  1.00  0.00     0.054 A 
BRANCH  66  67
ATOM     67  S   UNL A   1      44.139  37.284  32.726  1.00  0.00     0.124 S 
ATOM     68  O   UNL A   1      45.471  37.330  33.324  1.00  0.00    -0.237 OA
ATOM     69  O   UNL A   1      43.989  38.019  31.472  1.00  0.00    -0.237 OA
ATOM     70  O   UNL A   1      43.030  37.426  33.665  1.00  0.00    -0.744 OA
ENDBRANCH  66  67
ENDBRANCH  47  61
BRANCH  48  71
ATOM     71  C   UNL A   1      42.620  23.611  27.778  1.00  0.00    -0.014 A 
ATOM     72  C   UNL A   1      42.962  23.346  26.440  1.00  0.00     0.010 A 
ATOM     73  C   UNL A   1      42.126  22.560  28.574  1.00  0.00     0.010 A 
ATOM     74  C   UNL A   1      42.788  22.067  25.901  1.00  0.00     0.020 A 
ATOM     75  C   UNL A   1      41.980  21.274  28.048  1.00  0.00     0.020 A 
ATOM     76  C   UNL A   1      42.298  21.039  26.709  1.00  0.00     0.054 A 
BRANCH  76  77
ATOM     77  S   UNL A   1      42.116  19.378  26.000  1.00  0.00     0.124 S 
ATOM     78  O   UNL A   1      42.946  19.466  24.803  1.00  0.00    -0.237 OA
ATOM     79  O   UNL A   1      42.630  18.522  27.066  1.00  0.00    -0.237 OA
ATOM     80  O   UNL A   1      40.679  19.266  25.759  1.00  0.00    -0.744 OA
ENDBRANCH  76  77
ENDBRANCH  48  71
BRANCH  60  81
ATOM     81  C   UNL A   1      47.988  27.035  30.632  1.00  0.00    -0.014 A 
ATOM     82  C   UNL A   1      49.048  27.311  29.749  1.00  0.00     0.010 A 
ATOM     83  C   UNL A   1      48.265  26.416  31.865  1.00  0.00     0.010 A 
ATOM     84  C   UNL A   1      50.355  26.944  30.081  1.00  0.00     0.020 A 
ATOM     85  C   UNL A   1      49.574  26.076  32.213  1.00  0.00     0.020 A 
ATOM     86  C   UNL A   1      50.609  26.330  31.311  1.00  0.00     0.054 A 
BRANCH  86  87
ATOM     87  S   UNL A   1      52.319  25.902  31.734  1.00  0.00     0.124 S 
ATOM     88  O   UNL A   1      52.996  26.052  30.449  1.00  0.00    -0.237 OA
ATOM     89  O   UNL A   1      52.658  26.901  32.745  1.00  0.00    -0.237 OA
ATOM     90  O   UNL A   1      52.221  24.531  32.230  1.00  0.00    -0.744 OA
ENDBRANCH  86  87
ENDBRANCH  60  81
ENDBRANCH  34  35
ENDBRANCH  26  29
ENDBRANCH   1  25
TORSDOF 14
ENDMDL
MODEL 2
REMARK VINA RESULT:     -11.3      3.243      9.337
REMARK SMILES O=C(NCCCNC(=O)c1ccc(-c2c3nc(c(-c4ccc(S(=O)(=O)[O-])cc4)c4ccc([nH]4)c(-c4ccc(S(=O)(=O)[O-])cc4)c4nc(c(-c5ccc(S(=O)(=O)[O-])cc5)c5ccc2[nH]5)C=C4)C=C3)cc1)C1=Cc2c(cc(Cl)c(Cl)c2Cl)O[C@H]1C(F)(F)F
REMARK SMILES IDX 6 1 5 2 4 3 3 4 1 5 2 6 70 8 71 9 82 10 72 11 81 12 73 13
REMARK SMILES IDX 79 14 74 15 77 16 80 17 75 18 78 19 76 20 83 21 84 22 85 23
REMARK SMILES IDX 86 24 7 25 8 26 9 28 10 29 11 30 69 31 12 32 68 33 13 34
REMARK SMILES IDX 14 35 15 36 62 37 16 38 67 39 61 40 63 41 17 42 66 43 60 44
REMARK SMILES IDX 59 45 18 47 48 48 29 49 47 50 30 51 33 52 46 53 64 54 31 55
REMARK SMILES IDX 32 56 45 58 65 59 34 60 19 61 20 62 28 63 21 64 27 65 22 66
REMARK SMILES IDX 23 67 24 68 25 69 26 70 49 71 50 72 58 73 51 74 57 75 52 76
REMARK SMILES IDX 53 77 54 78 55 79 56 80 35 81 36 82 44 83 37 84 43 85 38 86
REMARK SMILES IDX 39 87 40 88 41 89 42 90
REMARK H PARENT 3 7 7 27 63 46 33 57
REMARK Flexibility Score: inf
ROOT
ATOM      1  C   UNL A   1      36.529  23.256  25.572  1.00  0.00     0.118 C 
ENDROOT
BRANCH   1   2
ATOM      2  C   UNL A   1      35.564  22.937  26.698  1.00  0.00     0.042 C 
BRANCH   2   3
ATOM      3  C   UNL A   1      34.221  22.396  26.262  1.00  0.00     0.118 C 
BRANCH   3   4
ATOM      4  N   UNL A   1      33.033  23.073  26.730  1.00  0.00    -0.352 N 
ATOM      5  O   UNL A   1      31.481  24.715  26.737  1.00  0.00    -0.270 OA
ATOM      6  C   UNL A   1      32.481  24.224  26.224  1.00  0.00     0.251 C 
ATOM      7  H   UNL A   1      32.568  22.664  27.497  1.00  0.00     0.163 HD
BRANCH   6   8
ATOM      8  C   UNL A   1      33.128  24.928  25.080  1.00  0.00     0.067 C 
ATOM      9  C   UNL A   1      33.787  26.083  25.292  1.00  0.00     0.027 C 
ATOM     10  C   UNL A   1      32.547  24.622  23.723  1.00  0.00     0.314 C 
ATOM     11  C   UNL A   1      33.009  27.239  24.767  1.00  0.00     0.037 A 
ATOM     12  O   UNL A   1      32.040  25.811  23.036  1.00  0.00    -0.475 OA
ATOM     13  C   UNL A   1      32.121  27.010  23.702  1.00  0.00     0.131 A 
ATOM     14  C   UNL A   1      32.967  28.461  25.468  1.00  0.00     0.072 A 
ATOM     15  C   UNL A   1      31.145  27.954  23.394  1.00  0.00     0.069 A 
ATOM     16  C   UNL A   1      31.954  29.394  25.186  1.00  0.00     0.079 A 
ATOM     17  Cl  UNL A   1      34.103  28.731  26.758  1.00  0.00    -0.082 Cl
ATOM     18  C   UNL A   1      31.028  29.115  24.167  1.00  0.00     0.064 A 
ATOM     19  Cl  UNL A   1      31.798  30.835  26.141  1.00  0.00    -0.081 Cl
ATOM     20  Cl  UNL A   1      29.651  30.119  23.870  1.00  0.00    -0.083 Cl
BRANCH  10  21
ATOM     21  C   UNL A   1      33.546  23.867  22.825  1.00  0.00     0.429 C 
ATOM     22  F   UNL A   1      33.254  23.973  21.508  1.00  0.00    -0.167 F 
ATOM     23  F   UNL A   1      34.805  24.337  22.992  1.00  0.00    -0.167 F 
ATOM     24  F   UNL A   1      33.573  22.541  23.106  1.00  0.00    -0.167 F 
ENDBRANCH  10  21
ENDBRANCH   6   8
ENDBRANCH   3   4
ENDBRANCH   2   3
ENDBRANCH   1   2
BRANCH   1  25
ATOM     25  N   UNL A   1      37.796  22.530  25.634  1.00  0.00    -0.352 N 
ATOM     26  C   UNL A   1      39.033  22.865  26.138  1.00  0.00     0.251 C 
ATOM     27  H   UNL A   1      37.758  21.628  25.240  1.00  0.00     0.163 HD
ATOM     28  O   UNL A   1      39.959  22.064  26.014  1.00  0.00    -0.269 OA
BRANCH  26  29
ATOM     29  C   UNL A   1      39.279  24.172  26.790  1.00  0.00     0.039 A 
ATOM     30  C   UNL A   1      38.799  24.395  28.086  1.00  0.00     0.014 A 
ATOM     31  C   UNL A   1      39.977  25.185  26.141  1.00  0.00     0.014 A 
ATOM     32  C   UNL A   1      39.113  25.585  28.753  1.00  0.00     0.010 A 
ATOM     33  C   UNL A   1      40.413  26.296  26.852  1.00  0.00     0.010 A 
ATOM     34  C   UNL A   1      39.976  26.520  28.163  1.00  0.00    -0.014 A 
BRANCH  34  35
ATOM     35  C   UNL A   1      40.428  27.748  28.872  1.00  0.00     0.031 A 
ATOM     36  C   UNL A   1      41.777  27.770  29.551  1.00  0.00     0.074 A 
ATOM     37  C   UNL A   1      39.592  28.801  28.993  1.00  0.00     0.049 A 
ATOM     38  N   UNL A   1      42.295  28.685  30.328  1.00  0.00    -0.248 NA
ATOM     39  C   UNL A   1      42.637  26.587  29.369  1.00  0.00     0.031 C 
ATOM     40  C   UNL A   1      38.240  28.884  28.436  1.00  0.00     0.029 A 
ATOM     41  N   UNL A   1      39.753  30.002  29.638  1.00  0.00    -0.354 N 
ATOM     42  C   UNL A   1      43.517  28.173  30.755  1.00  0.00     0.074 A 
ATOM     43  C   UNL A   1      43.635  26.844  30.202  1.00  0.00     0.031 C 
ATOM     44  C   UNL A   1      37.711  30.081  28.731  1.00  0.00     0.029 A 
ATOM     45  C   UNL A   1      38.661  30.834  29.542  1.00  0.00     0.049 A 
ATOM     46  H   UNL A   1      40.575  30.247  30.123  1.00  0.00     0.167 HD
ATOM     47  C   UNL A   1      44.468  28.765  31.514  1.00  0.00     0.031 A 
ATOM     48  C   UNL A   1      38.444  32.060  30.057  1.00  0.00     0.031 A 
ATOM     49  C   UNL A   1      44.364  30.106  32.024  1.00  0.00     0.049 A 
ATOM     50  C   UNL A   1      39.527  32.707  30.877  1.00  0.00     0.074 A 
ATOM     51  C   UNL A   1      45.305  30.829  32.736  1.00  0.00     0.029 A 
ATOM     52  N   UNL A   1      43.258  30.927  31.868  1.00  0.00    -0.354 N 
ATOM     53  N   UNL A   1      40.704  32.231  31.209  1.00  0.00    -0.248 NA
ATOM     54  C   UNL A   1      39.259  34.061  31.382  1.00  0.00     0.031 C 
ATOM     55  C   UNL A   1      44.746  32.070  33.056  1.00  0.00     0.029 A 
ATOM     56  C   UNL A   1      43.483  32.142  32.490  1.00  0.00     0.049 A 
ATOM     57  H   UNL A   1      42.435  30.681  31.386  1.00  0.00     0.167 HD
ATOM     58  C   UNL A   1      41.327  33.238  31.936  1.00  0.00     0.074 A 
ATOM     59  C   UNL A   1      40.405  34.355  31.979  1.00  0.00     0.031 C 
ATOM     60  C   UNL A   1      42.553  33.241  32.517  1.00  0.00     0.031 A 
BRANCH  47  61
ATOM     61  C   UNL A   1      45.709  27.970  31.832  1.00  0.00    -0.014 A 
ATOM     62  C   UNL A   1      45.798  27.190  32.999  1.00  0.00     0.010 A 
ATOM     63  C   UNL A   1      46.784  27.963  30.923  1.00  0.00     0.010 A 
ATOM     64  C   UNL A   1      46.951  26.449  33.271  1.00  0.00     0.020 A 
ATOM     65  C   UNL A   1      47.927  27.198  31.176  1.00  0.00     0.020 A 
ATOM     66  C   UNL A   1      48.008  26.457  32.357  1.00  0.00     0.054 A 
BRANCH  66  67
ATOM     67  S   UNL A   1      49.475  25.452  32.717  1.00  0.00     0.124 S 
ATOM     68  O   UNL A   1      50.363  26.431  33.340  1.00  0.00    -0.237 OA
ATOM     69  O   UNL A   1      48.946  24.426  33.613  1.00  0.00    -0.237 OA
ATOM     70  O   UNL A   1      49.899  24.972  31.405  1.00  0.00    -0.744 OA
ENDBRANCH  66  67
ENDBRANCH  47  61
BRANCH  48  71
ATOM     71  C   UNL A   1      37.154  32.762  29.802  1.00  0.00    -0.014 A 
ATOM     72  C   UNL A   1      36.953  33.480  28.609  1.00  0.00     0.010 A 
ATOM     73  C   UNL A   1      36.115  32.716  30.750  1.00  0.00     0.010 A 
ATOM     74  C   UNL A   1      35.751  34.160  28.382  1.00  0.00     0.020 A 
ATOM     75  C   UNL A   1      34.901  33.367  30.513  1.00  0.00     0.020 A 
ATOM     76  C   UNL A   1      34.733  34.098  29.335  1.00  0.00     0.054 A 
BRANCH  76  77
ATOM     77  S   UNL A   1      33.168  34.955  29.002  1.00  0.00     0.124 S 
ATOM     78  O   UNL A   1      32.537  34.954  30.318  1.00  0.00    -0.237 OA
ATOM     79  O   UNL A   1      33.619  36.256  28.516  1.00  0.00    -0.237 OA
ATOM     80  O   UNL A   1      32.523  34.111  27.998  1.00  0.00    -0.744 OA
ENDBRANCH  76  77
ENDBRANCH  48  71
BRANCH  60  81
ATOM     81  C   UNL A   1      42.984  34.501  33.217  1.00  0.00    -0.014 A 
ATOM     82  C   UNL A   1      42.800  34.669  34.601  1.00  0.00     0.010 A 
ATOM     83  C   UNL A   1      43.639  35.509  32.484  1.00  0.00     0.010 A 
ATOM     84  C   UNL A   1      43.232  35.838  35.233  1.00  0.00     0.020 A 
ATOM     85  C   UNL A   1      44.099  36.665  33.118  1.00  0.00     0.020 A 
ATOM     86  C   UNL A   1      43.880  36.828  34.487  1.00  0.00     0.054 A 
BRANCH  86  87
ATOM     87  S   UNL A   1      44.467  38.316  35.339  1.00  0.00     0.124 S 
ATOM     88  O   UNL A   1      43.798  39.378  34.591  1.00  0.00    -0.237 OA
ATOM     89  O   UNL A   1      43.989  38.113  36.704  1.00  0.00    -0.237 OA
ATOM     90  O   UNL A   1      45.917  38.260  35.177  1.00  0.00    -0.744 OA
ENDBRANCH  86  87
ENDBRANCH  60  81
ENDBRANCH  34  35
ENDBRANCH  26  29
ENDBRANCH   1  25
TORSDOF 14
ENDMDL
MODEL 3
REMARK VINA RESULT:     -11.1      2.586      3.129
REMARK SMILES O=C(NCCCNC(=O)c1ccc(-c2c3nc(c(-c4ccc(S(=O)(=O)[O-])cc4)c4ccc([nH]4)c(-c4ccc(S(=O)(=O)[O-])cc4)c4nc(c(-c5ccc(S(=O)(=O)[O-])cc5)c5ccc2[nH]5)C=C4)C=C3)cc1)C1=Cc2c(cc(Cl)c(Cl)c2Cl)O[C@H]1C(F)(F)F
REMARK SMILES IDX 6 1 5 2 4 3 3 4 1 5 2 6 70 8 71 9 82 10 72 11 81 12 73 13
REMARK SMILES IDX 79 14 74 15 77 16 80 17 75 18 78 19 76 20 83 21 84 22 85 23
REMARK SMILES IDX 86 24 7 25 8 26 9 28 10 29 11 30 69 31 12 32 68 33 13 34
REMARK SMILES IDX 14 35 15 36 62 37 16 38 67 39 61 40 63 41 17 42 66 43 60 44
REMARK SMILES IDX 59 45 18 47 48 48 29 49 47 50 30 51 33 52 46 53 64 54 31 55
REMARK SMILES IDX 32 56 45 58 65 59 34 60 19 61 20 62 28 63 21 64 27 65 22 66
REMARK SMILES IDX 23 67 24 68 25 69 26 70 49 71 50 72 58 73 51 74 57 75 52 76
REMARK SMILES IDX 53 77 54 78 55 79 56 80 35 81 36 82 44 83 37 84 43 85 38 86
REMARK SMILES IDX 39 87 40 88 41 89 42 90
REMARK H PARENT 3 7 7 27 63 46 33 57
REMARK Flexibility Score: inf
ROOT
ATOM      1  C   UNL A   1      33.720  28.713  25.961  1.00  0.00     0.118 C 
ENDROOT
BRANCH   1   2
ATOM      2  C   UNL A   1      33.830  28.613  24.451  1.00  0.00     0.042 C 
BRANCH   2   3
ATOM      3  C   UNL A   1      32.819  27.705  23.789  1.00  0.00     0.118 C 
BRANCH   3   4
ATOM      4  N   UNL A   1      33.309  26.694  22.880  1.00  0.00    -0.352 N 
ATOM      5  O   UNL A   1      34.043  24.634  22.312  1.00  0.00    -0.270 OA
ATOM      6  C   UNL A   1      33.602  25.386  23.176  1.00  0.00     0.251 C 
ATOM      7  H   UNL A   1      33.449  26.974  21.946  1.00  0.00     0.163 HD
BRANCH   6   8
ATOM      8  C   UNL A   1      33.445  24.876  24.569  1.00  0.00     0.067 C 
ATOM      9  C   UNL A   1      34.535  24.571  25.295  1.00  0.00     0.027 C 
ATOM     10  C   UNL A   1      32.122  24.219  24.869  1.00  0.00     0.314 C 
ATOM     11  C   UNL A   1      34.686  23.094  25.427  1.00  0.00     0.037 A 
ATOM     12  O   UNL A   1      32.260  22.828  25.305  1.00  0.00    -0.475 OA
ATOM     13  C   UNL A   1      33.528  22.302  25.354  1.00  0.00     0.131 A 
ATOM     14  C   UNL A   1      35.958  22.490  25.371  1.00  0.00     0.072 A 
ATOM     15  C   UNL A   1      33.635  20.930  25.141  1.00  0.00     0.069 A 
ATOM     16  C   UNL A   1      36.065  21.112  25.112  1.00  0.00     0.079 A 
ATOM     17  Cl  UNL A   1      37.374  23.492  25.502  1.00  0.00    -0.082 Cl
ATOM     18  C   UNL A   1      34.896  20.348  24.967  1.00  0.00     0.064 A 
ATOM     19  Cl  UNL A   1      37.623  20.380  24.892  1.00  0.00    -0.081 Cl
ATOM     20  Cl  UNL A   1      34.932  18.689  24.476  1.00  0.00    -0.083 Cl
BRANCH  10  21
ATOM     21  C   UNL A   1      31.296  25.024  25.891  1.00  0.00     0.429 C 
ATOM     22  F   UNL A   1      30.715  24.244  26.831  1.00  0.00    -0.167 F 
ATOM     23  F   UNL A   1      32.070  25.924  26.544  1.00  0.00    -0.167 F 
ATOM     24  F   UNL A   1      30.294  25.717  25.295  1.00  0.00    -0.167 F 
ENDBRANCH  10  21
ENDBRANCH   6   8
ENDBRANCH   3   4
ENDBRANCH   2   3
ENDBRANCH   1   2
BRANCH   1  25
ATOM     25  N   UNL A   1      33.623  30.077  26.474  1.00  0.00    -0.352 N 
ATOM     26  C   UNL A   1      34.402  30.793  27.356  1.00  0.00     0.251 C 
ATOM     27  H   UNL A   1      32.853  30.581  26.124  1.00  0.00     0.163 HD
ATOM     28  O   UNL A   1      34.057  31.937  27.656  1.00  0.00    -0.269 OA
BRANCH  26  29
ATOM     29  C   UNL A   1      35.616  30.211  27.972  1.00  0.00     0.039 A 
ATOM     30  C   UNL A   1      36.820  30.221  27.259  1.00  0.00     0.014 A 
ATOM     31  C   UNL A   1      35.585  29.652  29.246  1.00  0.00     0.014 A 
ATOM     32  C   UNL A   1      37.997  29.768  27.868  1.00  0.00     0.010 A 
ATOM     33  C   UNL A   1      36.770  29.344  29.900  1.00  0.00     0.010 A 
ATOM     34  C   UNL A   1      37.993  29.384  29.217  1.00  0.00    -0.014 A 
BRANCH  34  35
ATOM     35  C   UNL A   1      39.234  28.999  29.942  1.00  0.00     0.031 A 
ATOM     36  C   UNL A   1      39.656  29.770  31.170  1.00  0.00     0.074 A 
ATOM     37  C   UNL A   1      40.031  28.030  29.445  1.00  0.00     0.049 A 
ATOM     38  N   UNL A   1      40.764  29.682  31.860  1.00  0.00    -0.248 NA
ATOM     39  C   UNL A   1      38.732  30.810  31.659  1.00  0.00     0.031 C 
ATOM     40  C   UNL A   1      39.768  27.249  28.233  1.00  0.00     0.029 A 
ATOM     41  N   UNL A   1      41.235  27.544  29.890  1.00  0.00    -0.354 N 
ATOM     42  C   UNL A   1      40.684  30.673  32.833  1.00  0.00     0.074 A 
ATOM     43  C   UNL A   1      39.451  31.391  32.607  1.00  0.00     0.031 C 
ATOM     44  C   UNL A   1      40.758  26.362  28.053  1.00  0.00     0.029 A 
ATOM     45  C   UNL A   1      41.754  26.541  29.104  1.00  0.00     0.049 A 
ATOM     46  H   UNL A   1      41.685  27.880  30.700  1.00  0.00     0.167 HD
ATOM     47  C   UNL A   1      41.545  30.945  33.842  1.00  0.00     0.031 A 
ATOM     48  C   UNL A   1      42.906  25.851  29.209  1.00  0.00     0.031 A 
ATOM     49  C   UNL A   1      42.748  30.197  34.090  1.00  0.00     0.049 A 
ATOM     50  C   UNL A   1      43.834  26.154  30.355  1.00  0.00     0.074 A 
ATOM     51  C   UNL A   1      43.648  30.338  35.132  1.00  0.00     0.029 A 
ATOM     52  N   UNL A   1      43.214  29.164  33.292  1.00  0.00    -0.354 N 
ATOM     53  N   UNL A   1      43.704  27.050  31.304  1.00  0.00    -0.248 NA
ATOM     54  C   UNL A   1      45.058  25.347  30.449  1.00  0.00     0.031 C 
ATOM     55  C   UNL A   1      44.687  29.424  34.934  1.00  0.00     0.029 A 
ATOM     56  C   UNL A   1      44.401  28.673  33.805  1.00  0.00     0.049 A 
ATOM     57  H   UNL A   1      42.767  28.830  32.482  1.00  0.00     0.167 HD
ATOM     58  C   UNL A   1      44.814  26.893  32.126  1.00  0.00     0.074 A 
ATOM     59  C   UNL A   1      45.594  25.805  31.571  1.00  0.00     0.031 C 
ATOM     60  C   UNL A   1      45.159  27.586  33.240  1.00  0.00     0.031 A 
BRANCH  47  61
ATOM     61  C   UNL A   1      41.210  32.092  34.762  1.00  0.00    -0.014 A 
ATOM     62  C   UNL A   1      40.446  31.895  35.927  1.00  0.00     0.010 A 
ATOM     63  C   UNL A   1      41.711  33.378  34.484  1.00  0.00     0.010 A 
ATOM     64  C   UNL A   1      40.158  32.967  36.775  1.00  0.00     0.020 A 
ATOM     65  C   UNL A   1      41.451  34.446  35.348  1.00  0.00     0.020 A 
ATOM     66  C   UNL A   1      40.663  34.236  36.481  1.00  0.00     0.054 A 
BRANCH  66  67
ATOM     67  S   UNL A   1      40.306  35.599  37.624  1.00  0.00     0.124 S 
ATOM     68  O   UNL A   1      39.258  35.021  38.462  1.00  0.00    -0.237 OA
ATOM     69  O   UNL A   1      41.593  35.807  38.284  1.00  0.00    -0.237 OA
ATOM     70  O   UNL A   1      39.875  36.684  36.747  1.00  0.00    -0.744 OA
ENDBRANCH  66  67
ENDBRANCH  47  61
BRANCH  48  71
ATOM     71  C   UNL A   1      43.242  24.796  28.211  1.00  0.00    -0.014 A 
ATOM     72  C   UNL A   1      44.005  25.105  27.071  1.00  0.00     0.010 A 
ATOM     73  C   UNL A   1      42.802  23.471  28.395  1.00  0.00     0.010 A 
ATOM     74  C   UNL A   1      44.299  24.120  26.122  1.00  0.00     0.020 A 
ATOM     75  C   UNL A   1      43.120  22.477  27.466  1.00  0.00     0.020 A 
ATOM     76  C   UNL A   1      43.855  22.812  26.327  1.00  0.00     0.054 A 
BRANCH  76  77
ATOM     77  S   UNL A   1      44.279  21.541  25.102  1.00  0.00     0.124 S 
ATOM     78  O   UNL A   1      44.108  22.262  23.845  1.00  0.00    -0.237 OA
ATOM     79  O   UNL A   1      45.656  21.208  25.459  1.00  0.00    -0.237 OA
ATOM     80  O   UNL A   1      43.303  20.483  25.356  1.00  0.00    -0.744 OA
ENDBRANCH  76  77
ENDBRANCH  48  71
BRANCH  60  81
ATOM     81  C   UNL A   1      46.414  27.166  33.956  1.00  0.00    -0.014 A 
ATOM     82  C   UNL A   1      47.655  27.759  33.664  1.00  0.00     0.010 A 
ATOM     83  C   UNL A   1      46.336  26.202  34.978  1.00  0.00     0.010 A 
ATOM     84  C   UNL A   1      48.803  27.370  34.360  1.00  0.00     0.020 A 
ATOM     85  C   UNL A   1      47.475  25.833  35.696  1.00  0.00     0.020 A 
ATOM     86  C   UNL A   1      48.705  26.410  35.373  1.00  0.00     0.054 A 
BRANCH  86  87
ATOM     87  S   UNL A   1      50.201  25.953  36.288  1.00  0.00     0.124 S 
ATOM     88  O   UNL A   1      50.006  24.520  36.494  1.00  0.00    -0.237 OA
ATOM     89  O   UNL A   1      51.268  26.314  35.357  1.00  0.00    -0.237 OA
ATOM     90  O   UNL A   1      50.133  26.771  37.496  1.00  0.00    -0.744 OA
ENDBRANCH  86  87
ENDBRANCH  60  81
ENDBRANCH  34  35
ENDBRANCH  26  29
ENDBRANCH   1  25
TORSDOF 14
ENDMDL
