MODEL 1
REMARK VINA RESULT:      -9.7      0.000      0.000
REMARK SMILES [NH3+][C@H]1C=C[C@@H](C(=O)NC2(CC(=O)NCCCNC(=O)c3ccc(-c4c5nc(c(-c6ccc(S(=O)(=O)[O-])cc6)c6ccc([nH]6)c(-c6ccc(S(=O)(=O)[O-])cc6)c6nc(c(-c7ccc(S(=O)(=O)[O-])cc7)c7ccc4[nH]7)C=C6)C=C5)cc3)CCC2)C1
REMARK SMILES IDX 14 1 13 2 11 3 12 4 10 6 9 7 80 8 82 9 81 10 8 11 6 12 7 13
REMARK SMILES IDX 5 15 2 16 3 17 83 18 4 19 1 20 15 24 16 25 17 26 18 27 19 29
REMARK SMILES IDX 20 30 21 31 79 32 22 33 78 34 23 35 24 36 25 37 72 38 26 39
REMARK SMILES IDX 77 40 71 41 73 42 27 43 76 44 70 45 69 46 28 48 58 49 39 50
REMARK SMILES IDX 57 51 40 52 43 53 56 54 74 55 41 56 42 57 55 59 75 60 44 61
REMARK SMILES IDX 29 62 30 63 38 64 31 65 37 66 32 67 33 68 34 69 35 70 36 71
REMARK SMILES IDX 59 72 60 73 68 74 61 75 67 76 62 77 63 78 64 79 65 80 66 81
REMARK SMILES IDX 45 82 46 83 54 84 47 85 53 86 48 87 49 88 50 89 51 90 52 91
REMARK H PARENT 13 5 8 14 1 21 1 22 1 23 17 28 73 47 43 58
REMARK Flexibility Score: inf
ROOT
ATOM      1  C   UNL A   1      42.593  22.740  26.757  1.00  0.00     0.117 C 
ENDROOT
BRANCH   1   2
ATOM      2  N   UNL A   1      43.990  22.343  26.775  1.00  0.00    -0.356 N 
ATOM      3  C   UNL A   1      45.017  22.724  25.969  1.00  0.00     0.222 C 
ATOM      4  O   UNL A   1      46.097  22.138  26.084  1.00  0.00    -0.275 OA
ATOM      5  H   UNL A   1      44.230  21.698  27.480  1.00  0.00     0.163 HD
BRANCH   3   6
ATOM      6  C   UNL A   1      44.868  23.847  24.965  1.00  0.00     0.128 C 
BRANCH   6   7
ATOM      7  C   UNL A   1      45.102  25.285  25.492  1.00  0.00     0.049 C 
ATOM      8  C   UNL A   1      46.492  25.859  25.056  1.00  0.00     0.029 C 
ATOM      9  C   UNL A   1      45.653  25.290  26.931  1.00  0.00     0.029 C 
ATOM     10  C   UNL A   1      47.082  25.314  26.363  1.00  0.00     0.005 C 
BRANCH   7  11
ATOM     11  N   UNL A   1      44.001  26.172  25.054  1.00  0.00    -0.350 N 
ATOM     12  C   UNL A   1      43.504  27.409  25.312  1.00  0.00     0.227 C 
ATOM     13  O   UNL A   1      42.605  27.765  24.531  1.00  0.00    -0.274 OA
ATOM     14  H   UNL A   1      43.463  25.728  24.360  1.00  0.00     0.164 HD
BRANCH  12  15
ATOM     15  C   UNL A   1      43.879  28.369  26.444  1.00  0.00     0.107 C 
ATOM     16  C   UNL A   1      45.198  30.386  26.903  1.00  0.00     0.205 C 
ATOM     17  C   UNL A   1      43.724  30.633  27.003  1.00  0.00     0.033 C 
ATOM     18  C   UNL A   1      45.284  28.963  26.331  1.00  0.00     0.087 C 
ATOM     19  C   UNL A   1      42.999  29.541  26.726  1.00  0.00    -0.012 C 
BRANCH  16  20
ATOM     20  N   UNL A   1      45.862  31.333  26.016  1.00  0.00    -0.352 N 
ATOM     21  H   UNL A   1      46.118  30.864  25.148  1.00  0.00     0.345 HD
ATOM     22  H   UNL A   1      46.702  31.692  26.469  1.00  0.00     0.345 HD
ATOM     23  H   UNL A   1      45.229  32.107  25.811  1.00  0.00     0.345 HD
ENDBRANCH  16  20
ENDBRANCH  12  15
ENDBRANCH   7  11
ENDBRANCH   6   7
ENDBRANCH   3   6
ENDBRANCH   1   2
BRANCH   1  24
ATOM     24  C   UNL A   1      41.712  21.661  26.133  1.00  0.00     0.042 C 
BRANCH  24  25
ATOM     25  C   UNL A   1      40.349  21.483  26.794  1.00  0.00     0.118 C 
BRANCH  25  26
ATOM     26  N   UNL A   1      39.272  21.978  25.953  1.00  0.00    -0.352 N 
ATOM     27  C   UNL A   1      38.632  23.194  25.945  1.00  0.00     0.251 C 
ATOM     28  H   UNL A   1      38.947  21.337  25.280  1.00  0.00     0.163 HD
ATOM     29  O   UNL A   1      37.592  23.302  25.296  1.00  0.00    -0.269 OA
BRANCH  27  30
ATOM     30  C   UNL A   1      39.153  24.370  26.690  1.00  0.00     0.039 A 
ATOM     31  C   UNL A   1      38.733  24.553  28.014  1.00  0.00     0.014 A 
ATOM     32  C   UNL A   1      39.964  25.339  26.093  1.00  0.00     0.014 A 
ATOM     33  C   UNL A   1      39.148  25.676  28.740  1.00  0.00     0.010 A 
ATOM     34  C   UNL A   1      40.427  26.429  26.838  1.00  0.00     0.010 A 
ATOM     35  C   UNL A   1      40.016  26.618  28.166  1.00  0.00    -0.014 A 
BRANCH  35  36
ATOM     36  C   UNL A   1      40.485  27.801  28.939  1.00  0.00     0.031 A 
ATOM     37  C   UNL A   1      41.859  27.819  29.558  1.00  0.00     0.074 A 
ATOM     38  C   UNL A   1      39.666  28.858  29.110  1.00  0.00     0.049 A 
ATOM     39  N   UNL A   1      42.418  28.744  30.298  1.00  0.00    -0.248 NA
ATOM     40  C   UNL A   1      42.712  26.643  29.325  1.00  0.00     0.031 C 
ATOM     41  C   UNL A   1      38.308  28.973  28.575  1.00  0.00     0.029 A 
ATOM     42  N   UNL A   1      39.858  30.042  29.780  1.00  0.00    -0.354 N 
ATOM     43  C   UNL A   1      43.677  28.257  30.630  1.00  0.00     0.074 A 
ATOM     44  C   UNL A   1      43.787  26.940  30.041  1.00  0.00     0.031 C 
ATOM     45  C   UNL A   1      37.804  30.171  28.909  1.00  0.00     0.029 A 
ATOM     46  C   UNL A   1      38.782  30.895  29.715  1.00  0.00     0.049 A 
ATOM     47  H   UNL A   1      40.690  30.259  30.260  1.00  0.00     0.167 HD
ATOM     48  C   UNL A   1      44.661  28.857  31.345  1.00  0.00     0.031 A 
ATOM     49  C   UNL A   1      38.597  32.121  30.245  1.00  0.00     0.031 A 
ATOM     50  C   UNL A   1      44.563  30.172  31.924  1.00  0.00     0.049 A 
ATOM     51  C   UNL A   1      39.694  32.757  31.050  1.00  0.00     0.074 A 
ATOM     52  C   UNL A   1      45.522  30.868  32.642  1.00  0.00     0.029 A 
ATOM     53  N   UNL A   1      43.449  30.992  31.846  1.00  0.00    -0.354 N 
ATOM     54  N   UNL A   1      40.883  32.284  31.340  1.00  0.00    -0.248 NA
ATOM     55  C   UNL A   1      39.428  34.096  31.595  1.00  0.00     0.031 C 
ATOM     56  C   UNL A   1      44.974  32.093  33.032  1.00  0.00     0.029 A 
ATOM     57  C   UNL A   1      43.692  32.182  32.514  1.00  0.00     0.049 A 
ATOM     58  H   UNL A   1      42.610  30.764  31.387  1.00  0.00     0.167 HD
ATOM     59  C   UNL A   1      41.514  33.277  32.080  1.00  0.00     0.074 A 
ATOM     60  C   UNL A   1      40.582  34.380  32.186  1.00  0.00     0.031 C 
ATOM     61  C   UNL A   1      42.758  33.274  32.619  1.00  0.00     0.031 A 
BRANCH  48  62
ATOM     62  C   UNL A   1      45.943  28.091  31.546  1.00  0.00    -0.014 A 
ATOM     63  C   UNL A   1      46.152  27.327  32.708  1.00  0.00     0.010 A 
ATOM     64  C   UNL A   1      46.921  28.083  30.535  1.00  0.00     0.010 A 
ATOM     65  C   UNL A   1      47.330  26.593  32.870  1.00  0.00     0.020 A 
ATOM     66  C   UNL A   1      48.090  27.330  30.682  1.00  0.00     0.020 A 
ATOM     67  C   UNL A   1      48.293  26.600  31.856  1.00  0.00     0.054 A 
BRANCH  67  68
ATOM     68  S   UNL A   1      49.795  25.607  32.076  1.00  0.00     0.124 S 
ATOM     69  O   UNL A   1      49.338  24.568  32.995  1.00  0.00    -0.237 OA
ATOM     70  O   UNL A   1      50.086  25.159  30.716  1.00  0.00    -0.237 OA
ATOM     71  O   UNL A   1      50.758  26.554  32.636  1.00  0.00    -0.744 OA
ENDBRANCH  67  68
ENDBRANCH  48  62
BRANCH  49  72
ATOM     72  C   UNL A   1      37.317  32.840  30.001  1.00  0.00    -0.014 A 
ATOM     73  C   UNL A   1      37.130  33.570  28.815  1.00  0.00     0.010 A 
ATOM     74  C   UNL A   1      36.271  32.770  30.939  1.00  0.00     0.010 A 
ATOM     75  C   UNL A   1      35.916  34.219  28.568  1.00  0.00     0.020 A 
ATOM     76  C   UNL A   1      35.048  33.399  30.684  1.00  0.00     0.020 A 
ATOM     77  C   UNL A   1      34.881  34.123  29.502  1.00  0.00     0.054 A 
BRANCH  77  78
ATOM     78  S   UNL A   1      33.286  34.899  29.122  1.00  0.00     0.124 S 
ATOM     79  O   UNL A   1      32.743  34.000  28.110  1.00  0.00    -0.237 OA
ATOM     80  O   UNL A   1      32.608  34.881  30.416  1.00  0.00    -0.237 OA
ATOM     81  O   UNL A   1      33.661  36.230  28.645  1.00  0.00    -0.744 OA
ENDBRANCH  77  78
ENDBRANCH  49  72
BRANCH  61  82
ATOM     82  C   UNL A   1      43.202  34.511  33.352  1.00  0.00    -0.014 A 
ATOM     83  C   UNL A   1      43.161  34.580  34.756  1.00  0.00     0.010 A 
ATOM     84  C   UNL A   1      43.719  35.599  32.627  1.00  0.00     0.010 A 
ATOM     85  C   UNL A   1      43.605  35.727  35.419  1.00  0.00     0.020 A 
ATOM     86  C   UNL A   1      44.186  36.739  33.288  1.00  0.00     0.020 A 
ATOM     87  C   UNL A   1      44.112  36.801  34.680  1.00  0.00     0.054 A 
BRANCH  87  88
ATOM     88  S   UNL A   1      44.722  38.263  35.566  1.00  0.00     0.124 S 
ATOM     89  O   UNL A   1      46.168  38.115  35.435  1.00  0.00    -0.237 OA
ATOM     90  O   UNL A   1      44.132  39.366  34.812  1.00  0.00    -0.237 OA
ATOM     91  O   UNL A   1      44.198  38.091  36.918  1.00  0.00    -0.744 OA
ENDBRANCH  87  88
ENDBRANCH  61  82
ENDBRANCH  35  36
ENDBRANCH  27  30
ENDBRANCH  25  26
ENDBRANCH  24  25
ENDBRANCH   1  24
TORSDOF 17
ENDMDL
MODEL 2
REMARK VINA RESULT:      -9.5      4.757     11.901
REMARK SMILES [NH3+][C@H]1C=C[C@@H](C(=O)NC2(CC(=O)NCCCNC(=O)c3ccc(-c4c5nc(c(-c6ccc(S(=O)(=O)[O-])cc6)c6ccc([nH]6)c(-c6ccc(S(=O)(=O)[O-])cc6)c6nc(c(-c7ccc(S(=O)(=O)[O-])cc7)c7ccc4[nH]7)C=C6)C=C5)cc3)CCC2)C1
REMARK SMILES IDX 14 1 13 2 11 3 12 4 10 6 9 7 80 8 82 9 81 10 8 11 6 12 7 13
REMARK SMILES IDX 5 15 2 16 3 17 83 18 4 19 1 20 15 24 16 25 17 26 18 27 19 29
REMARK SMILES IDX 20 30 21 31 79 32 22 33 78 34 23 35 24 36 25 37 72 38 26 39
REMARK SMILES IDX 77 40 71 41 73 42 27 43 76 44 70 45 69 46 28 48 58 49 39 50
REMARK SMILES IDX 57 51 40 52 43 53 56 54 74 55 41 56 42 57 55 59 75 60 44 61
REMARK SMILES IDX 29 62 30 63 38 64 31 65 37 66 32 67 33 68 34 69 35 70 36 71
REMARK SMILES IDX 59 72 60 73 68 74 61 75 67 76 62 77 63 78 64 79 65 80 66 81
REMARK SMILES IDX 45 82 46 83 54 84 47 85 53 86 48 87 49 88 50 89 51 90 52 91
REMARK H PARENT 13 5 8 14 1 21 1 22 1 23 17 28 73 47 43 58
REMARK Flexibility Score: inf
ROOT
ATOM      1  C   UNL A   1      33.284  30.449  26.791  1.00  0.00     0.117 C 
ENDROOT
BRANCH   1   2
ATOM      2  N   UNL A   1      32.605  29.465  27.616  1.00  0.00    -0.356 N 
ATOM      3  C   UNL A   1      31.786  28.440  27.259  1.00  0.00     0.222 C 
ATOM      4  O   UNL A   1      31.202  27.820  28.152  1.00  0.00    -0.275 OA
ATOM      5  H   UNL A   1      32.760  29.556  28.585  1.00  0.00     0.163 HD
BRANCH   3   6
ATOM      6  C   UNL A   1      31.596  28.039  25.811  1.00  0.00     0.128 C 
BRANCH   6   7
ATOM      7  C   UNL A   1      32.107  26.633  25.408  1.00  0.00     0.049 C 
ATOM      8  C   UNL A   1      33.657  26.490  25.583  1.00  0.00     0.029 C 
ATOM      9  C   UNL A   1      32.359  26.523  23.891  1.00  0.00     0.029 C 
ATOM     10  C   UNL A   1      33.822  26.937  24.125  1.00  0.00     0.005 C 
BRANCH   7  11
ATOM     11  N   UNL A   1      31.388  25.592  26.177  1.00  0.00    -0.350 N 
ATOM     12  C   UNL A   1      31.314  24.239  26.267  1.00  0.00     0.227 C 
ATOM     13  O   UNL A   1      30.629  23.834  27.222  1.00  0.00    -0.274 OA
ATOM     14  H   UNL A   1      30.775  26.010  26.823  1.00  0.00     0.164 HD
BRANCH  12  15
ATOM     15  C   UNL A   1      31.916  23.187  25.332  1.00  0.00     0.107 C 
ATOM     16  C   UNL A   1      32.532  22.821  22.985  1.00  0.00     0.205 C 
ATOM     17  C   UNL A   1      33.728  22.900  23.884  1.00  0.00     0.033 C 
ATOM     18  C   UNL A   1      31.368  23.221  23.904  1.00  0.00     0.087 C 
ATOM     19  C   UNL A   1      33.397  23.128  25.162  1.00  0.00    -0.012 C 
BRANCH  16  20
ATOM     20  N   UNL A   1      32.626  23.735  21.854  1.00  0.00    -0.352 N 
ATOM     21  H   UNL A   1      33.256  24.503  22.087  1.00  0.00     0.345 HD
ATOM     22  H   UNL A   1      31.700  24.108  21.639  1.00  0.00     0.345 HD
ATOM     23  H   UNL A   1      32.988  23.234  21.042  1.00  0.00     0.345 HD
ENDBRANCH  16  20
ENDBRANCH  12  15
ENDBRANCH   7  11
ENDBRANCH   6   7
ENDBRANCH   3   6
ENDBRANCH   1   2
BRANCH   1  24
ATOM     24  C   UNL A   1      34.156  31.378  27.629  1.00  0.00     0.042 C 
BRANCH  24  25
ATOM     25  C   UNL A   1      35.423  30.737  28.190  1.00  0.00     0.118 C 
BRANCH  25  26
ATOM     26  N   UNL A   1      35.411  30.700  29.643  1.00  0.00    -0.352 N 
ATOM     27  C   UNL A   1      36.344  30.222  30.531  1.00  0.00     0.251 C 
ATOM     28  H   UNL A   1      34.603  31.078  30.059  1.00  0.00     0.163 HD
ATOM     29  O   UNL A   1      36.013  30.085  31.708  1.00  0.00    -0.269 OA
BRANCH  27  30
ATOM     30  C   UNL A   1      37.727  29.867  30.115  1.00  0.00     0.039 A 
ATOM     31  C   UNL A   1      38.050  29.949  28.755  1.00  0.00     0.014 A 
ATOM     32  C   UNL A   1      38.676  29.370  31.013  1.00  0.00     0.014 A 
ATOM     33  C   UNL A   1      39.320  29.570  28.305  1.00  0.00     0.010 A 
ATOM     34  C   UNL A   1      39.965  29.048  30.570  1.00  0.00     0.010 A 
ATOM     35  C   UNL A   1      40.299  29.133  29.211  1.00  0.00    -0.014 A 
BRANCH  35  36
ATOM     36  C   UNL A   1      41.661  28.753  28.744  1.00  0.00     0.031 A 
ATOM     37  C   UNL A   1      42.770  29.773  28.700  1.00  0.00     0.074 A 
ATOM     38  C   UNL A   1      41.902  27.492  28.334  1.00  0.00     0.049 A 
ATOM     39  N   UNL A   1      44.004  29.631  28.285  1.00  0.00    -0.248 NA
ATOM     40  C   UNL A   1      42.450  31.128  29.174  1.00  0.00     0.031 C 
ATOM     41  C   UNL A   1      40.922  26.404  28.315  1.00  0.00     0.029 A 
ATOM     42  N   UNL A   1      43.051  26.908  27.858  1.00  0.00    -0.354 N 
ATOM     43  C   UNL A   1      44.601  30.878  28.432  1.00  0.00     0.074 A 
ATOM     44  C   UNL A   1      43.584  31.773  28.942  1.00  0.00     0.031 C 
ATOM     45  C   UNL A   1      41.518  25.282  27.883  1.00  0.00     0.029 A 
ATOM     46  C   UNL A   1      42.910  25.574  27.555  1.00  0.00     0.049 A 
ATOM     47  H   UNL A   1      43.897  27.400  27.745  1.00  0.00     0.167 HD
ATOM     48  C   UNL A   1      45.883  31.244  28.183  1.00  0.00     0.031 A 
ATOM     49  C   UNL A   1      43.796  24.684  27.066  1.00  0.00     0.031 A 
ATOM     50  C   UNL A   1      46.903  30.356  27.687  1.00  0.00     0.049 A 
ATOM     51  C   UNL A   1      45.205  25.117  26.779  1.00  0.00     0.074 A 
ATOM     52  C   UNL A   1      48.235  30.636  27.432  1.00  0.00     0.029 A 
ATOM     53  N   UNL A   1      46.710  29.019  27.379  1.00  0.00    -0.354 N 
ATOM     54  N   UNL A   1      45.752  26.298  26.940  1.00  0.00    -0.248 NA
ATOM     55  C   UNL A   1      46.121  24.094  26.252  1.00  0.00     0.031 C 
ATOM     56  C   UNL A   1      48.839  29.478  26.932  1.00  0.00     0.029 A 
ATOM     57  C   UNL A   1      47.895  28.463  26.925  1.00  0.00     0.049 A 
ATOM     58  H   UNL A   1      45.858  28.535  27.470  1.00  0.00     0.167 HD
ATOM     59  C   UNL A   1      47.081  26.155  26.555  1.00  0.00     0.074 A 
ATOM     60  C   UNL A   1      47.259  24.772  26.165  1.00  0.00     0.031 C 
ATOM     61  C   UNL A   1      48.064  27.087  26.533  1.00  0.00     0.031 A 
BRANCH  48  62
ATOM     62  C   UNL A   1      46.263  32.678  28.443  1.00  0.00    -0.014 A 
ATOM     63  C   UNL A   1      46.081  33.663  27.456  1.00  0.00     0.010 A 
ATOM     64  C   UNL A   1      46.744  33.058  29.710  1.00  0.00     0.010 A 
ATOM     65  C   UNL A   1      46.404  34.997  27.719  1.00  0.00     0.020 A 
ATOM     66  C   UNL A   1      47.044  34.395  29.985  1.00  0.00     0.020 A 
ATOM     67  C   UNL A   1      46.886  35.354  28.983  1.00  0.00     0.054 A 
BRANCH  67  68
ATOM     68  S   UNL A   1      47.260  37.099  29.309  1.00  0.00     0.124 S 
ATOM     69  O   UNL A   1      46.381  37.778  28.361  1.00  0.00    -0.237 OA
ATOM     70  O   UNL A   1      46.900  37.247  30.717  1.00  0.00    -0.237 OA
ATOM     71  O   UNL A   1      48.689  37.208  29.021  1.00  0.00    -0.744 OA
ENDBRANCH  67  68
ENDBRANCH  48  62
BRANCH  49  72
ATOM     72  C   UNL A   1      43.373  23.275  26.843  1.00  0.00    -0.014 A 
ATOM     73  C   UNL A   1      43.372  22.732  25.546  1.00  0.00     0.010 A 
ATOM     74  C   UNL A   1      43.003  22.461  27.929  1.00  0.00     0.010 A 
ATOM     75  C   UNL A   1      43.008  21.398  25.338  1.00  0.00     0.020 A 
ATOM     76  C   UNL A   1      42.661  21.121  27.726  1.00  0.00     0.020 A 
ATOM     77  C   UNL A   1      42.661  20.599  26.431  1.00  0.00     0.054 A 
BRANCH  77  78
ATOM     78  S   UNL A   1      42.277  18.849  26.148  1.00  0.00     0.124 S 
ATOM     79  O   UNL A   1      40.869  18.904  25.768  1.00  0.00    -0.237 OA
ATOM     80  O   UNL A   1      43.208  18.488  25.082  1.00  0.00    -0.237 OA
ATOM     81  O   UNL A   1      42.556  18.227  27.442  1.00  0.00    -0.744 OA
ENDBRANCH  77  78
ENDBRANCH  49  72
BRANCH  61  82
ATOM     82  C   UNL A   1      49.435  26.643  26.098  1.00  0.00    -0.014 A 
ATOM     83  C   UNL A   1      49.899  26.885  24.793  1.00  0.00     0.010 A 
ATOM     84  C   UNL A   1      50.291  26.023  27.026  1.00  0.00     0.010 A 
ATOM     85  C   UNL A   1      51.185  26.491  24.416  1.00  0.00     0.020 A 
ATOM     86  C   UNL A   1      51.586  25.649  26.660  1.00  0.00     0.020 A 
ATOM     87  C   UNL A   1      52.020  25.872  25.353  1.00  0.00     0.054 A 
BRANCH  87  88
ATOM     88  S   UNL A   1      53.702  25.407  24.853  1.00  0.00     0.124 S 
ATOM     89  O   UNL A   1      53.823  26.060  23.553  1.00  0.00    -0.237 OA
ATOM     90  O   UNL A   1      54.524  25.973  25.920  1.00  0.00    -0.237 OA
ATOM     91  O   UNL A   1      53.660  23.948  24.815  1.00  0.00    -0.744 OA
ENDBRANCH  87  88
ENDBRANCH  61  82
ENDBRANCH  35  36
ENDBRANCH  27  30
ENDBRANCH  25  26
ENDBRANCH  24  25
ENDBRANCH   1  24
TORSDOF 17
ENDMDL
MODEL 3
REMARK VINA RESULT:      -9.5      3.841     10.831
REMARK SMILES [NH3+][C@H]1C=C[C@@H](C(=O)NC2(CC(=O)NCCCNC(=O)c3ccc(-c4c5nc(c(-c6ccc(S(=O)(=O)[O-])cc6)c6ccc([nH]6)c(-c6ccc(S(=O)(=O)[O-])cc6)c6nc(c(-c7ccc(S(=O)(=O)[O-])cc7)c7ccc4[nH]7)C=C6)C=C5)cc3)CCC2)C1
REMARK SMILES IDX 14 1 13 2 11 3 12 4 10 6 9 7 80 8 82 9 81 10 8 11 6 12 7 13
REMARK SMILES IDX 5 15 2 16 3 17 83 18 4 19 1 20 15 24 16 25 17 26 18 27 19 29
REMARK SMILES IDX 20 30 21 31 79 32 22 33 78 34 23 35 24 36 25 37 72 38 26 39
REMARK SMILES IDX 77 40 71 41 73 42 27 43 76 44 70 45 69 46 28 48 58 49 39 50
REMARK SMILES IDX 57 51 40 52 43 53 56 54 74 55 41 56 42 57 55 59 75 60 44 61
REMARK SMILES IDX 29 62 30 63 38 64 31 65 37 66 32 67 33 68 34 69 35 70 36 71
REMARK SMILES IDX 59 72 60 73 68 74 61 75 67 76 62 77 63 78 64 79 65 80 66 81
REMARK SMILES IDX 45 82 46 83 54 84 47 85 53 86 48 87 49 88 50 89 51 90 52 91
REMARK H PARENT 13 5 8 14 1 21 1 22 1 23 17 28 73 47 43 58
REMARK Flexibility Score: inf
ROOT
ATOM      1  C   UNL A   1      32.977  28.289  23.946  1.00  0.00     0.117 C 
ENDROOT
BRANCH   1   2
ATOM      2  N   UNL A   1      33.387  27.457  22.828  1.00  0.00    -0.356 N 
ATOM      3  C   UNL A   1      33.014  26.191  22.499  1.00  0.00     0.222 C 
ATOM      4  O   UNL A   1      33.611  25.628  21.577  1.00  0.00    -0.275 OA
ATOM      5  H   UNL A   1      34.036  27.873  22.215  1.00  0.00     0.163 HD
BRANCH   3   6
ATOM      6  C   UNL A   1      31.887  25.480  23.217  1.00  0.00     0.128 C 
BRANCH   6   7
ATOM      7  C   UNL A   1      32.286  24.295  24.133  1.00  0.00     0.049 C 
ATOM      8  C   UNL A   1      31.378  24.194  25.404  1.00  0.00     0.029 C 
ATOM      9  C   UNL A   1      33.433  24.668  25.092  1.00  0.00     0.029 C 
ATOM     10  C   UNL A   1      32.391  25.073  26.148  1.00  0.00     0.005 C 
BRANCH   7  11
ATOM     11  N   UNL A   1      32.266  23.030  23.364  1.00  0.00    -0.350 N 
ATOM     12  C   UNL A   1      32.635  21.731  23.500  1.00  0.00     0.227 C 
ATOM     13  O   UNL A   1      32.247  20.996  22.576  1.00  0.00    -0.274 OA
ATOM     14  H   UNL A   1      31.857  23.176  22.480  1.00  0.00     0.164 HD
BRANCH  12  15
ATOM     15  C   UNL A   1      33.486  21.093  24.602  1.00  0.00     0.107 C 
ATOM     16  C   UNL A   1      35.381  21.563  26.088  1.00  0.00     0.205 C 
ATOM     17  C   UNL A   1      34.087  21.439  26.834  1.00  0.00     0.033 C 
ATOM     18  C   UNL A   1      34.948  21.547  24.614  1.00  0.00     0.087 C 
ATOM     19  C   UNL A   1      33.046  21.210  26.022  1.00  0.00    -0.012 C 
BRANCH  16  20
ATOM     20  N   UNL A   1      36.086  22.800  26.399  1.00  0.00    -0.352 N 
ATOM     21  H   UNL A   1      35.577  23.310  27.120  1.00  0.00     0.345 HD
ATOM     22  H   UNL A   1      36.153  23.374  25.558  1.00  0.00     0.345 HD
ATOM     23  H   UNL A   1      37.024  22.581  26.737  1.00  0.00     0.345 HD
ENDBRANCH  16  20
ENDBRANCH  12  15
ENDBRANCH   7  11
ENDBRANCH   6   7
ENDBRANCH   3   6
ENDBRANCH   1   2
BRANCH   1  24
ATOM     24  C   UNL A   1      34.140  28.570  24.892  1.00  0.00     0.042 C 
BRANCH  24  25
ATOM     25  C   UNL A   1      33.784  28.540  26.375  1.00  0.00     0.118 C 
BRANCH  25  26
ATOM     26  N   UNL A   1      33.667  29.878  26.930  1.00  0.00    -0.352 N 
ATOM     27  C   UNL A   1      34.491  30.564  27.789  1.00  0.00     0.251 C 
ATOM     28  H   UNL A   1      32.866  30.374  26.643  1.00  0.00     0.163 HD
ATOM     29  O   UNL A   1      34.067  31.598  28.303  1.00  0.00    -0.269 OA
BRANCH  27  30
ATOM     30  C   UNL A   1      35.864  30.096  28.114  1.00  0.00     0.039 A 
ATOM     31  C   UNL A   1      36.119  29.646  29.416  1.00  0.00     0.014 A 
ATOM     32  C   UNL A   1      36.920  30.177  27.202  1.00  0.00     0.014 A 
ATOM     33  C   UNL A   1      37.409  29.250  29.789  1.00  0.00     0.010 A 
ATOM     34  C   UNL A   1      38.196  29.725  27.558  1.00  0.00     0.010 A 
ATOM     35  C   UNL A   1      38.459  29.268  28.858  1.00  0.00    -0.014 A 
BRANCH  35  36
ATOM     36  C   UNL A   1      39.828  28.823  29.238  1.00  0.00     0.031 A 
ATOM     37  C   UNL A   1      40.742  29.731  30.019  1.00  0.00     0.074 A 
ATOM     38  C   UNL A   1      40.267  27.605  28.860  1.00  0.00     0.049 A 
ATOM     39  N   UNL A   1      41.978  29.527  30.400  1.00  0.00    -0.248 NA
ATOM     40  C   UNL A   1      40.202  31.041  30.416  1.00  0.00     0.031 C 
ATOM     41  C   UNL A   1      39.494  26.626  28.093  1.00  0.00     0.029 A 
ATOM     42  N   UNL A   1      41.472  26.980  29.073  1.00  0.00    -0.354 N 
ATOM     43  C   UNL A   1      42.368  30.684  31.066  1.00  0.00     0.074 A 
ATOM     44  C   UNL A   1      41.249  31.600  31.006  1.00  0.00     0.031 C 
ATOM     45  C   UNL A   1      40.230  25.516  27.930  1.00  0.00     0.029 A 
ATOM     46  C   UNL A   1      41.540  25.714  28.541  1.00  0.00     0.049 A 
ATOM     47  H   UNL A   1      42.216  27.401  29.562  1.00  0.00     0.167 HD
ATOM     48  C   UNL A   1      43.543  30.956  31.686  1.00  0.00     0.031 A 
ATOM     49  C   UNL A   1      42.542  24.813  28.541  1.00  0.00     0.031 A 
ATOM     50  C   UNL A   1      44.656  30.045  31.760  1.00  0.00     0.049 A 
ATOM     51  C   UNL A   1      43.842  25.144  29.217  1.00  0.00     0.074 A 
ATOM     52  C   UNL A   1      45.875  30.229  32.391  1.00  0.00     0.029 A 
ATOM     53  N   UNL A   1      44.686  28.781  31.194  1.00  0.00    -0.354 N 
ATOM     54  N   UNL A   1      44.183  26.238  29.853  1.00  0.00    -0.248 NA
ATOM     55  C   UNL A   1      44.890  24.113  29.183  1.00  0.00     0.031 C 
ATOM     56  C   UNL A   1      46.658  29.090  32.173  1.00  0.00     0.029 A 
ATOM     57  C   UNL A   1      45.907  28.178  31.450  1.00  0.00     0.049 A 
ATOM     58  H   UNL A   1      43.951  28.372  30.684  1.00  0.00     0.167 HD
ATOM     59  C   UNL A   1      45.477  26.020  30.314  1.00  0.00     0.074 A 
ATOM     60  C   UNL A   1      45.853  24.686  29.895  1.00  0.00     0.031 C 
ATOM     61  C   UNL A   1      46.277  26.852  31.025  1.00  0.00     0.031 A 
BRANCH  48  62
ATOM     62  C   UNL A   1      43.691  32.305  32.341  1.00  0.00    -0.014 A 
ATOM     63  C   UNL A   1      44.165  33.411  31.614  1.00  0.00     0.010 A 
ATOM     64  C   UNL A   1      43.291  32.483  33.678  1.00  0.00     0.010 A 
ATOM     65  C   UNL A   1      44.265  34.666  32.222  1.00  0.00     0.020 A 
ATOM     66  C   UNL A   1      43.366  33.742  34.281  1.00  0.00     0.020 A 
ATOM     67  C   UNL A   1      43.867  34.823  33.553  1.00  0.00     0.054 A 
BRANCH  67  68
ATOM     68  S   UNL A   1      43.972  36.471  34.304  1.00  0.00     0.124 S 
ATOM     69  O   UNL A   1      45.416  36.676  34.378  1.00  0.00    -0.237 OA
ATOM     70  O   UNL A   1      43.267  37.310  33.338  1.00  0.00    -0.237 OA
ATOM     71  O   UNL A   1      43.299  36.309  35.592  1.00  0.00    -0.744 OA
ENDBRANCH  67  68
ENDBRANCH  48  62
BRANCH  49  72
ATOM     72  C   UNL A   1      42.337  23.488  27.893  1.00  0.00    -0.014 A 
ATOM     73  C   UNL A   1      42.935  23.206  26.653  1.00  0.00     0.010 A 
ATOM     74  C   UNL A   1      41.573  22.494  28.531  1.00  0.00     0.010 A 
ATOM     75  C   UNL A   1      42.772  21.951  26.059  1.00  0.00     0.020 A 
ATOM     76  C   UNL A   1      41.429  21.230  27.950  1.00  0.00     0.020 A 
ATOM     77  C   UNL A   1      42.025  20.969  26.715  1.00  0.00     0.054 A 
BRANCH  77  78
ATOM     78  S   UNL A   1      41.900  19.320  25.968  1.00  0.00     0.124 S 
ATOM     79  O   UNL A   1      42.413  18.464  27.032  1.00  0.00    -0.237 OA
ATOM     80  O   UNL A   1      40.470  19.204  25.694  1.00  0.00    -0.237 OA
ATOM     81  O   UNL A   1      42.745  19.421  24.780  1.00  0.00    -0.744 OA
ENDBRANCH  77  78
ENDBRANCH  49  72
BRANCH  61  82
ATOM     82  C   UNL A   1      47.634  26.338  31.424  1.00  0.00    -0.014 A 
ATOM     83  C   UNL A   1      47.829  25.664  32.642  1.00  0.00     0.010 A 
ATOM     84  C   UNL A   1      48.719  26.484  30.540  1.00  0.00     0.010 A 
ATOM     85  C   UNL A   1      49.090  25.169  32.982  1.00  0.00     0.020 A 
ATOM     86  C   UNL A   1      49.977  25.970  30.866  1.00  0.00     0.020 A 
ATOM     87  C   UNL A   1      50.158  25.328  32.092  1.00  0.00     0.054 A 
BRANCH  87  88
ATOM     88  S   UNL A   1      51.778  24.640  32.536  1.00  0.00     0.124 S 
ATOM     89  O   UNL A   1      51.904  25.041  33.934  1.00  0.00    -0.237 OA
ATOM     90  O   UNL A   1      51.593  23.208  32.306  1.00  0.00    -0.237 OA
ATOM     91  O   UNL A   1      52.698  25.298  31.613  1.00  0.00    -0.744 OA
ENDBRANCH  87  88
ENDBRANCH  61  82
ENDBRANCH  35  36
ENDBRANCH  27  30
ENDBRANCH  25  26
ENDBRANCH  24  25
ENDBRANCH   1  24
TORSDOF 17
ENDMDL
