MODEL 1
REMARK VINA RESULT:     -11.3      0.000      0.000
REMARK SMILES O=C(C[C@H]1S/C(=[NH+]\c2ccccc2)N(NC(=O)c2ccc([N+](=O)[O-])cc2)C1=O)NCCCNC(=O)c1ccc(-c2c3nc(c(-c4ccc(S(=O)(=O)[O-])cc4)c4ccc([nH]4)c(-c4ccc(S(=O)(=O)[O-])cc4)c4nc(c(-c5ccc(S(=O)(=O)[O-])cc5)c5ccc2[nH]5)C=C4)C=C3)cc1
REMARK SMILES IDX 30 1 29 2 1 3 2 4 3 6 4 7 5 8 27 9 6 10 14 11 28 12 7 13
REMARK SMILES IDX 15 15 16 16 17 18 18 19 19 20 26 21 20 22 25 23 21 24 22 25
REMARK SMILES IDX 23 26 24 27 8 28 9 29 13 30 10 31 12 32 11 33 31 34 32 35
REMARK SMILES IDX 33 36 34 37 35 39 36 40 37 41 95 42 38 43 94 44 39 45 40 46
REMARK SMILES IDX 41 47 88 48 42 49 93 50 87 51 89 52 43 53 92 54 86 55 85 56
REMARK SMILES IDX 44 58 74 59 55 60 73 61 56 62 59 63 72 64 90 65 57 66 58 67
REMARK SMILES IDX 71 69 91 70 60 71 45 72 46 73 54 74 47 75 53 76 48 77 49 78
REMARK SMILES IDX 50 79 51 80 52 81 75 82 76 83 84 84 77 85 83 86 78 87 79 88
REMARK SMILES IDX 80 89 81 90 82 91 61 92 62 93 70 94 63 95 69 96 64 97 65 98
REMARK SMILES IDX 66 99 67 100 68 101
REMARK H PARENT 29 5 7 14 15 17 33 38 89 57 59 68
REMARK Flexibility Score: inf
ROOT
ATOM      1  C   UNL A   1      39.642  21.465  26.078  1.00  0.00     0.117 C 
ENDROOT
BRANCH   1   2
ATOM      2  N   UNL A   1      38.242  21.751  25.818  1.00  0.00    -0.356 N 
ATOM      3  O   UNL A   1      37.798  19.893  24.539  1.00  0.00    -0.275 OA
ATOM      4  C   UNL A   1      37.427  20.931  25.073  1.00  0.00     0.221 C 
ATOM      5  H   UNL A   1      37.856  22.574  26.194  1.00  0.00     0.163 HD
BRANCH   4   6
ATOM      6  C   UNL A   1      35.998  21.422  24.957  1.00  0.00     0.127 C 
BRANCH   6   7
ATOM      7  C   UNL A   1      35.561  22.155  26.219  1.00  0.00     0.185 C 
ATOM      8  S   UNL A   1      35.545  23.956  25.978  1.00  0.00    -0.019 SA
ATOM      9  C   UNL A   1      34.147  21.787  26.612  1.00  0.00     0.347 C 
ATOM     10  C   UNL A   1      33.832  24.107  26.282  1.00  0.00     0.343 C 
ATOM     11  N   UNL A   1      33.292  22.879  26.585  1.00  0.00    -0.078 N 
ATOM     12  O   UNL A   1      33.812  20.653  26.945  1.00  0.00    -0.243 OA
ATOM     13  N   UNL A   1      33.147  25.192  26.211  1.00  0.00    -0.233 N 
ATOM     14  H   UNL A   1      32.250  25.201  26.617  1.00  0.00     0.313 HD
BRANCH  11  15
ATOM     15  N   UNL A   1      31.975  22.619  27.022  1.00  0.00    -0.182 N 
ATOM     16  C   UNL A   1      30.741  22.989  26.541  1.00  0.00     0.286 C 
ATOM     17  H   UNL A   1      31.931  22.062  27.833  1.00  0.00     0.217 HD
ATOM     18  O   UNL A   1      29.731  22.507  27.057  1.00  0.00    -0.266 OA
BRANCH  16  19
ATOM     19  C   UNL A   1      30.532  23.995  25.490  1.00  0.00     0.043 A 
ATOM     20  C   UNL A   1      30.014  25.237  25.895  1.00  0.00     0.021 A 
ATOM     21  C   UNL A   1      30.808  23.742  24.143  1.00  0.00     0.021 A 
ATOM     22  C   UNL A   1      29.872  26.271  24.971  1.00  0.00     0.086 A 
ATOM     23  C   UNL A   1      30.658  24.776  23.210  1.00  0.00     0.086 A 
ATOM     24  C   UNL A   1      30.225  26.046  23.634  1.00  0.00     0.269 A 
BRANCH  24  25
ATOM     25  N   UNL A   1      30.188  27.165  22.681  1.00  0.00     0.062 N 
ATOM     26  O   UNL A   1      29.383  28.082  22.902  1.00  0.00    -0.258 OA
ATOM     27  O   UNL A   1      30.958  27.119  21.712  1.00  0.00    -0.258 OA
ENDBRANCH  24  25
ENDBRANCH  16  19
ENDBRANCH  11  15
BRANCH  13  28
ATOM     28  C   UNL A   1      33.601  26.367  25.591  1.00  0.00     0.125 A 
ATOM     29  C   UNL A   1      33.656  27.543  26.340  1.00  0.00     0.051 A 
ATOM     30  C   UNL A   1      33.720  26.456  24.194  1.00  0.00     0.051 A 
ATOM     31  C   UNL A   1      33.823  28.780  25.710  1.00  0.00     0.004 A 
ATOM     32  C   UNL A   1      33.901  27.688  23.563  1.00  0.00     0.004 A 
ATOM     33  C   UNL A   1      33.943  28.851  24.323  1.00  0.00     0.000 A 
ENDBRANCH  13  28
ENDBRANCH   6   7
ENDBRANCH   4   6
ENDBRANCH   1   2
BRANCH   1  34
ATOM     34  C   UNL A   1      39.938  19.969  26.061  1.00  0.00     0.042 C 
BRANCH  34  35
ATOM     35  C   UNL A   1      41.245  19.563  26.738  1.00  0.00     0.118 C 
BRANCH  35  36
ATOM     36  N   UNL A   1      42.297  19.199  25.799  1.00  0.00    -0.352 N 
ATOM     37  C   UNL A   1      43.292  19.966  25.236  1.00  0.00     0.251 C 
ATOM     38  H   UNL A   1      42.295  18.254  25.523  1.00  0.00     0.163 HD
ATOM     39  O   UNL A   1      43.994  19.486  24.354  1.00  0.00    -0.269 OA
BRANCH  37  40
ATOM     40  C   UNL A   1      43.497  21.370  25.662  1.00  0.00     0.039 A 
ATOM     41  C   UNL A   1      43.791  21.628  27.004  1.00  0.00     0.014 A 
ATOM     42  C   UNL A   1      43.396  22.429  24.757  1.00  0.00     0.014 A 
ATOM     43  C   UNL A   1      44.076  22.933  27.416  1.00  0.00     0.010 A 
ATOM     44  C   UNL A   1      43.750  23.719  25.154  1.00  0.00     0.010 A 
ATOM     45  C   UNL A   1      44.111  23.983  26.485  1.00  0.00    -0.014 A 
BRANCH  45  46
ATOM     46  C   UNL A   1      44.570  25.345  26.869  1.00  0.00     0.031 A 
ATOM     47  C   UNL A   1      43.602  26.357  27.420  1.00  0.00     0.074 A 
ATOM     48  C   UNL A   1      45.854  25.697  26.649  1.00  0.00     0.049 A 
ATOM     49  N   UNL A   1      43.810  27.611  27.731  1.00  0.00    -0.248 NA
ATOM     50  C   UNL A   1      42.217  25.907  27.631  1.00  0.00     0.031 C 
ATOM     51  C   UNL A   1      46.888  24.822  26.091  1.00  0.00     0.029 A 
ATOM     52  N   UNL A   1      46.507  26.888  26.856  1.00  0.00    -0.354 N 
ATOM     53  C   UNL A   1      42.584  28.105  28.161  1.00  0.00     0.074 A 
ATOM     54  C   UNL A   1      41.628  27.026  28.029  1.00  0.00     0.031 C 
ATOM     55  C   UNL A   1      48.046  25.498  26.021  1.00  0.00     0.029 A 
ATOM     56  C   UNL A   1      47.830  26.866  26.479  1.00  0.00     0.049 A 
ATOM     57  H   UNL A   1      46.069  27.682  27.238  1.00  0.00     0.167 HD
ATOM     58  C   UNL A   1      42.284  29.339  28.635  1.00  0.00     0.031 A 
ATOM     59  C   UNL A   1      48.763  27.838  26.483  1.00  0.00     0.031 A 
ATOM     60  C   UNL A   1      43.236  30.412  28.764  1.00  0.00     0.049 A 
ATOM     61  C   UNL A   1      48.395  29.209  26.978  1.00  0.00     0.074 A 
ATOM     62  C   UNL A   1      43.035  31.680  29.283  1.00  0.00     0.029 A 
ATOM     63  N   UNL A   1      44.563  30.350  28.366  1.00  0.00    -0.354 N 
ATOM     64  N   UNL A   1      47.245  29.637  27.441  1.00  0.00    -0.248 NA
ATOM     65  C   UNL A   1      49.453  30.230  26.956  1.00  0.00     0.031 C 
ATOM     66  C   UNL A   1      44.224  32.404  29.139  1.00  0.00     0.029 A 
ATOM     67  C   UNL A   1      45.184  31.567  28.594  1.00  0.00     0.049 A 
ATOM     68  H   UNL A   1      45.000  29.557  27.978  1.00  0.00     0.167 HD
ATOM     69  C   UNL A   1      47.447  30.968  27.786  1.00  0.00     0.074 A 
ATOM     70  C   UNL A   1      48.834  31.270  27.497  1.00  0.00     0.031 C 
ATOM     71  C   UNL A   1      46.562  31.861  28.296  1.00  0.00     0.031 A 
BRANCH  58  72
ATOM     72  C   UNL A   1      40.855  29.603  29.039  1.00  0.00    -0.014 A 
ATOM     73  C   UNL A   1      39.840  29.742  28.073  1.00  0.00     0.010 A 
ATOM     74  C   UNL A   1      40.513  29.666  30.402  1.00  0.00     0.010 A 
ATOM     75  C   UNL A   1      38.520  29.979  28.463  1.00  0.00     0.020 A 
ATOM     76  C   UNL A   1      39.188  29.873  30.796  1.00  0.00     0.020 A 
ATOM     77  C   UNL A   1      38.202  30.046  29.823  1.00  0.00     0.054 A 
BRANCH  77  78
ATOM     78  S   UNL A   1      36.476  30.335  30.299  1.00  0.00     0.124 S 
ATOM     79  O   UNL A   1      36.335  29.461  31.462  1.00  0.00    -0.237 OA
ATOM     80  O   UNL A   1      36.459  31.767  30.585  1.00  0.00    -0.237 OA
ATOM     81  O   UNL A   1      35.717  29.929  29.119  1.00  0.00    -0.744 OA
ENDBRANCH  77  78
ENDBRANCH  58  72
BRANCH  59  82
ATOM     82  C   UNL A   1      50.141  27.548  25.996  1.00  0.00    -0.014 A 
ATOM     83  C   UNL A   1      50.494  27.801  24.660  1.00  0.00     0.010 A 
ATOM     84  C   UNL A   1      51.110  27.023  26.872  1.00  0.00     0.010 A 
ATOM     85  C   UNL A   1      51.785  27.518  24.202  1.00  0.00     0.020 A 
ATOM     86  C   UNL A   1      52.410  26.768  26.426  1.00  0.00     0.020 A 
ATOM     87  C   UNL A   1      52.735  27.007  25.090  1.00  0.00     0.054 A 
BRANCH  87  88
ATOM     88  S   UNL A   1      54.419  26.697  24.487  1.00  0.00     0.124 S 
ATOM     89  O   UNL A   1      54.855  25.606  25.352  1.00  0.00    -0.237 OA
ATOM     90  O   UNL A   1      54.191  26.344  23.088  1.00  0.00    -0.237 OA
ATOM     91  O   UNL A   1      55.098  27.974  24.697  1.00  0.00    -0.744 OA
ENDBRANCH  87  88
ENDBRANCH  59  82
BRANCH  71  92
ATOM     92  C   UNL A   1      47.070  33.247  28.598  1.00  0.00    -0.014 A 
ATOM     93  C   UNL A   1      47.662  33.553  29.836  1.00  0.00     0.010 A 
ATOM     94  C   UNL A   1      47.003  34.244  27.606  1.00  0.00     0.010 A 
ATOM     95  C   UNL A   1      48.152  34.838  30.088  1.00  0.00     0.020 A 
ATOM     96  C   UNL A   1      47.519  35.521  27.844  1.00  0.00     0.020 A 
ATOM     97  C   UNL A   1      48.079  35.814  29.089  1.00  0.00     0.054 A 
BRANCH  97  98
ATOM     98  S   UNL A   1      48.764  37.459  29.425  1.00  0.00     0.124 S 
ATOM     99  O   UNL A   1      48.649  37.547  30.877  1.00  0.00    -0.237 OA
ATOM    100  O   UNL A   1      50.126  37.350  28.908  1.00  0.00    -0.237 OA
ATOM    101  O   UNL A   1      47.891  38.359  28.675  1.00  0.00    -0.744 OA
ENDBRANCH  97  98
ENDBRANCH  71  92
ENDBRANCH  45  46
ENDBRANCH  37  40
ENDBRANCH  35  36
ENDBRANCH  34  35
ENDBRANCH   1  34
TORSDOF 18
ENDMDL
MODEL 2
REMARK VINA RESULT:     -11.2      0.578      7.806
REMARK SMILES O=C(C[C@H]1S/C(=[NH+]\c2ccccc2)N(NC(=O)c2ccc([N+](=O)[O-])cc2)C1=O)NCCCNC(=O)c1ccc(-c2c3nc(c(-c4ccc(S(=O)(=O)[O-])cc4)c4ccc([nH]4)c(-c4ccc(S(=O)(=O)[O-])cc4)c4nc(c(-c5ccc(S(=O)(=O)[O-])cc5)c5ccc2[nH]5)C=C4)C=C3)cc1
REMARK SMILES IDX 30 1 29 2 1 3 2 4 3 6 4 7 5 8 27 9 6 10 14 11 28 12 7 13
REMARK SMILES IDX 15 15 16 16 17 18 18 19 19 20 26 21 20 22 25 23 21 24 22 25
REMARK SMILES IDX 23 26 24 27 8 28 9 29 13 30 10 31 12 32 11 33 31 34 32 35
REMARK SMILES IDX 33 36 34 37 35 39 36 40 37 41 95 42 38 43 94 44 39 45 40 46
REMARK SMILES IDX 41 47 88 48 42 49 93 50 87 51 89 52 43 53 92 54 86 55 85 56
REMARK SMILES IDX 44 58 74 59 55 60 73 61 56 62 59 63 72 64 90 65 57 66 58 67
REMARK SMILES IDX 71 69 91 70 60 71 45 72 46 73 54 74 47 75 53 76 48 77 49 78
REMARK SMILES IDX 50 79 51 80 52 81 75 82 76 83 84 84 77 85 83 86 78 87 79 88
REMARK SMILES IDX 80 89 81 90 82 91 61 92 62 93 70 94 63 95 69 96 64 97 65 98
REMARK SMILES IDX 66 99 67 100 68 101
REMARK H PARENT 29 5 7 14 15 17 33 38 89 57 59 68
REMARK Flexibility Score: inf
ROOT
ATOM      1  C   UNL A   1      39.604  21.539  26.074  1.00  0.00     0.117 C 
ENDROOT
BRANCH   1   2
ATOM      2  N   UNL A   1      38.188  21.797  25.883  1.00  0.00    -0.356 N 
ATOM      3  O   UNL A   1      37.820  20.221  24.250  1.00  0.00    -0.275 OA
ATOM      4  C   UNL A   1      37.405  21.105  24.989  1.00  0.00     0.221 C 
ATOM      5  H   UNL A   1      37.765  22.503  26.423  1.00  0.00     0.163 HD
BRANCH   4   6
ATOM      6  C   UNL A   1      35.951  21.533  24.981  1.00  0.00     0.127 C 
BRANCH   6   7
ATOM      7  C   UNL A   1      35.633  22.429  26.172  1.00  0.00     0.185 C 
ATOM      8  S   UNL A   1      35.576  24.183  25.695  1.00  0.00    -0.019 SA
ATOM      9  C   UNL A   1      34.268  22.123  26.747  1.00  0.00     0.347 C 
ATOM     10  C   UNL A   1      33.900  24.379  26.144  1.00  0.00     0.343 C 
ATOM     11  N   UNL A   1      33.403  23.204  26.659  1.00  0.00    -0.078 N 
ATOM     12  O   UNL A   1      33.977  21.045  27.260  1.00  0.00    -0.243 OA
ATOM     13  N   UNL A   1      33.201  25.448  25.997  1.00  0.00    -0.233 N 
ATOM     14  H   UNL A   1      32.348  25.514  26.484  1.00  0.00     0.313 HD
BRANCH  11  15
ATOM     15  N   UNL A   1      32.139  23.011  27.255  1.00  0.00    -0.182 N 
ATOM     16  C   UNL A   1      30.864  23.366  26.878  1.00  0.00     0.286 C 
ATOM     17  H   UNL A   1      32.175  22.523  28.110  1.00  0.00     0.217 HD
ATOM     18  O   UNL A   1      29.910  22.951  27.538  1.00  0.00    -0.266 OA
BRANCH  16  19
ATOM     19  C   UNL A   1      30.556  24.287  25.776  1.00  0.00     0.043 A 
ATOM     20  C   UNL A   1      30.121  25.576  26.128  1.00  0.00     0.021 A 
ATOM     21  C   UNL A   1      30.663  23.912  24.433  1.00  0.00     0.021 A 
ATOM     22  C   UNL A   1      29.895  26.533  25.139  1.00  0.00     0.086 A 
ATOM     23  C   UNL A   1      30.427  24.868  23.436  1.00  0.00     0.086 A 
ATOM     24  C   UNL A   1      30.081  26.184  23.795  1.00  0.00     0.269 A 
BRANCH  24  25
ATOM     25  N   UNL A   1      29.957  27.219  22.759  1.00  0.00     0.062 N 
ATOM     26  O   UNL A   1      29.026  28.031  22.865  1.00  0.00    -0.258 OA
ATOM     27  O   UNL A   1      30.786  27.212  21.839  1.00  0.00    -0.258 OA
ENDBRANCH  24  25
ENDBRANCH  16  19
ENDBRANCH  11  15
BRANCH  13  28
ATOM     28  C   UNL A   1      33.581  26.527  25.184  1.00  0.00     0.125 A 
ATOM     29  C   UNL A   1      33.531  27.817  25.715  1.00  0.00     0.051 A 
ATOM     30  C   UNL A   1      33.725  26.380  23.794  1.00  0.00     0.051 A 
ATOM     31  C   UNL A   1      33.621  28.934  24.878  1.00  0.00     0.004 A 
ATOM     32  C   UNL A   1      33.829  27.492  22.958  1.00  0.00     0.004 A 
ATOM     33  C   UNL A   1      33.767  28.771  23.502  1.00  0.00     0.000 A 
ENDBRANCH  13  28
ENDBRANCH   6   7
ENDBRANCH   4   6
ENDBRANCH   1   2
BRANCH   1  34
ATOM     34  C   UNL A   1      39.915  20.047  26.133  1.00  0.00     0.042 C 
BRANCH  34  35
ATOM     35  C   UNL A   1      41.181  19.684  26.906  1.00  0.00     0.118 C 
BRANCH  35  36
ATOM     36  N   UNL A   1      42.297  19.309  26.048  1.00  0.00    -0.352 N 
ATOM     37  C   UNL A   1      43.299  20.080  25.504  1.00  0.00     0.251 C 
ATOM     38  H   UNL A   1      42.341  18.352  25.823  1.00  0.00     0.163 HD
ATOM     39  O   UNL A   1      44.067  19.581  24.689  1.00  0.00    -0.269 OA
BRANCH  37  40
ATOM     40  C   UNL A   1      43.435  21.511  25.867  1.00  0.00     0.039 A 
ATOM     41  C   UNL A   1      43.981  21.838  27.111  1.00  0.00     0.014 A 
ATOM     42  C   UNL A   1      43.024  22.525  24.999  1.00  0.00     0.014 A 
ATOM     43  C   UNL A   1      44.203  23.178  27.443  1.00  0.00     0.010 A 
ATOM     44  C   UNL A   1      43.310  23.857  25.302  1.00  0.00     0.010 A 
ATOM     45  C   UNL A   1      43.919  24.197  26.521  1.00  0.00    -0.014 A 
BRANCH  45  46
ATOM     46  C   UNL A   1      44.297  25.611  26.788  1.00  0.00     0.031 A 
ATOM     47  C   UNL A   1      45.707  26.087  26.557  1.00  0.00     0.074 A 
ATOM     48  C   UNL A   1      43.384  26.453  27.314  1.00  0.00     0.049 A 
ATOM     49  N   UNL A   1      46.232  27.259  26.811  1.00  0.00    -0.248 NA
ATOM     50  C   UNL A   1      46.653  25.116  25.986  1.00  0.00     0.031 C 
ATOM     51  C   UNL A   1      41.991  26.111  27.615  1.00  0.00     0.029 A 
ATOM     52  N   UNL A   1      43.491  27.767  27.699  1.00  0.00    -0.354 N 
ATOM     53  C   UNL A   1      47.569  27.164  26.444  1.00  0.00     0.074 A 
ATOM     54  C   UNL A   1      47.784  25.806  25.992  1.00  0.00     0.031 C 
ATOM     55  C   UNL A   1      41.371  27.190  28.117  1.00  0.00     0.029 A 
ATOM     56  C   UNL A   1      42.328  28.286  28.221  1.00  0.00     0.049 A 
ATOM     57  H   UNL A   1      44.320  28.289  27.610  1.00  0.00     0.167 HD
ATOM     58  C   UNL A   1      48.527  28.123  26.468  1.00  0.00     0.031 A 
ATOM     59  C   UNL A   1      42.062  29.500  28.743  1.00  0.00     0.031 A 
ATOM     60  C   UNL A   1      48.311  29.474  26.920  1.00  0.00     0.049 A 
ATOM     61  C   UNL A   1      43.152  30.534  28.795  1.00  0.00     0.074 A 
ATOM     62  C   UNL A   1      49.208  30.529  26.932  1.00  0.00     0.029 A 
ATOM     63  N   UNL A   1      47.122  29.956  27.447  1.00  0.00    -0.354 N 
ATOM     64  N   UNL A   1      44.394  30.443  28.382  1.00  0.00    -0.248 NA
ATOM     65  C   UNL A   1      42.804  31.838  29.377  1.00  0.00     0.031 C 
ATOM     66  C   UNL A   1      48.581  31.630  27.525  1.00  0.00     0.029 A 
ATOM     67  C   UNL A   1      47.272  31.282  27.820  1.00  0.00     0.049 A 
ATOM     68  H   UNL A   1      46.293  29.433  27.541  1.00  0.00     0.167 HD
ATOM     69  C   UNL A   1      44.968  31.684  28.635  1.00  0.00     0.074 A 
ATOM     70  C   UNL A   1      43.933  32.513  29.217  1.00  0.00     0.031 C 
ATOM     71  C   UNL A   1      46.239  32.098  28.406  1.00  0.00     0.031 A 
BRANCH  58  72
ATOM     72  C   UNL A   1      49.910  27.741  26.004  1.00  0.00    -0.014 A 
ATOM     73  C   UNL A   1      50.235  27.712  24.635  1.00  0.00     0.010 A 
ATOM     74  C   UNL A   1      50.911  27.455  26.950  1.00  0.00     0.010 A 
ATOM     75  C   UNL A   1      51.523  27.363  24.221  1.00  0.00     0.020 A 
ATOM     76  C   UNL A   1      52.209  27.135  26.540  1.00  0.00     0.020 A 
ATOM     77  C   UNL A   1      52.502  27.074  25.176  1.00  0.00     0.054 A 
BRANCH  77  78
ATOM     78  S   UNL A   1      54.170  26.645  24.609  1.00  0.00     0.124 S 
ATOM     79  O   UNL A   1      54.333  27.532  23.459  1.00  0.00    -0.237 OA
ATOM     80  O   UNL A   1      54.995  26.966  25.771  1.00  0.00    -0.237 OA
ATOM     81  O   UNL A   1      54.075  25.223  24.290  1.00  0.00    -0.744 OA
ENDBRANCH  77  78
ENDBRANCH  58  72
BRANCH  59  82
ATOM     82  C   UNL A   1      40.700  29.802  29.265  1.00  0.00    -0.014 A 
ATOM     83  C   UNL A   1      40.443  29.781  30.647  1.00  0.00     0.010 A 
ATOM     84  C   UNL A   1      39.653  30.120  28.380  1.00  0.00     0.010 A 
ATOM     85  C   UNL A   1      39.161  30.055  31.134  1.00  0.00     0.020 A 
ATOM     86  C   UNL A   1      38.377  30.424  28.865  1.00  0.00     0.020 A 
ATOM     87  C   UNL A   1      38.137  30.379  30.239  1.00  0.00     0.054 A 
BRANCH  87  88
ATOM     88  S   UNL A   1      36.495  30.782  30.898  1.00  0.00     0.124 S 
ATOM     89  O   UNL A   1      36.686  32.148  31.374  1.00  0.00    -0.237 OA
ATOM     90  O   UNL A   1      35.641  30.635  29.722  1.00  0.00    -0.237 OA
ATOM     91  O   UNL A   1      36.288  29.777  31.939  1.00  0.00    -0.744 OA
ENDBRANCH  87  88
ENDBRANCH  59  82
BRANCH  71  92
ATOM     92  C   UNL A   1      46.581  33.521  28.763  1.00  0.00    -0.014 A 
ATOM     93  C   UNL A   1      46.406  34.567  27.841  1.00  0.00     0.010 A 
ATOM     94  C   UNL A   1      47.034  33.822  30.062  1.00  0.00     0.010 A 
ATOM     95  C   UNL A   1      46.703  35.885  28.199  1.00  0.00     0.020 A 
ATOM     96  C   UNL A   1      47.304  35.142  30.433  1.00  0.00     0.020 A 
ATOM     97  C   UNL A   1      47.150  36.165  29.496  1.00  0.00     0.054 A 
BRANCH  97  98
ATOM     98  S   UNL A   1      47.483  37.888  29.950  1.00  0.00     0.124 S 
ATOM     99  O   UNL A   1      47.735  37.783  31.384  1.00  0.00    -0.237 OA
ATOM    100  O   UNL A   1      48.648  38.215  29.130  1.00  0.00    -0.237 OA
ATOM    101  O   UNL A   1      46.255  38.588  29.582  1.00  0.00    -0.744 OA
ENDBRANCH  97  98
ENDBRANCH  71  92
ENDBRANCH  45  46
ENDBRANCH  37  40
ENDBRANCH  35  36
ENDBRANCH  34  35
ENDBRANCH   1  34
TORSDOF 18
ENDMDL
MODEL 3
REMARK VINA RESULT:     -11.1      5.070      8.863
REMARK SMILES O=C(C[C@H]1S/C(=[NH+]\c2ccccc2)N(NC(=O)c2ccc([N+](=O)[O-])cc2)C1=O)NCCCNC(=O)c1ccc(-c2c3nc(c(-c4ccc(S(=O)(=O)[O-])cc4)c4ccc([nH]4)c(-c4ccc(S(=O)(=O)[O-])cc4)c4nc(c(-c5ccc(S(=O)(=O)[O-])cc5)c5ccc2[nH]5)C=C4)C=C3)cc1
REMARK SMILES IDX 30 1 29 2 1 3 2 4 3 6 4 7 5 8 27 9 6 10 14 11 28 12 7 13
REMARK SMILES IDX 15 15 16 16 17 18 18 19 19 20 26 21 20 22 25 23 21 24 22 25
REMARK SMILES IDX 23 26 24 27 8 28 9 29 13 30 10 31 12 32 11 33 31 34 32 35
REMARK SMILES IDX 33 36 34 37 35 39 36 40 37 41 95 42 38 43 94 44 39 45 40 46
REMARK SMILES IDX 41 47 88 48 42 49 93 50 87 51 89 52 43 53 92 54 86 55 85 56
REMARK SMILES IDX 44 58 74 59 55 60 73 61 56 62 59 63 72 64 90 65 57 66 58 67
REMARK SMILES IDX 71 69 91 70 60 71 45 72 46 73 54 74 47 75 53 76 48 77 49 78
REMARK SMILES IDX 50 79 51 80 52 81 75 82 76 83 84 84 77 85 83 86 78 87 79 88
REMARK SMILES IDX 80 89 81 90 82 91 61 92 62 93 70 94 63 95 69 96 64 97 65 98
REMARK SMILES IDX 66 99 67 100 68 101
REMARK H PARENT 29 5 7 14 15 17 33 38 89 57 59 68
REMARK Flexibility Score: inf
ROOT
ATOM      1  C   UNL A   1      39.451  21.811  26.135  1.00  0.00     0.117 C 
ENDROOT
BRANCH   1   2
ATOM      2  N   UNL A   1      38.002  21.820  26.030  1.00  0.00    -0.356 N 
ATOM      3  O   UNL A   1      37.833  20.418  24.216  1.00  0.00    -0.275 OA
ATOM      4  C   UNL A   1      37.307  21.109  25.079  1.00  0.00     0.221 C 
ATOM      5  H   UNL A   1      37.491  22.361  26.673  1.00  0.00     0.163 HD
BRANCH   4   6
ATOM      6  C   UNL A   1      35.802  21.253  25.179  1.00  0.00     0.127 C 
BRANCH   6   7
ATOM      7  C   UNL A   1      35.405  22.063  26.407  1.00  0.00     0.185 C 
ATOM      8  S   UNL A   1      35.452  23.850  26.077  1.00  0.00    -0.019 SA
ATOM      9  C   UNL A   1      33.983  21.768  26.830  1.00  0.00     0.347 C 
ATOM     10  C   UNL A   1      33.748  24.078  26.388  1.00  0.00     0.343 C 
ATOM     11  N   UNL A   1      33.167  22.887  26.756  1.00  0.00    -0.078 N 
ATOM     12  O   UNL A   1      33.610  20.664  27.222  1.00  0.00    -0.243 OA
ATOM     13  N   UNL A   1      33.102  25.183  26.269  1.00  0.00    -0.233 N 
ATOM     14  H   UNL A   1      32.211  25.245  26.682  1.00  0.00     0.313 HD
BRANCH  11  15
ATOM     15  N   UNL A   1      31.847  22.698  27.218  1.00  0.00    -0.182 N 
ATOM     16  C   UNL A   1      30.622  23.093  26.732  1.00  0.00     0.286 C 
ATOM     17  H   UNL A   1      31.791  22.179  28.053  1.00  0.00     0.217 HD
ATOM     18  O   UNL A   1      29.600  22.674  27.278  1.00  0.00    -0.266 OA
BRANCH  16  19
ATOM     19  C   UNL A   1      30.440  24.059  25.640  1.00  0.00     0.043 A 
ATOM     20  C   UNL A   1      29.982  25.339  25.995  1.00  0.00     0.021 A 
ATOM     21  C   UNL A   1      30.684  23.735  24.302  1.00  0.00     0.021 A 
ATOM     22  C   UNL A   1      29.869  26.337  25.027  1.00  0.00     0.086 A 
ATOM     23  C   UNL A   1      30.563  24.732  23.325  1.00  0.00     0.086 A 
ATOM     24  C   UNL A   1      30.192  26.037  23.697  1.00  0.00     0.269 A 
BRANCH  24  25
ATOM     25  N   UNL A   1      30.187  27.112  22.695  1.00  0.00     0.062 N 
ATOM     26  O   UNL A   1      29.451  28.089  22.902  1.00  0.00    -0.258 OA
ATOM     27  O   UNL A   1      30.914  26.975  21.701  1.00  0.00    -0.258 OA
ENDBRANCH  24  25
ENDBRANCH  16  19
ENDBRANCH  11  15
BRANCH  13  28
ATOM     28  C   UNL A   1      33.593  26.308  25.588  1.00  0.00     0.125 A 
ATOM     29  C   UNL A   1      33.663  27.526  26.266  1.00  0.00     0.051 A 
ATOM     30  C   UNL A   1      33.734  26.311  24.189  1.00  0.00     0.051 A 
ATOM     31  C   UNL A   1      33.867  28.719  25.565  1.00  0.00     0.004 A 
ATOM     32  C   UNL A   1      33.953  27.498  23.489  1.00  0.00     0.004 A 
ATOM     33  C   UNL A   1      34.009  28.704  24.179  1.00  0.00     0.000 A 
ENDBRANCH  13  28
ENDBRANCH   6   7
ENDBRANCH   4   6
ENDBRANCH   1   2
BRANCH   1  34
ATOM     34  C   UNL A   1      40.017  20.396  26.173  1.00  0.00     0.042 C 
BRANCH  34  35
ATOM     35  C   UNL A   1      41.491  20.302  26.565  1.00  0.00     0.118 C 
BRANCH  35  36
ATOM     36  N   UNL A   1      42.397  20.799  25.538  1.00  0.00    -0.352 N 
ATOM     37  C   UNL A   1      42.946  22.050  25.365  1.00  0.00     0.251 C 
ATOM     38  H   UNL A   1      42.659  20.134  24.862  1.00  0.00     0.163 HD
ATOM     39  O   UNL A   1      43.580  22.292  24.345  1.00  0.00    -0.269 OA
BRANCH  37  40
ATOM     40  C   UNL A   1      42.746  23.111  26.381  1.00  0.00     0.039 A 
ATOM     41  C   UNL A   1      42.633  22.740  27.724  1.00  0.00     0.014 A 
ATOM     42  C   UNL A   1      42.662  24.458  26.022  1.00  0.00     0.014 A 
ATOM     43  C   UNL A   1      42.533  23.725  28.712  1.00  0.00     0.010 A 
ATOM     44  C   UNL A   1      42.634  25.441  27.012  1.00  0.00     0.010 A 
ATOM     45  C   UNL A   1      42.586  25.085  28.370  1.00  0.00    -0.014 A 
BRANCH  45  46
ATOM     46  C   UNL A   1      42.647  26.144  29.413  1.00  0.00     0.031 A 
ATOM     47  C   UNL A   1      43.726  26.130  30.462  1.00  0.00     0.074 A 
ATOM     48  C   UNL A   1      41.678  27.082  29.461  1.00  0.00     0.049 A 
ATOM     49  N   UNL A   1      43.884  26.924  31.491  1.00  0.00    -0.248 NA
ATOM     50  C   UNL A   1      44.747  25.077  30.353  1.00  0.00     0.031 C 
ATOM     51  C   UNL A   1      40.557  27.191  28.523  1.00  0.00     0.029 A 
ATOM     52  N   UNL A   1      41.473  28.117  30.340  1.00  0.00    -0.354 N 
ATOM     53  C   UNL A   1      45.012  26.462  32.158  1.00  0.00     0.074 A 
ATOM     54  C   UNL A   1      45.472  25.291  31.442  1.00  0.00     0.031 C 
ATOM     55  C   UNL A   1      39.797  28.244  28.865  1.00  0.00     0.029 A 
ATOM     56  C   UNL A   1      40.343  28.855  30.071  1.00  0.00     0.049 A 
ATOM     57  H   UNL A   1      42.077  28.312  31.092  1.00  0.00     0.167 HD
ATOM     58  C   UNL A   1      45.618  26.972  33.258  1.00  0.00     0.031 A 
ATOM     59  C   UNL A   1      39.794  29.897  30.728  1.00  0.00     0.031 A 
ATOM     60  C   UNL A   1      45.158  28.137  33.970  1.00  0.00     0.049 A 
ATOM     61  C   UNL A   1      40.464  30.420  31.968  1.00  0.00     0.074 A 
ATOM     62  C   UNL A   1      45.736  28.759  35.064  1.00  0.00     0.029 A 
ATOM     63  N   UNL A   1      44.008  28.851  33.669  1.00  0.00    -0.354 N 
ATOM     64  N   UNL A   1      41.567  30.007  32.545  1.00  0.00    -0.248 NA
ATOM     65  C   UNL A   1      39.818  31.555  32.643  1.00  0.00     0.031 C 
ATOM     66  C   UNL A   1      44.902  29.809  35.462  1.00  0.00     0.029 A 
ATOM     67  C   UNL A   1      43.840  29.884  34.576  1.00  0.00     0.049 A 
ATOM     68  H   UNL A   1      43.400  28.652  32.920  1.00  0.00     0.167 HD
ATOM     69  C   UNL A   1      41.759  30.846  33.638  1.00  0.00     0.074 A 
ATOM     70  C   UNL A   1      40.669  31.800  33.629  1.00  0.00     0.031 C 
ATOM     71  C   UNL A   1      42.748  30.825  34.565  1.00  0.00     0.031 A 
BRANCH  58  72
ATOM     72  C   UNL A   1      46.845  26.262  33.773  1.00  0.00    -0.014 A 
ATOM     73  C   UNL A   1      46.735  25.121  34.588  1.00  0.00     0.010 A 
ATOM     74  C   UNL A   1      48.123  26.712  33.397  1.00  0.00     0.010 A 
ATOM     75  C   UNL A   1      47.881  24.469  35.052  1.00  0.00     0.020 A 
ATOM     76  C   UNL A   1      49.271  26.045  33.833  1.00  0.00     0.020 A 
ATOM     77  C   UNL A   1      49.143  24.937  34.673  1.00  0.00     0.054 A 
BRANCH  77  78
ATOM     78  S   UNL A   1      50.611  24.059  35.273  1.00  0.00     0.124 S 
ATOM     79  O   UNL A   1      51.569  24.306  34.198  1.00  0.00    -0.237 OA
ATOM     80  O   UNL A   1      50.895  24.736  36.535  1.00  0.00    -0.237 OA
ATOM     81  O   UNL A   1      50.162  22.675  35.400  1.00  0.00    -0.744 OA
ENDBRANCH  77  78
ENDBRANCH  58  72
BRANCH  59  82
ATOM     82  C   UNL A   1      38.535  30.512  30.224  1.00  0.00    -0.014 A 
ATOM     83  C   UNL A   1      38.569  31.707  29.485  1.00  0.00     0.010 A 
ATOM     84  C   UNL A   1      37.293  29.899  30.476  1.00  0.00     0.010 A 
ATOM     85  C   UNL A   1      37.385  32.287  29.021  1.00  0.00     0.020 A 
ATOM     86  C   UNL A   1      36.109  30.461  29.987  1.00  0.00     0.020 A 
ATOM     87  C   UNL A   1      36.163  31.658  29.272  1.00  0.00     0.054 A 
BRANCH  87  88
ATOM     88  S   UNL A   1      34.644  32.403  28.616  1.00  0.00     0.124 S 
ATOM     89  O   UNL A   1      35.168  33.338  27.625  1.00  0.00    -0.237 OA
ATOM     90  O   UNL A   1      33.932  31.246  28.080  1.00  0.00    -0.237 OA
ATOM     91  O   UNL A   1      34.027  33.016  29.791  1.00  0.00    -0.744 OA
ENDBRANCH  87  88
ENDBRANCH  59  82
BRANCH  71  92
ATOM     92  C   UNL A   1      42.716  31.881  35.639  1.00  0.00    -0.014 A 
ATOM     93  C   UNL A   1      42.081  31.649  36.872  1.00  0.00     0.010 A 
ATOM     94  C   UNL A   1      43.379  33.105  35.431  1.00  0.00     0.010 A 
ATOM     95  C   UNL A   1      42.084  32.631  37.866  1.00  0.00     0.020 A 
ATOM     96  C   UNL A   1      43.410  34.078  36.434  1.00  0.00     0.020 A 
ATOM     97  C   UNL A   1      42.751  33.840  37.641  1.00  0.00     0.054 A 
BRANCH  97  98
ATOM     98  S   UNL A   1      42.780  35.079  38.966  1.00  0.00     0.124 S 
ATOM     99  O   UNL A   1      44.212  35.303  39.142  1.00  0.00    -0.237 OA
ATOM    100  O   UNL A   1      42.038  36.192  38.378  1.00  0.00    -0.237 OA
ATOM    101  O   UNL A   1      42.111  34.412  40.080  1.00  0.00    -0.744 OA
ENDBRANCH  97  98
ENDBRANCH  71  92
ENDBRANCH  45  46
ENDBRANCH  37  40
ENDBRANCH  35  36
ENDBRANCH  34  35
ENDBRANCH   1  34
TORSDOF 18
ENDMDL
