MODEL 1
REMARK VINA RESULT:     -11.2      0.000      0.000
REMARK SMILES C[C@H](CNC(=O)Cn1cccc1C(=O)NCCCNC(=O)c1ccc(-c2c3nc(c(-c4ccc(S(=O)(=O)[O-])cc4)c4ccc([nH]4)c(-c4ccc(S(=O)(=O)[O-])cc4)c4nc(c(-c5ccc(S(=O)(=O)[O-])cc5)c5ccc2[nH]5)C=C4)C=C3)cc1)[NH+](C)C
REMARK SMILES IDX 16 1 15 2 13 3 14 4 12 6 8 7 9 8 10 9 11 10 7 11 5 12 4 13
REMARK SMILES IDX 6 15 3 16 2 17 1 18 82 19 83 20 84 21 17 23 18 24 19 25
REMARK SMILES IDX 20 26 21 28 22 29 23 30 81 31 24 32 80 33 25 34 26 35 27 36
REMARK SMILES IDX 74 37 28 38 79 39 73 40 75 41 29 42 78 43 72 44 71 45 30 47
REMARK SMILES IDX 60 48 41 49 59 50 42 51 45 52 58 53 76 54 43 55 44 56 57 58
REMARK SMILES IDX 77 59 46 60 31 61 32 62 40 63 33 64 39 65 34 66 35 67 36 68
REMARK SMILES IDX 37 69 38 70 61 71 62 72 70 73 63 74 69 75 64 76 65 77 66 78
REMARK SMILES IDX 67 79 68 80 47 81 48 82 56 83 49 84 55 85 50 86 51 87 52 88
REMARK SMILES IDX 53 89 54 90
REMARK H PARENT 15 5 4 14 82 22 19 27 75 46 45 57
REMARK Flexibility Score: inf
ROOT
ATOM      1  C   UNL A   1      36.491  20.777  25.004  1.00  0.00     0.118 C 
ENDROOT
BRANCH   1   2
ATOM      2  N   UNL A   1      35.243  20.165  25.397  1.00  0.00    -0.351 N 
ATOM      3  C   UNL A   1      33.904  20.369  25.226  1.00  0.00     0.267 C 
ATOM      4  O   UNL A   1      33.235  19.448  25.716  1.00  0.00    -0.268 OA
ATOM      5  H   UNL A   1      35.405  19.368  25.951  1.00  0.00     0.163 HD
BRANCH   3   6
ATOM      6  C   UNL A   1      33.220  21.465  24.532  1.00  0.00     0.107 A 
ATOM      7  N   UNL A   1      32.920  22.795  24.798  1.00  0.00    -0.334 N 
ATOM      8  C   UNL A   1      32.132  23.314  23.784  1.00  0.00     0.087 A 
ATOM      9  C   UNL A   1      32.012  22.382  22.793  1.00  0.00     0.020 A 
ATOM     10  C   UNL A   1      32.699  21.246  23.248  1.00  0.00     0.033 A 
BRANCH   7  11
ATOM     11  C   UNL A   1      33.142  23.597  25.986  1.00  0.00     0.222 C 
BRANCH  11  12
ATOM     12  C   UNL A   1      31.929  24.137  26.734  1.00  0.00     0.240 C 
ATOM     13  N   UNL A   1      31.363  25.362  26.561  1.00  0.00    -0.349 N 
ATOM     14  H   UNL A   1      30.609  25.535  27.168  1.00  0.00     0.163 HD
ATOM     15  O   UNL A   1      31.447  23.456  27.651  1.00  0.00    -0.273 OA
BRANCH  13  16
ATOM     16  C   UNL A   1      31.651  26.467  25.655  1.00  0.00     0.180 C 
BRANCH  16  17
ATOM     17  C   UNL A   1      31.650  27.887  26.284  1.00  0.00     0.199 C 
ATOM     18  C   UNL A   1      31.507  27.873  27.815  1.00  0.00     0.077 C 
BRANCH  17  19
ATOM     19  N   UNL A   1      32.733  28.755  25.764  1.00  0.00    -0.336 N 
ATOM     20  C   UNL A   1      33.436  28.139  24.639  1.00  0.00     0.332 C 
ATOM     21  C   UNL A   1      32.323  30.119  25.454  1.00  0.00     0.332 C 
ATOM     22  H   UNL A   1      33.388  28.843  26.542  1.00  0.00     0.347 HD
ENDBRANCH  17  19
ENDBRANCH  16  17
ENDBRANCH  13  16
ENDBRANCH  11  12
ENDBRANCH   7  11
ENDBRANCH   3   6
ENDBRANCH   1   2
BRANCH   1  23
ATOM     23  C   UNL A   1      37.636  19.767  24.919  1.00  0.00     0.042 C 
BRANCH  23  24
ATOM     24  C   UNL A   1      38.868  20.262  25.651  1.00  0.00     0.118 C 
BRANCH  24  25
ATOM     25  N   UNL A   1      39.824  19.174  25.821  1.00  0.00    -0.352 N 
ATOM     26  C   UNL A   1      41.181  19.250  26.023  1.00  0.00     0.251 C 
ATOM     27  H   UNL A   1      39.448  18.264  25.786  1.00  0.00     0.163 HD
ATOM     28  O   UNL A   1      41.888  18.277  25.831  1.00  0.00    -0.269 OA
BRANCH  26  29
ATOM     29  C   UNL A   1      41.766  20.536  26.440  1.00  0.00     0.039 A 
ATOM     30  C   UNL A   1      42.193  21.422  25.450  1.00  0.00     0.014 A 
ATOM     31  C   UNL A   1      41.882  20.852  27.799  1.00  0.00     0.014 A 
ATOM     32  C   UNL A   1      42.672  22.669  25.828  1.00  0.00     0.010 A 
ATOM     33  C   UNL A   1      42.310  22.112  28.176  1.00  0.00     0.010 A 
ATOM     34  C   UNL A   1      42.698  23.018  27.187  1.00  0.00    -0.014 A 
BRANCH  34  35
ATOM     35  C   UNL A   1      43.046  24.404  27.552  1.00  0.00     0.031 A 
ATOM     36  C   UNL A   1      41.777  25.254  27.766  1.00  0.00     0.074 A 
ATOM     37  C   UNL A   1      44.384  24.699  27.553  1.00  0.00     0.049 A 
ATOM     38  N   UNL A   1      41.556  26.493  27.463  1.00  0.00    -0.248 NA
ATOM     39  C   UNL A   1      40.535  24.614  28.290  1.00  0.00     0.031 C 
ATOM     40  C   UNL A   1      45.472  23.703  27.372  1.00  0.00     0.029 A 
ATOM     41  N   UNL A   1      45.115  25.857  27.694  1.00  0.00    -0.354 N 
ATOM     42  C   UNL A   1      40.241  26.828  27.873  1.00  0.00     0.074 A 
ATOM     43  C   UNL A   1      39.631  25.601  28.290  1.00  0.00     0.031 C 
ATOM     44  C   UNL A   1      46.682  24.300  27.326  1.00  0.00     0.029 A 
ATOM     45  C   UNL A   1      46.512  25.732  27.460  1.00  0.00     0.049 A 
ATOM     46  H   UNL A   1      44.699  26.714  27.940  1.00  0.00     0.167 HD
ATOM     47  C   UNL A   1      39.791  28.119  27.934  1.00  0.00     0.031 A 
ATOM     48  C   UNL A   1      47.452  26.716  27.309  1.00  0.00     0.031 A 
ATOM     49  C   UNL A   1      40.835  28.998  27.528  1.00  0.00     0.049 A 
ATOM     50  C   UNL A   1      46.730  27.977  27.531  1.00  0.00     0.074 A 
ATOM     51  C   UNL A   1      41.384  29.275  26.304  1.00  0.00     0.029 A 
ATOM     52  N   UNL A   1      41.699  29.402  28.520  1.00  0.00    -0.354 N 
ATOM     53  N   UNL A   1      46.304  28.406  28.678  1.00  0.00    -0.248 NA
ATOM     54  C   UNL A   1      46.351  28.779  26.359  1.00  0.00     0.031 C 
ATOM     55  C   UNL A   1      42.764  29.330  26.591  1.00  0.00     0.029 A 
ATOM     56  C   UNL A   1      42.958  29.357  27.978  1.00  0.00     0.049 A 
ATOM     57  H   UNL A   1      41.460  29.671  29.436  1.00  0.00     0.167 HD
ATOM     58  C   UNL A   1      45.310  29.277  28.312  1.00  0.00     0.074 A 
ATOM     59  C   UNL A   1      45.608  29.703  26.960  1.00  0.00     0.031 C 
ATOM     60  C   UNL A   1      44.076  29.165  28.869  1.00  0.00     0.031 A 
BRANCH  47  61
ATOM     61  C   UNL A   1      38.572  28.779  28.528  1.00  0.00    -0.014 A 
ATOM     62  C   UNL A   1      38.089  29.941  27.863  1.00  0.00     0.010 A 
ATOM     63  C   UNL A   1      38.108  28.544  29.828  1.00  0.00     0.010 A 
ATOM     64  C   UNL A   1      37.302  30.895  28.507  1.00  0.00     0.020 A 
ATOM     65  C   UNL A   1      37.280  29.487  30.474  1.00  0.00     0.020 A 
ATOM     66  C   UNL A   1      36.927  30.677  29.827  1.00  0.00     0.054 A 
BRANCH  66  67
ATOM     67  S   UNL A   1      36.039  32.006  30.688  1.00  0.00     0.124 S 
ATOM     68  O   UNL A   1      36.952  33.136  30.540  1.00  0.00    -0.237 OA
ATOM     69  O   UNL A   1      34.798  32.103  29.922  1.00  0.00    -0.237 OA
ATOM     70  O   UNL A   1      35.886  31.494  32.047  1.00  0.00    -0.744 OA
ENDBRANCH  66  67
ENDBRANCH  47  61
BRANCH  48  71
ATOM     71  C   UNL A   1      48.880  26.852  26.820  1.00  0.00    -0.014 A 
ATOM     72  C   UNL A   1      50.012  27.131  27.596  1.00  0.00     0.010 A 
ATOM     73  C   UNL A   1      49.139  26.554  25.450  1.00  0.00     0.010 A 
ATOM     74  C   UNL A   1      51.318  26.952  27.071  1.00  0.00     0.020 A 
ATOM     75  C   UNL A   1      50.415  26.322  24.936  1.00  0.00     0.020 A 
ATOM     76  C   UNL A   1      51.507  26.489  25.764  1.00  0.00     0.054 A 
BRANCH  76  77
ATOM     77  S   UNL A   1      53.144  25.962  25.179  1.00  0.00     0.124 S 
ATOM     78  O   UNL A   1      53.214  24.579  25.640  1.00  0.00    -0.237 OA
ATOM     79  O   UNL A   1      53.043  26.143  23.732  1.00  0.00    -0.237 OA
ATOM     80  O   UNL A   1      54.060  26.889  25.845  1.00  0.00    -0.744 OA
ENDBRANCH  76  77
ENDBRANCH  48  71
BRANCH  60  81
ATOM     81  C   UNL A   1      44.025  28.491  30.235  1.00  0.00    -0.014 A 
ATOM     82  C   UNL A   1      43.728  27.117  30.309  1.00  0.00     0.010 A 
ATOM     83  C   UNL A   1      44.182  29.180  31.455  1.00  0.00     0.010 A 
ATOM     84  C   UNL A   1      43.595  26.456  31.539  1.00  0.00     0.020 A 
ATOM     85  C   UNL A   1      44.050  28.526  32.699  1.00  0.00     0.020 A 
ATOM     86  C   UNL A   1      43.762  27.162  32.730  1.00  0.00     0.054 A 
BRANCH  86  87
ATOM     87  S   UNL A   1      43.605  26.262  34.304  1.00  0.00     0.124 S 
ATOM     88  O   UNL A   1      43.857  24.878  33.911  1.00  0.00    -0.237 OA
ATOM     89  O   UNL A   1      44.648  26.877  35.121  1.00  0.00    -0.237 OA
ATOM     90  O   UNL A   1      42.235  26.539  34.733  1.00  0.00    -0.744 OA
ENDBRANCH  86  87
ENDBRANCH  60  81
ENDBRANCH  34  35
ENDBRANCH  26  29
ENDBRANCH  24  25
ENDBRANCH  23  24
ENDBRANCH   1  23
TORSDOF 18
ENDMDL
MODEL 2
REMARK VINA RESULT:     -11.2      1.713      3.256
REMARK SMILES C[C@H](CNC(=O)Cn1cccc1C(=O)NCCCNC(=O)c1ccc(-c2c3nc(c(-c4ccc(S(=O)(=O)[O-])cc4)c4ccc([nH]4)c(-c4ccc(S(=O)(=O)[O-])cc4)c4nc(c(-c5ccc(S(=O)(=O)[O-])cc5)c5ccc2[nH]5)C=C4)C=C3)cc1)[NH+](C)C
REMARK SMILES IDX 16 1 15 2 13 3 14 4 12 6 8 7 9 8 10 9 11 10 7 11 5 12 4 13
REMARK SMILES IDX 6 15 3 16 2 17 1 18 82 19 83 20 84 21 17 23 18 24 19 25
REMARK SMILES IDX 20 26 21 28 22 29 23 30 81 31 24 32 80 33 25 34 26 35 27 36
REMARK SMILES IDX 74 37 28 38 79 39 73 40 75 41 29 42 78 43 72 44 71 45 30 47
REMARK SMILES IDX 60 48 41 49 59 50 42 51 45 52 58 53 76 54 43 55 44 56 57 58
REMARK SMILES IDX 77 59 46 60 31 61 32 62 40 63 33 64 39 65 34 66 35 67 36 68
REMARK SMILES IDX 37 69 38 70 61 71 62 72 70 73 63 74 69 75 64 76 65 77 66 78
REMARK SMILES IDX 67 79 68 80 47 81 48 82 56 83 49 84 55 85 50 86 51 87 52 88
REMARK SMILES IDX 53 89 54 90
REMARK H PARENT 15 5 4 14 82 22 19 27 75 46 45 57
REMARK Flexibility Score: inf
ROOT
ATOM      1  C   UNL A   1      37.259  20.767  24.223  1.00  0.00     0.118 C 
ENDROOT
BRANCH   1   2
ATOM      2  N   UNL A   1      36.944  21.924  25.030  1.00  0.00    -0.351 N 
ATOM      3  C   UNL A   1      35.949  22.850  25.146  1.00  0.00     0.267 C 
ATOM      4  O   UNL A   1      36.134  23.603  26.112  1.00  0.00    -0.268 OA
ATOM      5  H   UNL A   1      37.655  22.093  25.689  1.00  0.00     0.163 HD
BRANCH   3   6
ATOM      6  C   UNL A   1      34.740  23.012  24.330  1.00  0.00     0.107 A 
ATOM      7  N   UNL A   1      33.387  22.729  24.466  1.00  0.00    -0.334 N 
ATOM      8  C   UNL A   1      32.723  23.012  23.283  1.00  0.00     0.087 A 
ATOM      9  C   UNL A   1      33.599  23.593  22.410  1.00  0.00     0.020 A 
ATOM     10  C   UNL A   1      34.840  23.609  23.064  1.00  0.00     0.033 A 
BRANCH   7  11
ATOM     11  C   UNL A   1      32.661  22.058  25.527  1.00  0.00     0.222 C 
BRANCH  11  12
ATOM     12  C   UNL A   1      33.407  21.044  26.386  1.00  0.00     0.240 C 
ATOM     13  N   UNL A   1      33.922  19.860  25.960  1.00  0.00    -0.349 N 
ATOM     14  H   UNL A   1      34.334  19.329  26.678  1.00  0.00     0.163 HD
ATOM     15  O   UNL A   1      33.490  21.249  27.607  1.00  0.00    -0.273 OA
BRANCH  13  16
ATOM     16  C   UNL A   1      33.986  19.221  24.651  1.00  0.00     0.180 C 
BRANCH  16  17
ATOM     17  C   UNL A   1      32.672  18.569  24.142  1.00  0.00     0.199 C 
ATOM     18  C   UNL A   1      32.147  19.197  22.840  1.00  0.00     0.077 C 
BRANCH  17  19
ATOM     19  N   UNL A   1      32.716  17.087  24.148  1.00  0.00    -0.336 N 
ATOM     20  C   UNL A   1      33.921  16.573  23.497  1.00  0.00     0.332 C 
ATOM     21  C   UNL A   1      32.517  16.479  25.457  1.00  0.00     0.332 C 
ATOM     22  H   UNL A   1      31.906  16.804  23.595  1.00  0.00     0.347 HD
ENDBRANCH  17  19
ENDBRANCH  16  17
ENDBRANCH  13  16
ENDBRANCH  11  12
ENDBRANCH   7  11
ENDBRANCH   3   6
ENDBRANCH   1   2
BRANCH   1  23
ATOM     23  C   UNL A   1      37.910  19.648  25.036  1.00  0.00     0.042 C 
BRANCH  23  24
ATOM     24  C   UNL A   1      39.115  20.150  25.807  1.00  0.00     0.118 C 
BRANCH  24  25
ATOM     25  N   UNL A   1      40.112  19.094  25.929  1.00  0.00    -0.352 N 
ATOM     26  C   UNL A   1      41.474  19.213  26.068  1.00  0.00     0.251 C 
ATOM     27  H   UNL A   1      39.764  18.172  25.909  1.00  0.00     0.163 HD
ATOM     28  O   UNL A   1      42.202  18.263  25.840  1.00  0.00    -0.269 OA
BRANCH  26  29
ATOM     29  C   UNL A   1      42.037  20.516  26.461  1.00  0.00     0.039 A 
ATOM     30  C   UNL A   1      42.368  21.426  25.456  1.00  0.00     0.014 A 
ATOM     31  C   UNL A   1      42.225  20.826  27.814  1.00  0.00     0.014 A 
ATOM     32  C   UNL A   1      42.824  22.686  25.816  1.00  0.00     0.010 A 
ATOM     33  C   UNL A   1      42.630  22.097  28.177  1.00  0.00     0.010 A 
ATOM     34  C   UNL A   1      42.921  23.025  27.176  1.00  0.00    -0.014 A 
BRANCH  34  35
ATOM     35  C   UNL A   1      43.240  24.420  27.533  1.00  0.00     0.031 A 
ATOM     36  C   UNL A   1      41.954  25.242  27.751  1.00  0.00     0.074 A 
ATOM     37  C   UNL A   1      44.571  24.744  27.525  1.00  0.00     0.049 A 
ATOM     38  N   UNL A   1      41.703  26.475  27.444  1.00  0.00    -0.248 NA
ATOM     39  C   UNL A   1      40.730  24.577  28.284  1.00  0.00     0.031 C 
ATOM     40  C   UNL A   1      45.680  23.772  27.342  1.00  0.00     0.029 A 
ATOM     41  N   UNL A   1      45.277  25.919  27.657  1.00  0.00    -0.354 N 
ATOM     42  C   UNL A   1      40.384  26.782  27.860  1.00  0.00     0.074 A 
ATOM     43  C   UNL A   1      39.803  25.544  28.285  1.00  0.00     0.031 C 
ATOM     44  C   UNL A   1      46.877  24.397  27.286  1.00  0.00     0.029 A 
ATOM     45  C   UNL A   1      46.675  25.824  27.416  1.00  0.00     0.049 A 
ATOM     46  H   UNL A   1      44.843  26.768  27.902  1.00  0.00     0.167 HD
ATOM     47  C   UNL A   1      39.905  28.063  27.918  1.00  0.00     0.031 A 
ATOM     48  C   UNL A   1      47.593  26.829  27.255  1.00  0.00     0.031 A 
ATOM     49  C   UNL A   1      40.927  28.964  27.502  1.00  0.00     0.049 A 
ATOM     50  C   UNL A   1      46.843  28.074  27.476  1.00  0.00     0.074 A 
ATOM     51  C   UNL A   1      41.463  29.247  26.274  1.00  0.00     0.029 A 
ATOM     52  N   UNL A   1      41.787  29.391  28.488  1.00  0.00    -0.354 N 
ATOM     53  N   UNL A   1      46.415  28.499  28.624  1.00  0.00    -0.248 NA
ATOM     54  C   UNL A   1      46.440  28.862  26.303  1.00  0.00     0.031 C 
ATOM     55  C   UNL A   1      42.842  29.334  26.553  1.00  0.00     0.029 A 
ATOM     56  C   UNL A   1      43.044  29.371  27.939  1.00  0.00     0.049 A 
ATOM     57  H   UNL A   1      41.548  29.658  29.405  1.00  0.00     0.167 HD
ATOM     58  C   UNL A   1      45.399  29.346  28.259  1.00  0.00     0.074 A 
ATOM     59  C   UNL A   1      45.680  29.772  26.904  1.00  0.00     0.031 C 
ATOM     60  C   UNL A   1      44.171  29.208  28.824  1.00  0.00     0.031 A 
BRANCH  47  61
ATOM     61  C   UNL A   1      38.675  28.698  28.516  1.00  0.00    -0.014 A 
ATOM     62  C   UNL A   1      38.102  29.781  27.793  1.00  0.00     0.010 A 
ATOM     63  C   UNL A   1      38.276  28.534  29.848  1.00  0.00     0.010 A 
ATOM     64  C   UNL A   1      37.288  30.736  28.402  1.00  0.00     0.020 A 
ATOM     65  C   UNL A   1      37.423  29.475  30.462  1.00  0.00     0.020 A 
ATOM     66  C   UNL A   1      36.978  30.595  29.748  1.00  0.00     0.054 A 
BRANCH  66  67
ATOM     67  S   UNL A   1      36.051  31.933  30.552  1.00  0.00     0.124 S 
ATOM     68  O   UNL A   1      34.886  32.070  29.682  1.00  0.00    -0.237 OA
ATOM     69  O   UNL A   1      35.778  31.377  31.876  1.00  0.00    -0.237 OA
ATOM     70  O   UNL A   1      36.984  33.056  30.537  1.00  0.00    -0.744 OA
ENDBRANCH  66  67
ENDBRANCH  47  61
BRANCH  48  71
ATOM     71  C   UNL A   1      49.014  26.994  26.757  1.00  0.00    -0.014 A 
ATOM     72  C   UNL A   1      50.141  27.317  27.524  1.00  0.00     0.010 A 
ATOM     73  C   UNL A   1      49.275  26.680  25.391  1.00  0.00     0.010 A 
ATOM     74  C   UNL A   1      51.449  27.165  26.996  1.00  0.00     0.020 A 
ATOM     75  C   UNL A   1      50.555  26.473  24.875  1.00  0.00     0.020 A 
ATOM     76  C   UNL A   1      51.645  26.684  25.696  1.00  0.00     0.054 A 
BRANCH  76  77
ATOM     77  S   UNL A   1      53.294  26.191  25.112  1.00  0.00     0.124 S 
ATOM     78  O   UNL A   1      54.170  26.729  26.148  1.00  0.00    -0.237 OA
ATOM     79  O   UNL A   1      53.194  24.734  25.060  1.00  0.00    -0.237 OA
ATOM     80  O   UNL A   1      53.401  26.840  23.805  1.00  0.00    -0.744 OA
ENDBRANCH  76  77
ENDBRANCH  48  71
BRANCH  60  81
ATOM     81  C   UNL A   1      44.143  28.539  30.193  1.00  0.00    -0.014 A 
ATOM     82  C   UNL A   1      43.838  27.167  30.278  1.00  0.00     0.010 A 
ATOM     83  C   UNL A   1      44.328  29.231  31.408  1.00  0.00     0.010 A 
ATOM     84  C   UNL A   1      43.726  26.511  31.513  1.00  0.00     0.020 A 
ATOM     85  C   UNL A   1      44.217  28.582  32.656  1.00  0.00     0.020 A 
ATOM     86  C   UNL A   1      43.921  27.220  32.698  1.00  0.00     0.054 A 
BRANCH  86  87
ATOM     87  S   UNL A   1      43.789  26.326  34.277  1.00  0.00     0.124 S 
ATOM     88  O   UNL A   1      42.526  26.817  34.823  1.00  0.00    -0.237 OA
ATOM     89  O   UNL A   1      43.781  24.930  33.847  1.00  0.00    -0.237 OA
ATOM     90  O   UNL A   1      44.981  26.741  35.016  1.00  0.00    -0.744 OA
ENDBRANCH  86  87
ENDBRANCH  60  81
ENDBRANCH  34  35
ENDBRANCH  26  29
ENDBRANCH  24  25
ENDBRANCH  23  24
ENDBRANCH   1  23
TORSDOF 18
ENDMDL
MODEL 3
REMARK VINA RESULT:     -11.1      4.180      7.686
REMARK SMILES C[C@H](CNC(=O)Cn1cccc1C(=O)NCCCNC(=O)c1ccc(-c2c3nc(c(-c4ccc(S(=O)(=O)[O-])cc4)c4ccc([nH]4)c(-c4ccc(S(=O)(=O)[O-])cc4)c4nc(c(-c5ccc(S(=O)(=O)[O-])cc5)c5ccc2[nH]5)C=C4)C=C3)cc1)[NH+](C)C
REMARK SMILES IDX 16 1 15 2 13 3 14 4 12 6 8 7 9 8 10 9 11 10 7 11 5 12 4 13
REMARK SMILES IDX 6 15 3 16 2 17 1 18 82 19 83 20 84 21 17 23 18 24 19 25
REMARK SMILES IDX 20 26 21 28 22 29 23 30 81 31 24 32 80 33 25 34 26 35 27 36
REMARK SMILES IDX 74 37 28 38 79 39 73 40 75 41 29 42 78 43 72 44 71 45 30 47
REMARK SMILES IDX 60 48 41 49 59 50 42 51 45 52 58 53 76 54 43 55 44 56 57 58
REMARK SMILES IDX 77 59 46 60 31 61 32 62 40 63 33 64 39 65 34 66 35 67 36 68
REMARK SMILES IDX 37 69 38 70 61 71 62 72 70 73 63 74 69 75 64 76 65 77 66 78
REMARK SMILES IDX 67 79 68 80 47 81 48 82 56 83 49 84 55 85 50 86 51 87 52 88
REMARK SMILES IDX 53 89 54 90
REMARK H PARENT 15 5 4 14 82 22 19 27 75 46 45 57
REMARK Flexibility Score: inf
ROOT
ATOM      1  C   UNL A   1      33.113  29.547  25.187  1.00  0.00     0.118 C 
ENDROOT
BRANCH   1   2
ATOM      2  N   UNL A   1      33.562  29.311  23.833  1.00  0.00    -0.351 N 
ATOM      3  C   UNL A   1      33.451  28.351  22.871  1.00  0.00     0.267 C 
ATOM      4  O   UNL A   1      33.970  28.709  21.805  1.00  0.00    -0.268 OA
ATOM      5  H   UNL A   1      34.108  30.064  23.512  1.00  0.00     0.163 HD
BRANCH   3   6
ATOM      6  C   UNL A   1      32.788  27.045  22.944  1.00  0.00     0.107 A 
ATOM      7  N   UNL A   1      31.602  26.544  23.466  1.00  0.00    -0.334 N 
ATOM      8  C   UNL A   1      31.568  25.166  23.327  1.00  0.00     0.087 A 
ATOM      9  C   UNL A   1      32.659  24.764  22.609  1.00  0.00     0.020 A 
ATOM     10  C   UNL A   1      33.403  25.927  22.358  1.00  0.00     0.033 A 
BRANCH   7  11
ATOM     11  C   UNL A   1      30.562  27.190  24.243  1.00  0.00     0.222 C 
BRANCH  11  12
ATOM     12  C   UNL A   1      29.161  27.280  23.647  1.00  0.00     0.240 C 
ATOM     13  N   UNL A   1      28.653  28.336  22.957  1.00  0.00    -0.349 N 
ATOM     14  H   UNL A   1      27.714  28.213  22.688  1.00  0.00     0.163 HD
ATOM     15  O   UNL A   1      28.362  26.359  23.872  1.00  0.00    -0.273 OA
BRANCH  13  16
ATOM     16  C   UNL A   1      29.220  29.611  22.537  1.00  0.00     0.180 C 
BRANCH  16  17
ATOM     17  C   UNL A   1      28.222  30.791  22.391  1.00  0.00     0.199 C 
ATOM     18  C   UNL A   1      27.387  31.040  23.658  1.00  0.00     0.077 C 
BRANCH  17  19
ATOM     19  N   UNL A   1      28.834  32.003  21.797  1.00  0.00    -0.336 N 
ATOM     20  C   UNL A   1      28.072  32.493  20.649  1.00  0.00     0.332 C 
ATOM     21  C   UNL A   1      29.114  33.072  22.747  1.00  0.00     0.332 C 
ATOM     22  H   UNL A   1      29.749  31.693  21.466  1.00  0.00     0.347 HD
ENDBRANCH  17  19
ENDBRANCH  16  17
ENDBRANCH  13  16
ENDBRANCH  11  12
ENDBRANCH   7  11
ENDBRANCH   3   6
ENDBRANCH   1   2
BRANCH   1  23
ATOM     23  C   UNL A   1      33.481  28.404  26.132  1.00  0.00     0.042 C 
BRANCH  23  24
ATOM     24  C   UNL A   1      33.424  28.843  27.582  1.00  0.00     0.118 C 
BRANCH  24  25
ATOM     25  N   UNL A   1      33.554  30.292  27.676  1.00  0.00    -0.352 N 
ATOM     26  C   UNL A   1      34.583  31.026  28.213  1.00  0.00     0.251 C 
ATOM     27  H   UNL A   1      32.805  30.814  27.306  1.00  0.00     0.163 HD
ATOM     28  O   UNL A   1      34.417  32.197  28.508  1.00  0.00    -0.269 OA
BRANCH  26  29
ATOM     29  C   UNL A   1      35.877  30.365  28.457  1.00  0.00     0.039 A 
ATOM     30  C   UNL A   1      36.793  30.292  27.407  1.00  0.00     0.014 A 
ATOM     31  C   UNL A   1      36.170  29.831  29.717  1.00  0.00     0.014 A 
ATOM     32  C   UNL A   1      38.045  29.744  27.648  1.00  0.00     0.010 A 
ATOM     33  C   UNL A   1      37.433  29.330  29.974  1.00  0.00     0.010 A 
ATOM     34  C   UNL A   1      38.369  29.295  28.938  1.00  0.00    -0.014 A 
BRANCH  34  35
ATOM     35  C   UNL A   1      39.756  28.877  29.212  1.00  0.00     0.031 A 
ATOM     36  C   UNL A   1      40.624  30.083  29.628  1.00  0.00     0.074 A 
ATOM     37  C   UNL A   1      40.036  27.557  28.975  1.00  0.00     0.049 A 
ATOM     38  N   UNL A   1      41.861  30.343  29.345  1.00  0.00    -0.248 NA
ATOM     39  C   UNL A   1      40.007  31.219  30.371  1.00  0.00     0.031 C 
ATOM     40  C   UNL A   1      39.025  26.526  28.626  1.00  0.00     0.029 A 
ATOM     41  N   UNL A   1      41.188  26.804  28.966  1.00  0.00    -0.354 N 
ATOM     42  C   UNL A   1      42.217  31.564  29.971  1.00  0.00     0.074 A 
ATOM     43  C   UNL A   1      41.004  32.102  30.510  1.00  0.00     0.031 C 
ATOM     44  C   UNL A   1      39.608  25.337  28.359  1.00  0.00     0.029 A 
ATOM     45  C   UNL A   1      41.043  25.469  28.495  1.00  0.00     0.049 A 
ATOM     46  H   UNL A   1      42.054  27.163  29.265  1.00  0.00     0.167 HD
ATOM     47  C   UNL A   1      43.514  31.985  30.086  1.00  0.00     0.031 A 
ATOM     48  C   UNL A   1      42.014  24.561  28.165  1.00  0.00     0.031 A 
ATOM     49  C   UNL A   1      44.374  31.020  29.488  1.00  0.00     0.049 A 
ATOM     50  C   UNL A   1      43.286  25.224  28.486  1.00  0.00     0.074 A 
ATOM     51  C   UNL A   1      44.624  30.690  28.183  1.00  0.00     0.029 A 
ATOM     52  N   UNL A   1      44.784  29.994  30.308  1.00  0.00    -0.354 N 
ATOM     53  N   UNL A   1      43.740  25.440  29.682  1.00  0.00    -0.248 NA
ATOM     54  C   UNL A   1      44.073  25.794  27.384  1.00  0.00     0.031 C 
ATOM     55  C   UNL A   1      44.669  29.282  28.225  1.00  0.00     0.029 A 
ATOM     56  C   UNL A   1      44.716  28.849  29.557  1.00  0.00     0.049 A 
ATOM     57  H   UNL A   1      45.071  30.068  31.247  1.00  0.00     0.167 HD
ATOM     58  C   UNL A   1      44.615  26.475  29.478  1.00  0.00     0.074 A 
ATOM     59  C   UNL A   1      45.015  26.414  28.087  1.00  0.00     0.031 C 
ATOM     60  C   UNL A   1      44.526  27.595  30.243  1.00  0.00     0.031 A 
BRANCH  47  61
ATOM     61  C   UNL A   1      44.197  33.077  30.870  1.00  0.00    -0.014 A 
ATOM     62  C   UNL A   1      44.095  33.003  32.288  1.00  0.00     0.010 A 
ATOM     63  C   UNL A   1      44.612  34.296  30.320  1.00  0.00     0.010 A 
ATOM     64  C   UNL A   1      44.255  34.121  33.106  1.00  0.00     0.020 A 
ATOM     65  C   UNL A   1      44.813  35.423  31.144  1.00  0.00     0.020 A 
ATOM     66  C   UNL A   1      44.582  35.339  32.523  1.00  0.00     0.054 A 
BRANCH  66  67
ATOM     67  S   UNL A   1      44.627  36.806  33.591  1.00  0.00     0.124 S 
ATOM     68  O   UNL A   1      43.295  37.373  33.397  1.00  0.00    -0.237 OA
ATOM     69  O   UNL A   1      44.873  36.228  34.911  1.00  0.00    -0.237 OA
ATOM     70  O   UNL A   1      45.731  37.593  33.049  1.00  0.00    -0.744 OA
ENDBRANCH  66  67
ENDBRANCH  47  61
BRANCH  48  71
ATOM     71  C   UNL A   1      42.125  23.239  27.433  1.00  0.00    -0.014 A 
ATOM     72  C   UNL A   1      43.134  22.853  26.542  1.00  0.00     0.010 A 
ATOM     73  C   UNL A   1      41.178  22.224  27.758  1.00  0.00     0.010 A 
ATOM     74  C   UNL A   1      43.278  21.498  26.146  1.00  0.00     0.020 A 
ATOM     75  C   UNL A   1      41.338  20.880  27.422  1.00  0.00     0.020 A 
ATOM     76  C   UNL A   1      42.415  20.513  26.639  1.00  0.00     0.054 A 
BRANCH  76  77
ATOM     77  S   UNL A   1      42.764  18.746  26.396  1.00  0.00     0.124 S 
ATOM     78  O   UNL A   1      43.941  18.774  25.533  1.00  0.00    -0.237 OA
ATOM     79  O   UNL A   1      42.990  18.272  27.759  1.00  0.00    -0.237 OA
ATOM     80  O   UNL A   1      41.543  18.240  25.769  1.00  0.00    -0.744 OA
ENDBRANCH  76  77
ENDBRANCH  48  71
BRANCH  60  81
ATOM     81  C   UNL A   1      43.876  27.413  31.609  1.00  0.00    -0.014 A 
ATOM     82  C   UNL A   1      44.477  26.547  32.543  1.00  0.00     0.010 A 
ATOM     83  C   UNL A   1      42.651  28.004  31.980  1.00  0.00     0.010 A 
ATOM     84  C   UNL A   1      43.888  26.282  33.788  1.00  0.00     0.020 A 
ATOM     85  C   UNL A   1      42.049  27.746  33.229  1.00  0.00     0.020 A 
ATOM     86  C   UNL A   1      42.679  26.887  34.130  1.00  0.00     0.054 A 
BRANCH  86  87
ATOM     87  S   UNL A   1      41.963  26.536  35.765  1.00  0.00     0.124 S 
ATOM     88  O   UNL A   1      41.294  25.254  35.557  1.00  0.00    -0.237 OA
ATOM     89  O   UNL A   1      43.145  26.489  36.621  1.00  0.00    -0.237 OA
ATOM     90  O   UNL A   1      41.066  27.665  36.006  1.00  0.00    -0.744 OA
ENDBRANCH  86  87
ENDBRANCH  60  81
ENDBRANCH  34  35
ENDBRANCH  26  29
ENDBRANCH  24  25
ENDBRANCH  23  24
ENDBRANCH   1  23
TORSDOF 18
ENDMDL
