MODEL 1
REMARK VINA RESULT:     -11.3      0.000      0.000
REMARK SMILES CC(C)C[C@H](NC(=O)[C@@H](NC(=O)N1CC(NCCCNC(=O)c2ccc(-c3c4nc(c(-c5ccc(S(=O)(=O)[O-])cc5)c5ccc([nH]5)c(-c5ccc(S(=O)(=O)[O-])cc5)c5nc(c(-c6ccc(S(=O)(=O)[O-])cc6)c6ccc3[nH]6)C=C5)C=C4)cc2)=[NH+]c2ccccc21)C(C)C)C(=O)[O-]
REMARK SMILES IDX 17 1 16 2 13 3 14 4 89 5 15 6 84 7 88 8 83 9 85 10 87 11
REMARK SMILES IDX 86 14 11 15 10 16 12 18 9 19 7 20 6 21 8 23 5 24 4 25 2 26
REMARK SMILES IDX 1 27 3 28 93 29 94 30 95 31 90 32 91 33 92 34 18 35 19 36
REMARK SMILES IDX 20 37 21 38 22 40 23 41 24 42 82 43 25 44 81 45 26 46 27 47
REMARK SMILES IDX 28 48 75 49 29 50 80 51 74 52 76 53 30 54 79 55 73 56 72 57
REMARK SMILES IDX 31 59 61 60 42 61 60 62 43 63 46 64 59 65 77 66 44 67 45 68
REMARK SMILES IDX 58 70 78 71 47 72 32 73 33 74 41 75 34 76 40 77 35 78 36 79
REMARK SMILES IDX 37 80 38 81 39 82 62 83 63 84 71 85 64 86 70 87 65 88 66 89
REMARK SMILES IDX 67 90 68 91 69 92 48 93 49 94 57 95 50 96 56 97 51 98 52 99
REMARK SMILES IDX 53 100 54 101 55 102
REMARK H PARENT 16 12 83 13 10 17 6 22 20 39 76 58 46 69
REMARK Flexibility Score: inf
ROOT
ATOM      1  C   UNL A   1      37.918  24.415  26.553  1.00  0.00     0.235 C 
ENDROOT
BRANCH   1   2
ATOM      2  N   UNL A   1      37.428  23.080  26.244  1.00  0.00    -0.277 N 
ATOM      3  N   UNL A   1      33.854  22.321  26.393  1.00  0.00    -0.278 N 
ATOM      4  C   UNL A   1      34.833  23.248  25.710  1.00  0.00     0.255 C 
ATOM      5  C   UNL A   1      33.848  21.054  25.746  1.00  0.00     0.093 A 
ATOM      6  C   UNL A   1      36.228  22.560  25.746  1.00  0.00     0.268 C 
ATOM      7  C   UNL A   1      35.075  20.586  25.216  1.00  0.00     0.148 A 
ATOM      8  C   UNL A   1      32.671  20.317  25.575  1.00  0.00     0.031 A 
ATOM      9  N   UNL A   1      36.295  21.298  25.371  1.00  0.00    -0.241 N 
ATOM     10  C   UNL A   1      35.115  19.300  24.677  1.00  0.00     0.054 A 
ATOM     11  C   UNL A   1      32.724  19.058  24.981  1.00  0.00     0.002 A 
ATOM     12  H   UNL A   1      38.096  22.380  26.426  1.00  0.00     0.304 HD
ATOM     13  H   UNL A   1      37.162  20.863  25.204  1.00  0.00     0.312 HD
ATOM     14  C   UNL A   1      33.950  18.531  24.576  1.00  0.00     0.005 A 
BRANCH   3  15
ATOM     15  C   UNL A   1      32.843  22.770  27.199  1.00  0.00     0.323 C 
ATOM     16  N   UNL A   1      32.024  23.833  26.922  1.00  0.00    -0.326 N 
ATOM     17  H   UNL A   1      32.048  24.429  27.705  1.00  0.00     0.166 HD
ATOM     18  O   UNL A   1      32.651  22.223  28.294  1.00  0.00    -0.248 OA
BRANCH  16  19
ATOM     19  C   UNL A   1      31.071  24.486  25.878  1.00  0.00     0.175 C 
BRANCH  19  20
ATOM     20  C   UNL A   1      31.199  23.892  24.423  1.00  0.00     0.243 C 
ATOM     21  N   UNL A   1      31.437  24.514  23.247  1.00  0.00    -0.346 N 
ATOM     22  H   UNL A   1      30.886  24.101  22.543  1.00  0.00     0.164 HD
ATOM     23  O   UNL A   1      30.977  22.673  24.294  1.00  0.00    -0.273 OA
BRANCH  21  24
ATOM     24  C   UNL A   1      32.246  25.605  22.659  1.00  0.00     0.128 C 
BRANCH  24  25
ATOM     25  C   UNL A   1      33.109  26.477  23.555  1.00  0.00     0.034 C 
BRANCH  25  26
ATOM     26  C   UNL A   1      33.032  27.987  23.392  1.00  0.00    -0.015 C 
ATOM     27  C   UNL A   1      31.700  28.490  22.845  1.00  0.00     0.007 C 
ATOM     28  C   UNL A   1      34.310  28.501  22.755  1.00  0.00     0.007 C 
ENDBRANCH  25  26
ENDBRANCH  24  25
BRANCH  24  29
ATOM     29  C   UNL A   1      32.982  25.169  21.364  1.00  0.00     0.064 C 
ATOM     30  O   UNL A   1      33.213  25.860  20.406  1.00  0.00    -0.548 OA
ATOM     31  O   UNL A   1      33.379  23.873  21.400  1.00  0.00    -0.548 OA
ENDBRANCH  24  29
ENDBRANCH  21  24
ENDBRANCH  19  20
BRANCH  19  32
ATOM     32  C   UNL A   1      30.232  25.816  26.022  1.00  0.00     0.015 C 
ATOM     33  C   UNL A   1      31.075  27.069  26.363  1.00  0.00     0.010 C 
ATOM     34  C   UNL A   1      29.444  26.162  24.749  1.00  0.00     0.010 C 
ENDBRANCH  19  32
ENDBRANCH  16  19
ENDBRANCH   3  15
ENDBRANCH   1   2
BRANCH   1  35
ATOM     35  C   UNL A   1      39.455  24.669  26.478  1.00  0.00     0.067 C 
BRANCH  35  36
ATOM     36  C   UNL A   1      40.491  23.535  26.646  1.00  0.00     0.120 C 
BRANCH  36  37
ATOM     37  N   UNL A   1      41.822  23.870  26.160  1.00  0.00    -0.352 N 
ATOM     38  C   UNL A   1      42.701  24.900  26.416  1.00  0.00     0.251 C 
ATOM     39  H   UNL A   1      42.168  23.221  25.507  1.00  0.00     0.163 HD
ATOM     40  O   UNL A   1      43.710  24.953  25.706  1.00  0.00    -0.269 OA
BRANCH  38  41
ATOM     41  C   UNL A   1      42.531  25.955  27.463  1.00  0.00     0.039 A 
ATOM     42  C   UNL A   1      41.833  25.600  28.631  1.00  0.00     0.014 A 
ATOM     43  C   UNL A   1      42.878  27.298  27.292  1.00  0.00     0.014 A 
ATOM     44  C   UNL A   1      41.537  26.548  29.628  1.00  0.00     0.010 A 
ATOM     45  C   UNL A   1      42.606  28.246  28.308  1.00  0.00     0.010 A 
ATOM     46  C   UNL A   1      41.944  27.883  29.496  1.00  0.00    -0.014 A 
BRANCH  46  47
ATOM     47  C   UNL A   1      41.730  28.866  30.610  1.00  0.00     0.031 A 
ATOM     48  C   UNL A   1      42.602  28.881  31.845  1.00  0.00     0.074 A 
ATOM     49  C   UNL A   1      40.712  29.753  30.534  1.00  0.00     0.049 A 
ATOM     50  N   UNL A   1      42.506  29.631  32.918  1.00  0.00    -0.248 NA
ATOM     51  C   UNL A   1      43.719  27.928  31.884  1.00  0.00     0.031 C 
ATOM     52  C   UNL A   1      39.776  29.868  29.414  1.00  0.00     0.029 A 
ATOM     53  N   UNL A   1      40.287  30.720  31.417  1.00  0.00    -0.354 N 
ATOM     54  C   UNL A   1      43.537  29.233  33.764  1.00  0.00     0.074 A 
ATOM     55  C   UNL A   1      44.229  28.155  33.088  1.00  0.00     0.031 C 
ATOM     56  C   UNL A   1      38.898  30.850  29.671  1.00  0.00     0.029 A 
ATOM     57  C   UNL A   1      39.177  31.414  30.989  1.00  0.00     0.049 A 
ATOM     58  H   UNL A   1      40.735  30.901  32.274  1.00  0.00     0.167 HD
ATOM     59  C   UNL A   1      43.884  29.718  34.985  1.00  0.00     0.031 A 
ATOM     60  C   UNL A   1      38.446  32.380  31.584  1.00  0.00     0.031 A 
ATOM     61  C   UNL A   1      43.210  30.796  35.669  1.00  0.00     0.049 A 
ATOM     62  C   UNL A   1      38.832  32.880  32.951  1.00  0.00     0.074 A 
ATOM     63  C   UNL A   1      43.524  31.370  36.890  1.00  0.00     0.029 A 
ATOM     64  N   UNL A   1      42.089  31.462  35.198  1.00  0.00    -0.354 N 
ATOM     65  N   UNL A   1      39.833  32.509  33.711  1.00  0.00    -0.248 NA
ATOM     66  C   UNL A   1      37.991  33.936  33.534  1.00  0.00     0.031 C 
ATOM     67  C   UNL A   1      42.569  32.351  37.179  1.00  0.00     0.029 A 
ATOM     68  C   UNL A   1      41.689  32.424  36.114  1.00  0.00     0.049 A 
ATOM     69  H   UNL A   1      41.643  31.279  34.340  1.00  0.00     0.167 HD
ATOM     70  C   UNL A   1      39.757  33.305  34.849  1.00  0.00     0.074 A 
ATOM     71  C   UNL A   1      38.622  34.187  34.673  1.00  0.00     0.031 C 
ATOM     72  C   UNL A   1      40.560  33.304  35.941  1.00  0.00     0.031 A 
BRANCH  59  73
ATOM     73  C   UNL A   1      45.056  29.078  35.688  1.00  0.00    -0.014 A 
ATOM     74  C   UNL A   1      46.370  29.526  35.462  1.00  0.00     0.010 A 
ATOM     75  C   UNL A   1      44.834  28.065  36.641  1.00  0.00     0.010 A 
ATOM     76  C   UNL A   1      47.444  28.946  36.146  1.00  0.00     0.020 A 
ATOM     77  C   UNL A   1      45.903  27.499  37.343  1.00  0.00     0.020 A 
ATOM     78  C   UNL A   1      47.203  27.932  37.078  1.00  0.00     0.054 A 
BRANCH  78  79
ATOM     79  S   UNL A   1      48.615  27.208  37.962  1.00  0.00     0.124 S 
ATOM     80  O   UNL A   1      49.161  28.371  38.657  1.00  0.00    -0.237 OA
ATOM     81  O   UNL A   1      47.980  26.208  38.817  1.00  0.00    -0.237 OA
ATOM     82  O   UNL A   1      49.453  26.669  36.895  1.00  0.00    -0.744 OA
ENDBRANCH  78  79
ENDBRANCH  59  73
BRANCH  60  83
ATOM     83  C   UNL A   1      37.255  32.945  30.890  1.00  0.00    -0.014 A 
ATOM     84  C   UNL A   1      35.970  32.807  31.445  1.00  0.00     0.010 A 
ATOM     85  C   UNL A   1      37.401  33.617  29.663  1.00  0.00     0.010 A 
ATOM     86  C   UNL A   1      34.852  33.312  30.776  1.00  0.00     0.020 A 
ATOM     87  C   UNL A   1      36.289  34.149  29.005  1.00  0.00     0.020 A 
ATOM     88  C   UNL A   1      35.019  33.981  29.560  1.00  0.00     0.054 A 
BRANCH  88  89
ATOM     89  S   UNL A   1      33.560  34.671  28.729  1.00  0.00     0.124 S 
ATOM     90  O   UNL A   1      33.241  33.628  27.760  1.00  0.00    -0.237 OA
ATOM     91  O   UNL A   1      32.611  34.825  29.830  1.00  0.00    -0.237 OA
ATOM     92  O   UNL A   1      34.053  35.925  28.164  1.00  0.00    -0.744 OA
ENDBRANCH  88  89
ENDBRANCH  60  83
BRANCH  72  93
ATOM     93  C   UNL A   1      40.269  34.311  37.024  1.00  0.00    -0.014 A 
ATOM     94  C   UNL A   1      40.775  35.622  36.956  1.00  0.00     0.010 A 
ATOM     95  C   UNL A   1      39.442  33.953  38.104  1.00  0.00     0.010 A 
ATOM     96  C   UNL A   1      40.485  36.545  37.965  1.00  0.00     0.020 A 
ATOM     97  C   UNL A   1      39.129  34.881  39.102  1.00  0.00     0.020 A 
ATOM     98  C   UNL A   1      39.665  36.168  39.034  1.00  0.00     0.054 A 
BRANCH  98  99
ATOM     99  S   UNL A   1      39.270  37.395  40.312  1.00  0.00     0.124 S 
ATOM    100  O   UNL A   1      38.499  38.381  39.559  1.00  0.00    -0.237 OA
ATOM    101  O   UNL A   1      38.509  36.613  41.284  1.00  0.00    -0.237 OA
ATOM    102  O   UNL A   1      40.580  37.848  40.774  1.00  0.00    -0.744 OA
ENDBRANCH  98  99
ENDBRANCH  72  93
ENDBRANCH  46  47
ENDBRANCH  38  41
ENDBRANCH  36  37
ENDBRANCH  35  36
ENDBRANCH   1  35
TORSDOF 20
ENDMDL
MODEL 2
REMARK VINA RESULT:     -11.2      6.044     11.632
REMARK SMILES CC(C)C[C@H](NC(=O)[C@@H](NC(=O)N1CC(NCCCNC(=O)c2ccc(-c3c4nc(c(-c5ccc(S(=O)(=O)[O-])cc5)c5ccc([nH]5)c(-c5ccc(S(=O)(=O)[O-])cc5)c5nc(c(-c6ccc(S(=O)(=O)[O-])cc6)c6ccc3[nH]6)C=C5)C=C4)cc2)=[NH+]c2ccccc21)C(C)C)C(=O)[O-]
REMARK SMILES IDX 17 1 16 2 13 3 14 4 89 5 15 6 84 7 88 8 83 9 85 10 87 11
REMARK SMILES IDX 86 14 11 15 10 16 12 18 9 19 7 20 6 21 8 23 5 24 4 25 2 26
REMARK SMILES IDX 1 27 3 28 93 29 94 30 95 31 90 32 91 33 92 34 18 35 19 36
REMARK SMILES IDX 20 37 21 38 22 40 23 41 24 42 82 43 25 44 81 45 26 46 27 47
REMARK SMILES IDX 28 48 75 49 29 50 80 51 74 52 76 53 30 54 79 55 73 56 72 57
REMARK SMILES IDX 31 59 61 60 42 61 60 62 43 63 46 64 59 65 77 66 44 67 45 68
REMARK SMILES IDX 58 70 78 71 47 72 32 73 33 74 41 75 34 76 40 77 35 78 36 79
REMARK SMILES IDX 37 80 38 81 39 82 62 83 63 84 71 85 64 86 70 87 65 88 66 89
REMARK SMILES IDX 67 90 68 91 69 92 48 93 49 94 57 95 50 96 56 97 51 98 52 99
REMARK SMILES IDX 53 100 54 101 55 102
REMARK H PARENT 16 12 83 13 10 17 6 22 20 39 76 58 46 69
REMARK Flexibility Score: inf
ROOT
ATOM      1  C   UNL A   1      33.642  30.772  26.900  1.00  0.00     0.235 C 
ENDROOT
BRANCH   1   2
ATOM      2  N   UNL A   1      33.829  29.969  25.699  1.00  0.00    -0.277 N 
ATOM      3  N   UNL A   1      31.922  26.891  25.192  1.00  0.00    -0.278 N 
ATOM      4  C   UNL A   1      31.727  28.371  25.428  1.00  0.00     0.255 C 
ATOM      5  C   UNL A   1      32.212  26.649  23.820  1.00  0.00     0.093 A 
ATOM      6  C   UNL A   1      33.026  29.091  24.964  1.00  0.00     0.268 C 
ATOM      7  C   UNL A   1      32.979  27.623  23.134  1.00  0.00     0.148 A 
ATOM      8  C   UNL A   1      31.713  25.530  23.145  1.00  0.00     0.031 A 
ATOM      9  N   UNL A   1      33.510  28.771  23.781  1.00  0.00    -0.241 N 
ATOM     10  C   UNL A   1      33.370  27.353  21.823  1.00  0.00     0.054 A 
ATOM     11  C   UNL A   1      32.068  25.309  21.817  1.00  0.00     0.002 A 
ATOM     12  H   UNL A   1      34.730  30.069  25.315  1.00  0.00     0.304 HD
ATOM     13  H   UNL A   1      34.219  29.310  23.359  1.00  0.00     0.312 HD
ATOM     14  C   UNL A   1      32.932  26.194  21.172  1.00  0.00     0.005 A 
BRANCH   3  15
ATOM     15  C   UNL A   1      31.460  25.933  26.054  1.00  0.00     0.323 C 
ATOM     16  N   UNL A   1      31.852  24.620  26.061  1.00  0.00    -0.326 N 
ATOM     17  H   UNL A   1      31.035  24.073  26.030  1.00  0.00     0.166 HD
ATOM     18  O   UNL A   1      30.585  26.230  26.879  1.00  0.00    -0.248 OA
BRANCH  16  19
ATOM     19  C   UNL A   1      33.060  23.639  26.098  1.00  0.00     0.175 C 
BRANCH  19  20
ATOM     20  C   UNL A   1      32.676  22.150  26.445  1.00  0.00     0.243 C 
ATOM     21  N   UNL A   1      32.424  21.103  25.629  1.00  0.00    -0.346 N 
ATOM     22  H   UNL A   1      31.678  20.575  25.996  1.00  0.00     0.164 HD
ATOM     23  O   UNL A   1      32.496  21.883  27.649  1.00  0.00    -0.273 OA
BRANCH  21  24
ATOM     24  C   UNL A   1      32.891  20.480  24.369  1.00  0.00     0.128 C 
BRANCH  24  25
ATOM     25  C   UNL A   1      32.418  19.088  23.991  1.00  0.00     0.034 C 
BRANCH  25  26
ATOM     26  C   UNL A   1      33.191  17.888  24.517  1.00  0.00    -0.015 C 
ATOM     27  C   UNL A   1      32.646  17.317  25.822  1.00  0.00     0.007 C 
ATOM     28  C   UNL A   1      34.681  18.153  24.416  1.00  0.00     0.007 C 
ENDBRANCH  25  26
ENDBRANCH  24  25
BRANCH  24  29
ATOM     29  C   UNL A   1      32.863  21.466  23.171  1.00  0.00     0.064 C 
ATOM     30  O   UNL A   1      33.688  22.303  22.914  1.00  0.00    -0.548 OA
ATOM     31  O   UNL A   1      31.775  21.295  22.379  1.00  0.00    -0.548 OA
ENDBRANCH  24  29
ENDBRANCH  21  24
ENDBRANCH  19  20
BRANCH  19  32
ATOM     32  C   UNL A   1      34.600  23.988  26.117  1.00  0.00     0.015 C 
ATOM     33  C   UNL A   1      35.529  22.766  26.325  1.00  0.00     0.010 C 
ATOM     34  C   UNL A   1      35.071  24.670  24.824  1.00  0.00     0.010 C 
ENDBRANCH  19  32
ENDBRANCH  16  19
ENDBRANCH   3  15
ENDBRANCH   1   2
BRANCH   1  35
ATOM     35  C   UNL A   1      34.903  31.150  27.735  1.00  0.00     0.067 C 
BRANCH  35  36
ATOM     36  C   UNL A   1      36.005  30.124  28.082  1.00  0.00     0.120 C 
BRANCH  36  37
ATOM     37  N   UNL A   1      36.055  29.761  29.491  1.00  0.00    -0.352 N 
ATOM     38  C   UNL A   1      37.046  29.280  30.319  1.00  0.00     0.251 C 
ATOM     39  H   UNL A   1      35.195  29.887  29.952  1.00  0.00     0.163 HD
ATOM     40  O   UNL A   1      36.697  28.939  31.454  1.00  0.00    -0.269 OA
BRANCH  38  41
ATOM     41  C   UNL A   1      38.490  29.125  29.958  1.00  0.00     0.039 A 
ATOM     42  C   UNL A   1      38.863  29.438  28.639  1.00  0.00     0.014 A 
ATOM     43  C   UNL A   1      39.452  28.546  30.789  1.00  0.00     0.014 A 
ATOM     44  C   UNL A   1      40.176  29.232  28.177  1.00  0.00     0.010 A 
ATOM     45  C   UNL A   1      40.780  28.365  30.334  1.00  0.00     0.010 A 
ATOM     46  C   UNL A   1      41.165  28.717  29.027  1.00  0.00    -0.014 A 
BRANCH  46  47
ATOM     47  C   UNL A   1      42.591  28.605  28.568  1.00  0.00     0.031 A 
ATOM     48  C   UNL A   1      43.561  29.759  28.680  1.00  0.00     0.074 A 
ATOM     49  C   UNL A   1      43.026  27.453  28.010  1.00  0.00     0.049 A 
ATOM     50  N   UNL A   1      44.808  29.835  28.276  1.00  0.00    -0.248 NA
ATOM     51  C   UNL A   1      43.068  30.985  29.321  1.00  0.00     0.031 C 
ATOM     52  C   UNL A   1      42.216  26.248  27.824  1.00  0.00     0.029 A 
ATOM     53  N   UNL A   1      44.252  27.108  27.488  1.00  0.00    -0.354 N 
ATOM     54  C   UNL A   1      45.244  31.116  28.598  1.00  0.00     0.074 A 
ATOM     55  C   UNL A   1      44.116  31.792  29.208  1.00  0.00     0.031 C 
ATOM     56  C   UNL A   1      42.965  25.297  27.242  1.00  0.00     0.029 A 
ATOM     57  C   UNL A   1      44.298  25.831  26.974  1.00  0.00     0.049 A 
ATOM     58  H   UNL A   1      45.025  27.716  27.482  1.00  0.00     0.167 HD
ATOM     59  C   UNL A   1      46.465  31.682  28.413  1.00  0.00     0.031 A 
ATOM     60  C   UNL A   1      45.284  25.160  26.342  1.00  0.00     0.031 A 
ATOM     61  C   UNL A   1      47.600  31.020  27.815  1.00  0.00     0.049 A 
ATOM     62  C   UNL A   1      46.619  25.818  26.121  1.00  0.00     0.074 A 
ATOM     63  C   UNL A   1      48.882  31.513  27.627  1.00  0.00     0.029 A 
ATOM     64  N   UNL A   1      47.595  29.731  27.306  1.00  0.00    -0.354 N 
ATOM     65  N   UNL A   1      47.013  27.019  26.468  1.00  0.00    -0.248 NA
ATOM     66  C   UNL A   1      47.646  25.024  25.429  1.00  0.00     0.031 C 
ATOM     67  C   UNL A   1      49.639  30.539  26.965  1.00  0.00     0.029 A 
ATOM     68  C   UNL A   1      48.844  29.420  26.787  1.00  0.00     0.049 A 
ATOM     69  H   UNL A   1      46.820  29.125  27.313  1.00  0.00     0.167 HD
ATOM     70  C   UNL A   1      48.340  27.113  26.061  1.00  0.00     0.074 A 
ATOM     71  C   UNL A   1      48.686  25.845  25.454  1.00  0.00     0.031 C 
ATOM     72  C   UNL A   1      49.192  28.159  26.183  1.00  0.00     0.031 A 
BRANCH  59  73
ATOM     73  C   UNL A   1      46.652  33.112  28.856  1.00  0.00    -0.014 A 
ATOM     74  C   UNL A   1      46.361  34.183  27.992  1.00  0.00     0.010 A 
ATOM     75  C   UNL A   1      47.055  33.391  30.176  1.00  0.00     0.010 A 
ATOM     76  C   UNL A   1      46.508  35.505  28.426  1.00  0.00     0.020 A 
ATOM     77  C   UNL A   1      47.180  34.710  30.622  1.00  0.00     0.020 A 
ATOM     78  C   UNL A   1      46.922  35.759  29.738  1.00  0.00     0.054 A 
BRANCH  78  79
ATOM     79  S   UNL A   1      47.088  37.484  30.279  1.00  0.00     0.124 S 
ATOM     80  O   UNL A   1      45.775  38.031  29.945  1.00  0.00    -0.237 OA
ATOM     81  O   UNL A   1      47.366  37.348  31.707  1.00  0.00    -0.237 OA
ATOM     82  O   UNL A   1      48.198  37.995  29.478  1.00  0.00    -0.744 OA
ENDBRANCH  78  79
ENDBRANCH  59  73
BRANCH  60  83
ATOM     83  C   UNL A   1      45.046  23.771  25.858  1.00  0.00    -0.014 A 
ATOM     84  C   UNL A   1      45.611  22.672  26.529  1.00  0.00     0.010 A 
ATOM     85  C   UNL A   1      44.259  23.543  24.714  1.00  0.00     0.010 A 
ATOM     86  C   UNL A   1      45.410  21.373  26.055  1.00  0.00     0.020 A 
ATOM     87  C   UNL A   1      44.032  22.244  24.252  1.00  0.00     0.020 A 
ATOM     88  C   UNL A   1      44.621  21.167  24.919  1.00  0.00     0.054 A 
BRANCH  88  89
ATOM     89  S   UNL A   1      44.333  19.469  24.345  1.00  0.00     0.124 S 
ATOM     90  O   UNL A   1      45.404  18.737  25.013  1.00  0.00    -0.237 OA
ATOM     91  O   UNL A   1      42.982  19.196  24.827  1.00  0.00    -0.237 OA
ATOM     92  O   UNL A   1      44.457  19.577  22.893  1.00  0.00    -0.744 OA
ENDBRANCH  88  89
ENDBRANCH  60  83
BRANCH  72  93
ATOM     93  C   UNL A   1      50.602  27.973  25.683  1.00  0.00    -0.014 A 
ATOM     94  C   UNL A   1      50.916  28.105  24.318  1.00  0.00     0.010 A 
ATOM     95  C   UNL A   1      51.635  27.704  26.599  1.00  0.00     0.010 A 
ATOM     96  C   UNL A   1      52.233  27.939  23.876  1.00  0.00     0.020 A 
ATOM     97  C   UNL A   1      52.956  27.563  26.164  1.00  0.00     0.020 A 
ATOM     98  C   UNL A   1      53.245  27.666  24.802  1.00  0.00     0.054 A 
BRANCH  98  99
ATOM     99  S   UNL A   1      54.952  27.495  24.210  1.00  0.00     0.124 S 
ATOM    100  O   UNL A   1      55.590  26.793  25.319  1.00  0.00    -0.237 OA
ATOM    101  O   UNL A   1      54.790  26.715  22.984  1.00  0.00    -0.237 OA
ATOM    102  O   UNL A   1      55.390  28.874  24.010  1.00  0.00    -0.744 OA
ENDBRANCH  98  99
ENDBRANCH  72  93
ENDBRANCH  46  47
ENDBRANCH  38  41
ENDBRANCH  36  37
ENDBRANCH  35  36
ENDBRANCH   1  35
TORSDOF 20
ENDMDL
MODEL 3
REMARK VINA RESULT:     -11.1      2.869      9.063
REMARK SMILES CC(C)C[C@H](NC(=O)[C@@H](NC(=O)N1CC(NCCCNC(=O)c2ccc(-c3c4nc(c(-c5ccc(S(=O)(=O)[O-])cc5)c5ccc([nH]5)c(-c5ccc(S(=O)(=O)[O-])cc5)c5nc(c(-c6ccc(S(=O)(=O)[O-])cc6)c6ccc3[nH]6)C=C5)C=C4)cc2)=[NH+]c2ccccc21)C(C)C)C(=O)[O-]
REMARK SMILES IDX 17 1 16 2 13 3 14 4 89 5 15 6 84 7 88 8 83 9 85 10 87 11
REMARK SMILES IDX 86 14 11 15 10 16 12 18 9 19 7 20 6 21 8 23 5 24 4 25 2 26
REMARK SMILES IDX 1 27 3 28 93 29 94 30 95 31 90 32 91 33 92 34 18 35 19 36
REMARK SMILES IDX 20 37 21 38 22 40 23 41 24 42 82 43 25 44 81 45 26 46 27 47
REMARK SMILES IDX 28 48 75 49 29 50 80 51 74 52 76 53 30 54 79 55 73 56 72 57
REMARK SMILES IDX 31 59 61 60 42 61 60 62 43 63 46 64 59 65 77 66 44 67 45 68
REMARK SMILES IDX 58 70 78 71 47 72 32 73 33 74 41 75 34 76 40 77 35 78 36 79
REMARK SMILES IDX 37 80 38 81 39 82 62 83 63 84 71 85 64 86 70 87 65 88 66 89
REMARK SMILES IDX 67 90 68 91 69 92 48 93 49 94 57 95 50 96 56 97 51 98 52 99
REMARK SMILES IDX 53 100 54 101 55 102
REMARK H PARENT 16 12 83 13 10 17 6 22 20 39 76 58 46 69
REMARK Flexibility Score: inf
ROOT
ATOM      1  C   UNL A   1      34.317  27.984  24.908  1.00  0.00     0.235 C 
ENDROOT
BRANCH   1   2
ATOM      2  N   UNL A   1      33.304  28.651  24.102  1.00  0.00    -0.277 N 
ATOM      3  N   UNL A   1      29.894  27.343  23.928  1.00  0.00    -0.278 N 
ATOM      4  C   UNL A   1      30.915  27.839  24.926  1.00  0.00     0.255 C 
ATOM      5  C   UNL A   1      29.243  28.444  23.305  1.00  0.00     0.093 A 
ATOM      6  C   UNL A   1      31.910  28.755  24.156  1.00  0.00     0.268 C 
ATOM      7  C   UNL A   1      30.014  29.608  23.069  1.00  0.00     0.148 A 
ATOM      8  C   UNL A   1      27.881  28.416  22.991  1.00  0.00     0.031 A 
ATOM      9  N   UNL A   1      31.402  29.679  23.367  1.00  0.00    -0.241 N 
ATOM     10  C   UNL A   1      29.428  30.657  22.359  1.00  0.00     0.054 A 
ATOM     11  C   UNL A   1      27.300  29.498  22.334  1.00  0.00     0.002 A 
ATOM     12  H   UNL A   1      33.691  29.144  23.342  1.00  0.00     0.304 HD
ATOM     13  H   UNL A   1      31.965  30.396  22.994  1.00  0.00     0.312 HD
ATOM     14  C   UNL A   1      28.083  30.596  21.978  1.00  0.00     0.005 A 
BRANCH   3  15
ATOM     15  C   UNL A   1      29.386  26.072  23.954  1.00  0.00     0.323 C 
ATOM     16  N   UNL A   1      30.047  24.947  23.537  1.00  0.00    -0.326 N 
ATOM     17  H   UNL A   1      29.456  24.482  22.902  1.00  0.00     0.166 HD
ATOM     18  O   UNL A   1      28.223  25.891  24.340  1.00  0.00    -0.248 OA
BRANCH  16  19
ATOM     19  C   UNL A   1      31.350  24.102  23.654  1.00  0.00     0.175 C 
BRANCH  19  20
ATOM     20  C   UNL A   1      31.385  23.131  24.895  1.00  0.00     0.243 C 
ATOM     21  N   UNL A   1      32.104  22.006  25.100  1.00  0.00    -0.346 N 
ATOM     22  H   UNL A   1      31.544  21.340  25.562  1.00  0.00     0.164 HD
ATOM     23  O   UNL A   1      30.582  23.370  25.817  1.00  0.00    -0.273 OA
BRANCH  21  24
ATOM     24  C   UNL A   1      33.450  21.435  24.866  1.00  0.00     0.128 C 
BRANCH  24  25
ATOM     25  C   UNL A   1      34.655  22.010  25.589  1.00  0.00     0.034 C 
BRANCH  25  26
ATOM     26  C   UNL A   1      35.493  23.063  24.882  1.00  0.00    -0.015 C 
ATOM     27  C   UNL A   1      36.127  22.586  23.579  1.00  0.00     0.007 C 
ATOM     28  C   UNL A   1      36.373  23.780  25.889  1.00  0.00     0.007 C 
ENDBRANCH  25  26
ENDBRANCH  24  25
BRANCH  24  29
ATOM     29  C   UNL A   1      33.444  19.882  24.857  1.00  0.00     0.064 C 
ATOM     30  O   UNL A   1      34.382  19.165  24.622  1.00  0.00    -0.548 OA
ATOM     31  O   UNL A   1      32.230  19.363  25.167  1.00  0.00    -0.548 OA
ENDBRANCH  24  29
ENDBRANCH  21  24
ENDBRANCH  19  20
BRANCH  19  32
ATOM     32  C   UNL A   1      32.712  24.298  22.879  1.00  0.00     0.015 C 
ATOM     33  C   UNL A   1      32.991  23.226  21.796  1.00  0.00     0.010 C 
ATOM     34  C   UNL A   1      32.802  25.658  22.169  1.00  0.00     0.010 C 
ENDBRANCH  19  32
ENDBRANCH  16  19
ENDBRANCH   3  15
ENDBRANCH   1   2
BRANCH   1  35
ATOM     35  C   UNL A   1      34.583  28.524  26.347  1.00  0.00     0.067 C 
BRANCH  35  36
ATOM     36  C   UNL A   1      33.470  29.159  27.212  1.00  0.00     0.120 C 
BRANCH  36  37
ATOM     37  N   UNL A   1      33.588  30.602  27.363  1.00  0.00    -0.352 N 
ATOM     38  C   UNL A   1      34.464  31.424  28.037  1.00  0.00     0.251 C 
ATOM     39  H   UNL A   1      32.889  31.098  26.879  1.00  0.00     0.163 HD
ATOM     40  O   UNL A   1      34.180  32.625  28.068  1.00  0.00    -0.269 OA
BRANCH  38  41
ATOM     41  C   UNL A   1      35.712  30.986  28.738  1.00  0.00     0.039 A 
ATOM     42  C   UNL A   1      36.914  31.620  28.374  1.00  0.00     0.014 A 
ATOM     43  C   UNL A   1      35.786  29.893  29.605  1.00  0.00     0.014 A 
ATOM     44  C   UNL A   1      38.151  31.210  28.904  1.00  0.00     0.010 A 
ATOM     45  C   UNL A   1      37.027  29.500  30.161  1.00  0.00     0.010 A 
ATOM     46  C   UNL A   1      38.225  30.159  29.830  1.00  0.00    -0.014 A 
BRANCH  46  47
ATOM     47  C   UNL A   1      39.529  29.800  30.481  1.00  0.00     0.031 A 
ATOM     48  C   UNL A   1      40.399  28.675  29.968  1.00  0.00     0.074 A 
ATOM     49  C   UNL A   1      39.938  30.475  31.579  1.00  0.00     0.049 A 
ATOM     50  N   UNL A   1      41.524  28.208  30.457  1.00  0.00    -0.248 NA
ATOM     51  C   UNL A   1      39.944  27.982  28.755  1.00  0.00     0.031 C 
ATOM     52  C   UNL A   1      39.214  31.584  32.205  1.00  0.00     0.029 A 
ATOM     53  N   UNL A   1      41.055  30.326  32.370  1.00  0.00    -0.354 N 
ATOM     54  C   UNL A   1      41.904  27.159  29.624  1.00  0.00     0.074 A 
ATOM     55  C   UNL A   1      40.873  27.043  28.613  1.00  0.00     0.031 C 
ATOM     56  C   UNL A   1      39.906  32.019  33.270  1.00  0.00     0.029 A 
ATOM     57  C   UNL A   1      41.104  31.198  33.434  1.00  0.00     0.049 A 
ATOM     58  H   UNL A   1      41.755  29.657  32.191  1.00  0.00     0.167 HD
ATOM     59  C   UNL A   1      43.007  26.369  29.685  1.00  0.00     0.031 A 
ATOM     60  C   UNL A   1      41.992  31.325  34.442  1.00  0.00     0.031 A 
ATOM     61  C   UNL A   1      44.047  26.476  30.681  1.00  0.00     0.049 A 
ATOM     62  C   UNL A   1      43.191  30.417  34.506  1.00  0.00     0.074 A 
ATOM     63  C   UNL A   1      45.215  25.737  30.788  1.00  0.00     0.029 A 
ATOM     64  N   UNL A   1      44.049  27.371  31.739  1.00  0.00    -0.354 N 
ATOM     65  N   UNL A   1      43.543  29.458  33.684  1.00  0.00    -0.248 NA
ATOM     66  C   UNL A   1      44.117  30.616  35.631  1.00  0.00     0.031 C 
ATOM     67  C   UNL A   1      45.901  26.154  31.935  1.00  0.00     0.029 A 
ATOM     68  C   UNL A   1      45.186  27.188  32.514  1.00  0.00     0.049 A 
ATOM     69  H   UNL A   1      43.347  28.038  31.915  1.00  0.00     0.167 HD
ATOM     70  C   UNL A   1      44.744  28.960  34.179  1.00  0.00     0.074 A 
ATOM     71  C   UNL A   1      45.066  29.730  35.361  1.00  0.00     0.031 C 
ATOM     72  C   UNL A   1      45.509  27.953  33.691  1.00  0.00     0.031 A 
BRANCH  59  73
ATOM     73  C   UNL A   1      43.157  25.289  28.642  1.00  0.00    -0.014 A 
ATOM     74  C   UNL A   1      42.604  24.010  28.837  1.00  0.00     0.010 A 
ATOM     75  C   UNL A   1      43.795  25.578  27.420  1.00  0.00     0.010 A 
ATOM     76  C   UNL A   1      42.723  23.029  27.847  1.00  0.00     0.020 A 
ATOM     77  C   UNL A   1      43.895  24.607  26.419  1.00  0.00     0.020 A 
ATOM     78  C   UNL A   1      43.373  23.332  26.646  1.00  0.00     0.054 A 
BRANCH  78  79
ATOM     79  S   UNL A   1      43.497  22.044  25.373  1.00  0.00     0.124 S 
ATOM     80  O   UNL A   1      43.438  22.831  24.143  1.00  0.00    -0.237 OA
ATOM     81  O   UNL A   1      44.790  21.429  25.662  1.00  0.00    -0.237 OA
ATOM     82  O   UNL A   1      42.336  21.195  25.624  1.00  0.00    -0.744 OA
ENDBRANCH  78  79
ENDBRANCH  59  73
BRANCH  60  83
ATOM     83  C   UNL A   1      41.781  32.359  35.494  1.00  0.00    -0.014 A 
ATOM     84  C   UNL A   1      42.325  33.647  35.352  1.00  0.00     0.010 A 
ATOM     85  C   UNL A   1      41.040  32.053  36.650  1.00  0.00     0.010 A 
ATOM     86  C   UNL A   1      42.150  34.605  36.355  1.00  0.00     0.020 A 
ATOM     87  C   UNL A   1      40.838  33.016  37.643  1.00  0.00     0.020 A 
ATOM     88  C   UNL A   1      41.406  34.282  37.495  1.00  0.00     0.054 A 
BRANCH  88  89
ATOM     89  S   UNL A   1      41.150  35.554  38.765  1.00  0.00     0.124 S 
ATOM     90  O   UNL A   1      42.520  35.899  39.129  1.00  0.00    -0.237 OA
ATOM     91  O   UNL A   1      40.408  36.582  38.039  1.00  0.00    -0.237 OA
ATOM     92  O   UNL A   1      40.384  34.854  39.794  1.00  0.00    -0.744 OA
ENDBRANCH  88  89
ENDBRANCH  60  83
BRANCH  72  93
ATOM     93  C   UNL A   1      46.796  27.643  34.412  1.00  0.00    -0.014 A 
ATOM     94  C   UNL A   1      46.845  26.684  35.439  1.00  0.00     0.010 A 
ATOM     95  C   UNL A   1      47.984  28.290  34.026  1.00  0.00     0.010 A 
ATOM     96  C   UNL A   1      48.050  26.402  36.089  1.00  0.00     0.020 A 
ATOM     97  C   UNL A   1      49.196  27.993  34.655  1.00  0.00     0.020 A 
ATOM     98  C   UNL A   1      49.219  27.061  35.694  1.00  0.00     0.054 A 
BRANCH  98  99
ATOM     99  S   UNL A   1      50.781  26.650  36.524  1.00  0.00     0.124 S 
ATOM    100  O   UNL A   1      50.360  26.518  37.915  1.00  0.00    -0.237 OA
ATOM    101  O   UNL A   1      51.177  25.406  35.866  1.00  0.00    -0.237 OA
ATOM    102  O   UNL A   1      51.637  27.799  36.237  1.00  0.00    -0.744 OA
ENDBRANCH  98  99
ENDBRANCH  72  93
ENDBRANCH  46  47
ENDBRANCH  38  41
ENDBRANCH  36  37
ENDBRANCH  35  36
ENDBRANCH   1  35
TORSDOF 20
ENDMDL
