MODEL 1
REMARK VINA RESULT:     -12.5      0.000      0.000
REMARK SMILES Cn1c(C(=O)N2CCC[C@@H](C(=O)NCCCNC(=O)c3ccc(-c4c5nc(c(-c6ccc(S(=O)(=O)[O-])cc6)c6ccc([nH]6)c(-c6ccc(S(=O)(=O)[O-])cc6)c6nc(c(-c7ccc(S(=O)(=O)[O-])cc7)c7ccc4[nH]7)C=C6)C=C5)cc3)C2)cc2sccc21
REMARK SMILES IDX 15 1 14 2 13 3 11 4 12 5 10 7 6 8 7 9 80 10 8 11 9 12 4 13
REMARK SMILES IDX 5 14 3 15 1 16 2 17 86 18 81 19 82 20 85 21 83 22 84 23
REMARK SMILES IDX 16 24 17 25 18 26 19 28 20 29 21 30 79 31 22 32 78 33 23 34
REMARK SMILES IDX 24 35 25 36 72 37 26 38 77 39 71 40 73 41 27 42 76 43 70 44
REMARK SMILES IDX 69 45 28 47 58 48 39 49 57 50 40 51 43 52 56 53 74 54 41 55
REMARK SMILES IDX 42 56 55 58 75 59 44 60 29 61 30 62 38 63 31 64 37 65 32 66
REMARK SMILES IDX 33 67 34 68 35 69 36 70 59 71 60 72 68 73 61 74 67 75 62 76
REMARK SMILES IDX 63 77 64 78 65 79 66 80 45 81 46 82 54 83 47 84 53 85 48 86
REMARK SMILES IDX 49 87 50 88 51 89 52 90
REMARK H PARENT 13 6 17 27 73 46 43 57
REMARK Flexibility Score: inf
ROOT
ATOM      1  C   UNL A   1      37.767  21.534  25.113  1.00  0.00     0.042 C 
ENDROOT
BRANCH   1   2
ATOM      2  C   UNL A   1      36.337  21.784  25.600  1.00  0.00     0.117 C 
BRANCH   2   3
ATOM      3  N   UNL A   1      35.453  20.656  25.348  1.00  0.00    -0.356 N 
ATOM      4  C   UNL A   1      34.126  20.628  25.035  1.00  0.00     0.224 C 
ATOM      5  O   UNL A   1      33.595  19.537  24.829  1.00  0.00    -0.275 OA
ATOM      6  H   UNL A   1      35.880  19.772  25.414  1.00  0.00     0.163 HD
BRANCH   4   7
ATOM      7  C   UNL A   1      33.349  21.922  24.911  1.00  0.00     0.098 C 
ATOM      8  N   UNL A   1      32.599  23.610  23.292  1.00  0.00    -0.337 N 
ATOM      9  C   UNL A   1      31.223  23.552  23.769  1.00  0.00     0.120 C 
ATOM     10  C   UNL A   1      33.389  22.384  23.447  1.00  0.00     0.133 C 
ATOM     11  C   UNL A   1      31.136  23.055  25.206  1.00  0.00     0.022 C 
ATOM     12  C   UNL A   1      31.899  21.740  25.377  1.00  0.00     0.017 C 
BRANCH   8  13
ATOM     13  C   UNL A   1      33.118  24.832  22.873  1.00  0.00     0.270 C 
ATOM     14  O   UNL A   1      33.719  24.912  21.802  1.00  0.00    -0.267 OA
BRANCH  13  15
ATOM     15  C   UNL A   1      33.036  25.960  23.804  1.00  0.00     0.108 A 
ATOM     16  C   UNL A   1      31.187  27.318  22.666  1.00  0.00     0.150 C 
ATOM     17  N   UNL A   1      32.223  27.072  23.639  1.00  0.00    -0.339 N 
ATOM     18  C   UNL A   1      32.579  28.029  24.569  1.00  0.00     0.059 A 
ATOM     19  C   UNL A   1      33.842  26.201  24.915  1.00  0.00     0.053 A 
ATOM     20  C   UNL A   1      33.546  27.511  25.371  1.00  0.00     0.053 A 
ATOM     21  C   UNL A   1      32.233  29.372  24.891  1.00  0.00     0.038 A 
ATOM     22  S   UNL A   1      34.070  28.628  26.585  1.00  0.00    -0.142 S 
ATOM     23  C   UNL A   1      32.989  29.810  25.956  1.00  0.00     0.068 A 
ENDBRANCH  13  15
ENDBRANCH   8  13
ENDBRANCH   4   7
ENDBRANCH   2   3
ENDBRANCH   1   2
BRANCH   1  24
ATOM     24  C   UNL A   1      38.814  22.008  26.114  1.00  0.00     0.118 C 
BRANCH  24  25
ATOM     25  N   UNL A   1      40.058  21.236  26.037  1.00  0.00    -0.352 N 
ATOM     26  C   UNL A   1      41.364  21.693  26.085  1.00  0.00     0.251 C 
ATOM     27  H   UNL A   1      39.951  20.263  25.938  1.00  0.00     0.163 HD
ATOM     28  O   UNL A   1      42.281  20.986  25.705  1.00  0.00    -0.269 OA
BRANCH  26  29
ATOM     29  C   UNL A   1      41.620  23.057  26.586  1.00  0.00     0.039 A 
ATOM     30  C   UNL A   1      40.927  24.157  26.072  1.00  0.00     0.014 A 
ATOM     31  C   UNL A   1      42.535  23.215  27.620  1.00  0.00     0.014 A 
ATOM     32  C   UNL A   1      41.089  25.402  26.677  1.00  0.00     0.010 A 
ATOM     33  C   UNL A   1      42.581  24.403  28.306  1.00  0.00     0.010 A 
ATOM     34  C   UNL A   1      41.899  25.516  27.816  1.00  0.00    -0.014 A 
BRANCH  34  35
ATOM     35  C   UNL A   1      41.945  26.759  28.589  1.00  0.00     0.031 A 
ATOM     36  C   UNL A   1      43.119  27.640  28.313  1.00  0.00     0.074 A 
ATOM     37  C   UNL A   1      40.875  27.217  29.277  1.00  0.00     0.049 A 
ATOM     38  N   UNL A   1      44.022  28.058  29.140  1.00  0.00    -0.248 NA
ATOM     39  C   UNL A   1      43.378  28.024  26.913  1.00  0.00     0.031 C 
ATOM     40  C   UNL A   1      39.537  26.613  29.359  1.00  0.00     0.029 A 
ATOM     41  N   UNL A   1      40.699  28.409  29.912  1.00  0.00    -0.354 N 
ATOM     42  C   UNL A   1      44.841  28.923  28.416  1.00  0.00     0.074 A 
ATOM     43  C   UNL A   1      44.507  28.726  27.028  1.00  0.00     0.031 C 
ATOM     44  C   UNL A   1      38.642  27.548  29.743  1.00  0.00     0.029 A 
ATOM     45  C   UNL A   1      39.363  28.749  30.116  1.00  0.00     0.049 A 
ATOM     46  H   UNL A   1      41.448  28.980  30.201  1.00  0.00     0.167 HD
ATOM     47  C   UNL A   1      45.561  29.914  29.015  1.00  0.00     0.031 A 
ATOM     48  C   UNL A   1      38.872  29.947  30.519  1.00  0.00     0.031 A 
ATOM     49  C   UNL A   1      45.637  29.731  30.440  1.00  0.00     0.049 A 
ATOM     50  C   UNL A   1      39.989  30.682  31.153  1.00  0.00     0.074 A 
ATOM     51  C   UNL A   1      46.127  28.748  31.275  1.00  0.00     0.029 A 
ATOM     52  N   UNL A   1      44.798  30.503  31.209  1.00  0.00    -0.354 N 
ATOM     53  N   UNL A   1      40.572  30.298  32.254  1.00  0.00    -0.248 NA
ATOM     54  C   UNL A   1      40.750  31.618  30.340  1.00  0.00     0.031 C 
ATOM     55  C   UNL A   1      45.199  28.691  32.357  1.00  0.00     0.029 A 
ATOM     56  C   UNL A   1      44.238  29.686  32.157  1.00  0.00     0.049 A 
ATOM     57  H   UNL A   1      44.629  31.466  31.100  1.00  0.00     0.167 HD
ATOM     58  C   UNL A   1      41.915  30.582  32.061  1.00  0.00     0.074 A 
ATOM     59  C   UNL A   1      41.946  31.497  30.922  1.00  0.00     0.031 C 
ATOM     60  C   UNL A   1      42.888  29.832  32.661  1.00  0.00     0.031 A 
BRANCH  47  61
ATOM     61  C   UNL A   1      45.845  31.254  28.373  1.00  0.00    -0.014 A 
ATOM     62  C   UNL A   1      44.803  32.201  28.271  1.00  0.00     0.010 A 
ATOM     63  C   UNL A   1      47.008  31.506  27.616  1.00  0.00     0.010 A 
ATOM     64  C   UNL A   1      44.895  33.297  27.401  1.00  0.00     0.020 A 
ATOM     65  C   UNL A   1      47.129  32.619  26.782  1.00  0.00     0.020 A 
ATOM     66  C   UNL A   1      46.056  33.489  26.650  1.00  0.00     0.054 A 
BRANCH  66  67
ATOM     67  S   UNL A   1      46.126  34.837  25.445  1.00  0.00     0.124 S 
ATOM     68  O   UNL A   1      47.535  34.827  25.067  1.00  0.00    -0.237 OA
ATOM     69  O   UNL A   1      45.190  34.384  24.419  1.00  0.00    -0.237 OA
ATOM     70  O   UNL A   1      45.687  36.002  26.210  1.00  0.00    -0.744 OA
ENDBRANCH  66  67
ENDBRANCH  47  61
BRANCH  48  71
ATOM     71  C   UNL A   1      37.592  30.595  30.136  1.00  0.00    -0.014 A 
ATOM     72  C   UNL A   1      36.775  31.207  31.103  1.00  0.00     0.010 A 
ATOM     73  C   UNL A   1      37.310  30.855  28.779  1.00  0.00     0.010 A 
ATOM     74  C   UNL A   1      35.754  32.100  30.728  1.00  0.00     0.020 A 
ATOM     75  C   UNL A   1      36.290  31.736  28.398  1.00  0.00     0.020 A 
ATOM     76  C   UNL A   1      35.534  32.376  29.376  1.00  0.00     0.054 A 
BRANCH  76  77
ATOM     77  S   UNL A   1      34.346  33.672  28.911  1.00  0.00     0.124 S 
ATOM     78  O   UNL A   1      35.219  34.730  28.411  1.00  0.00    -0.237 OA
ATOM     79  O   UNL A   1      33.523  33.004  27.908  1.00  0.00    -0.237 OA
ATOM     80  O   UNL A   1      33.659  33.976  30.166  1.00  0.00    -0.744 OA
ENDBRANCH  76  77
ENDBRANCH  48  71
BRANCH  60  81
ATOM     81  C   UNL A   1      42.490  28.901  33.785  1.00  0.00    -0.014 A 
ATOM     82  C   UNL A   1      41.754  27.713  33.603  1.00  0.00     0.010 A 
ATOM     83  C   UNL A   1      43.021  29.169  35.060  1.00  0.00     0.010 A 
ATOM     84  C   UNL A   1      41.535  26.834  34.675  1.00  0.00     0.020 A 
ATOM     85  C   UNL A   1      42.823  28.289  36.126  1.00  0.00     0.020 A 
ATOM     86  C   UNL A   1      42.073  27.129  35.931  1.00  0.00     0.054 A 
BRANCH  86  87
ATOM     87  S   UNL A   1      41.831  25.967  37.305  1.00  0.00     0.124 S 
ATOM     88  O   UNL A   1      40.422  26.157  37.638  1.00  0.00    -0.237 OA
ATOM     89  O   UNL A   1      42.169  24.678  36.705  1.00  0.00    -0.237 OA
ATOM     90  O   UNL A   1      42.773  26.432  38.324  1.00  0.00    -0.744 OA
ENDBRANCH  86  87
ENDBRANCH  60  81
ENDBRANCH  34  35
ENDBRANCH  26  29
ENDBRANCH  24  25
ENDBRANCH   1  24
TORSDOF 15
ENDMDL
MODEL 2
REMARK VINA RESULT:     -12.5      3.209      8.278
REMARK SMILES Cn1c(C(=O)N2CCC[C@@H](C(=O)NCCCNC(=O)c3ccc(-c4c5nc(c(-c6ccc(S(=O)(=O)[O-])cc6)c6ccc([nH]6)c(-c6ccc(S(=O)(=O)[O-])cc6)c6nc(c(-c7ccc(S(=O)(=O)[O-])cc7)c7ccc4[nH]7)C=C6)C=C5)cc3)C2)cc2sccc21
REMARK SMILES IDX 15 1 14 2 13 3 11 4 12 5 10 7 6 8 7 9 80 10 8 11 9 12 4 13
REMARK SMILES IDX 5 14 3 15 1 16 2 17 86 18 81 19 82 20 85 21 83 22 84 23
REMARK SMILES IDX 16 24 17 25 18 26 19 28 20 29 21 30 79 31 22 32 78 33 23 34
REMARK SMILES IDX 24 35 25 36 72 37 26 38 77 39 71 40 73 41 27 42 76 43 70 44
REMARK SMILES IDX 69 45 28 47 58 48 39 49 57 50 40 51 43 52 56 53 74 54 41 55
REMARK SMILES IDX 42 56 55 58 75 59 44 60 29 61 30 62 38 63 31 64 37 65 32 66
REMARK SMILES IDX 33 67 34 68 35 69 36 70 59 71 60 72 68 73 61 74 67 75 62 76
REMARK SMILES IDX 63 77 64 78 65 79 66 80 45 81 46 82 54 83 47 84 53 85 48 86
REMARK SMILES IDX 49 87 50 88 51 89 52 90
REMARK H PARENT 13 6 17 27 73 46 43 57
REMARK Flexibility Score: inf
ROOT
ATOM      1  C   UNL A   1      31.520  31.732  26.502  1.00  0.00     0.042 C 
ENDROOT
BRANCH   1   2
ATOM      2  C   UNL A   1      31.853  30.315  26.026  1.00  0.00     0.117 C 
BRANCH   2   3
ATOM      3  N   UNL A   1      33.147  29.850  26.505  1.00  0.00    -0.356 N 
ATOM      4  C   UNL A   1      33.757  28.640  26.363  1.00  0.00     0.224 C 
ATOM      5  O   UNL A   1      34.885  28.493  26.832  1.00  0.00    -0.275 OA
ATOM      6  H   UNL A   1      33.664  30.516  27.012  1.00  0.00     0.163 HD
BRANCH   4   7
ATOM      7  C   UNL A   1      33.063  27.525  25.608  1.00  0.00     0.098 C 
ATOM      8  N   UNL A   1      32.728  26.591  23.362  1.00  0.00    -0.337 N 
ATOM      9  C   UNL A   1      33.072  25.244  23.799  1.00  0.00     0.120 C 
ATOM     10  C   UNL A   1      33.348  27.690  24.109  1.00  0.00     0.133 C 
ATOM     11  C   UNL A   1      32.845  25.051  25.293  1.00  0.00     0.022 C 
ATOM     12  C   UNL A   1      33.539  26.151  26.098  1.00  0.00     0.017 C 
BRANCH   8  13
ATOM     13  C   UNL A   1      31.742  26.757  22.393  1.00  0.00     0.270 C 
ATOM     14  O   UNL A   1      31.756  26.065  21.376  1.00  0.00    -0.267 OA
BRANCH  13  15
ATOM     15  C   UNL A   1      30.790  27.855  22.573  1.00  0.00     0.108 A 
ATOM     16  C   UNL A   1      28.903  26.595  23.760  1.00  0.00     0.150 C 
ATOM     17  N   UNL A   1      29.520  27.729  23.115  1.00  0.00    -0.339 N 
ATOM     18  C   UNL A   1      28.825  28.905  22.909  1.00  0.00     0.059 A 
ATOM     19  C   UNL A   1      30.911  29.164  22.110  1.00  0.00     0.053 A 
ATOM     20  C   UNL A   1      29.660  29.800  22.320  1.00  0.00     0.053 A 
ATOM     21  C   UNL A   1      27.510  29.408  23.121  1.00  0.00     0.038 A 
ATOM     22  S   UNL A   1      28.894  31.322  22.017  1.00  0.00    -0.142 S 
ATOM     23  C   UNL A   1      27.423  30.704  22.660  1.00  0.00     0.068 A 
ENDBRANCH  13  15
ENDBRANCH   8  13
ENDBRANCH   4   7
ENDBRANCH   2   3
ENDBRANCH   1   2
BRANCH   1  24
ATOM     24  C   UNL A   1      32.642  32.346  27.332  1.00  0.00     0.118 C 
BRANCH  24  25
ATOM     25  N   UNL A   1      32.366  33.733  27.713  1.00  0.00    -0.352 N 
ATOM     26  C   UNL A   1      33.044  34.534  28.618  1.00  0.00     0.251 C 
ATOM     27  H   UNL A   1      31.596  34.154  27.266  1.00  0.00     0.163 HD
ATOM     28  O   UNL A   1      32.527  35.546  29.056  1.00  0.00    -0.269 OA
BRANCH  26  29
ATOM     29  C   UNL A   1      34.393  34.125  29.053  1.00  0.00     0.039 A 
ATOM     30  C   UNL A   1      34.600  33.534  30.302  1.00  0.00     0.014 A 
ATOM     31  C   UNL A   1      35.449  34.299  28.165  1.00  0.00     0.014 A 
ATOM     32  C   UNL A   1      35.862  33.026  30.610  1.00  0.00     0.010 A 
ATOM     33  C   UNL A   1      36.645  33.670  28.407  1.00  0.00     0.010 A 
ATOM     34  C   UNL A   1      36.879  33.072  29.645  1.00  0.00    -0.014 A 
BRANCH  34  35
ATOM     35  C   UNL A   1      38.154  32.385  29.858  1.00  0.00     0.031 A 
ATOM     36  C   UNL A   1      38.171  30.938  29.487  1.00  0.00     0.074 A 
ATOM     37  C   UNL A   1      39.303  33.059  30.092  1.00  0.00     0.049 A 
ATOM     38  N   UNL A   1      38.437  29.919  30.237  1.00  0.00    -0.248 NA
ATOM     39  C   UNL A   1      37.736  30.572  28.126  1.00  0.00     0.031 C 
ATOM     40  C   UNL A   1      39.491  34.516  30.149  1.00  0.00     0.029 A 
ATOM     41  N   UNL A   1      40.582  32.595  30.159  1.00  0.00    -0.354 N 
ATOM     42  C   UNL A   1      38.410  28.803  29.401  1.00  0.00     0.074 A 
ATOM     43  C   UNL A   1      37.806  29.240  28.168  1.00  0.00     0.031 C 
ATOM     44  C   UNL A   1      40.794  34.811  29.955  1.00  0.00     0.029 A 
ATOM     45  C   UNL A   1      41.551  33.574  29.954  1.00  0.00     0.049 A 
ATOM     46  H   UNL A   1      40.802  31.651  30.336  1.00  0.00     0.167 HD
ATOM     47  C   UNL A   1      39.103  27.665  29.686  1.00  0.00     0.031 A 
ATOM     48  C   UNL A   1      42.878  33.387  29.750  1.00  0.00     0.031 A 
ATOM     49  C   UNL A   1      39.550  27.640  31.054  1.00  0.00     0.049 A 
ATOM     50  C   UNL A   1      43.206  32.031  30.243  1.00  0.00     0.074 A 
ATOM     51  C   UNL A   1      38.929  27.677  32.286  1.00  0.00     0.029 A 
ATOM     52  N   UNL A   1      40.869  27.955  31.281  1.00  0.00    -0.354 N 
ATOM     53  N   UNL A   1      43.121  31.679  31.495  1.00  0.00    -0.248 NA
ATOM     54  C   UNL A   1      43.221  30.935  29.289  1.00  0.00     0.031 C 
ATOM     55  C   UNL A   1      39.786  28.471  33.103  1.00  0.00     0.029 A 
ATOM     56  C   UNL A   1      40.911  28.813  32.348  1.00  0.00     0.049 A 
ATOM     57  H   UNL A   1      41.642  27.624  30.771  1.00  0.00     0.167 HD
ATOM     58  C   UNL A   1      42.634  30.381  31.466  1.00  0.00     0.074 A 
ATOM     59  C   UNL A   1      42.830  29.938  30.087  1.00  0.00     0.031 C 
ATOM     60  C   UNL A   1      41.868  29.892  32.487  1.00  0.00     0.031 A 
BRANCH  47  61
ATOM     61  C   UNL A   1      39.726  26.773  28.635  1.00  0.00    -0.014 A 
ATOM     62  C   UNL A   1      39.291  25.434  28.526  1.00  0.00     0.010 A 
ATOM     63  C   UNL A   1      40.910  27.113  27.949  1.00  0.00     0.010 A 
ATOM     64  C   UNL A   1      40.044  24.476  27.831  1.00  0.00     0.020 A 
ATOM     65  C   UNL A   1      41.642  26.179  27.215  1.00  0.00     0.020 A 
ATOM     66  C   UNL A   1      41.225  24.855  27.193  1.00  0.00     0.054 A 
BRANCH  66  67
ATOM     67  S   UNL A   1      42.252  23.596  26.395  1.00  0.00     0.124 S 
ATOM     68  O   UNL A   1      41.271  22.560  26.090  1.00  0.00    -0.237 OA
ATOM     69  O   UNL A   1      42.791  24.319  25.246  1.00  0.00    -0.237 OA
ATOM     70  O   UNL A   1      43.232  23.253  27.423  1.00  0.00    -0.744 OA
ENDBRANCH  66  67
ENDBRANCH  47  61
BRANCH  48  71
ATOM     71  C   UNL A   1      43.802  34.186  28.907  1.00  0.00    -0.014 A 
ATOM     72  C   UNL A   1      44.975  34.744  29.447  1.00  0.00     0.010 A 
ATOM     73  C   UNL A   1      43.674  34.166  27.502  1.00  0.00     0.010 A 
ATOM     74  C   UNL A   1      46.010  35.203  28.613  1.00  0.00     0.020 A 
ATOM     75  C   UNL A   1      44.697  34.630  26.664  1.00  0.00     0.020 A 
ATOM     76  C   UNL A   1      45.872  35.121  27.225  1.00  0.00     0.054 A 
BRANCH  76  77
ATOM     77  S   UNL A   1      47.287  35.537  26.161  1.00  0.00     0.124 S 
ATOM     78  O   UNL A   1      48.425  35.257  27.032  1.00  0.00    -0.237 OA
ATOM     79  O   UNL A   1      47.115  34.627  25.033  1.00  0.00    -0.237 OA
ATOM     80  O   UNL A   1      47.079  36.950  25.847  1.00  0.00    -0.744 OA
ENDBRANCH  76  77
ENDBRANCH  48  71
BRANCH  60  81
ATOM     81  C   UNL A   1      41.824  30.662  33.788  1.00  0.00    -0.014 A 
ATOM     82  C   UNL A   1      40.878  31.664  34.081  1.00  0.00     0.010 A 
ATOM     83  C   UNL A   1      42.687  30.238  34.815  1.00  0.00     0.010 A 
ATOM     84  C   UNL A   1      40.818  32.243  35.359  1.00  0.00     0.020 A 
ATOM     85  C   UNL A   1      42.621  30.796  36.093  1.00  0.00     0.020 A 
ATOM     86  C   UNL A   1      41.692  31.803  36.358  1.00  0.00     0.054 A 
BRANCH  86  87
ATOM     87  S   UNL A   1      41.582  32.516  38.024  1.00  0.00     0.124 S 
ATOM     88  O   UNL A   1      42.214  33.821  37.852  1.00  0.00    -0.237 OA
ATOM     89  O   UNL A   1      40.142  32.541  38.273  1.00  0.00    -0.237 OA
ATOM     90  O   UNL A   1      42.329  31.574  38.856  1.00  0.00    -0.744 OA
ENDBRANCH  86  87
ENDBRANCH  60  81
ENDBRANCH  34  35
ENDBRANCH  26  29
ENDBRANCH  24  25
ENDBRANCH   1  24
TORSDOF 15
ENDMDL
MODEL 3
REMARK VINA RESULT:     -12.5      2.448      7.461
REMARK SMILES Cn1c(C(=O)N2CCC[C@@H](C(=O)NCCCNC(=O)c3ccc(-c4c5nc(c(-c6ccc(S(=O)(=O)[O-])cc6)c6ccc([nH]6)c(-c6ccc(S(=O)(=O)[O-])cc6)c6nc(c(-c7ccc(S(=O)(=O)[O-])cc7)c7ccc4[nH]7)C=C6)C=C5)cc3)C2)cc2sccc21
REMARK SMILES IDX 15 1 14 2 13 3 11 4 12 5 10 7 6 8 7 9 80 10 8 11 9 12 4 13
REMARK SMILES IDX 5 14 3 15 1 16 2 17 86 18 81 19 82 20 85 21 83 22 84 23
REMARK SMILES IDX 16 24 17 25 18 26 19 28 20 29 21 30 79 31 22 32 78 33 23 34
REMARK SMILES IDX 24 35 25 36 72 37 26 38 77 39 71 40 73 41 27 42 76 43 70 44
REMARK SMILES IDX 69 45 28 47 58 48 39 49 57 50 40 51 43 52 56 53 74 54 41 55
REMARK SMILES IDX 42 56 55 58 75 59 44 60 29 61 30 62 38 63 31 64 37 65 32 66
REMARK SMILES IDX 33 67 34 68 35 69 36 70 59 71 60 72 68 73 61 74 67 75 62 76
REMARK SMILES IDX 63 77 64 78 65 79 66 80 45 81 46 82 54 83 47 84 53 85 48 86
REMARK SMILES IDX 49 87 50 88 51 89 52 90
REMARK H PARENT 13 6 17 27 73 46 43 57
REMARK Flexibility Score: inf
ROOT
ATOM      1  C   UNL A   1      37.680  19.881  24.696  1.00  0.00     0.042 C 
ENDROOT
BRANCH   1   2
ATOM      2  C   UNL A   1      36.362  20.533  25.121  1.00  0.00     0.117 C 
BRANCH   2   3
ATOM      3  N   UNL A   1      35.220  19.645  24.967  1.00  0.00    -0.356 N 
ATOM      4  C   UNL A   1      33.893  19.928  24.834  1.00  0.00     0.224 C 
ATOM      5  O   UNL A   1      33.106  18.994  24.679  1.00  0.00    -0.275 OA
ATOM      6  H   UNL A   1      35.440  18.686  24.958  1.00  0.00     0.163 HD
BRANCH   4   7
ATOM      7  C   UNL A   1      33.421  21.367  24.840  1.00  0.00     0.098 C 
ATOM      8  N   UNL A   1      32.573  23.158  23.388  1.00  0.00    -0.337 N 
ATOM      9  C   UNL A   1      31.450  23.435  24.276  1.00  0.00     0.120 C 
ATOM     10  C   UNL A   1      33.082  21.783  23.402  1.00  0.00     0.133 C 
ATOM     11  C   UNL A   1      31.729  22.996  25.708  1.00  0.00     0.022 C 
ATOM     12  C   UNL A   1      32.199  21.541  25.751  1.00  0.00     0.017 C 
BRANCH   8  13
ATOM     13  C   UNL A   1      33.181  24.215  22.718  1.00  0.00     0.270 C 
ATOM     14  O   UNL A   1      33.699  24.031  21.617  1.00  0.00    -0.267 OA
BRANCH  13  15
ATOM     15  C   UNL A   1      33.294  25.494  23.424  1.00  0.00     0.108 A 
ATOM     16  C   UNL A   1      34.944  24.821  25.263  1.00  0.00     0.150 C 
ATOM     17  N   UNL A   1      34.024  25.702  24.585  1.00  0.00    -0.339 N 
ATOM     18  C   UNL A   1      33.711  26.946  25.095  1.00  0.00     0.059 A 
ATOM     19  C   UNL A   1      32.590  26.668  23.165  1.00  0.00     0.053 A 
ATOM     20  C   UNL A   1      32.858  27.561  24.235  1.00  0.00     0.053 A 
ATOM     21  C   UNL A   1      34.014  27.724  26.249  1.00  0.00     0.038 A 
ATOM     22  S   UNL A   1      32.397  29.140  24.773  1.00  0.00    -0.142 S 
ATOM     23  C   UNL A   1      33.344  28.927  26.193  1.00  0.00     0.068 A 
ENDBRANCH  13  15
ENDBRANCH   8  13
ENDBRANCH   4   7
ENDBRANCH   2   3
ENDBRANCH   1   2
BRANCH   1  24
ATOM     24  C   UNL A   1      38.846  20.289  25.589  1.00  0.00     0.118 C 
BRANCH  24  25
ATOM     25  N   UNL A   1      39.846  19.228  25.731  1.00  0.00    -0.352 N 
ATOM     26  C   UNL A   1      41.193  19.342  26.034  1.00  0.00     0.251 C 
ATOM     27  H   UNL A   1      39.517  18.310  25.592  1.00  0.00     0.163 HD
ATOM     28  O   UNL A   1      41.956  18.416  25.819  1.00  0.00    -0.269 OA
BRANCH  26  29
ATOM     29  C   UNL A   1      41.686  20.610  26.604  1.00  0.00     0.039 A 
ATOM     30  C   UNL A   1      42.226  21.607  25.786  1.00  0.00     0.014 A 
ATOM     31  C   UNL A   1      41.554  20.810  27.973  1.00  0.00     0.014 A 
ATOM     32  C   UNL A   1      42.538  22.846  26.345  1.00  0.00     0.010 A 
ATOM     33  C   UNL A   1      41.720  22.070  28.491  1.00  0.00     0.010 A 
ATOM     34  C   UNL A   1      42.257  23.083  27.698  1.00  0.00    -0.014 A 
BRANCH  34  35
ATOM     35  C   UNL A   1      42.393  24.422  28.274  1.00  0.00     0.031 A 
ATOM     36  C   UNL A   1      41.249  25.348  28.018  1.00  0.00     0.074 A 
ATOM     37  C   UNL A   1      43.331  24.712  29.205  1.00  0.00     0.049 A 
ATOM     38  N   UNL A   1      41.263  26.497  27.426  1.00  0.00    -0.248 NA
ATOM     39  C   UNL A   1      39.897  24.887  28.381  1.00  0.00     0.031 C 
ATOM     40  C   UNL A   1      44.314  23.796  29.801  1.00  0.00     0.029 A 
ATOM     41  N   UNL A   1      43.496  25.843  29.945  1.00  0.00    -0.354 N 
ATOM     42  C   UNL A   1      39.966  27.000  27.524  1.00  0.00     0.074 A 
ATOM     43  C   UNL A   1      39.141  25.902  27.958  1.00  0.00     0.031 C 
ATOM     44  C   UNL A   1      44.757  24.306  30.969  1.00  0.00     0.029 A 
ATOM     45  C   UNL A   1      44.242  25.655  31.107  1.00  0.00     0.049 A 
ATOM     46  H   UNL A   1      43.123  26.715  29.683  1.00  0.00     0.167 HD
ATOM     47  C   UNL A   1      39.701  28.337  27.479  1.00  0.00     0.031 A 
ATOM     48  C   UNL A   1      44.393  26.524  32.136  1.00  0.00     0.031 A 
ATOM     49  C   UNL A   1      40.825  29.089  26.988  1.00  0.00     0.049 A 
ATOM     50  C   UNL A   1      44.033  27.866  31.628  1.00  0.00     0.074 A 
ATOM     51  C   UNL A   1      41.555  29.104  25.818  1.00  0.00     0.029 A 
ATOM     52  N   UNL A   1      41.593  29.738  27.926  1.00  0.00    -0.354 N 
ATOM     53  N   UNL A   1      44.709  28.493  30.706  1.00  0.00    -0.248 NA
ATOM     54  C   UNL A   1      42.675  28.341  31.833  1.00  0.00     0.031 C 
ATOM     55  C   UNL A   1      42.901  29.329  26.230  1.00  0.00     0.029 A 
ATOM     56  C   UNL A   1      42.907  29.507  27.616  1.00  0.00     0.049 A 
ATOM     57  H   UNL A   1      41.259  30.271  28.684  1.00  0.00     0.167 HD
ATOM     58  C   UNL A   1      43.750  29.123  29.929  1.00  0.00     0.074 A 
ATOM     59  C   UNL A   1      42.533  29.092  30.738  1.00  0.00     0.031 C 
ATOM     60  C   UNL A   1      43.960  29.357  28.599  1.00  0.00     0.031 A 
BRANCH  47  61
ATOM     61  C   UNL A   1      38.584  28.999  28.256  1.00  0.00    -0.014 A 
ATOM     62  C   UNL A   1      37.643  29.793  27.563  1.00  0.00     0.010 A 
ATOM     63  C   UNL A   1      38.591  29.105  29.662  1.00  0.00     0.010 A 
ATOM     64  C   UNL A   1      36.811  30.695  28.241  1.00  0.00     0.020 A 
ATOM     65  C   UNL A   1      37.734  29.966  30.350  1.00  0.00     0.020 A 
ATOM     66  C   UNL A   1      36.875  30.786  29.632  1.00  0.00     0.054 A 
BRANCH  66  67
ATOM     67  S   UNL A   1      35.883  32.031  30.492  1.00  0.00     0.124 S 
ATOM     68  O   UNL A   1      36.779  33.182  30.489  1.00  0.00    -0.237 OA
ATOM     69  O   UNL A   1      34.707  32.140  29.630  1.00  0.00    -0.237 OA
ATOM     70  O   UNL A   1      35.635  31.428  31.799  1.00  0.00    -0.744 OA
ENDBRANCH  66  67
ENDBRANCH  47  61
BRANCH  48  71
ATOM     71  C   UNL A   1      44.548  26.222  33.582  1.00  0.00    -0.014 A 
ATOM     72  C   UNL A   1      45.413  26.981  34.390  1.00  0.00     0.010 A 
ATOM     73  C   UNL A   1      43.633  25.364  34.227  1.00  0.00     0.010 A 
ATOM     74  C   UNL A   1      45.322  26.934  35.793  1.00  0.00     0.020 A 
ATOM     75  C   UNL A   1      43.542  25.306  35.624  1.00  0.00     0.020 A 
ATOM     76  C   UNL A   1      44.370  26.112  36.400  1.00  0.00     0.054 A 
BRANCH  76  77
ATOM     77  S   UNL A   1      44.130  26.203  38.201  1.00  0.00     0.124 S 
ATOM     78  O   UNL A   1      42.675  26.254  38.319  1.00  0.00    -0.237 OA
ATOM     79  O   UNL A   1      44.759  24.971  38.667  1.00  0.00    -0.237 OA
ATOM     80  O   UNL A   1      44.826  27.431  38.580  1.00  0.00    -0.744 OA
ENDBRANCH  76  77
ENDBRANCH  48  71
BRANCH  60  81
ATOM     81  C   UNL A   1      45.366  29.218  28.057  1.00  0.00    -0.014 A 
ATOM     82  C   UNL A   1      46.297  30.273  27.997  1.00  0.00     0.010 A 
ATOM     83  C   UNL A   1      45.806  27.920  27.739  1.00  0.00     0.010 A 
ATOM     84  C   UNL A   1      47.624  30.038  27.603  1.00  0.00     0.020 A 
ATOM     85  C   UNL A   1      47.129  27.676  27.364  1.00  0.00     0.020 A 
ATOM     86  C   UNL A   1      48.031  28.738  27.290  1.00  0.00     0.054 A 
BRANCH  86  87
ATOM     87  S   UNL A   1      49.759  28.425  26.828  1.00  0.00     0.124 S 
ATOM     88  O   UNL A   1      50.489  29.361  27.678  1.00  0.00    -0.237 OA
ATOM     89  O   UNL A   1      49.932  27.011  27.153  1.00  0.00    -0.237 OA
ATOM     90  O   UNL A   1      49.798  28.731  25.398  1.00  0.00    -0.744 OA
ENDBRANCH  86  87
ENDBRANCH  60  81
ENDBRANCH  34  35
ENDBRANCH  26  29
ENDBRANCH  24  25
ENDBRANCH   1  24
TORSDOF 15
ENDMDL
