MODEL 1
REMARK VINA RESULT:     -12.2      0.000      0.000
REMARK SMILES Cc1cc(O[C@@H]2C[C@H](C)C[C@H](C)C2)cc(C(=O)NCCCNC(=O)c2ccc(-c3c4nc(c(-c5ccc(S(=O)(=O)[O-])cc5)c5ccc([nH]5)c(-c5ccc(S(=O)(=O)[O-])cc5)c5nc(c(-c6ccc(S(=O)(=O)[O-])cc6)c6ccc3[nH]6)C=C5)C=C4)cc2)c1N
REMARK SMILES IDX 20 1 19 2 18 3 16 4 17 5 15 7 1 8 2 9 3 10 85 11 4 12 14 13
REMARK SMILES IDX 86 14 5 17 6 18 13 19 7 20 11 21 8 22 12 23 10 24 9 25 21 26
REMARK SMILES IDX 22 27 23 28 24 30 25 31 26 32 84 33 27 34 83 35 28 36 29 37
REMARK SMILES IDX 30 38 77 39 31 40 82 41 76 42 78 43 32 44 81 45 75 46 74 47
REMARK SMILES IDX 33 49 63 50 44 51 62 52 45 53 48 54 61 55 79 56 46 57 47 58
REMARK SMILES IDX 60 60 80 61 49 62 34 63 35 64 43 65 36 66 42 67 37 68 38 69
REMARK SMILES IDX 39 70 40 71 41 72 64 73 65 74 73 75 66 76 72 77 67 78 68 79
REMARK SMILES IDX 69 80 70 81 71 82 50 83 51 84 59 85 52 86 58 87 53 88 54 89
REMARK SMILES IDX 55 90 56 91 57 92
REMARK H PARENT 18 6 86 15 86 16 22 29 78 48 48 59
REMARK Flexibility Score: inf
ROOT
ATOM      1  C   UNL A   1      33.891  28.906  27.266  1.00  0.00     0.042 C 
ENDROOT
BRANCH   1   2
ATOM      2  C   UNL A   1      33.088  29.929  26.468  1.00  0.00     0.118 C 
BRANCH   2   3
ATOM      3  N   UNL A   1      33.337  29.743  25.054  1.00  0.00    -0.352 N 
ATOM      4  C   UNL A   1      33.007  28.783  24.141  1.00  0.00     0.253 C 
ATOM      5  O   UNL A   1      33.467  28.968  23.009  1.00  0.00    -0.269 OA
ATOM      6  H   UNL A   1      33.862  30.477  24.661  1.00  0.00     0.163 HD
BRANCH   4   7
ATOM      7  C   UNL A   1      32.087  27.627  24.414  1.00  0.00     0.066 A 
ATOM      8  C   UNL A   1      28.429  26.683  23.877  1.00  0.00     0.047 C 
ATOM      9  C   UNL A   1      29.816  26.754  24.467  1.00  0.00    -0.024 A 
ATOM     10  C   UNL A   1      30.266  25.679  25.244  1.00  0.00     0.052 A 
ATOM     11  C   UNL A   1      30.714  27.768  24.085  1.00  0.00     0.048 A 
ATOM     12  C   UNL A   1      31.612  25.368  25.194  1.00  0.00     0.120 A 
ATOM     13  C   UNL A   1      32.527  26.373  24.871  1.00  0.00     0.062 A 
BRANCH  11  14
ATOM     14  N   UNL A   1      30.273  28.769  23.214  1.00  0.00    -0.398 N 
ATOM     15  H   UNL A   1      29.337  29.074  23.249  1.00  0.00     0.156 HD
ATOM     16  H   UNL A   1      30.897  29.169  22.566  1.00  0.00     0.156 HD
ENDBRANCH  11  14
BRANCH  12  17
ATOM     17  O   UNL A   1      32.105  24.085  25.263  1.00  0.00    -0.490 OA
BRANCH  17  18
ATOM     18  C   UNL A   1      33.474  23.809  24.823  1.00  0.00     0.173 C 
ATOM     19  C   UNL A   1      34.601  23.886  25.848  1.00  0.00     0.048 C 
ATOM     20  C   UNL A   1      33.548  22.395  24.147  1.00  0.00     0.048 C 
ATOM     21  C   UNL A   1      34.632  22.696  26.811  1.00  0.00    -0.010 C 
ATOM     22  C   UNL A   1      34.596  21.330  24.685  1.00  0.00    -0.010 C 
ATOM     23  C   UNL A   1      33.318  22.120  27.354  1.00  0.00     0.008 C 
ATOM     24  C   UNL A   1      35.334  21.626  26.010  1.00  0.00     0.007 C 
ATOM     25  C   UNL A   1      33.984  19.921  24.753  1.00  0.00     0.008 C 
ENDBRANCH  17  18
ENDBRANCH  12  17
ENDBRANCH   4   7
ENDBRANCH   2   3
ENDBRANCH   1   2
BRANCH   1  26
ATOM     26  C   UNL A   1      35.304  29.404  27.565  1.00  0.00     0.118 C 
BRANCH  26  27
ATOM     27  N   UNL A   1      35.378  30.011  28.893  1.00  0.00    -0.352 N 
ATOM     28  C   UNL A   1      36.360  29.908  29.836  1.00  0.00     0.251 C 
ATOM     29  H   UNL A   1      34.610  30.574  29.143  1.00  0.00     0.163 HD
ATOM     30  O   UNL A   1      36.114  30.188  31.015  1.00  0.00    -0.269 OA
BRANCH  28  31
ATOM     31  C   UNL A   1      37.710  29.481  29.437  1.00  0.00     0.039 A 
ATOM     32  C   UNL A   1      38.139  29.681  28.124  1.00  0.00     0.014 A 
ATOM     33  C   UNL A   1      38.544  28.860  30.371  1.00  0.00     0.014 A 
ATOM     34  C   UNL A   1      39.431  29.303  27.763  1.00  0.00     0.010 A 
ATOM     35  C   UNL A   1      39.857  28.574  30.037  1.00  0.00     0.010 A 
ATOM     36  C   UNL A   1      40.309  28.776  28.726  1.00  0.00    -0.014 A 
BRANCH  36  37
ATOM     37  C   UNL A   1      41.704  28.412  28.389  1.00  0.00     0.031 A 
ATOM     38  C   UNL A   1      42.760  29.482  28.327  1.00  0.00     0.074 A 
ATOM     39  C   UNL A   1      41.995  27.139  28.061  1.00  0.00     0.049 A 
ATOM     40  N   UNL A   1      44.011  29.384  27.960  1.00  0.00    -0.248 NA
ATOM     41  C   UNL A   1      42.347  30.849  28.692  1.00  0.00     0.031 C 
ATOM     42  C   UNL A   1      41.038  26.029  28.041  1.00  0.00     0.029 A 
ATOM     43  N   UNL A   1      43.176  26.564  27.670  1.00  0.00    -0.354 N 
ATOM     44  C   UNL A   1      44.525  30.673  28.026  1.00  0.00     0.074 A 
ATOM     45  C   UNL A   1      43.439  31.545  28.413  1.00  0.00     0.031 C 
ATOM     46  C   UNL A   1      41.677  24.903  27.685  1.00  0.00     0.029 A 
ATOM     47  C   UNL A   1      43.073  25.219  27.404  1.00  0.00     0.049 A 
ATOM     48  H   UNL A   1      44.018  27.066  27.587  1.00  0.00     0.167 HD
ATOM     49  C   UNL A   1      45.793  31.089  27.805  1.00  0.00     0.031 A 
ATOM     50  C   UNL A   1      43.997  24.342  26.970  1.00  0.00     0.031 A 
ATOM     51  C   UNL A   1      46.868  30.208  27.438  1.00  0.00     0.049 A 
ATOM     52  C   UNL A   1      45.400  24.827  26.728  1.00  0.00     0.074 A 
ATOM     53  C   UNL A   1      48.204  30.512  27.251  1.00  0.00     0.029 A 
ATOM     54  N   UNL A   1      46.727  28.848  27.199  1.00  0.00    -0.354 N 
ATOM     55  N   UNL A   1      45.885  26.040  26.865  1.00  0.00    -0.248 NA
ATOM     56  C   UNL A   1      46.382  23.829  26.287  1.00  0.00     0.031 C 
ATOM     57  C   UNL A   1      48.861  29.348  26.842  1.00  0.00     0.029 A 
ATOM     58  C   UNL A   1      47.948  28.304  26.841  1.00  0.00     0.049 A 
ATOM     59  H   UNL A   1      45.885  28.345  27.273  1.00  0.00     0.167 HD
ATOM     60  C   UNL A   1      47.237  25.942  26.552  1.00  0.00     0.074 A 
ATOM     61  C   UNL A   1      47.493  24.552  26.236  1.00  0.00     0.031 C 
ATOM     62  C   UNL A   1      48.181  26.915  26.532  1.00  0.00     0.031 A 
BRANCH  49  63
ATOM     63  C   UNL A   1      46.085  32.560  27.952  1.00  0.00    -0.014 A 
ATOM     64  C   UNL A   1      46.507  33.101  29.180  1.00  0.00     0.010 A 
ATOM     65  C   UNL A   1      45.976  33.408  26.834  1.00  0.00     0.010 A 
ATOM     66  C   UNL A   1      46.777  34.467  29.297  1.00  0.00     0.020 A 
ATOM     67  C   UNL A   1      46.276  34.769  26.940  1.00  0.00     0.020 A 
ATOM     68  C   UNL A   1      46.660  35.293  28.176  1.00  0.00     0.054 A 
BRANCH  68  69
ATOM     69  S   UNL A   1      47.051  37.055  28.351  1.00  0.00     0.124 S 
ATOM     70  O   UNL A   1      48.187  37.203  27.444  1.00  0.00    -0.237 OA
ATOM     71  O   UNL A   1      45.815  37.701  27.917  1.00  0.00    -0.237 OA
ATOM     72  O   UNL A   1      47.364  37.203  29.770  1.00  0.00    -0.744 OA
ENDBRANCH  68  69
ENDBRANCH  49  63
BRANCH  50  73
ATOM     73  C   UNL A   1      43.624  22.917  26.750  1.00  0.00    -0.014 A 
ATOM     74  C   UNL A   1      43.971  22.262  25.556  1.00  0.00     0.010 A 
ATOM     75  C   UNL A   1      42.936  22.200  27.747  1.00  0.00     0.010 A 
ATOM     76  C   UNL A   1      43.621  20.923  25.354  1.00  0.00     0.020 A 
ATOM     77  C   UNL A   1      42.613  20.853  27.562  1.00  0.00     0.020 A 
ATOM     78  C   UNL A   1      42.947  20.227  26.361  1.00  0.00     0.054 A 
BRANCH  78  79
ATOM     79  S   UNL A   1      42.549  18.476  26.095  1.00  0.00     0.124 S 
ATOM     80  O   UNL A   1      41.131  18.535  25.756  1.00  0.00    -0.237 OA
ATOM     81  O   UNL A   1      43.447  18.111  25.004  1.00  0.00    -0.237 OA
ATOM     82  O   UNL A   1      42.860  17.856  27.382  1.00  0.00    -0.744 OA
ENDBRANCH  78  79
ENDBRANCH  50  73
BRANCH  62  83
ATOM     83  C   UNL A   1      49.589  26.508  26.191  1.00  0.00    -0.014 A 
ATOM     84  C   UNL A   1      50.104  26.672  24.894  1.00  0.00     0.010 A 
ATOM     85  C   UNL A   1      50.432  26.021  27.209  1.00  0.00     0.010 A 
ATOM     86  C   UNL A   1      51.430  26.332  24.614  1.00  0.00     0.020 A 
ATOM     87  C   UNL A   1      51.765  25.711  26.940  1.00  0.00     0.020 A 
ATOM     88  C   UNL A   1      52.253  25.857  25.640  1.00  0.00     0.054 A 
BRANCH  88  89
ATOM     89  S   UNL A   1      53.985  25.478  25.263  1.00  0.00     0.124 S 
ATOM     90  O   UNL A   1      54.022  24.028  25.428  1.00  0.00    -0.237 OA
ATOM     91  O   UNL A   1      54.126  25.958  23.890  1.00  0.00    -0.237 OA
ATOM     92  O   UNL A   1      54.733  26.237  26.262  1.00  0.00    -0.744 OA
ENDBRANCH  88  89
ENDBRANCH  62  83
ENDBRANCH  36  37
ENDBRANCH  28  31
ENDBRANCH  26  27
ENDBRANCH   1  26
TORSDOF 16
ENDMDL
MODEL 2
REMARK VINA RESULT:     -12.1      2.413      8.487
REMARK SMILES Cc1cc(O[C@@H]2C[C@H](C)C[C@H](C)C2)cc(C(=O)NCCCNC(=O)c2ccc(-c3c4nc(c(-c5ccc(S(=O)(=O)[O-])cc5)c5ccc([nH]5)c(-c5ccc(S(=O)(=O)[O-])cc5)c5nc(c(-c6ccc(S(=O)(=O)[O-])cc6)c6ccc3[nH]6)C=C5)C=C4)cc2)c1N
REMARK SMILES IDX 20 1 19 2 18 3 16 4 17 5 15 7 1 8 2 9 3 10 85 11 4 12 14 13
REMARK SMILES IDX 86 14 5 17 6 18 13 19 7 20 11 21 8 22 12 23 10 24 9 25 21 26
REMARK SMILES IDX 22 27 23 28 24 30 25 31 26 32 84 33 27 34 83 35 28 36 29 37
REMARK SMILES IDX 30 38 77 39 31 40 82 41 76 42 78 43 32 44 81 45 75 46 74 47
REMARK SMILES IDX 33 49 63 50 44 51 62 52 45 53 48 54 61 55 79 56 46 57 47 58
REMARK SMILES IDX 60 60 80 61 49 62 34 63 35 64 43 65 36 66 42 67 37 68 38 69
REMARK SMILES IDX 39 70 40 71 41 72 64 73 65 74 73 75 66 76 72 77 67 78 68 79
REMARK SMILES IDX 69 80 70 81 71 82 50 83 51 84 59 85 52 86 58 87 53 88 54 89
REMARK SMILES IDX 55 90 56 91 57 92
REMARK H PARENT 18 6 86 15 86 16 22 29 78 48 48 59
REMARK Flexibility Score: inf
ROOT
ATOM      1  C   UNL A   1      38.249  20.071  24.944  1.00  0.00     0.042 C 
ENDROOT
BRANCH   1   2
ATOM      2  C   UNL A   1      37.070  21.037  24.992  1.00  0.00     0.118 C 
BRANCH   2   3
ATOM      3  N   UNL A   1      37.490  22.285  25.592  1.00  0.00    -0.352 N 
ATOM      4  C   UNL A   1      36.886  23.486  25.828  1.00  0.00     0.253 C 
ATOM      5  O   UNL A   1      37.622  24.344  26.329  1.00  0.00    -0.269 OA
ATOM      6  H   UNL A   1      38.425  22.262  25.902  1.00  0.00     0.163 HD
BRANCH   4   7
ATOM      7  C   UNL A   1      35.428  23.767  25.603  1.00  0.00     0.066 A 
ATOM      8  C   UNL A   1      32.060  22.857  27.150  1.00  0.00     0.047 C 
ATOM      9  C   UNL A   1      33.112  23.249  26.141  1.00  0.00    -0.024 A 
ATOM     10  C   UNL A   1      32.708  23.941  24.991  1.00  0.00     0.052 A 
ATOM     11  C   UNL A   1      34.481  23.111  26.433  1.00  0.00     0.048 A 
ATOM     12  C   UNL A   1      33.580  24.873  24.463  1.00  0.00     0.120 A 
ATOM     13  C   UNL A   1      34.950  24.725  24.693  1.00  0.00     0.062 A 
BRANCH  11  14
ATOM     14  N   UNL A   1      34.859  22.519  27.642  1.00  0.00    -0.398 N 
ATOM     15  H   UNL A   1      34.430  22.799  28.482  1.00  0.00     0.156 HD
ATOM     16  H   UNL A   1      35.555  21.822  27.653  1.00  0.00     0.156 HD
ENDBRANCH  11  14
BRANCH  12  17
ATOM     17  O   UNL A   1      33.178  26.050  23.873  1.00  0.00    -0.490 OA
BRANCH  17  18
ATOM     18  C   UNL A   1      33.697  27.326  24.369  1.00  0.00     0.173 C 
ATOM     19  C   UNL A   1      33.212  28.616  23.718  1.00  0.00     0.048 C 
ATOM     20  C   UNL A   1      33.437  27.450  25.912  1.00  0.00     0.048 C 
ATOM     21  C   UNL A   1      31.785  29.001  24.116  1.00  0.00    -0.010 C 
ATOM     22  C   UNL A   1      32.661  28.717  26.470  1.00  0.00    -0.010 C 
ATOM     23  C   UNL A   1      30.711  27.914  24.250  1.00  0.00     0.008 C 
ATOM     24  C   UNL A   1      31.972  29.663  25.460  1.00  0.00     0.007 C 
ATOM     25  C   UNL A   1      31.654  28.327  27.564  1.00  0.00     0.008 C 
ENDBRANCH  17  18
ENDBRANCH  12  17
ENDBRANCH   4   7
ENDBRANCH   2   3
ENDBRANCH   1   2
BRANCH   1  26
ATOM     26  C   UNL A   1      39.286  20.390  26.020  1.00  0.00     0.118 C 
BRANCH  26  27
ATOM     27  N   UNL A   1      40.307  19.347  26.095  1.00  0.00    -0.352 N 
ATOM     28  C   UNL A   1      41.666  19.462  26.036  1.00  0.00     0.251 C 
ATOM     29  H   UNL A   1      39.966  18.430  26.202  1.00  0.00     0.163 HD
ATOM     30  O   UNL A   1      42.357  18.474  25.765  1.00  0.00    -0.269 OA
BRANCH  28  31
ATOM     31  C   UNL A   1      42.298  20.761  26.315  1.00  0.00     0.039 A 
ATOM     32  C   UNL A   1      42.754  21.550  25.259  1.00  0.00     0.014 A 
ATOM     33  C   UNL A   1      42.452  21.185  27.638  1.00  0.00     0.014 A 
ATOM     34  C   UNL A   1      43.322  22.794  25.531  1.00  0.00     0.010 A 
ATOM     35  C   UNL A   1      42.927  22.459  27.901  1.00  0.00     0.010 A 
ATOM     36  C   UNL A   1      43.383  23.270  26.851  1.00  0.00    -0.014 A 
BRANCH  36  37
ATOM     37  C   UNL A   1      43.932  24.607  27.171  1.00  0.00     0.031 A 
ATOM     38  C   UNL A   1      43.010  25.697  27.647  1.00  0.00     0.074 A 
ATOM     39  C   UNL A   1      45.237  24.856  26.953  1.00  0.00     0.049 A 
ATOM     40  N   UNL A   1      43.277  26.954  27.887  1.00  0.00    -0.248 NA
ATOM     41  C   UNL A   1      41.595  25.335  27.847  1.00  0.00     0.031 C 
ATOM     42  C   UNL A   1      46.212  23.886  26.447  1.00  0.00     0.029 A 
ATOM     43  N   UNL A   1      45.968  26.004  27.117  1.00  0.00    -0.354 N 
ATOM     44  C   UNL A   1      42.065  27.535  28.240  1.00  0.00     0.074 A 
ATOM     45  C   UNL A   1      41.053  26.510  28.128  1.00  0.00     0.031 C 
ATOM     46  C   UNL A   1      47.417  24.472  26.370  1.00  0.00     0.029 A 
ATOM     47  C   UNL A   1      47.291  25.869  26.771  1.00  0.00     0.049 A 
ATOM     48  H   UNL A   1      45.581  26.845  27.451  1.00  0.00     0.167 HD
ATOM     49  C   UNL A   1      41.823  28.805  28.640  1.00  0.00     0.031 A 
ATOM     50  C   UNL A   1      48.289  26.773  26.766  1.00  0.00     0.031 A 
ATOM     51  C   UNL A   1      42.843  29.811  28.763  1.00  0.00     0.049 A 
ATOM     52  C   UNL A   1      47.995  28.178  27.213  1.00  0.00     0.074 A 
ATOM     53  C   UNL A   1      42.719  31.110  29.220  1.00  0.00     0.029 A 
ATOM     54  N   UNL A   1      44.176  29.628  28.423  1.00  0.00    -0.354 N 
ATOM     55  N   UNL A   1      46.854  28.693  27.612  1.00  0.00    -0.248 NA
ATOM     56  C   UNL A   1      49.120  29.122  27.222  1.00  0.00     0.031 C 
ATOM     57  C   UNL A   1      43.965  31.732  29.102  1.00  0.00     0.029 A 
ATOM     58  C   UNL A   1      44.880  30.800  28.636  1.00  0.00     0.049 A 
ATOM     59  H   UNL A   1      44.563  28.791  28.082  1.00  0.00     0.167 HD
ATOM     60  C   UNL A   1      47.133  30.014  27.946  1.00  0.00     0.074 A 
ATOM     61  C   UNL A   1      48.550  30.213  27.717  1.00  0.00     0.031 C 
ATOM     62  C   UNL A   1      46.293  30.975  28.403  1.00  0.00     0.031 A 
BRANCH  49  63
ATOM     63  C   UNL A   1      40.400  29.176  28.972  1.00  0.00    -0.014 A 
ATOM     64  C   UNL A   1      39.948  29.213  30.304  1.00  0.00     0.010 A 
ATOM     65  C   UNL A   1      39.514  29.534  27.939  1.00  0.00     0.010 A 
ATOM     66  C   UNL A   1      38.626  29.563  30.593  1.00  0.00     0.020 A 
ATOM     67  C   UNL A   1      38.200  29.916  28.228  1.00  0.00     0.020 A 
ATOM     68  C   UNL A   1      37.761  29.913  29.553  1.00  0.00     0.054 A 
BRANCH  68  69
ATOM     69  S   UNL A   1      36.062  30.397  29.963  1.00  0.00     0.124 S 
ATOM     70  O   UNL A   1      35.918  29.872  31.319  1.00  0.00    -0.237 OA
ATOM     71  O   UNL A   1      36.110  31.853  29.857  1.00  0.00    -0.237 OA
ATOM     72  O   UNL A   1      35.254  29.726  28.948  1.00  0.00    -0.744 OA
ENDBRANCH  68  69
ENDBRANCH  49  63
BRANCH  50  73
ATOM     73  C   UNL A   1      49.656  26.369  26.334  1.00  0.00    -0.014 A 
ATOM     74  C   UNL A   1      50.097  26.625  25.025  1.00  0.00     0.010 A 
ATOM     75  C   UNL A   1      50.532  25.744  27.241  1.00  0.00     0.010 A 
ATOM     76  C   UNL A   1      51.383  26.247  24.624  1.00  0.00     0.020 A 
ATOM     77  C   UNL A   1      51.828  25.393  26.853  1.00  0.00     0.020 A 
ATOM     78  C   UNL A   1      52.241  25.637  25.542  1.00  0.00     0.054 A 
BRANCH  78  79
ATOM     79  S   UNL A   1      53.921  25.201  25.012  1.00  0.00     0.124 S 
ATOM     80  O   UNL A   1      54.734  25.778  26.077  1.00  0.00    -0.237 OA
ATOM     81  O   UNL A   1      53.870  23.743  24.973  1.00  0.00    -0.237 OA
ATOM     82  O   UNL A   1      54.046  25.849  23.707  1.00  0.00    -0.744 OA
ENDBRANCH  78  79
ENDBRANCH  50  73
BRANCH  62  83
ATOM     83  C   UNL A   1      46.885  32.320  28.724  1.00  0.00    -0.014 A 
ATOM     84  C   UNL A   1      47.446  32.591  29.984  1.00  0.00     0.010 A 
ATOM     85  C   UNL A   1      46.946  33.304  27.719  1.00  0.00     0.010 A 
ATOM     86  C   UNL A   1      48.034  33.832  30.240  1.00  0.00     0.020 A 
ATOM     87  C   UNL A   1      47.561  34.533  27.962  1.00  0.00     0.020 A 
ATOM     88  C   UNL A   1      48.091  34.794  29.227  1.00  0.00     0.054 A 
BRANCH  88  89
ATOM     89  S   UNL A   1      48.911  36.374  29.569  1.00  0.00     0.124 S 
ATOM     90  O   UNL A   1      48.162  37.296  28.720  1.00  0.00    -0.237 OA
ATOM     91  O   UNL A   1      48.705  36.536  31.007  1.00  0.00    -0.237 OA
ATOM     92  O   UNL A   1      50.295  36.141  29.167  1.00  0.00    -0.744 OA
ENDBRANCH  88  89
ENDBRANCH  62  83
ENDBRANCH  36  37
ENDBRANCH  28  31
ENDBRANCH  26  27
ENDBRANCH   1  26
TORSDOF 16
ENDMDL
MODEL 3
REMARK VINA RESULT:     -12.1      6.739     12.272
REMARK SMILES Cc1cc(O[C@@H]2C[C@H](C)C[C@H](C)C2)cc(C(=O)NCCCNC(=O)c2ccc(-c3c4nc(c(-c5ccc(S(=O)(=O)[O-])cc5)c5ccc([nH]5)c(-c5ccc(S(=O)(=O)[O-])cc5)c5nc(c(-c6ccc(S(=O)(=O)[O-])cc6)c6ccc3[nH]6)C=C5)C=C4)cc2)c1N
REMARK SMILES IDX 20 1 19 2 18 3 16 4 17 5 15 7 1 8 2 9 3 10 85 11 4 12 14 13
REMARK SMILES IDX 86 14 5 17 6 18 13 19 7 20 11 21 8 22 12 23 10 24 9 25 21 26
REMARK SMILES IDX 22 27 23 28 24 30 25 31 26 32 84 33 27 34 83 35 28 36 29 37
REMARK SMILES IDX 30 38 77 39 31 40 82 41 76 42 78 43 32 44 81 45 75 46 74 47
REMARK SMILES IDX 33 49 63 50 44 51 62 52 45 53 48 54 61 55 79 56 46 57 47 58
REMARK SMILES IDX 60 60 80 61 49 62 34 63 35 64 43 65 36 66 42 67 37 68 38 69
REMARK SMILES IDX 39 70 40 71 41 72 64 73 65 74 73 75 66 76 72 77 67 78 68 79
REMARK SMILES IDX 69 80 70 81 71 82 50 83 51 84 59 85 52 86 58 87 53 88 54 89
REMARK SMILES IDX 55 90 56 91 57 92
REMARK H PARENT 18 6 86 15 86 16 22 29 78 48 48 59
REMARK Flexibility Score: inf
ROOT
ATOM      1  C   UNL A   1      38.274  23.816  26.428  1.00  0.00     0.042 C 
ENDROOT
BRANCH   1   2
ATOM      2  C   UNL A   1      37.812  22.499  25.813  1.00  0.00     0.118 C 
BRANCH   2   3
ATOM      3  N   UNL A   1      37.415  22.718  24.439  1.00  0.00    -0.352 N 
ATOM      4  C   UNL A   1      36.240  22.614  23.752  1.00  0.00     0.253 C 
ATOM      5  O   UNL A   1      36.328  22.845  22.542  1.00  0.00    -0.269 OA
ATOM      6  H   UNL A   1      38.163  23.010  23.869  1.00  0.00     0.163 HD
BRANCH   4   7
ATOM      7  C   UNL A   1      34.905  22.337  24.384  1.00  0.00     0.066 A 
ATOM      8  C   UNL A   1      32.988  19.386  25.861  1.00  0.00     0.047 C 
ATOM      9  C   UNL A   1      33.292  20.700  25.183  1.00  0.00    -0.024 A 
ATOM     10  C   UNL A   1      32.311  21.700  25.197  1.00  0.00     0.052 A 
ATOM     11  C   UNL A   1      34.589  20.996  24.727  1.00  0.00     0.048 A 
ATOM     12  C   UNL A   1      32.733  23.014  25.255  1.00  0.00     0.120 A 
ATOM     13  C   UNL A   1      33.997  23.341  24.757  1.00  0.00     0.062 A 
BRANCH  11  14
ATOM     14  N   UNL A   1      35.582  20.017  24.830  1.00  0.00    -0.398 N 
ATOM     15  H   UNL A   1      35.583  19.251  24.213  1.00  0.00     0.156 HD
ATOM     16  H   UNL A   1      36.281  20.095  25.519  1.00  0.00     0.156 HD
ENDBRANCH  11  14
BRANCH  12  17
ATOM     17  O   UNL A   1      32.065  24.004  25.939  1.00  0.00    -0.490 OA
BRANCH  17  18
ATOM     18  C   UNL A   1      30.835  24.570  25.380  1.00  0.00     0.173 C 
ATOM     19  C   UNL A   1      30.356  25.925  25.891  1.00  0.00     0.048 C 
ATOM     20  C   UNL A   1      30.948  24.667  23.818  1.00  0.00     0.048 C 
ATOM     21  C   UNL A   1      31.180  27.101  25.362  1.00  0.00    -0.010 C 
ATOM     22  C   UNL A   1      30.701  26.065  23.107  1.00  0.00    -0.010 C 
ATOM     23  C   UNL A   1      32.704  26.972  25.239  1.00  0.00     0.008 C 
ATOM     24  C   UNL A   1      30.603  27.333  23.986  1.00  0.00     0.007 C 
ATOM     25  C   UNL A   1      31.716  26.312  21.979  1.00  0.00     0.008 C 
ENDBRANCH  17  18
ENDBRANCH  12  17
ENDBRANCH   4   7
ENDBRANCH   2   3
ENDBRANCH   1   2
BRANCH   1  26
ATOM     26  C   UNL A   1      39.667  23.696  27.043  1.00  0.00     0.118 C 
BRANCH  26  27
ATOM     27  N   UNL A   1      40.686  24.250  26.154  1.00  0.00    -0.352 N 
ATOM     28  C   UNL A   1      41.145  25.532  26.059  1.00  0.00     0.251 C 
ATOM     29  H   UNL A   1      41.100  23.606  25.534  1.00  0.00     0.163 HD
ATOM     30  O   UNL A   1      41.740  25.900  25.039  1.00  0.00    -0.269 OA
BRANCH  28  31
ATOM     31  C   UNL A   1      40.942  26.462  27.180  1.00  0.00     0.039 A 
ATOM     32  C   UNL A   1      40.098  26.104  28.232  1.00  0.00     0.014 A 
ATOM     33  C   UNL A   1      41.583  27.704  27.173  1.00  0.00     0.014 A 
ATOM     34  C   UNL A   1      39.937  26.978  29.306  1.00  0.00     0.010 A 
ATOM     35  C   UNL A   1      41.499  28.528  28.284  1.00  0.00     0.010 A 
ATOM     36  C   UNL A   1      40.661  28.181  29.353  1.00  0.00    -0.014 A 
BRANCH  36  37
ATOM     37  C   UNL A   1      40.554  29.108  30.503  1.00  0.00     0.031 A 
ATOM     38  C   UNL A   1      41.435  28.908  31.707  1.00  0.00     0.074 A 
ATOM     39  C   UNL A   1      39.612  30.070  30.492  1.00  0.00     0.049 A 
ATOM     40  N   UNL A   1      41.429  29.548  32.846  1.00  0.00    -0.248 NA
ATOM     41  C   UNL A   1      42.430  27.823  31.633  1.00  0.00     0.031 C 
ATOM     42  C   UNL A   1      38.672  30.323  29.397  1.00  0.00     0.029 A 
ATOM     43  N   UNL A   1      39.280  31.007  31.436  1.00  0.00    -0.354 N 
ATOM     44  C   UNL A   1      42.396  28.930  33.630  1.00  0.00     0.074 A 
ATOM     45  C   UNL A   1      42.929  27.830  32.860  1.00  0.00     0.031 C 
ATOM     46  C   UNL A   1      37.890  31.365  29.720  1.00  0.00     0.029 A 
ATOM     47  C   UNL A   1      38.237  31.821  31.062  1.00  0.00     0.049 A 
ATOM     48  H   UNL A   1      39.744  31.089  32.300  1.00  0.00     0.167 HD
ATOM     49  C   UNL A   1      42.816  29.264  34.873  1.00  0.00     0.031 A 
ATOM     50  C   UNL A   1      37.622  32.814  31.730  1.00  0.00     0.031 A 
ATOM     51  C   UNL A   1      42.288  30.372  35.621  1.00  0.00     0.049 A 
ATOM     52  C   UNL A   1      38.105  33.166  33.110  1.00  0.00     0.074 A 
ATOM     53  C   UNL A   1      42.684  30.839  36.861  1.00  0.00     0.029 A 
ATOM     54  N   UNL A   1      41.246  31.186  35.198  1.00  0.00    -0.354 N 
ATOM     55  N   UNL A   1      39.070  32.615  33.809  1.00  0.00    -0.248 NA
ATOM     56  C   UNL A   1      37.426  34.277  33.789  1.00  0.00     0.031 C 
ATOM     57  C   UNL A   1      41.843  31.897  37.215  1.00  0.00     0.029 A 
ATOM     58  C   UNL A   1      40.969  32.136  36.165  1.00  0.00     0.049 A 
ATOM     59  H   UNL A   1      40.776  31.101  34.339  1.00  0.00     0.167 HD
ATOM     60  C   UNL A   1      39.132  33.333  34.998  1.00  0.00     0.074 A 
ATOM     61  C   UNL A   1      38.118  34.365  34.917  1.00  0.00     0.031 C 
ATOM     62  C   UNL A   1      39.955  33.156  36.062  1.00  0.00     0.031 A 
BRANCH  49  63
ATOM     63  C   UNL A   1      43.895  28.419  35.498  1.00  0.00    -0.014 A 
ATOM     64  C   UNL A   1      45.252  28.623  35.189  1.00  0.00     0.010 A 
ATOM     65  C   UNL A   1      43.551  27.434  36.443  1.00  0.00     0.010 A 
ATOM     66  C   UNL A   1      46.241  27.833  35.783  1.00  0.00     0.020 A 
ATOM     67  C   UNL A   1      44.540  26.665  37.063  1.00  0.00     0.020 A 
ATOM     68  C   UNL A   1      45.878  26.859  36.716  1.00  0.00     0.054 A 
BRANCH  68  69
ATOM     69  S   UNL A   1      47.186  25.873  37.495  1.00  0.00     0.124 S 
ATOM     70  O   UNL A   1      46.753  25.846  38.890  1.00  0.00    -0.237 OA
ATOM     71  O   UNL A   1      47.092  24.600  36.784  1.00  0.00    -0.237 OA
ATOM     72  O   UNL A   1      48.401  26.641  37.236  1.00  0.00    -0.744 OA
ENDBRANCH  68  69
ENDBRANCH  49  63
BRANCH  50  73
ATOM     73  C   UNL A   1      36.495  33.550  31.094  1.00  0.00    -0.014 A 
ATOM     74  C   UNL A   1      36.598  34.014  29.772  1.00  0.00     0.010 A 
ATOM     75  C   UNL A   1      35.299  33.771  31.804  1.00  0.00     0.010 A 
ATOM     76  C   UNL A   1      35.536  34.702  29.177  1.00  0.00     0.020 A 
ATOM     77  C   UNL A   1      34.224  34.430  31.202  1.00  0.00     0.020 A 
ATOM     78  C   UNL A   1      34.355  34.903  29.895  1.00  0.00     0.054 A 
BRANCH  78  79
ATOM     79  S   UNL A   1      32.972  35.754  29.083  1.00  0.00     0.124 S 
ATOM     80  O   UNL A   1      32.430  34.704  28.228  1.00  0.00    -0.237 OA
ATOM     81  O   UNL A   1      32.136  36.145  30.215  1.00  0.00    -0.237 OA
ATOM     82  O   UNL A   1      33.618  36.862  28.381  1.00  0.00    -0.744 OA
ENDBRANCH  78  79
ENDBRANCH  50  73
BRANCH  62  83
ATOM     83  C   UNL A   1      39.823  34.119  37.209  1.00  0.00    -0.014 A 
ATOM     84  C   UNL A   1      40.366  35.414  37.144  1.00  0.00     0.010 A 
ATOM     85  C   UNL A   1      39.079  33.743  38.344  1.00  0.00     0.010 A 
ATOM     86  C   UNL A   1      40.187  36.307  38.204  1.00  0.00     0.020 A 
ATOM     87  C   UNL A   1      38.872  34.643  39.390  1.00  0.00     0.020 A 
ATOM     88  C   UNL A   1      39.439  35.917  39.318  1.00  0.00     0.054 A 
BRANCH  88  89
ATOM     89  S   UNL A   1      39.174  37.115  40.653  1.00  0.00     0.124 S 
ATOM     90  O   UNL A   1      40.533  37.578  40.920  1.00  0.00    -0.237 OA
ATOM     91  O   UNL A   1      38.286  38.095  40.032  1.00  0.00    -0.237 OA
ATOM     92  O   UNL A   1      38.567  36.321  41.718  1.00  0.00    -0.744 OA
ENDBRANCH  88  89
ENDBRANCH  62  83
ENDBRANCH  36  37
ENDBRANCH  28  31
ENDBRANCH  26  27
ENDBRANCH   1  26
TORSDOF 16
ENDMDL
