MODEL 1
REMARK VINA RESULT:     -11.7      0.000      0.000
REMARK SMILES CC1=C2C(=O)N(C[C@H]3CCCO3)C(=O)N=C2S[C@@H]1C(=O)NCCCNC(=O)c1ccc(-c2c3nc(c(-c4ccc(S(=O)(=O)[O-])cc4)c4ccc([nH]4)c(-c4ccc(S(=O)(=O)[O-])cc4)c4nc(c(-c5ccc(S(=O)(=O)[O-])cc5)c5ccc2[nH]5)C=C4)C=C3)cc1
REMARK SMILES IDX 23 1 22 2 21 3 19 4 20 5 18 7 1 8 2 9 3 10 4 11 16 12 17 13
REMARK SMILES IDX 5 14 6 15 15 16 13 17 14 18 7 19 8 20 9 21 12 22 10 23 11 24
REMARK SMILES IDX 24 25 25 26 26 27 27 29 28 30 29 31 87 32 30 33 86 34 31 35
REMARK SMILES IDX 32 36 33 37 80 38 34 39 85 40 79 41 81 42 35 43 84 44 78 45
REMARK SMILES IDX 77 46 36 48 66 49 47 50 65 51 48 52 51 53 64 54 82 55 49 56
REMARK SMILES IDX 50 57 63 59 83 60 52 61 37 62 38 63 46 64 39 65 45 66 40 67
REMARK SMILES IDX 41 68 42 69 43 70 44 71 67 72 68 73 76 74 69 75 75 76 70 77
REMARK SMILES IDX 71 78 72 79 73 80 74 81 53 82 54 83 62 84 55 85 61 86 56 87
REMARK SMILES IDX 57 88 58 89 59 90 60 91
REMARK H PARENT 21 6 25 28 81 47 51 58
REMARK Flexibility Score: inf
ROOT
ATOM      1  C   UNL A   1      32.773  28.010  25.861  1.00  0.00     0.042 C 
ENDROOT
BRANCH   1   2
ATOM      2  C   UNL A   1      32.956  29.029  24.745  1.00  0.00     0.117 C 
BRANCH   2   3
ATOM      3  N   UNL A   1      31.691  29.546  24.253  1.00  0.00    -0.355 N 
ATOM      4  C   UNL A   1      30.832  29.080  23.303  1.00  0.00     0.237 C 
ATOM      5  O   UNL A   1      29.800  29.735  23.111  1.00  0.00    -0.273 OA
ATOM      6  H   UNL A   1      31.402  30.382  24.683  1.00  0.00     0.163 HD
BRANCH   4   7
ATOM      7  C   UNL A   1      31.060  27.774  22.532  1.00  0.00     0.169 C 
ATOM      8  C   UNL A   1      29.339  26.405  23.881  1.00  0.00     0.042 C 
ATOM      9  C   UNL A   1      30.711  26.529  23.298  1.00  0.00    -0.035 C 
ATOM     10  C   UNL A   1      31.688  25.616  23.380  1.00  0.00     0.073 C 
ATOM     11  C   UNL A   1      31.726  24.352  24.105  1.00  0.00     0.264 C 
ATOM     12  C   UNL A   1      32.893  25.969  22.657  1.00  0.00     0.116 C 
ATOM     13  S   UNL A   1      32.802  27.584  22.021  1.00  0.00    -0.087 SA
ATOM     14  O   UNL A   1      31.074  24.194  25.127  1.00  0.00    -0.268 OA
ATOM     15  N   UNL A   1      32.614  23.462  23.552  1.00  0.00    -0.256 N 
ATOM     16  N   UNL A   1      33.901  25.199  22.498  1.00  0.00    -0.186 NA
ATOM     17  C   UNL A   1      33.802  23.898  22.939  1.00  0.00     0.351 C 
ATOM     18  O   UNL A   1      34.737  23.122  22.766  1.00  0.00    -0.246 OA
BRANCH  15  19
ATOM     19  C   UNL A   1      32.327  22.028  23.529  1.00  0.00     0.163 C 
BRANCH  19  20
ATOM     20  C   UNL A   1      32.389  21.175  24.814  1.00  0.00     0.138 C 
ATOM     21  C   UNL A   1      33.021  19.791  24.724  1.00  0.00     0.036 C 
ATOM     22  O   UNL A   1      33.287  21.879  25.719  1.00  0.00    -0.376 OA
ATOM     23  C   UNL A   1      34.497  20.074  24.750  1.00  0.00     0.031 C 
ATOM     24  C   UNL A   1      34.582  21.252  25.690  1.00  0.00     0.160 C 
ENDBRANCH  19  20
ENDBRANCH  15  19
ENDBRANCH   4   7
ENDBRANCH   2   3
ENDBRANCH   1   2
BRANCH   1  25
ATOM     25  C   UNL A   1      33.529  28.367  27.133  1.00  0.00     0.118 C 
BRANCH  25  26
ATOM     26  N   UNL A   1      33.496  29.797  27.413  1.00  0.00    -0.352 N 
ATOM     27  C   UNL A   1      34.429  30.599  28.022  1.00  0.00     0.251 C 
ATOM     28  H   UNL A   1      32.677  30.259  27.120  1.00  0.00     0.163 HD
ATOM     29  O   UNL A   1      34.122  31.741  28.350  1.00  0.00    -0.269 OA
BRANCH  27  30
ATOM     30  C   UNL A   1      35.788  30.086  28.293  1.00  0.00     0.039 A 
ATOM     31  C   UNL A   1      36.743  30.126  27.273  1.00  0.00     0.014 A 
ATOM     32  C   UNL A   1      36.117  29.554  29.543  1.00  0.00     0.014 A 
ATOM     33  C   UNL A   1      38.050  29.705  27.533  1.00  0.00     0.010 A 
ATOM     34  C   UNL A   1      37.434  29.202  29.821  1.00  0.00     0.010 A 
ATOM     35  C   UNL A   1      38.413  29.278  28.820  1.00  0.00    -0.014 A 
BRANCH  35  36
ATOM     36  C   UNL A   1      39.817  28.929  29.153  1.00  0.00     0.031 A 
ATOM     37  C   UNL A   1      40.728  29.952  29.770  1.00  0.00     0.074 A 
ATOM     38  C   UNL A   1      40.292  27.712  28.817  1.00  0.00     0.049 A 
ATOM     39  N   UNL A   1      42.005  29.862  30.037  1.00  0.00    -0.248 NA
ATOM     40  C   UNL A   1      40.132  31.255  30.107  1.00  0.00     0.031 C 
ATOM     41  C   UNL A   1      39.519  26.646  28.173  1.00  0.00     0.029 A 
ATOM     42  N   UNL A   1      41.545  27.174  28.958  1.00  0.00    -0.354 N 
ATOM     43  C   UNL A   1      42.371  31.100  30.552  1.00  0.00     0.074 A 
ATOM     44  C   UNL A   1      41.189  31.936  30.525  1.00  0.00     0.031 C 
ATOM     45  C   UNL A   1      40.311  25.577  27.992  1.00  0.00     0.029 A 
ATOM     46  C   UNL A   1      41.652  25.893  28.470  1.00  0.00     0.049 A 
ATOM     47  H   UNL A   1      42.298  27.658  29.369  1.00  0.00     0.167 HD
ATOM     48  C   UNL A   1      43.579  31.502  31.016  1.00  0.00     0.031 A 
ATOM     49  C   UNL A   1      42.714  25.067  28.403  1.00  0.00     0.031 A 
ATOM     50  C   UNL A   1      44.748  30.665  31.058  1.00  0.00     0.049 A 
ATOM     51  C   UNL A   1      44.042  25.533  28.929  1.00  0.00     0.074 A 
ATOM     52  C   UNL A   1      46.001  30.961  31.567  1.00  0.00     0.029 A 
ATOM     53  N   UNL A   1      44.809  29.368  30.572  1.00  0.00    -0.354 N 
ATOM     54  N   UNL A   1      44.354  26.691  29.461  1.00  0.00    -0.248 NA
ATOM     55  C   UNL A   1      45.158  24.582  28.847  1.00  0.00     0.031 C 
ATOM     56  C   UNL A   1      46.830  29.854  31.356  1.00  0.00     0.029 A 
ATOM     57  C   UNL A   1      46.083  28.855  30.752  1.00  0.00     0.049 A 
ATOM     58  H   UNL A   1      44.059  28.883  30.159  1.00  0.00     0.167 HD
ATOM     59  C   UNL A   1      45.701  26.600  29.795  1.00  0.00     0.074 A 
ATOM     60  C   UNL A   1      46.138  25.271  29.417  1.00  0.00     0.031 C 
ATOM     61  C   UNL A   1      46.502  27.534  30.362  1.00  0.00     0.031 A 
BRANCH  48  62
ATOM     62  C   UNL A   1      43.692  32.917  31.513  1.00  0.00    -0.014 A 
ATOM     63  C   UNL A   1      43.440  33.234  32.860  1.00  0.00     0.010 A 
ATOM     64  C   UNL A   1      44.082  33.940  30.629  1.00  0.00     0.010 A 
ATOM     65  C   UNL A   1      43.534  34.555  33.305  1.00  0.00     0.020 A 
ATOM     66  C   UNL A   1      44.200  35.260  31.077  1.00  0.00     0.020 A 
ATOM     67  C   UNL A   1      43.906  35.561  32.409  1.00  0.00     0.054 A 
BRANCH  67  68
ATOM     68  S   UNL A   1      44.033  37.266  33.015  1.00  0.00     0.124 S 
ATOM     69  O   UNL A   1      43.871  38.034  31.783  1.00  0.00    -0.237 OA
ATOM     70  O   UNL A   1      42.925  37.358  33.961  1.00  0.00    -0.237 OA
ATOM     71  O   UNL A   1      45.365  37.322  33.613  1.00  0.00    -0.744 OA
ENDBRANCH  67  68
ENDBRANCH  48  62
BRANCH  49  72
ATOM     72  C   UNL A   1      42.557  23.708  27.823  1.00  0.00    -0.014 A 
ATOM     73  C   UNL A   1      42.846  23.480  26.466  1.00  0.00     0.010 A 
ATOM     74  C   UNL A   1      42.142  22.631  28.627  1.00  0.00     0.010 A 
ATOM     75  C   UNL A   1      42.711  22.201  25.920  1.00  0.00     0.020 A 
ATOM     76  C   UNL A   1      42.027  21.347  28.089  1.00  0.00     0.020 A 
ATOM     77  C   UNL A   1      42.302  21.142  26.736  1.00  0.00     0.054 A 
BRANCH  77  78
ATOM     78  S   UNL A   1      42.187  19.478  26.021  1.00  0.00     0.124 S 
ATOM     79  O   UNL A   1      43.061  19.588  24.857  1.00  0.00    -0.237 OA
ATOM     80  O   UNL A   1      42.680  18.631  27.104  1.00  0.00    -0.237 OA
ATOM     81  O   UNL A   1      40.764  19.333  25.725  1.00  0.00    -0.744 OA
ENDBRANCH  77  78
ENDBRANCH  49  72
BRANCH  61  82
ATOM     82  C   UNL A   1      47.931  27.144  30.624  1.00  0.00    -0.014 A 
ATOM     83  C   UNL A   1      48.944  27.450  29.698  1.00  0.00     0.010 A 
ATOM     84  C   UNL A   1      48.268  26.505  31.830  1.00  0.00     0.010 A 
ATOM     85  C   UNL A   1      50.269  27.098  29.963  1.00  0.00     0.020 A 
ATOM     86  C   UNL A   1      49.596  26.169  32.106  1.00  0.00     0.020 A 
ATOM     87  C   UNL A   1      50.587  26.456  31.165  1.00  0.00     0.054 A 
BRANCH  87  88
ATOM     88  S   UNL A   1      52.320  26.045  31.508  1.00  0.00     0.124 S 
ATOM     89  O   UNL A   1      52.203  24.728  32.126  1.00  0.00    -0.237 OA
ATOM     90  O   UNL A   1      52.926  26.064  30.180  1.00  0.00    -0.237 OA
ATOM     91  O   UNL A   1      52.757  27.117  32.400  1.00  0.00    -0.744 OA
ENDBRANCH  87  88
ENDBRANCH  61  82
ENDBRANCH  35  36
ENDBRANCH  27  30
ENDBRANCH  25  26
ENDBRANCH   1  25
TORSDOF 15
ENDMDL
MODEL 2
REMARK VINA RESULT:     -11.4      4.407      5.734
REMARK SMILES CC1=C2C(=O)N(C[C@H]3CCCO3)C(=O)N=C2S[C@@H]1C(=O)NCCCNC(=O)c1ccc(-c2c3nc(c(-c4ccc(S(=O)(=O)[O-])cc4)c4ccc([nH]4)c(-c4ccc(S(=O)(=O)[O-])cc4)c4nc(c(-c5ccc(S(=O)(=O)[O-])cc5)c5ccc2[nH]5)C=C4)C=C3)cc1
REMARK SMILES IDX 23 1 22 2 21 3 19 4 20 5 18 7 1 8 2 9 3 10 4 11 16 12 17 13
REMARK SMILES IDX 5 14 6 15 15 16 13 17 14 18 7 19 8 20 9 21 12 22 10 23 11 24
REMARK SMILES IDX 24 25 25 26 26 27 27 29 28 30 29 31 87 32 30 33 86 34 31 35
REMARK SMILES IDX 32 36 33 37 80 38 34 39 85 40 79 41 81 42 35 43 84 44 78 45
REMARK SMILES IDX 77 46 36 48 66 49 47 50 65 51 48 52 51 53 64 54 82 55 49 56
REMARK SMILES IDX 50 57 63 59 83 60 52 61 37 62 38 63 46 64 39 65 45 66 40 67
REMARK SMILES IDX 41 68 42 69 43 70 44 71 67 72 68 73 76 74 69 75 75 76 70 77
REMARK SMILES IDX 71 78 72 79 73 80 74 81 53 82 54 83 62 84 55 85 61 86 56 87
REMARK SMILES IDX 57 88 58 89 59 90 60 91
REMARK H PARENT 21 6 25 28 81 47 51 58
REMARK Flexibility Score: inf
ROOT
ATOM      1  C   UNL A   1      31.674  32.326  26.662  1.00  0.00     0.042 C 
ENDROOT
BRANCH   1   2
ATOM      2  C   UNL A   1      31.794  30.834  26.386  1.00  0.00     0.117 C 
BRANCH   2   3
ATOM      3  N   UNL A   1      31.161  30.450  25.136  1.00  0.00    -0.355 N 
ATOM      4  C   UNL A   1      31.113  29.257  24.476  1.00  0.00     0.237 C 
ATOM      5  O   UNL A   1      30.466  29.227  23.422  1.00  0.00    -0.273 OA
ATOM      6  H   UNL A   1      30.680  31.180  24.686  1.00  0.00     0.163 HD
BRANCH   4   7
ATOM      7  C   UNL A   1      31.759  27.974  25.012  1.00  0.00     0.169 C 
ATOM      8  C   UNL A   1      33.986  28.292  23.750  1.00  0.00     0.042 C 
ATOM      9  C   UNL A   1      32.842  27.410  24.138  1.00  0.00    -0.035 C 
ATOM     10  C   UNL A   1      32.681  26.127  23.785  1.00  0.00     0.073 C 
ATOM     11  C   UNL A   1      33.479  25.297  22.891  1.00  0.00     0.264 C 
ATOM     12  C   UNL A   1      31.515  25.493  24.366  1.00  0.00     0.116 C 
ATOM     13  S   UNL A   1      30.535  26.638  25.231  1.00  0.00    -0.087 SA
ATOM     14  O   UNL A   1      34.103  25.793  21.964  1.00  0.00    -0.268 OA
ATOM     15  N   UNL A   1      33.358  23.959  23.176  1.00  0.00    -0.256 N 
ATOM     16  N   UNL A   1      31.233  24.250  24.266  1.00  0.00    -0.186 NA
ATOM     17  C   UNL A   1      32.154  23.421  23.665  1.00  0.00     0.351 C 
ATOM     18  O   UNL A   1      31.931  22.216  23.587  1.00  0.00    -0.246 OA
BRANCH  15  19
ATOM     19  C   UNL A   1      34.498  23.053  23.039  1.00  0.00     0.163 C 
BRANCH  19  20
ATOM     20  C   UNL A   1      35.754  23.204  23.923  1.00  0.00     0.138 C 
ATOM     21  C   UNL A   1      35.600  23.897  25.272  1.00  0.00     0.036 C 
ATOM     22  O   UNL A   1      36.146  21.853  24.300  1.00  0.00    -0.376 OA
ATOM     23  C   UNL A   1      35.016  22.828  26.154  1.00  0.00     0.031 C 
ATOM     24  C   UNL A   1      35.695  21.582  25.638  1.00  0.00     0.160 C 
ENDBRANCH  19  20
ENDBRANCH  15  19
ENDBRANCH   4   7
ENDBRANCH   2   3
ENDBRANCH   1   2
BRANCH   1  25
ATOM     25  C   UNL A   1      32.841  32.885  27.466  1.00  0.00     0.118 C 
BRANCH  25  26
ATOM     26  N   UNL A   1      32.640  34.280  27.835  1.00  0.00    -0.352 N 
ATOM     27  C   UNL A   1      33.178  35.006  28.869  1.00  0.00     0.251 C 
ATOM     28  H   UNL A   1      32.023  34.780  27.252  1.00  0.00     0.163 HD
ATOM     29  O   UNL A   1      32.719  36.114  29.131  1.00  0.00    -0.269 OA
BRANCH  27  30
ATOM     30  C   UNL A   1      34.290  34.451  29.669  1.00  0.00     0.039 A 
ATOM     31  C   UNL A   1      34.005  33.849  30.897  1.00  0.00     0.014 A 
ATOM     32  C   UNL A   1      35.610  34.537  29.217  1.00  0.00     0.014 A 
ATOM     33  C   UNL A   1      35.037  33.263  31.635  1.00  0.00     0.010 A 
ATOM     34  C   UNL A   1      36.624  33.892  29.917  1.00  0.00     0.010 A 
ATOM     35  C   UNL A   1      36.347  33.246  31.131  1.00  0.00    -0.014 A 
BRANCH  35  36
ATOM     36  C   UNL A   1      37.441  32.537  31.840  1.00  0.00     0.031 A 
ATOM     37  C   UNL A   1      37.946  33.047  33.160  1.00  0.00     0.074 A 
ATOM     38  C   UNL A   1      38.036  31.481  31.248  1.00  0.00     0.049 A 
ATOM     39  N   UNL A   1      38.954  32.622  33.875  1.00  0.00    -0.248 NA
ATOM     40  C   UNL A   1      37.242  34.203  33.739  1.00  0.00     0.031 C 
ATOM     41  C   UNL A   1      37.667  30.917  29.947  1.00  0.00     0.029 A 
ATOM     42  N   UNL A   1      39.089  30.705  31.659  1.00  0.00    -0.354 N 
ATOM     43  C   UNL A   1      39.021  33.468  34.976  1.00  0.00     0.074 A 
ATOM     44  C   UNL A   1      37.974  34.454  34.814  1.00  0.00     0.031 C 
ATOM     45  C   UNL A   1      38.468  29.875  29.676  1.00  0.00     0.029 A 
ATOM     46  C   UNL A   1      39.430  29.721  30.762  1.00  0.00     0.049 A 
ATOM     47  H   UNL A   1      39.557  30.840  32.515  1.00  0.00     0.167 HD
ATOM     48  C   UNL A   1      39.870  33.422  36.031  1.00  0.00     0.031 A 
ATOM     49  C   UNL A   1      40.415  28.802  30.801  1.00  0.00     0.031 A 
ATOM     50  C   UNL A   1      40.899  32.432  36.198  1.00  0.00     0.049 A 
ATOM     51  C   UNL A   1      41.340  28.768  31.984  1.00  0.00     0.074 A 
ATOM     52  C   UNL A   1      41.768  32.264  37.262  1.00  0.00     0.029 A 
ATOM     53  N   UNL A   1      41.198  31.440  35.276  1.00  0.00    -0.354 N 
ATOM     54  N   UNL A   1      41.352  29.545  33.041  1.00  0.00    -0.248 NA
ATOM     55  C   UNL A   1      42.381  27.732  31.982  1.00  0.00     0.031 C 
ATOM     56  C   UNL A   1      42.617  31.192  36.967  1.00  0.00     0.029 A 
ATOM     57  C   UNL A   1      42.251  30.668  35.737  1.00  0.00     0.049 A 
ATOM     58  H   UNL A   1      40.732  31.305  34.420  1.00  0.00     0.167 HD
ATOM     59  C   UNL A   1      42.391  29.080  33.839  1.00  0.00     0.074 A 
ATOM     60  C   UNL A   1      42.974  27.946  33.148  1.00  0.00     0.031 C 
ATOM     61  C   UNL A   1      42.824  29.549  35.034  1.00  0.00     0.031 A 
BRANCH  48  62
ATOM     62  C   UNL A   1      39.718  34.483  37.086  1.00  0.00    -0.014 A 
ATOM     63  C   UNL A   1      40.224  35.781  36.887  1.00  0.00     0.010 A 
ATOM     64  C   UNL A   1      39.037  34.189  38.282  1.00  0.00     0.010 A 
ATOM     65  C   UNL A   1      40.090  36.752  37.881  1.00  0.00     0.020 A 
ATOM     66  C   UNL A   1      38.881  35.166  39.269  1.00  0.00     0.020 A 
ATOM     67  C   UNL A   1      39.426  36.437  39.070  1.00  0.00     0.054 A 
BRANCH  67  68
ATOM     68  S   UNL A   1      39.254  37.720  40.341  1.00  0.00     0.124 S 
ATOM     69  O   UNL A   1      38.713  36.959  41.463  1.00  0.00    -0.237 OA
ATOM     70  O   UNL A   1      40.624  38.196  40.508  1.00  0.00    -0.237 OA
ATOM     71  O   UNL A   1      38.334  38.682  39.739  1.00  0.00    -0.744 OA
ENDBRANCH  67  68
ENDBRANCH  48  62
BRANCH  49  72
ATOM     72  C   UNL A   1      40.566  27.833  29.686  1.00  0.00    -0.014 A 
ATOM     73  C   UNL A   1      39.670  26.757  29.557  1.00  0.00     0.010 A 
ATOM     74  C   UNL A   1      41.589  27.992  28.733  1.00  0.00     0.010 A 
ATOM     75  C   UNL A   1      39.801  25.850  28.502  1.00  0.00     0.020 A 
ATOM     76  C   UNL A   1      41.709  27.100  27.665  1.00  0.00     0.020 A 
ATOM     77  C   UNL A   1      40.821  26.028  27.562  1.00  0.00     0.054 A 
BRANCH  77  78
ATOM     78  S   UNL A   1      40.940  24.872  26.169  1.00  0.00     0.124 S 
ATOM     79  O   UNL A   1      39.617  24.256  26.172  1.00  0.00    -0.237 OA
ATOM     80  O   UNL A   1      41.221  25.758  25.042  1.00  0.00    -0.237 OA
ATOM     81  O   UNL A   1      42.042  23.992  26.550  1.00  0.00    -0.744 OA
ENDBRANCH  77  78
ENDBRANCH  49  72
BRANCH  61  82
ATOM     82  C   UNL A   1      43.974  28.827  35.679  1.00  0.00    -0.014 A 
ATOM     83  C   UNL A   1      43.753  27.736  36.537  1.00  0.00     0.010 A 
ATOM     84  C   UNL A   1      45.293  29.219  35.388  1.00  0.00     0.010 A 
ATOM     85  C   UNL A   1      44.832  27.065  37.115  1.00  0.00     0.020 A 
ATOM     86  C   UNL A   1      46.375  28.537  35.948  1.00  0.00     0.020 A 
ATOM     87  C   UNL A   1      46.138  27.471  36.819  1.00  0.00     0.054 A 
BRANCH  87  88
ATOM     88  S   UNL A   1      47.526  26.558  37.548  1.00  0.00     0.124 S 
ATOM     89  O   UNL A   1      48.204  27.599  38.314  1.00  0.00    -0.237 OA
ATOM     90  O   UNL A   1      46.857  25.529  38.339  1.00  0.00    -0.237 OA
ATOM     91  O   UNL A   1      48.258  26.060  36.384  1.00  0.00    -0.744 OA
ENDBRANCH  87  88
ENDBRANCH  61  82
ENDBRANCH  35  36
ENDBRANCH  27  30
ENDBRANCH  25  26
ENDBRANCH   1  25
TORSDOF 15
ENDMDL
MODEL 3
REMARK VINA RESULT:     -11.3      4.435      9.526
REMARK SMILES CC1=C2C(=O)N(C[C@H]3CCCO3)C(=O)N=C2S[C@@H]1C(=O)NCCCNC(=O)c1ccc(-c2c3nc(c(-c4ccc(S(=O)(=O)[O-])cc4)c4ccc([nH]4)c(-c4ccc(S(=O)(=O)[O-])cc4)c4nc(c(-c5ccc(S(=O)(=O)[O-])cc5)c5ccc2[nH]5)C=C4)C=C3)cc1
REMARK SMILES IDX 23 1 22 2 21 3 19 4 20 5 18 7 1 8 2 9 3 10 4 11 16 12 17 13
REMARK SMILES IDX 5 14 6 15 15 16 13 17 14 18 7 19 8 20 9 21 12 22 10 23 11 24
REMARK SMILES IDX 24 25 25 26 26 27 27 29 28 30 29 31 87 32 30 33 86 34 31 35
REMARK SMILES IDX 32 36 33 37 80 38 34 39 85 40 79 41 81 42 35 43 84 44 78 45
REMARK SMILES IDX 77 46 36 48 66 49 47 50 65 51 48 52 51 53 64 54 82 55 49 56
REMARK SMILES IDX 50 57 63 59 83 60 52 61 37 62 38 63 46 64 39 65 45 66 40 67
REMARK SMILES IDX 41 68 42 69 43 70 44 71 67 72 68 73 76 74 69 75 75 76 70 77
REMARK SMILES IDX 71 78 72 79 73 80 74 81 53 82 54 83 62 84 55 85 61 86 56 87
REMARK SMILES IDX 57 88 58 89 59 90 60 91
REMARK H PARENT 21 6 25 28 81 47 51 58
REMARK Flexibility Score: inf
ROOT
ATOM      1  C   UNL A   1      31.677  31.860  26.825  1.00  0.00     0.042 C 
ENDROOT
BRANCH   1   2
ATOM      2  C   UNL A   1      32.022  30.524  26.184  1.00  0.00     0.117 C 
BRANCH   2   3
ATOM      3  N   UNL A   1      31.210  30.244  25.013  1.00  0.00    -0.355 N 
ATOM      4  C   UNL A   1      30.894  29.073  24.389  1.00  0.00     0.237 C 
ATOM      5  O   UNL A   1      30.148  29.147  23.405  1.00  0.00    -0.273 OA
ATOM      6  H   UNL A   1      30.817  31.043  24.594  1.00  0.00     0.163 HD
BRANCH   4   7
ATOM      7  C   UNL A   1      31.364  27.702  24.890  1.00  0.00     0.169 C 
ATOM      8  C   UNL A   1      33.815  28.014  24.151  1.00  0.00     0.042 C 
ATOM      9  C   UNL A   1      32.582  27.168  24.193  1.00  0.00    -0.035 C 
ATOM     10  C   UNL A   1      32.448  25.943  23.666  1.00  0.00     0.073 C 
ATOM     11  C   UNL A   1      33.381  25.166  22.860  1.00  0.00     0.264 C 
ATOM     12  C   UNL A   1      31.163  25.325  23.921  1.00  0.00     0.116 C 
ATOM     13  S   UNL A   1      30.070  26.430  24.698  1.00  0.00    -0.087 SA
ATOM     14  O   UNL A   1      34.203  25.718  22.143  1.00  0.00    -0.268 OA
ATOM     15  N   UNL A   1      33.151  23.816  22.956  1.00  0.00    -0.256 N 
ATOM     16  N   UNL A   1      30.859  24.120  23.620  1.00  0.00    -0.186 NA
ATOM     17  C   UNL A   1      31.852  23.304  23.124  1.00  0.00     0.351 C 
ATOM     18  O   UNL A   1      31.604  22.131  22.862  1.00  0.00    -0.246 OA
BRANCH  15  19
ATOM     19  C   UNL A   1      34.259  22.859  22.946  1.00  0.00     0.163 C 
BRANCH  19  20
ATOM     20  C   UNL A   1      34.848  22.300  24.259  1.00  0.00     0.138 C 
ATOM     21  C   UNL A   1      36.148  22.906  24.774  1.00  0.00     0.036 C 
ATOM     22  O   UNL A   1      33.897  22.648  25.306  1.00  0.00    -0.376 OA
ATOM     23  C   UNL A   1      35.709  24.186  25.428  1.00  0.00     0.031 C 
ATOM     24  C   UNL A   1      34.375  23.800  26.021  1.00  0.00     0.160 C 
ENDBRANCH  19  20
ENDBRANCH  15  19
ENDBRANCH   4   7
ENDBRANCH   2   3
ENDBRANCH   1   2
BRANCH   1  25
ATOM     25  C   UNL A   1      32.884  32.573  27.420  1.00  0.00     0.118 C 
BRANCH  25  26
ATOM     26  N   UNL A   1      32.615  33.978  27.697  1.00  0.00    -0.352 N 
ATOM     27  C   UNL A   1      33.143  34.804  28.658  1.00  0.00     0.251 C 
ATOM     28  H   UNL A   1      31.952  34.400  27.104  1.00  0.00     0.163 HD
ATOM     29  O   UNL A   1      32.630  35.901  28.859  1.00  0.00    -0.269 OA
BRANCH  27  30
ATOM     30  C   UNL A   1      34.310  34.371  29.454  1.00  0.00     0.039 A 
ATOM     31  C   UNL A   1      34.096  33.787  30.706  1.00  0.00     0.014 A 
ATOM     32  C   UNL A   1      35.610  34.552  28.976  1.00  0.00     0.014 A 
ATOM     33  C   UNL A   1      35.184  33.313  31.443  1.00  0.00     0.010 A 
ATOM     34  C   UNL A   1      36.686  34.017  29.677  1.00  0.00     0.010 A 
ATOM     35  C   UNL A   1      36.483  33.389  30.915  1.00  0.00    -0.014 A 
BRANCH  35  36
ATOM     36  C   UNL A   1      37.644  32.797  31.626  1.00  0.00     0.031 A 
ATOM     37  C   UNL A   1      38.332  31.580  31.074  1.00  0.00     0.074 A 
ATOM     38  C   UNL A   1      38.022  33.310  32.814  1.00  0.00     0.049 A 
ATOM     39  N   UNL A   1      39.292  30.867  31.602  1.00  0.00    -0.248 NA
ATOM     40  C   UNL A   1      37.859  31.083  29.771  1.00  0.00     0.031 C 
ATOM     41  C   UNL A   1      37.406  34.463  33.477  1.00  0.00     0.029 A 
ATOM     42  N   UNL A   1      39.007  32.915  33.683  1.00  0.00    -0.354 N 
ATOM     43  C   UNL A   1      39.526  29.827  30.711  1.00  0.00     0.074 A 
ATOM     44  C   UNL A   1      38.580  29.981  29.625  1.00  0.00     0.031 C 
ATOM     45  C   UNL A   1      38.039  34.692  34.638  1.00  0.00     0.029 A 
ATOM     46  C   UNL A   1      39.077  33.684  34.821  1.00  0.00     0.049 A 
ATOM     47  H   UNL A   1      39.607  32.154  33.509  1.00  0.00     0.167 HD
ATOM     48  C   UNL A   1      40.451  28.840  30.782  1.00  0.00     0.031 A 
ATOM     49  C   UNL A   1      39.879  33.582  35.898  1.00  0.00     0.031 A 
ATOM     50  C   UNL A   1      41.400  28.699  31.853  1.00  0.00     0.049 A 
ATOM     51  C   UNL A   1      40.901  32.482  35.952  1.00  0.00     0.074 A 
ATOM     52  C   UNL A   1      42.418  27.769  31.984  1.00  0.00     0.029 A 
ATOM     53  N   UNL A   1      41.451  29.510  32.977  1.00  0.00    -0.354 N 
ATOM     54  N   UNL A   1      41.141  31.540  35.072  1.00  0.00    -0.248 NA
ATOM     55  C   UNL A   1      41.760  32.434  37.142  1.00  0.00     0.031 C 
ATOM     56  C   UNL A   1      43.061  27.996  33.206  1.00  0.00     0.029 A 
ATOM     57  C   UNL A   1      42.469  29.091  33.816  1.00  0.00     0.049 A 
ATOM     58  H   UNL A   1      40.851  30.270  33.152  1.00  0.00     0.167 HD
ATOM     59  C   UNL A   1      42.193  30.796  35.595  1.00  0.00     0.074 A 
ATOM     60  C   UNL A   1      42.550  31.407  36.860  1.00  0.00     0.031 C 
ATOM     61  C   UNL A   1      42.806  29.706  35.075  1.00  0.00     0.031 A 
BRANCH  48  62
ATOM     62  C   UNL A   1      40.473  27.831  29.667  1.00  0.00    -0.014 A 
ATOM     63  C   UNL A   1      41.487  27.853  28.691  1.00  0.00     0.010 A 
ATOM     64  C   UNL A   1      39.484  26.833  29.606  1.00  0.00     0.010 A 
ATOM     65  C   UNL A   1      41.487  26.920  27.652  1.00  0.00     0.020 A 
ATOM     66  C   UNL A   1      39.495  25.883  28.580  1.00  0.00     0.020 A 
ATOM     67  C   UNL A   1      40.487  25.945  27.598  1.00  0.00     0.054 A 
BRANCH  67  68
ATOM     68  S   UNL A   1      40.517  24.737  26.245  1.00  0.00     0.124 S 
ATOM     69  O   UNL A   1      40.992  25.550  25.129  1.00  0.00    -0.237 OA
ATOM     70  O   UNL A   1      41.455  23.730  26.731  1.00  0.00    -0.237 OA
ATOM     71  O   UNL A   1      39.128  24.293  26.147  1.00  0.00    -0.744 OA
ENDBRANCH  67  68
ENDBRANCH  48  62
BRANCH  49  72
ATOM     72  C   UNL A   1      39.751  34.561  37.009  1.00  0.00    -0.014 A 
ATOM     73  C   UNL A   1      38.876  34.308  38.079  1.00  0.00     0.010 A 
ATOM     74  C   UNL A   1      40.521  35.739  37.015  1.00  0.00     0.010 A 
ATOM     75  C   UNL A   1      38.762  35.220  39.130  1.00  0.00     0.020 A 
ATOM     76  C   UNL A   1      40.425  36.643  38.076  1.00  0.00     0.020 A 
ATOM     77  C   UNL A   1      39.538  36.383  39.122  1.00  0.00     0.054 A 
BRANCH  77  78
ATOM     78  S   UNL A   1      39.417  37.528  40.525  1.00  0.00     0.124 S 
ATOM     79  O   UNL A   1      40.707  38.208  40.473  1.00  0.00    -0.237 OA
ATOM     80  O   UNL A   1      38.257  38.343  40.172  1.00  0.00    -0.237 OA
ATOM     81  O   UNL A   1      39.221  36.641  41.670  1.00  0.00    -0.744 OA
ENDBRANCH  77  78
ENDBRANCH  49  72
BRANCH  61  82
ATOM     82  C   UNL A   1      43.939  29.112  35.866  1.00  0.00    -0.014 A 
ATOM     83  C   UNL A   1      43.740  27.979  36.674  1.00  0.00     0.010 A 
ATOM     84  C   UNL A   1      45.225  29.670  35.764  1.00  0.00     0.010 A 
ATOM     85  C   UNL A   1      44.805  27.429  37.389  1.00  0.00     0.020 A 
ATOM     86  C   UNL A   1      46.298  29.109  36.463  1.00  0.00     0.020 A 
ATOM     87  C   UNL A   1      46.078  28.000  37.282  1.00  0.00     0.054 A 
BRANCH  87  88
ATOM     88  S   UNL A   1      47.457  27.243  38.186  1.00  0.00     0.124 S 
ATOM     89  O   UNL A   1      48.594  27.560  37.326  1.00  0.00    -0.237 OA
ATOM     90  O   UNL A   1      47.426  27.941  39.468  1.00  0.00    -0.237 OA
ATOM     91  O   UNL A   1      47.094  25.829  38.246  1.00  0.00    -0.744 OA
ENDBRANCH  87  88
ENDBRANCH  61  82
ENDBRANCH  35  36
ENDBRANCH  27  30
ENDBRANCH  25  26
ENDBRANCH   1  25
TORSDOF 15
ENDMDL
