MODEL 1
REMARK VINA RESULT:     -11.2      0.000      0.000
REMARK SMILES C[C@@H]1CN(C(=O)C[NH+]2CCC(CC(=O)NCCCNC(=O)c3ccc(-c4c5nc(c(-c6ccc(S(=O)(=O)[O-])cc6)c6ccc([nH]6)c(-c6ccc(S(=O)(=O)[O-])cc6)c6nc(c(-c7ccc(S(=O)(=O)[O-])cc7)c7ccc4[nH]7)C=C6)C=C5)cc3)CC2)C[C@@H](C)O1
REMARK SMILES IDX 17 1 16 2 15 3 13 4 14 5 12 7 11 8 8 9 9 10 83 11 10 13
REMARK SMILES IDX 82 14 7 15 5 16 1 17 2 18 3 19 87 20 4 21 85 22 84 23 86 24
REMARK SMILES IDX 6 25 18 26 19 27 20 28 21 30 22 31 23 32 81 33 24 34 80 35
REMARK SMILES IDX 25 36 26 37 27 38 74 39 28 40 79 41 73 42 75 43 29 44 78 45
REMARK SMILES IDX 72 46 71 47 30 49 60 50 41 51 59 52 42 53 45 54 58 55 76 56
REMARK SMILES IDX 43 57 44 58 57 60 77 61 46 62 31 63 32 64 40 65 33 66 39 67
REMARK SMILES IDX 34 68 35 69 36 70 37 71 38 72 61 73 62 74 70 75 63 76 69 77
REMARK SMILES IDX 64 78 65 79 66 80 67 81 68 82 47 83 48 84 56 85 49 86 55 87
REMARK SMILES IDX 50 88 51 89 52 90 53 91 54 92
REMARK H PARENT 15 6 8 12 19 29 75 48 45 59
REMARK Flexibility Score: inf
ROOT
ATOM      1  C   UNL A   1      33.810  28.063  24.766  1.00  0.00     0.042 C 
ENDROOT
BRANCH   1   2
ATOM      2  C   UNL A   1      33.217  29.284  24.059  1.00  0.00     0.117 C 
BRANCH   2   3
ATOM      3  N   UNL A   1      32.217  28.904  23.066  1.00  0.00    -0.356 N 
ATOM      4  C   UNL A   1      31.097  28.122  23.143  1.00  0.00     0.220 C 
ATOM      5  O   UNL A   1      30.457  27.936  22.105  1.00  0.00    -0.275 OA
ATOM      6  H   UNL A   1      32.378  29.282  22.171  1.00  0.00     0.163 HD
BRANCH   4   7
ATOM      7  C   UNL A   1      30.602  27.542  24.461  1.00  0.00     0.104 C 
BRANCH   7   8
ATOM      8  C   UNL A   1      29.992  26.109  24.439  1.00  0.00     0.009 C 
ATOM      9  N   UNL A   1      31.202  23.636  25.279  1.00  0.00    -0.327 N 
ATOM     10  C   UNL A   1      30.068  24.073  26.093  1.00  0.00     0.262 C 
ATOM     11  C   UNL A   1      30.790  23.690  23.878  1.00  0.00     0.262 C 
ATOM     12  H   UNL A   1      31.985  24.272  25.428  1.00  0.00     0.348 HD
ATOM     13  C   UNL A   1      29.880  25.584  25.899  1.00  0.00     0.066 C 
ATOM     14  C   UNL A   1      30.774  25.169  23.512  1.00  0.00     0.066 C 
BRANCH   9  15
ATOM     15  C   UNL A   1      31.771  22.340  25.684  1.00  0.00     0.363 C 
BRANCH  15  16
ATOM     16  C   UNL A   1      33.163  22.541  26.348  1.00  0.00     0.277 C 
ATOM     17  C   UNL A   1      34.491  24.657  23.783  1.00  0.00     0.040 C 
ATOM     18  C   UNL A   1      35.152  23.306  23.551  1.00  0.00     0.135 C 
ATOM     19  C   UNL A   1      34.347  22.135  24.145  1.00  0.00     0.151 C 
ATOM     20  O   UNL A   1      36.485  23.326  24.077  1.00  0.00    -0.372 OA
ATOM     21  N   UNL A   1      34.309  22.273  25.599  1.00  0.00    -0.333 N 
ATOM     22  C   UNL A   1      36.510  23.446  25.514  1.00  0.00     0.135 C 
ATOM     23  C   UNL A   1      35.653  22.350  26.194  1.00  0.00     0.151 C 
ATOM     24  C   UNL A   1      37.978  23.393  25.904  1.00  0.00     0.040 C 
ATOM     25  O   UNL A   1      33.239  22.911  27.523  1.00  0.00    -0.268 OA
ENDBRANCH  15  16
ENDBRANCH   9  15
ENDBRANCH   7   8
ENDBRANCH   4   7
ENDBRANCH   2   3
ENDBRANCH   1   2
BRANCH   1  26
ATOM     26  C   UNL A   1      33.943  28.177  26.272  1.00  0.00     0.118 C 
BRANCH  26  27
ATOM     27  N   UNL A   1      33.585  29.489  26.789  1.00  0.00    -0.352 N 
ATOM     28  C   UNL A   1      34.295  30.358  27.588  1.00  0.00     0.251 C 
ATOM     29  H   UNL A   1      32.690  29.807  26.525  1.00  0.00     0.163 HD
ATOM     30  O   UNL A   1      33.738  31.383  27.982  1.00  0.00    -0.269 OA
BRANCH  28  31
ATOM     31  C   UNL A   1      35.690  30.069  28.021  1.00  0.00     0.039 A 
ATOM     32  C   UNL A   1      35.912  29.637  29.334  1.00  0.00     0.014 A 
ATOM     33  C   UNL A   1      36.783  30.222  27.167  1.00  0.00     0.014 A 
ATOM     34  C   UNL A   1      37.202  29.289  29.756  1.00  0.00     0.010 A 
ATOM     35  C   UNL A   1      38.042  29.759  27.547  1.00  0.00     0.010 A 
ATOM     36  C   UNL A   1      38.275  29.301  28.850  1.00  0.00    -0.014 A 
BRANCH  36  37
ATOM     37  C   UNL A   1      39.640  28.850  29.243  1.00  0.00     0.031 A 
ATOM     38  C   UNL A   1      40.575  29.784  29.969  1.00  0.00     0.074 A 
ATOM     39  C   UNL A   1      40.075  27.627  28.874  1.00  0.00     0.049 A 
ATOM     40  N   UNL A   1      41.818  29.590  30.335  1.00  0.00    -0.248 NA
ATOM     41  C   UNL A   1      40.061  31.125  30.292  1.00  0.00     0.031 C 
ATOM     42  C   UNL A   1      39.303  26.647  28.107  1.00  0.00     0.029 A 
ATOM     43  N   UNL A   1      41.280  27.003  29.087  1.00  0.00    -0.354 N 
ATOM     44  C   UNL A   1      42.241  30.792  30.895  1.00  0.00     0.074 A 
ATOM     45  C   UNL A   1      41.142  31.723  30.767  1.00  0.00     0.031 C 
ATOM     46  C   UNL A   1      40.038  25.538  27.940  1.00  0.00     0.029 A 
ATOM     47  C   UNL A   1      41.350  25.738  28.550  1.00  0.00     0.049 A 
ATOM     48  H   UNL A   1      42.025  27.421  29.578  1.00  0.00     0.167 HD
ATOM     49  C   UNL A   1      43.425  31.091  31.483  1.00  0.00     0.031 A 
ATOM     50  C   UNL A   1      42.353  24.838  28.542  1.00  0.00     0.031 A 
ATOM     51  C   UNL A   1      44.509  30.157  31.628  1.00  0.00     0.049 A 
ATOM     52  C   UNL A   1      43.646  25.171  29.229  1.00  0.00     0.074 A 
ATOM     53  C   UNL A   1      45.714  30.333  32.286  1.00  0.00     0.029 A 
ATOM     54  N   UNL A   1      44.523  28.873  31.104  1.00  0.00    -0.354 N 
ATOM     55  N   UNL A   1      43.991  26.282  29.836  1.00  0.00    -0.248 NA
ATOM     56  C   UNL A   1      44.677  24.125  29.248  1.00  0.00     0.031 C 
ATOM     57  C   UNL A   1      46.480  29.174  32.109  1.00  0.00     0.029 A 
ATOM     58  C   UNL A   1      45.727  28.255  31.396  1.00  0.00     0.049 A 
ATOM     59  H   UNL A   1      43.785  28.462  30.599  1.00  0.00     0.167 HD
ATOM     60  C   UNL A   1      45.277  26.065  30.321  1.00  0.00     0.074 A 
ATOM     61  C   UNL A   1      45.637  24.709  29.954  1.00  0.00     0.031 C 
ATOM     62  C   UNL A   1      46.083  26.911  31.007  1.00  0.00     0.031 A 
BRANCH  49  63
ATOM     63  C   UNL A   1      43.606  32.499  31.994  1.00  0.00    -0.014 A 
ATOM     64  C   UNL A   1      43.238  32.856  33.306  1.00  0.00     0.010 A 
ATOM     65  C   UNL A   1      44.144  33.485  31.147  1.00  0.00     0.010 A 
ATOM     66  C   UNL A   1      43.333  34.183  33.734  1.00  0.00     0.020 A 
ATOM     67  C   UNL A   1      44.274  34.808  31.583  1.00  0.00     0.020 A 
ATOM     68  C   UNL A   1      43.840  35.153  32.864  1.00  0.00     0.054 A 
BRANCH  68  69
ATOM     69  S   UNL A   1      43.928  36.873  33.435  1.00  0.00     0.124 S 
ATOM     70  O   UNL A   1      45.175  36.871  34.198  1.00  0.00    -0.237 OA
ATOM     71  O   UNL A   1      43.959  37.626  32.184  1.00  0.00    -0.237 OA
ATOM     72  O   UNL A   1      42.713  37.037  34.229  1.00  0.00    -0.744 OA
ENDBRANCH  68  69
ENDBRANCH  49  63
BRANCH  50  73
ATOM     73  C   UNL A   1      42.145  23.524  27.873  1.00  0.00    -0.014 A 
ATOM     74  C   UNL A   1      42.651  23.292  26.582  1.00  0.00     0.010 A 
ATOM     75  C   UNL A   1      41.507  22.474  28.557  1.00  0.00     0.010 A 
ATOM     76  C   UNL A   1      42.531  22.031  25.991  1.00  0.00     0.020 A 
ATOM     77  C   UNL A   1      41.408  21.204  27.979  1.00  0.00     0.020 A 
ATOM     78  C   UNL A   1      41.921  20.991  26.699  1.00  0.00     0.054 A 
BRANCH  78  79
ATOM     79  S   UNL A   1      41.877  19.335  25.958  1.00  0.00     0.124 S 
ATOM     80  O   UNL A   1      40.461  19.178  25.645  1.00  0.00    -0.237 OA
ATOM     81  O   UNL A   1      42.768  19.482  24.809  1.00  0.00    -0.237 OA
ATOM     82  O   UNL A   1      42.385  18.472  27.022  1.00  0.00    -0.744 OA
ENDBRANCH  78  79
ENDBRANCH  50  73
BRANCH  62  83
ATOM     83  C   UNL A   1      47.436  26.396  31.420  1.00  0.00    -0.014 A 
ATOM     84  C   UNL A   1      47.638  25.814  32.685  1.00  0.00     0.010 A 
ATOM     85  C   UNL A   1      48.508  26.447  30.510  1.00  0.00     0.010 A 
ATOM     86  C   UNL A   1      48.896  25.323  33.043  1.00  0.00     0.020 A 
ATOM     87  C   UNL A   1      49.759  25.932  30.854  1.00  0.00     0.020 A 
ATOM     88  C   UNL A   1      49.950  25.386  32.125  1.00  0.00     0.054 A 
BRANCH  88  89
ATOM     89  S   UNL A   1      51.563  24.708  32.601  1.00  0.00     0.124 S 
ATOM     90  O   UNL A   1      52.485  25.597  31.899  1.00  0.00    -0.237 OA
ATOM     91  O   UNL A   1      51.550  24.837  34.056  1.00  0.00    -0.237 OA
ATOM     92  O   UNL A   1      51.523  23.335  32.102  1.00  0.00    -0.744 OA
ENDBRANCH  88  89
ENDBRANCH  62  83
ENDBRANCH  36  37
ENDBRANCH  28  31
ENDBRANCH  26  27
ENDBRANCH   1  26
TORSDOF 16
ENDMDL
MODEL 2
REMARK VINA RESULT:     -11.2      2.606      9.396
REMARK SMILES C[C@@H]1CN(C(=O)C[NH+]2CCC(CC(=O)NCCCNC(=O)c3ccc(-c4c5nc(c(-c6ccc(S(=O)(=O)[O-])cc6)c6ccc([nH]6)c(-c6ccc(S(=O)(=O)[O-])cc6)c6nc(c(-c7ccc(S(=O)(=O)[O-])cc7)c7ccc4[nH]7)C=C6)C=C5)cc3)CC2)C[C@@H](C)O1
REMARK SMILES IDX 17 1 16 2 15 3 13 4 14 5 12 7 11 8 8 9 9 10 83 11 10 13
REMARK SMILES IDX 82 14 7 15 5 16 1 17 2 18 3 19 87 20 4 21 85 22 84 23 86 24
REMARK SMILES IDX 6 25 18 26 19 27 20 28 21 30 22 31 23 32 81 33 24 34 80 35
REMARK SMILES IDX 25 36 26 37 27 38 74 39 28 40 79 41 73 42 75 43 29 44 78 45
REMARK SMILES IDX 72 46 71 47 30 49 60 50 41 51 59 52 42 53 45 54 58 55 76 56
REMARK SMILES IDX 43 57 44 58 57 60 77 61 46 62 31 63 32 64 40 65 33 66 39 67
REMARK SMILES IDX 34 68 35 69 36 70 37 71 38 72 61 73 62 74 70 75 63 76 69 77
REMARK SMILES IDX 64 78 65 79 66 80 67 81 68 82 47 83 48 84 56 85 49 86 55 87
REMARK SMILES IDX 50 88 51 89 52 90 53 91 54 92
REMARK H PARENT 15 6 8 12 19 29 75 48 45 59
REMARK Flexibility Score: inf
ROOT
ATOM      1  C   UNL A   1      35.757  22.754  24.819  1.00  0.00     0.042 C 
ENDROOT
BRANCH   1   2
ATOM      2  C   UNL A   1      35.442  21.619  25.795  1.00  0.00     0.117 C 
BRANCH   2   3
ATOM      3  N   UNL A   1      35.039  20.400  25.100  1.00  0.00    -0.356 N 
ATOM      4  C   UNL A   1      33.815  19.827  24.888  1.00  0.00     0.220 C 
ATOM      5  O   UNL A   1      33.786  18.746  24.295  1.00  0.00    -0.275 OA
ATOM      6  H   UNL A   1      35.789  19.895  24.710  1.00  0.00     0.163 HD
BRANCH   4   7
ATOM      7  C   UNL A   1      32.517  20.507  25.304  1.00  0.00     0.104 C 
BRANCH   7   8
ATOM      8  C   UNL A   1      31.875  21.515  24.305  1.00  0.00     0.009 C 
ATOM      9  N   UNL A   1      32.923  24.030  23.377  1.00  0.00    -0.327 N 
ATOM     10  C   UNL A   1      32.815  22.992  22.351  1.00  0.00     0.262 C 
ATOM     11  C   UNL A   1      31.640  24.102  24.072  1.00  0.00     0.262 C 
ATOM     12  H   UNL A   1      33.654  23.770  24.039  1.00  0.00     0.348 HD
ATOM     13  C   UNL A   1      32.777  21.622  23.043  1.00  0.00     0.066 C 
ATOM     14  C   UNL A   1      31.588  22.870  24.966  1.00  0.00     0.066 C 
BRANCH   9  15
ATOM     15  C   UNL A   1      33.403  25.327  22.874  1.00  0.00     0.363 C 
BRANCH  15  16
ATOM     16  C   UNL A   1      33.540  26.345  24.041  1.00  0.00     0.277 C 
ATOM     17  C   UNL A   1      30.091  27.301  24.102  1.00  0.00     0.040 C 
ATOM     18  C   UNL A   1      30.803  28.464  23.427  1.00  0.00     0.135 C 
ATOM     19  C   UNL A   1      32.149  28.059  22.798  1.00  0.00     0.151 C 
ATOM     20  O   UNL A   1      30.980  29.530  24.367  1.00  0.00    -0.372 OA
ATOM     21  N   UNL A   1      33.064  27.643  23.859  1.00  0.00    -0.333 N 
ATOM     22  C   UNL A   1      31.888  29.182  25.433  1.00  0.00     0.135 C 
ATOM     23  C   UNL A   1      33.247  28.683  24.886  1.00  0.00     0.151 C 
ATOM     24  C   UNL A   1      32.005  30.428  26.295  1.00  0.00     0.040 C 
ATOM     25  O   UNL A   1      34.083  26.006  25.097  1.00  0.00    -0.268 OA
ENDBRANCH  15  16
ENDBRANCH   9  15
ENDBRANCH   7   8
ENDBRANCH   4   7
ENDBRANCH   2   3
ENDBRANCH   1   2
BRANCH   1  26
ATOM     26  C   UNL A   1      37.085  23.454  25.033  1.00  0.00     0.118 C 
BRANCH  26  27
ATOM     27  N   UNL A   1      38.148  22.562  25.471  1.00  0.00    -0.352 N 
ATOM     28  C   UNL A   1      39.275  22.817  26.223  1.00  0.00     0.251 C 
ATOM     29  H   UNL A   1      38.046  21.625  25.184  1.00  0.00     0.163 HD
ATOM     30  O   UNL A   1      40.090  21.910  26.386  1.00  0.00    -0.269 OA
BRANCH  28  31
ATOM     31  C   UNL A   1      39.550  24.163  26.798  1.00  0.00     0.039 A 
ATOM     32  C   UNL A   1      39.109  24.442  28.098  1.00  0.00     0.014 A 
ATOM     33  C   UNL A   1      40.221  25.157  26.085  1.00  0.00     0.014 A 
ATOM     34  C   UNL A   1      39.411  25.672  28.697  1.00  0.00     0.010 A 
ATOM     35  C   UNL A   1      40.626  26.328  26.722  1.00  0.00     0.010 A 
ATOM     36  C   UNL A   1      40.215  26.611  28.032  1.00  0.00    -0.014 A 
BRANCH  36  37
ATOM     37  C   UNL A   1      40.628  27.889  28.676  1.00  0.00     0.031 A 
ATOM     38  C   UNL A   1      42.004  28.034  29.277  1.00  0.00     0.074 A 
ATOM     39  C   UNL A   1      39.740  28.898  28.798  1.00  0.00     0.049 A 
ATOM     40  N   UNL A   1      42.518  29.045  29.933  1.00  0.00    -0.248 NA
ATOM     41  C   UNL A   1      42.907  26.878  29.162  1.00  0.00     0.031 C 
ATOM     42  C   UNL A   1      38.353  28.869  28.326  1.00  0.00     0.029 A 
ATOM     43  N   UNL A   1      39.869  30.141  29.367  1.00  0.00    -0.354 N 
ATOM     44  C   UNL A   1      43.784  28.632  30.336  1.00  0.00     0.074 A 
ATOM     45  C   UNL A   1      43.935  27.261  29.902  1.00  0.00     0.031 C 
ATOM     46  C   UNL A   1      37.771  30.046  28.596  1.00  0.00     0.029 A 
ATOM     47  C   UNL A   1      38.724  30.902  29.298  1.00  0.00     0.049 A 
ATOM     48  H   UNL A   1      40.701  30.459  29.785  1.00  0.00     0.167 HD
ATOM     49  C   UNL A   1      44.744  29.333  30.988  1.00  0.00     0.031 A 
ATOM     50  C   UNL A   1      38.463  32.145  29.748  1.00  0.00     0.031 A 
ATOM     51  C   UNL A   1      44.600  30.703  31.400  1.00  0.00     0.049 A 
ATOM     52  C   UNL A   1      39.549  32.921  30.435  1.00  0.00     0.074 A 
ATOM     53  C   UNL A   1      45.543  31.530  31.986  1.00  0.00     0.029 A 
ATOM     54  N   UNL A   1      43.437  31.448  31.275  1.00  0.00    -0.354 N 
ATOM     55  N   UNL A   1      40.772  32.544  30.723  1.00  0.00    -0.248 NA
ATOM     56  C   UNL A   1      39.227  34.296  30.842  1.00  0.00     0.031 C 
ATOM     57  C   UNL A   1      44.932  32.757  32.267  1.00  0.00     0.029 A 
ATOM     58  C   UNL A   1      43.627  32.716  31.800  1.00  0.00     0.049 A 
ATOM     59  H   UNL A   1      42.600  31.125  30.871  1.00  0.00     0.167 HD
ATOM     60  C   UNL A   1      41.372  33.640  31.336  1.00  0.00     0.074 A 
ATOM     61  C   UNL A   1      40.383  34.700  31.355  1.00  0.00     0.031 C 
ATOM     62  C   UNL A   1      42.628  33.756  31.833  1.00  0.00     0.031 A 
BRANCH  49  63
ATOM     63  C   UNL A   1      46.029  28.609  31.308  1.00  0.00    -0.014 A 
ATOM     64  C   UNL A   1      47.119  28.621  30.416  1.00  0.00     0.010 A 
ATOM     65  C   UNL A   1      46.147  27.898  32.516  1.00  0.00     0.010 A 
ATOM     66  C   UNL A   1      48.269  27.875  30.690  1.00  0.00     0.020 A 
ATOM     67  C   UNL A   1      47.310  27.179  32.811  1.00  0.00     0.020 A 
ATOM     68  C   UNL A   1      48.352  27.149  31.882  1.00  0.00     0.054 A 
BRANCH  68  69
ATOM     69  S   UNL A   1      49.844  26.169  32.202  1.00  0.00     0.124 S 
ATOM     70  O   UNL A   1      50.631  27.083  33.026  1.00  0.00    -0.237 OA
ATOM     71  O   UNL A   1      49.316  24.996  32.894  1.00  0.00    -0.237 OA
ATOM     72  O   UNL A   1      50.383  25.913  30.868  1.00  0.00    -0.744 OA
ENDBRANCH  68  69
ENDBRANCH  49  63
BRANCH  50  73
ATOM     73  C   UNL A   1      37.111  32.728  29.529  1.00  0.00    -0.014 A 
ATOM     74  C   UNL A   1      36.180  32.787  30.581  1.00  0.00     0.010 A 
ATOM     75  C   UNL A   1      36.776  33.298  28.287  1.00  0.00     0.010 A 
ATOM     76  C   UNL A   1      34.944  33.413  30.398  1.00  0.00     0.020 A 
ATOM     77  C   UNL A   1      35.551  33.947  28.108  1.00  0.00     0.020 A 
ATOM     78  C   UNL A   1      34.642  34.001  29.165  1.00  0.00     0.054 A 
BRANCH  78  79
ATOM     79  S   UNL A   1      33.079  34.906  28.986  1.00  0.00     0.124 S 
ATOM     80  O   UNL A   1      33.531  36.196  28.475  1.00  0.00    -0.237 OA
ATOM     81  O   UNL A   1      32.342  34.073  28.039  1.00  0.00    -0.237 OA
ATOM     82  O   UNL A   1      32.537  34.922  30.342  1.00  0.00    -0.744 OA
ENDBRANCH  78  79
ENDBRANCH  50  73
BRANCH  62  83
ATOM     83  C   UNL A   1      43.013  35.081  32.435  1.00  0.00    -0.014 A 
ATOM     84  C   UNL A   1      43.619  36.085  31.658  1.00  0.00     0.010 A 
ATOM     85  C   UNL A   1      42.719  35.344  33.786  1.00  0.00     0.010 A 
ATOM     86  C   UNL A   1      43.951  37.316  32.229  1.00  0.00     0.020 A 
ATOM     87  C   UNL A   1      43.024  36.583  34.353  1.00  0.00     0.020 A 
ATOM     88  C   UNL A   1      43.652  37.557  33.575  1.00  0.00     0.054 A 
BRANCH  88  89
ATOM     89  S   UNL A   1      44.060  39.176  34.283  1.00  0.00     0.124 S 
ATOM     90  O   UNL A   1      45.350  39.463  33.661  1.00  0.00    -0.237 OA
ATOM     91  O   UNL A   1      42.948  40.011  33.836  1.00  0.00    -0.237 OA
ATOM     92  O   UNL A   1      44.105  38.924  35.722  1.00  0.00    -0.744 OA
ENDBRANCH  88  89
ENDBRANCH  62  83
ENDBRANCH  36  37
ENDBRANCH  28  31
ENDBRANCH  26  27
ENDBRANCH   1  26
TORSDOF 16
ENDMDL
MODEL 3
REMARK VINA RESULT:     -10.8      3.155      3.809
REMARK SMILES C[C@@H]1CN(C(=O)C[NH+]2CCC(CC(=O)NCCCNC(=O)c3ccc(-c4c5nc(c(-c6ccc(S(=O)(=O)[O-])cc6)c6ccc([nH]6)c(-c6ccc(S(=O)(=O)[O-])cc6)c6nc(c(-c7ccc(S(=O)(=O)[O-])cc7)c7ccc4[nH]7)C=C6)C=C5)cc3)CC2)C[C@@H](C)O1
REMARK SMILES IDX 17 1 16 2 15 3 13 4 14 5 12 7 11 8 8 9 9 10 83 11 10 13
REMARK SMILES IDX 82 14 7 15 5 16 1 17 2 18 3 19 87 20 4 21 85 22 84 23 86 24
REMARK SMILES IDX 6 25 18 26 19 27 20 28 21 30 22 31 23 32 81 33 24 34 80 35
REMARK SMILES IDX 25 36 26 37 27 38 74 39 28 40 79 41 73 42 75 43 29 44 78 45
REMARK SMILES IDX 72 46 71 47 30 49 60 50 41 51 59 52 42 53 45 54 58 55 76 56
REMARK SMILES IDX 43 57 44 58 57 60 77 61 46 62 31 63 32 64 40 65 33 66 39 67
REMARK SMILES IDX 34 68 35 69 36 70 37 71 38 72 61 73 62 74 70 75 63 76 69 77
REMARK SMILES IDX 64 78 65 79 66 80 67 81 68 82 47 83 48 84 56 85 49 86 55 87
REMARK SMILES IDX 50 88 51 89 52 90 53 91 54 92
REMARK H PARENT 15 6 8 12 19 29 75 48 45 59
REMARK Flexibility Score: inf
ROOT
ATOM      1  C   UNL A   1      33.797  29.151  27.084  1.00  0.00     0.042 C 
ENDROOT
BRANCH   1   2
ATOM      2  C   UNL A   1      33.567  28.951  25.585  1.00  0.00     0.117 C 
BRANCH   2   3
ATOM      3  N   UNL A   1      32.255  29.436  25.167  1.00  0.00    -0.356 N 
ATOM      4  C   UNL A   1      31.357  28.975  24.244  1.00  0.00     0.220 C 
ATOM      5  O   UNL A   1      30.329  29.634  24.068  1.00  0.00    -0.275 OA
ATOM      6  H   UNL A   1      31.961  30.249  25.638  1.00  0.00     0.163 HD
BRANCH   4   7
ATOM      7  C   UNL A   1      31.565  27.666  23.493  1.00  0.00     0.104 C 
BRANCH   7   8
ATOM      8  C   UNL A   1      30.605  26.483  23.819  1.00  0.00     0.009 C 
ATOM      9  N   UNL A   1      31.236  23.949  25.028  1.00  0.00    -0.327 N 
ATOM     10  C   UNL A   1      30.384  24.822  25.837  1.00  0.00     0.262 C 
ATOM     11  C   UNL A   1      30.655  23.879  23.689  1.00  0.00     0.262 C 
ATOM     12  H   UNL A   1      32.171  24.353  24.973  1.00  0.00     0.348 HD
ATOM     13  C   UNL A   1      30.571  26.268  25.359  1.00  0.00     0.066 C 
ATOM     14  C   UNL A   1      30.974  25.217  23.034  1.00  0.00     0.066 C 
BRANCH   9  15
ATOM     15  C   UNL A   1      31.499  22.633  25.634  1.00  0.00     0.363 C 
BRANCH  15  16
ATOM     16  C   UNL A   1      32.914  22.605  26.279  1.00  0.00     0.277 C 
ATOM     17  C   UNL A   1      34.513  24.562  23.743  1.00  0.00     0.040 C 
ATOM     18  C   UNL A   1      34.958  23.134  23.468  1.00  0.00     0.135 C 
ATOM     19  C   UNL A   1      33.993  22.083  24.047  1.00  0.00     0.151 C 
ATOM     20  O   UNL A   1      36.285  22.939  23.971  1.00  0.00    -0.372 OA
ATOM     21  N   UNL A   1      33.996  22.187  25.505  1.00  0.00    -0.333 N 
ATOM     22  C   UNL A   1      36.347  23.016  25.411  1.00  0.00     0.135 C 
ATOM     23  C   UNL A   1      35.344  22.045  26.079  1.00  0.00     0.151 C 
ATOM     24  C   UNL A   1      37.796  22.733  25.774  1.00  0.00     0.040 C 
ATOM     25  O   UNL A   1      33.060  22.928  27.461  1.00  0.00    -0.268 OA
ENDBRANCH  15  16
ENDBRANCH   9  15
ENDBRANCH   7   8
ENDBRANCH   4   7
ENDBRANCH   2   3
ENDBRANCH   1   2
BRANCH   1  26
ATOM     26  C   UNL A   1      35.179  29.635  27.477  1.00  0.00     0.118 C 
BRANCH  26  27
ATOM     27  N   UNL A   1      35.244  30.170  28.828  1.00  0.00    -0.352 N 
ATOM     28  C   UNL A   1      36.283  30.183  29.734  1.00  0.00     0.251 C 
ATOM     29  H   UNL A   1      34.413  30.592  29.146  1.00  0.00     0.163 HD
ATOM     30  O   UNL A   1      36.068  30.612  30.868  1.00  0.00    -0.269 OA
BRANCH  28  31
ATOM     31  C   UNL A   1      37.632  29.653  29.394  1.00  0.00     0.039 A 
ATOM     32  C   UNL A   1      38.079  29.748  28.070  1.00  0.00     0.014 A 
ATOM     33  C   UNL A   1      38.462  29.057  30.344  1.00  0.00     0.014 A 
ATOM     34  C   UNL A   1      39.369  29.324  27.727  1.00  0.00     0.010 A 
ATOM     35  C   UNL A   1      39.784  28.750  30.030  1.00  0.00     0.010 A 
ATOM     36  C   UNL A   1      40.254  28.863  28.714  1.00  0.00    -0.014 A 
BRANCH  36  37
ATOM     37  C   UNL A   1      41.661  28.490  28.397  1.00  0.00     0.031 A 
ATOM     38  C   UNL A   1      42.747  29.537  28.386  1.00  0.00     0.074 A 
ATOM     39  C   UNL A   1      41.954  27.224  28.035  1.00  0.00     0.049 A 
ATOM     40  N   UNL A   1      44.012  29.412  28.072  1.00  0.00    -0.248 NA
ATOM     41  C   UNL A   1      42.352  30.911  28.733  1.00  0.00     0.031 C 
ATOM     42  C   UNL A   1      40.990  26.125  27.933  1.00  0.00     0.029 A 
ATOM     43  N   UNL A   1      43.148  26.649  27.674  1.00  0.00    -0.354 N 
ATOM     44  C   UNL A   1      44.552  30.692  28.150  1.00  0.00     0.074 A 
ATOM     45  C   UNL A   1      43.463  31.585  28.484  1.00  0.00     0.031 C 
ATOM     46  C   UNL A   1      41.633  25.006  27.568  1.00  0.00     0.029 A 
ATOM     47  C   UNL A   1      43.047  25.311  27.368  1.00  0.00     0.049 A 
ATOM     48  H   UNL A   1      43.998  27.146  27.639  1.00  0.00     0.167 HD
ATOM     49  C   UNL A   1      45.837  31.091  27.984  1.00  0.00     0.031 A 
ATOM     50  C   UNL A   1      43.980  24.425  26.967  1.00  0.00     0.031 A 
ATOM     51  C   UNL A   1      46.921  30.198  27.675  1.00  0.00     0.049 A 
ATOM     52  C   UNL A   1      45.406  24.875  26.822  1.00  0.00     0.074 A 
ATOM     53  C   UNL A   1      48.271  30.486  27.573  1.00  0.00     0.029 A 
ATOM     54  N   UNL A   1      46.780  28.844  27.410  1.00  0.00    -0.354 N 
ATOM     55  N   UNL A   1      45.911  26.073  26.993  1.00  0.00    -0.248 NA
ATOM     56  C   UNL A   1      46.391  23.850  26.449  1.00  0.00     0.031 C 
ATOM     57  C   UNL A   1      48.939  29.317  27.191  1.00  0.00     0.029 A 
ATOM     58  C   UNL A   1      48.014  28.287  27.116  1.00  0.00     0.049 A 
ATOM     59  H   UNL A   1      45.929  28.350  27.430  1.00  0.00     0.167 HD
ATOM     60  C   UNL A   1      47.277  25.946  26.760  1.00  0.00     0.074 A 
ATOM     61  C   UNL A   1      47.519  24.548  26.459  1.00  0.00     0.031 C 
ATOM     62  C   UNL A   1      48.240  26.899  26.796  1.00  0.00     0.031 A 
BRANCH  49  63
ATOM     63  C   UNL A   1      46.125  32.565  28.118  1.00  0.00    -0.014 A 
ATOM     64  C   UNL A   1      46.118  33.419  26.998  1.00  0.00     0.010 A 
ATOM     65  C   UNL A   1      46.417  33.107  29.383  1.00  0.00     0.010 A 
ATOM     66  C   UNL A   1      46.471  34.765  27.129  1.00  0.00     0.020 A 
ATOM     67  C   UNL A   1      46.736  34.461  29.524  1.00  0.00     0.020 A 
ATOM     68  C   UNL A   1      46.790  35.274  28.391  1.00  0.00     0.054 A 
BRANCH  68  69
ATOM     69  S   UNL A   1      47.270  37.018  28.529  1.00  0.00     0.124 S 
ATOM     70  O   UNL A   1      46.380  37.651  27.558  1.00  0.00    -0.237 OA
ATOM     71  O   UNL A   1      46.986  37.320  29.930  1.00  0.00    -0.237 OA
ATOM     72  O   UNL A   1      48.686  37.017  28.168  1.00  0.00    -0.744 OA
ENDBRANCH  68  69
ENDBRANCH  49  63
BRANCH  50  73
ATOM     73  C   UNL A   1      43.579  23.017  26.701  1.00  0.00    -0.014 A 
ATOM     74  C   UNL A   1      43.917  22.395  25.486  1.00  0.00     0.010 A 
ATOM     75  C   UNL A   1      42.925  22.266  27.694  1.00  0.00     0.010 A 
ATOM     76  C   UNL A   1      43.616  21.047  25.274  1.00  0.00     0.020 A 
ATOM     77  C   UNL A   1      42.645  20.911  27.496  1.00  0.00     0.020 A 
ATOM     78  C   UNL A   1      42.992  20.309  26.285  1.00  0.00     0.054 A 
BRANCH  78  79
ATOM     79  S   UNL A   1      42.714  18.534  26.031  1.00  0.00     0.124 S 
ATOM     80  O   UNL A   1      43.085  17.978  27.327  1.00  0.00    -0.237 OA
ATOM     81  O   UNL A   1      41.291  18.484  25.704  1.00  0.00    -0.237 OA
ATOM     82  O   UNL A   1      43.610  18.204  24.925  1.00  0.00    -0.744 OA
ENDBRANCH  78  79
ENDBRANCH  50  73
BRANCH  62  83
ATOM     83  C   UNL A   1      49.654  26.465  26.511  1.00  0.00    -0.014 A 
ATOM     84  C   UNL A   1      50.476  25.949  27.529  1.00  0.00     0.010 A 
ATOM     85  C   UNL A   1      50.149  26.526  25.195  1.00  0.00     0.010 A 
ATOM     86  C   UNL A   1      51.779  25.533  27.242  1.00  0.00     0.020 A 
ATOM     87  C   UNL A   1      51.440  26.084  24.899  1.00  0.00     0.020 A 
ATOM     88  C   UNL A   1      52.253  25.604  25.927  1.00  0.00     0.054 A 
BRANCH  88  89
ATOM     89  S   UNL A   1      53.934  25.023  25.574  1.00  0.00     0.124 S 
ATOM     90  O   UNL A   1      53.679  23.802  24.815  1.00  0.00    -0.237 OA
ATOM     91  O   UNL A   1      54.502  26.131  24.809  1.00  0.00    -0.237 OA
ATOM     92  O   UNL A   1      54.517  24.823  26.898  1.00  0.00    -0.744 OA
ENDBRANCH  88  89
ENDBRANCH  62  83
ENDBRANCH  36  37
ENDBRANCH  28  31
ENDBRANCH  26  27
ENDBRANCH   1  26
TORSDOF 16
ENDMDL
