MODEL 1
REMARK VINA RESULT:     -10.5      0.000      0.000
REMARK SMILES C[C@H](COc1ccccc1C(=O)NCCCNC(=O)c1ccc(-c2c3nc(c(-c4ccc(S(=O)(=O)[O-])cc4)c4ccc([nH]4)c(-c4ccc(S(=O)(=O)[O-])cc4)c4nc(c(-c5ccc(S(=O)(=O)[O-])cc5)c5ccc2[nH]5)C=C4)C=C3)cc1)C(N)=O
REMARK SMILES IDX 14 1 13 2 11 3 12 4 10 6 5 7 6 8 7 9 9 10 8 11 4 12 3 13
REMARK SMILES IDX 2 14 1 15 80 16 81 17 82 18 15 21 16 22 17 23 18 24 19 26
REMARK SMILES IDX 20 27 21 28 79 29 22 30 78 31 23 32 24 33 25 34 72 35 26 36
REMARK SMILES IDX 77 37 71 38 73 39 27 40 76 41 70 42 69 43 28 45 58 46 39 47
REMARK SMILES IDX 57 48 40 49 43 50 56 51 74 52 41 53 42 54 55 56 75 57 44 58
REMARK SMILES IDX 29 59 30 60 38 61 31 62 37 63 32 64 33 65 34 66 35 67 36 68
REMARK SMILES IDX 59 69 60 70 68 71 61 72 67 73 62 74 63 75 64 76 65 77 66 78
REMARK SMILES IDX 45 79 46 80 54 81 47 82 53 83 48 84 49 85 50 86 51 87 52 88
REMARK H PARENT 13 5 81 19 81 20 17 25 73 44 43 55
REMARK Flexibility Score: inf
ROOT
ATOM      1  C   UNL A   1      36.851  21.468  25.320  1.00  0.00     0.118 C 
ENDROOT
BRANCH   1   2
ATOM      2  N   UNL A   1      35.779  21.271  26.280  1.00  0.00    -0.352 N 
ATOM      3  C   UNL A   1      34.423  21.423  26.095  1.00  0.00     0.255 C 
ATOM      4  O   UNL A   1      33.659  21.211  27.036  1.00  0.00    -0.269 OA
ATOM      5  H   UNL A   1      36.057  20.991  27.182  1.00  0.00     0.163 HD
BRANCH   3   6
ATOM      6  C   UNL A   1      33.875  21.906  24.807  1.00  0.00     0.081 A 
ATOM      7  C   UNL A   1      32.947  21.197  24.032  1.00  0.00     0.132 A 
ATOM      8  C   UNL A   1      32.598  21.675  22.767  1.00  0.00     0.047 A 
ATOM      9  C   UNL A   1      33.081  22.910  22.324  1.00  0.00     0.004 A 
ATOM     10  C   UNL A   1      34.305  23.173  24.385  1.00  0.00     0.018 A 
ATOM     11  C   UNL A   1      33.906  23.675  23.147  1.00  0.00     0.001 A 
BRANCH   7  12
ATOM     12  O   UNL A   1      32.458  19.997  24.466  1.00  0.00    -0.492 OA
BRANCH  12  13
ATOM     13  C   UNL A   1      32.678  18.882  23.596  1.00  0.00     0.242 C 
BRANCH  13  14
ATOM     14  C   UNL A   1      33.475  17.752  24.274  1.00  0.00     0.113 C 
ATOM     15  C   UNL A   1      34.965  18.072  24.388  1.00  0.00     0.022 C 
BRANCH  14  16
ATOM     16  C   UNL A   1      32.771  17.348  25.565  1.00  0.00     0.223 C 
ATOM     17  N   UNL A   1      32.812  18.207  26.615  1.00  0.00    -0.369 N 
ATOM     18  O   UNL A   1      32.266  16.238  25.724  1.00  0.00    -0.275 OA
ATOM     19  H   UNL A   1      33.213  19.100  26.506  1.00  0.00     0.159 HD
ATOM     20  H   UNL A   1      32.442  17.938  27.487  1.00  0.00     0.159 HD
ENDBRANCH  14  16
ENDBRANCH  13  14
ENDBRANCH  12  13
ENDBRANCH   7  12
ENDBRANCH   3   6
ENDBRANCH   1   2
BRANCH   1  21
ATOM     21  C   UNL A   1      37.754  22.643  25.637  1.00  0.00     0.042 C 
BRANCH  21  22
ATOM     22  C   UNL A   1      39.080  22.266  26.292  1.00  0.00     0.118 C 
BRANCH  22  23
ATOM     23  N   UNL A   1      39.546  20.903  26.054  1.00  0.00    -0.352 N 
ATOM     24  C   UNL A   1      40.821  20.372  26.178  1.00  0.00     0.251 C 
ATOM     25  H   UNL A   1      38.853  20.266  25.763  1.00  0.00     0.163 HD
ATOM     26  O   UNL A   1      41.028  19.190  25.985  1.00  0.00    -0.269 OA
BRANCH  24  27
ATOM     27  C   UNL A   1      41.943  21.298  26.467  1.00  0.00     0.039 A 
ATOM     28  C   UNL A   1      42.480  22.041  25.414  1.00  0.00     0.014 A 
ATOM     29  C   UNL A   1      42.325  21.555  27.783  1.00  0.00     0.014 A 
ATOM     30  C   UNL A   1      43.269  23.159  25.699  1.00  0.00     0.010 A 
ATOM     31  C   UNL A   1      43.011  22.730  28.066  1.00  0.00     0.010 A 
ATOM     32  C   UNL A   1      43.455  23.566  27.030  1.00  0.00    -0.014 A 
BRANCH  32  33
ATOM     33  C   UNL A   1      44.035  24.895  27.367  1.00  0.00     0.031 A 
ATOM     34  C   UNL A   1      43.146  26.010  27.845  1.00  0.00     0.074 A 
ATOM     35  C   UNL A   1      45.344  25.133  27.130  1.00  0.00     0.049 A 
ATOM     36  N   UNL A   1      43.443  27.265  28.063  1.00  0.00    -0.248 NA
ATOM     37  C   UNL A   1      41.729  25.679  28.070  1.00  0.00     0.031 C 
ATOM     38  C   UNL A   1      46.308  24.162  26.602  1.00  0.00     0.029 A 
ATOM     39  N   UNL A   1      46.091  26.275  27.295  1.00  0.00    -0.354 N 
ATOM     40  C   UNL A   1      42.248  27.878  28.418  1.00  0.00     0.074 A 
ATOM     41  C   UNL A   1      41.214  26.870  28.334  1.00  0.00     0.031 C 
ATOM     42  C   UNL A   1      47.521  24.734  26.531  1.00  0.00     0.029 A 
ATOM     43  C   UNL A   1      47.418  26.124  26.958  1.00  0.00     0.049 A 
ATOM     44  H   UNL A   1      45.714  27.121  27.626  1.00  0.00     0.167 HD
ATOM     45  C   UNL A   1      42.032  29.158  28.805  1.00  0.00     0.031 A 
ATOM     46  C   UNL A   1      48.437  27.005  26.986  1.00  0.00     0.031 A 
ATOM     47  C   UNL A   1      43.064  30.152  28.922  1.00  0.00     0.049 A 
ATOM     48  C   UNL A   1      48.177  28.412  27.445  1.00  0.00     0.074 A 
ATOM     49  C   UNL A   1      42.954  31.458  29.364  1.00  0.00     0.029 A 
ATOM     50  N   UNL A   1      44.398  29.945  28.606  1.00  0.00    -0.354 N 
ATOM     51  N   UNL A   1      47.048  28.957  27.828  1.00  0.00    -0.248 NA
ATOM     52  C   UNL A   1      49.332  29.322  27.483  1.00  0.00     0.031 C 
ATOM     53  C   UNL A   1      44.218  32.053  29.285  1.00  0.00     0.029 A 
ATOM     54  C   UNL A   1      45.121  31.103  28.835  1.00  0.00     0.049 A 
ATOM     55  H   UNL A   1      44.775  29.101  28.268  1.00  0.00     0.167 HD
ATOM     56  C   UNL A   1      47.360  30.265  28.180  1.00  0.00     0.074 A 
ATOM     57  C   UNL A   1      48.786  30.426  27.975  1.00  0.00     0.031 C 
ATOM     58  C   UNL A   1      46.540  31.244  28.633  1.00  0.00     0.031 A 
BRANCH  45  59
ATOM     59  C   UNL A   1      40.617  29.544  29.143  1.00  0.00    -0.014 A 
ATOM     60  C   UNL A   1      40.236  29.799  30.472  1.00  0.00     0.010 A 
ATOM     61  C   UNL A   1      39.660  29.673  28.119  1.00  0.00     0.010 A 
ATOM     62  C   UNL A   1      38.914  30.126  30.780  1.00  0.00     0.020 A 
ATOM     63  C   UNL A   1      38.342  30.029  28.420  1.00  0.00     0.020 A 
ATOM     64  C   UNL A   1      37.973  30.233  29.751  1.00  0.00     0.054 A 
BRANCH  64  65
ATOM     65  S   UNL A   1      36.266  30.671  30.177  1.00  0.00     0.124 S 
ATOM     66  O   UNL A   1      35.943  29.666  31.188  1.00  0.00    -0.237 OA
ATOM     67  O   UNL A   1      36.399  32.039  30.673  1.00  0.00    -0.237 OA
ATOM     68  O   UNL A   1      35.548  30.536  28.912  1.00  0.00    -0.744 OA
ENDBRANCH  64  65
ENDBRANCH  45  59
BRANCH  46  69
ATOM     69  C   UNL A   1      49.809  26.572  26.602  1.00  0.00    -0.014 A 
ATOM     70  C   UNL A   1      50.692  26.074  27.578  1.00  0.00     0.010 A 
ATOM     71  C   UNL A   1      50.241  26.646  25.265  1.00  0.00     0.010 A 
ATOM     72  C   UNL A   1      51.986  25.677  27.228  1.00  0.00     0.020 A 
ATOM     73  C   UNL A   1      51.526  26.227  24.907  1.00  0.00     0.020 A 
ATOM     74  C   UNL A   1      52.395  25.755  25.895  1.00  0.00     0.054 A 
BRANCH  74  75
ATOM     75  S   UNL A   1      54.061  25.185  25.455  1.00  0.00     0.124 S 
ATOM     76  O   UNL A   1      54.539  24.638  26.721  1.00  0.00    -0.237 OA
ATOM     77  O   UNL A   1      53.794  24.207  24.403  1.00  0.00    -0.237 OA
ATOM     78  O   UNL A   1      54.729  26.404  25.005  1.00  0.00    -0.744 OA
ENDBRANCH  74  75
ENDBRANCH  46  69
BRANCH  58  79
ATOM     79  C   UNL A   1      47.167  32.567  28.977  1.00  0.00    -0.014 A 
ATOM     80  C   UNL A   1      47.674  32.819  30.264  1.00  0.00     0.010 A 
ATOM     81  C   UNL A   1      47.304  33.549  27.979  1.00  0.00     0.010 A 
ATOM     82  C   UNL A   1      48.284  34.042  30.553  1.00  0.00     0.020 A 
ATOM     83  C   UNL A   1      47.934  34.763  28.258  1.00  0.00     0.020 A 
ATOM     84  C   UNL A   1      48.410  35.006  29.547  1.00  0.00     0.054 A 
BRANCH  84  85
ATOM     85  S   UNL A   1      49.252  36.567  29.933  1.00  0.00     0.124 S 
ATOM     86  O   UNL A   1      48.165  37.535  29.816  1.00  0.00    -0.237 OA
ATOM     87  O   UNL A   1      49.748  36.338  31.288  1.00  0.00    -0.237 OA
ATOM     88  O   UNL A   1      50.286  36.663  28.906  1.00  0.00    -0.744 OA
ENDBRANCH  84  85
ENDBRANCH  58  79
ENDBRANCH  32  33
ENDBRANCH  24  27
ENDBRANCH  22  23
ENDBRANCH  21  22
ENDBRANCH   1  21
TORSDOF 17
ENDMDL
MODEL 2
REMARK VINA RESULT:     -10.5      0.598      8.382
REMARK SMILES C[C@H](COc1ccccc1C(=O)NCCCNC(=O)c1ccc(-c2c3nc(c(-c4ccc(S(=O)(=O)[O-])cc4)c4ccc([nH]4)c(-c4ccc(S(=O)(=O)[O-])cc4)c4nc(c(-c5ccc(S(=O)(=O)[O-])cc5)c5ccc2[nH]5)C=C4)C=C3)cc1)C(N)=O
REMARK SMILES IDX 14 1 13 2 11 3 12 4 10 6 5 7 6 8 7 9 9 10 8 11 4 12 3 13
REMARK SMILES IDX 2 14 1 15 80 16 81 17 82 18 15 21 16 22 17 23 18 24 19 26
REMARK SMILES IDX 20 27 21 28 79 29 22 30 78 31 23 32 24 33 25 34 72 35 26 36
REMARK SMILES IDX 77 37 71 38 73 39 27 40 76 41 70 42 69 43 28 45 58 46 39 47
REMARK SMILES IDX 57 48 40 49 43 50 56 51 74 52 41 53 42 54 55 56 75 57 44 58
REMARK SMILES IDX 29 59 30 60 38 61 31 62 37 63 32 64 33 65 34 66 35 67 36 68
REMARK SMILES IDX 59 69 60 70 68 71 61 72 67 73 62 74 63 75 64 76 65 77 66 78
REMARK SMILES IDX 45 79 46 80 54 81 47 82 53 83 48 84 49 85 50 86 51 87 52 88
REMARK H PARENT 13 5 81 19 81 20 17 25 73 44 43 55
REMARK Flexibility Score: inf
ROOT
ATOM      1  C   UNL A   1      36.755  21.313  25.227  1.00  0.00     0.118 C 
ENDROOT
BRANCH   1   2
ATOM      2  N   UNL A   1      35.738  21.289  26.263  1.00  0.00    -0.352 N 
ATOM      3  C   UNL A   1      34.393  21.558  26.151  1.00  0.00     0.255 C 
ATOM      4  O   UNL A   1      33.678  21.488  27.151  1.00  0.00    -0.269 OA
ATOM      5  H   UNL A   1      36.051  21.049  27.166  1.00  0.00     0.163 HD
BRANCH   3   6
ATOM      6  C   UNL A   1      33.804  21.998  24.865  1.00  0.00     0.081 A 
ATOM      7  C   UNL A   1      32.896  21.239  24.116  1.00  0.00     0.132 A 
ATOM      8  C   UNL A   1      32.507  21.683  22.849  1.00  0.00     0.047 A 
ATOM      9  C   UNL A   1      32.929  22.931  22.382  1.00  0.00     0.004 A 
ATOM     10  C   UNL A   1      34.172  23.276  24.419  1.00  0.00     0.018 A 
ATOM     11  C   UNL A   1      33.733  23.742  23.180  1.00  0.00     0.001 A 
BRANCH   7  12
ATOM     12  O   UNL A   1      32.465  20.025  24.574  1.00  0.00    -0.492 OA
BRANCH  12  13
ATOM     13  C   UNL A   1      32.561  18.939  23.648  1.00  0.00     0.242 C 
BRANCH  13  14
ATOM     14  C   UNL A   1      33.383  17.761  24.203  1.00  0.00     0.113 C 
ATOM     15  C   UNL A   1      34.876  18.079  24.296  1.00  0.00     0.022 C 
BRANCH  14  16
ATOM     16  C   UNL A   1      32.724  17.246  25.478  1.00  0.00     0.223 C 
ATOM     17  N   UNL A   1      32.687  18.065  26.559  1.00  0.00    -0.369 N 
ATOM     18  O   UNL A   1      32.324  16.088  25.595  1.00  0.00    -0.275 OA
ATOM     19  H   UNL A   1      33.003  18.995  26.483  1.00  0.00     0.159 HD
ATOM     20  H   UNL A   1      32.346  17.731  27.420  1.00  0.00     0.159 HD
ENDBRANCH  14  16
ENDBRANCH  13  14
ENDBRANCH  12  13
ENDBRANCH   7  12
ENDBRANCH   3   6
ENDBRANCH   1   2
BRANCH   1  21
ATOM     21  C   UNL A   1      37.733  22.464  25.350  1.00  0.00     0.042 C 
BRANCH  21  22
ATOM     22  C   UNL A   1      38.964  22.164  26.201  1.00  0.00     0.118 C 
BRANCH  22  23
ATOM     23  N   UNL A   1      39.517  20.818  26.074  1.00  0.00    -0.352 N 
ATOM     24  C   UNL A   1      40.822  20.381  26.239  1.00  0.00     0.251 C 
ATOM     25  H   UNL A   1      38.866  20.117  25.836  1.00  0.00     0.163 HD
ATOM     26  O   UNL A   1      41.104  19.203  26.142  1.00  0.00    -0.269 OA
BRANCH  24  27
ATOM     27  C   UNL A   1      41.882  21.397  26.452  1.00  0.00     0.039 A 
ATOM     28  C   UNL A   1      42.332  22.129  25.351  1.00  0.00     0.014 A 
ATOM     29  C   UNL A   1      42.283  21.739  27.742  1.00  0.00     0.014 A 
ATOM     30  C   UNL A   1      43.045  23.311  25.562  1.00  0.00     0.010 A 
ATOM     31  C   UNL A   1      42.890  22.971  27.953  1.00  0.00     0.010 A 
ATOM     32  C   UNL A   1      43.241  23.790  26.868  1.00  0.00    -0.014 A 
BRANCH  32  33
ATOM     33  C   UNL A   1      43.733  25.171  27.129  1.00  0.00     0.031 A 
ATOM     34  C   UNL A   1      45.174  25.520  26.877  1.00  0.00     0.074 A 
ATOM     35  C   UNL A   1      42.912  26.077  27.703  1.00  0.00     0.049 A 
ATOM     36  N   UNL A   1      45.816  26.623  27.163  1.00  0.00    -0.248 NA
ATOM     37  C   UNL A   1      46.012  24.478  26.260  1.00  0.00     0.031 C 
ATOM     38  C   UNL A   1      41.508  25.850  28.065  1.00  0.00     0.029 A 
ATOM     39  N   UNL A   1      43.141  27.374  28.094  1.00  0.00    -0.354 N 
ATOM     40  C   UNL A   1      47.135  26.397  26.790  1.00  0.00     0.074 A 
ATOM     41  C   UNL A   1      47.212  25.035  26.310  1.00  0.00     0.031 C 
ATOM     42  C   UNL A   1      40.994  26.980  28.579  1.00  0.00     0.029 A 
ATOM     43  C   UNL A   1      42.038  27.997  28.633  1.00  0.00     0.049 A 
ATOM     44  H   UNL A   1      44.014  27.818  27.995  1.00  0.00     0.167 HD
ATOM     45  C   UNL A   1      48.185  27.253  26.819  1.00  0.00     0.031 A 
ATOM     46  C   UNL A   1      41.882  29.243  29.119  1.00  0.00     0.031 A 
ATOM     47  C   UNL A   1      48.103  28.617  27.265  1.00  0.00     0.049 A 
ATOM     48  C   UNL A   1      43.055  30.183  29.116  1.00  0.00     0.074 A 
ATOM     49  C   UNL A   1      49.096  29.580  27.275  1.00  0.00     0.029 A 
ATOM     50  N   UNL A   1      46.958  29.216  27.768  1.00  0.00    -0.354 N 
ATOM     51  N   UNL A   1      44.282  29.965  28.710  1.00  0.00    -0.248 NA
ATOM     52  C   UNL A   1      42.820  31.540  29.631  1.00  0.00     0.031 C 
ATOM     53  C   UNL A   1      48.559  30.754  27.816  1.00  0.00     0.029 A 
ATOM     54  C   UNL A   1      47.221  30.533  28.099  1.00  0.00     0.049 A 
ATOM     55  H   UNL A   1      46.087  28.770  27.874  1.00  0.00     0.167 HD
ATOM     56  C   UNL A   1      44.959  31.165  28.893  1.00  0.00     0.074 A 
ATOM     57  C   UNL A   1      44.002  32.108  29.436  1.00  0.00     0.031 C 
ATOM     58  C   UNL A   1      46.256  31.460  28.633  1.00  0.00     0.031 A 
BRANCH  45  59
ATOM     59  C   UNL A   1      49.512  26.729  26.341  1.00  0.00    -0.014 A 
ATOM     60  C   UNL A   1      50.036  27.122  25.096  1.00  0.00     0.010 A 
ATOM     61  C   UNL A   1      50.254  25.850  27.151  1.00  0.00     0.010 A 
ATOM     62  C   UNL A   1      51.253  26.606  24.645  1.00  0.00     0.020 A 
ATOM     63  C   UNL A   1      51.488  25.355  26.716  1.00  0.00     0.020 A 
ATOM     64  C   UNL A   1      51.969  25.721  25.457  1.00  0.00     0.054 A 
BRANCH  64  65
ATOM     65  S   UNL A   1      53.553  25.077  24.853  1.00  0.00     0.124 S 
ATOM     66  O   UNL A   1      54.510  25.892  25.597  1.00  0.00    -0.237 OA
ATOM     67  O   UNL A   1      53.495  23.668  25.238  1.00  0.00    -0.237 OA
ATOM     68  O   UNL A   1      53.503  25.330  23.415  1.00  0.00    -0.744 OA
ENDBRANCH  64  65
ENDBRANCH  45  59
BRANCH  46  69
ATOM     69  C   UNL A   1      40.552  29.690  29.616  1.00  0.00    -0.014 A 
ATOM     70  C   UNL A   1      40.297  29.745  30.998  1.00  0.00     0.010 A 
ATOM     71  C   UNL A   1      39.537  30.070  28.719  1.00  0.00     0.010 A 
ATOM     72  C   UNL A   1      39.046  30.152  31.474  1.00  0.00     0.020 A 
ATOM     73  C   UNL A   1      38.293  30.501  29.191  1.00  0.00     0.020 A 
ATOM     74  C   UNL A   1      38.053  30.529  30.567  1.00  0.00     0.054 A 
BRANCH  74  75
ATOM     75  S   UNL A   1      36.455  31.103  31.209  1.00  0.00     0.124 S 
ATOM     76  O   UNL A   1      36.838  32.299  31.952  1.00  0.00    -0.237 OA
ATOM     77  O   UNL A   1      35.688  31.335  29.987  1.00  0.00    -0.237 OA
ATOM     78  O   UNL A   1      35.991  29.980  32.021  1.00  0.00    -0.744 OA
ENDBRANCH  74  75
ENDBRANCH  46  69
BRANCH  58  79
ATOM     79  C   UNL A   1      46.711  32.870  28.894  1.00  0.00    -0.014 A 
ATOM     80  C   UNL A   1      47.244  33.243  30.141  1.00  0.00     0.010 A 
ATOM     81  C   UNL A   1      46.661  33.817  27.855  1.00  0.00     0.010 A 
ATOM     82  C   UNL A   1      47.694  34.548  30.352  1.00  0.00     0.020 A 
ATOM     83  C   UNL A   1      47.132  35.116  28.055  1.00  0.00     0.020 A 
ATOM     84  C   UNL A   1      47.634  35.477  29.307  1.00  0.00     0.054 A 
BRANCH  84  85
ATOM     85  S   UNL A   1      48.273  37.152  29.589  1.00  0.00     0.124 S 
ATOM     86  O   UNL A   1      48.790  37.053  30.951  1.00  0.00    -0.237 OA
ATOM     87  O   UNL A   1      49.282  37.292  28.541  1.00  0.00    -0.237 OA
ATOM     88  O   UNL A   1      47.095  38.001  29.428  1.00  0.00    -0.744 OA
ENDBRANCH  84  85
ENDBRANCH  58  79
ENDBRANCH  32  33
ENDBRANCH  24  27
ENDBRANCH  22  23
ENDBRANCH  21  22
ENDBRANCH   1  21
TORSDOF 17
ENDMDL
MODEL 3
REMARK VINA RESULT:     -10.5      2.521      9.091
REMARK SMILES C[C@H](COc1ccccc1C(=O)NCCCNC(=O)c1ccc(-c2c3nc(c(-c4ccc(S(=O)(=O)[O-])cc4)c4ccc([nH]4)c(-c4ccc(S(=O)(=O)[O-])cc4)c4nc(c(-c5ccc(S(=O)(=O)[O-])cc5)c5ccc2[nH]5)C=C4)C=C3)cc1)C(N)=O
REMARK SMILES IDX 14 1 13 2 11 3 12 4 10 6 5 7 6 8 7 9 9 10 8 11 4 12 3 13
REMARK SMILES IDX 2 14 1 15 80 16 81 17 82 18 15 21 16 22 17 23 18 24 19 26
REMARK SMILES IDX 20 27 21 28 79 29 22 30 78 31 23 32 24 33 25 34 72 35 26 36
REMARK SMILES IDX 77 37 71 38 73 39 27 40 76 41 70 42 69 43 28 45 58 46 39 47
REMARK SMILES IDX 57 48 40 49 43 50 56 51 74 52 41 53 42 54 55 56 75 57 44 58
REMARK SMILES IDX 29 59 30 60 38 61 31 62 37 63 32 64 33 65 34 66 35 67 36 68
REMARK SMILES IDX 59 69 60 70 68 71 61 72 67 73 62 74 63 75 64 76 65 77 66 78
REMARK SMILES IDX 45 79 46 80 54 81 47 82 53 83 48 84 49 85 50 86 51 87 52 88
REMARK H PARENT 13 5 81 19 81 20 17 25 73 44 43 55
REMARK Flexibility Score: inf
ROOT
ATOM      1  C   UNL A   1      36.399  20.945  25.044  1.00  0.00     0.118 C 
ENDROOT
BRANCH   1   2
ATOM      2  N   UNL A   1      35.494  21.192  26.153  1.00  0.00    -0.352 N 
ATOM      3  C   UNL A   1      34.118  21.199  26.152  1.00  0.00     0.255 C 
ATOM      4  O   UNL A   1      33.515  21.434  27.199  1.00  0.00    -0.269 OA
ATOM      5  H   UNL A   1      35.921  21.379  27.020  1.00  0.00     0.163 HD
BRANCH   3   6
ATOM      6  C   UNL A   1      33.351  21.001  24.900  1.00  0.00     0.081 A 
ATOM      7  C   UNL A   1      32.721  19.801  24.546  1.00  0.00     0.132 A 
ATOM      8  C   UNL A   1      32.142  19.674  23.281  1.00  0.00     0.047 A 
ATOM      9  C   UNL A   1      32.089  20.772  22.418  1.00  0.00     0.004 A 
ATOM     10  C   UNL A   1      33.239  22.117  24.057  1.00  0.00     0.018 A 
ATOM     11  C   UNL A   1      32.607  22.003  22.819  1.00  0.00     0.001 A 
BRANCH   7  12
ATOM     12  O   UNL A   1      32.754  18.727  25.392  1.00  0.00    -0.492 OA
BRANCH  12  13
ATOM     13  C   UNL A   1      32.616  17.443  24.775  1.00  0.00     0.242 C 
BRANCH  13  14
ATOM     14  C   UNL A   1      33.262  16.318  25.606  1.00  0.00     0.113 C 
ATOM     15  C   UNL A   1      32.470  15.012  25.539  1.00  0.00     0.022 C 
BRANCH  14  16
ATOM     16  C   UNL A   1      34.744  16.227  25.261  1.00  0.00     0.223 C 
ATOM     17  N   UNL A   1      35.400  17.370  24.937  1.00  0.00    -0.369 N 
ATOM     18  O   UNL A   1      35.335  15.153  25.160  1.00  0.00    -0.275 OA
ATOM     19  H   UNL A   1      34.943  18.239  25.012  1.00  0.00     0.159 HD
ATOM     20  H   UNL A   1      36.334  17.331  24.627  1.00  0.00     0.159 HD
ENDBRANCH  14  16
ENDBRANCH  13  14
ENDBRANCH  12  13
ENDBRANCH   7  12
ENDBRANCH   3   6
ENDBRANCH   1   2
BRANCH   1  21
ATOM     21  C   UNL A   1      37.356  22.086  24.762  1.00  0.00     0.042 C 
BRANCH  21  22
ATOM     22  C   UNL A   1      38.275  22.446  25.926  1.00  0.00     0.118 C 
BRANCH  22  23
ATOM     23  N   UNL A   1      39.670  22.032  25.791  1.00  0.00    -0.352 N 
ATOM     24  C   UNL A   1      40.825  22.671  26.216  1.00  0.00     0.251 C 
ATOM     25  H   UNL A   1      39.810  21.173  25.329  1.00  0.00     0.163 HD
ATOM     26  O   UNL A   1      41.915  22.157  26.062  1.00  0.00    -0.269 OA
BRANCH  24  27
ATOM     27  C   UNL A   1      40.705  24.035  26.784  1.00  0.00     0.039 A 
ATOM     28  C   UNL A   1      40.953  24.212  28.146  1.00  0.00     0.014 A 
ATOM     29  C   UNL A   1      40.531  25.136  25.947  1.00  0.00     0.014 A 
ATOM     30  C   UNL A   1      41.200  25.498  28.634  1.00  0.00     0.010 A 
ATOM     31  C   UNL A   1      40.890  26.396  26.409  1.00  0.00     0.010 A 
ATOM     32  C   UNL A   1      41.269  26.585  27.748  1.00  0.00    -0.014 A 
BRANCH  32  33
ATOM     33  C   UNL A   1      41.808  27.906  28.171  1.00  0.00     0.031 A 
ATOM     34  C   UNL A   1      43.288  28.170  28.124  1.00  0.00     0.074 A 
ATOM     35  C   UNL A   1      40.978  28.827  28.708  1.00  0.00     0.049 A 
ATOM     36  N   UNL A   1      43.956  29.203  28.570  1.00  0.00    -0.248 NA
ATOM     37  C   UNL A   1      44.132  27.116  27.536  1.00  0.00     0.031 C 
ATOM     38  C   UNL A   1      39.528  28.676  28.877  1.00  0.00     0.029 A 
ATOM     39  N   UNL A   1      41.236  30.075  29.221  1.00  0.00    -0.354 N 
ATOM     40  C   UNL A   1      45.295  28.910  28.345  1.00  0.00     0.074 A 
ATOM     41  C   UNL A   1      45.348  27.581  27.775  1.00  0.00     0.031 C 
ATOM     42  C   UNL A   1      39.024  29.801  29.410  1.00  0.00     0.029 A 
ATOM     43  C   UNL A   1      40.113  30.736  29.668  1.00  0.00     0.049 A 
ATOM     44  H   UNL A   1      42.140  30.462  29.264  1.00  0.00     0.167 HD
ATOM     45  C   UNL A   1      46.383  29.685  28.567  1.00  0.00     0.031 A 
ATOM     46  C   UNL A   1      39.974  31.955  30.225  1.00  0.00     0.031 A 
ATOM     47  C   UNL A   1      46.329  31.018  29.102  1.00  0.00     0.049 A 
ATOM     48  C   UNL A   1      41.194  32.807  30.437  1.00  0.00     0.074 A 
ATOM     49  C   UNL A   1      47.370  31.906  29.307  1.00  0.00     0.029 A 
ATOM     50  N   UNL A   1      45.168  31.660  29.505  1.00  0.00    -0.354 N 
ATOM     51  N   UNL A   1      42.447  32.531  30.168  1.00  0.00    -0.248 NA
ATOM     52  C   UNL A   1      40.979  34.139  31.021  1.00  0.00     0.031 C 
ATOM     53  C   UNL A   1      46.843  33.075  29.866  1.00  0.00     0.029 A 
ATOM     54  C   UNL A   1      45.469  32.931  29.966  1.00  0.00     0.049 A 
ATOM     55  H   UNL A   1      44.265  31.271  29.470  1.00  0.00     0.167 HD
ATOM     56  C   UNL A   1      43.168  33.665  30.523  1.00  0.00     0.074 A 
ATOM     57  C   UNL A   1      42.209  34.634  31.016  1.00  0.00     0.031 C 
ATOM     58  C   UNL A   1      44.502  33.885  30.447  1.00  0.00     0.031 A 
BRANCH  45  59
ATOM     59  C   UNL A   1      47.725  29.103  28.215  1.00  0.00    -0.014 A 
ATOM     60  C   UNL A   1      48.467  28.375  29.164  1.00  0.00     0.010 A 
ATOM     61  C   UNL A   1      48.244  29.266  26.918  1.00  0.00     0.010 A 
ATOM     62  C   UNL A   1      49.726  27.865  28.838  1.00  0.00     0.020 A 
ATOM     63  C   UNL A   1      49.491  28.731  26.579  1.00  0.00     0.020 A 
ATOM     64  C   UNL A   1      50.232  28.052  27.548  1.00  0.00     0.054 A 
BRANCH  64  65
ATOM     65  S   UNL A   1      51.863  27.368  27.149  1.00  0.00     0.124 S 
ATOM     66  O   UNL A   1      52.265  26.787  28.428  1.00  0.00    -0.237 OA
ATOM     67  O   UNL A   1      51.560  26.407  26.091  1.00  0.00    -0.237 OA
ATOM     68  O   UNL A   1      52.633  28.535  26.725  1.00  0.00    -0.744 OA
ENDBRANCH  64  65
ENDBRANCH  45  59
BRANCH  46  69
ATOM     69  C   UNL A   1      38.622  32.460  30.588  1.00  0.00    -0.014 A 
ATOM     70  C   UNL A   1      37.894  33.248  29.678  1.00  0.00     0.010 A 
ATOM     71  C   UNL A   1      38.049  32.154  31.837  1.00  0.00     0.010 A 
ATOM     72  C   UNL A   1      36.628  33.736  30.016  1.00  0.00     0.020 A 
ATOM     73  C   UNL A   1      36.773  32.620  32.168  1.00  0.00     0.020 A 
ATOM     74  C   UNL A   1      36.075  33.419  31.258  1.00  0.00     0.054 A 
BRANCH  74  75
ATOM     75  S   UNL A   1      34.409  34.021  31.655  1.00  0.00     0.124 S 
ATOM     76  O   UNL A   1      33.914  32.978  32.548  1.00  0.00    -0.237 OA
ATOM     77  O   UNL A   1      34.680  35.314  32.279  1.00  0.00    -0.237 OA
ATOM     78  O   UNL A   1      33.754  34.093  30.350  1.00  0.00    -0.744 OA
ENDBRANCH  74  75
ENDBRANCH  46  69
BRANCH  58  79
ATOM     79  C   UNL A   1      45.007  35.238  30.869  1.00  0.00    -0.014 A 
ATOM     80  C   UNL A   1      45.023  36.320  29.972  1.00  0.00     0.010 A 
ATOM     81  C   UNL A   1      45.412  35.441  32.201  1.00  0.00     0.010 A 
ATOM     82  C   UNL A   1      45.461  37.578  30.394  1.00  0.00     0.020 A 
ATOM     83  C   UNL A   1      45.829  36.701  32.632  1.00  0.00     0.020 A 
ATOM     84  C   UNL A   1      45.862  37.759  31.722  1.00  0.00     0.054 A 
BRANCH  84  85
ATOM     85  S   UNL A   1      46.379  39.414  32.261  1.00  0.00     0.124 S 
ATOM     86  O   UNL A   1      47.385  39.757  31.259  1.00  0.00    -0.237 OA
ATOM     87  O   UNL A   1      45.136  40.177  32.191  1.00  0.00    -0.237 OA
ATOM     88  O   UNL A   1      46.893  39.192  33.610  1.00  0.00    -0.744 OA
ENDBRANCH  84  85
ENDBRANCH  58  79
ENDBRANCH  32  33
ENDBRANCH  24  27
ENDBRANCH  22  23
ENDBRANCH  21  22
ENDBRANCH   1  21
TORSDOF 17
ENDMDL
