MODEL 1
REMARK VINA RESULT:     -10.6      0.000      0.000
REMARK SMILES Cc1ccc(-c2nn(-c3ccccc3)cc2[C@@H]2[NH2+][C@H](C(=O)NCCCNC(=O)c3ccc(-c4c5nc(c(-c6ccc(S(=O)(=O)[O-])cc6)c6ccc([nH]6)c(-c6ccc(S(=O)(=O)[O-])cc6)c6nc(c(-c7ccc(S(=O)(=O)[O-])cc7)c7ccc4[nH]7)C=C6)C=C5)cc3)CS2)cc1
REMARK SMILES IDX 24 1 23 2 22 3 20 4 21 5 19 7 17 8 18 9 90 10 89 13 16 14
REMARK SMILES IDX 6 15 7 16 8 17 15 18 5 19 1 20 2 21 3 22 92 23 4 24 91 25
REMARK SMILES IDX 9 26 10 27 14 28 11 29 13 30 12 31 25 32 26 33 27 34 28 36
REMARK SMILES IDX 29 37 30 38 88 39 31 40 87 41 32 42 33 43 34 44 81 45 35 46
REMARK SMILES IDX 86 47 80 48 82 49 36 50 85 51 79 52 78 53 37 55 67 56 48 57
REMARK SMILES IDX 66 58 49 59 52 60 65 61 83 62 50 63 51 64 64 66 84 67 53 68
REMARK SMILES IDX 38 69 39 70 47 71 40 72 46 73 41 74 42 75 43 76 44 77 45 78
REMARK SMILES IDX 68 79 69 80 77 81 70 82 76 83 71 84 72 85 73 86 74 87 75 88
REMARK SMILES IDX 54 89 55 90 63 91 56 92 62 93 57 94 58 95 59 96 60 97 61 98
REMARK H PARENT 22 6 18 11 18 12 26 35 82 54 52 65
REMARK Flexibility Score: inf
ROOT
ATOM      1  C   UNL A   1      41.166  30.997  35.907  1.00  0.00     0.042 C 
ENDROOT
BRANCH   1   2
ATOM      2  C   UNL A   1      39.791  30.469  35.489  1.00  0.00     0.118 C 
BRANCH   2   3
ATOM      3  N   UNL A   1      38.797  31.473  35.153  1.00  0.00    -0.351 N 
ATOM      4  C   UNL A   1      38.644  32.196  34.005  1.00  0.00     0.279 C 
ATOM      5  O   UNL A   1      37.508  32.638  33.783  1.00  0.00    -0.268 OA
ATOM      6  H   UNL A   1      38.134  31.660  35.856  1.00  0.00     0.163 HD
BRANCH   4   7
ATOM      7  C   UNL A   1      39.759  32.485  32.973  1.00  0.00     0.283 C 
ATOM      8  C   UNL A   1      39.938  32.366  30.543  1.00  0.00     0.278 C 
ATOM      9  N   UNL A   1      39.792  31.585  31.794  1.00  0.00    -0.320 N 
ATOM     10  S   UNL A   1      40.647  33.954  30.988  1.00  0.00    -0.087 SA
ATOM     11  H   UNL A   1      40.582  30.945  31.882  1.00  0.00     0.348 HD
ATOM     12  H   UNL A   1      38.917  31.062  31.755  1.00  0.00     0.348 HD
ATOM     13  C   UNL A   1      39.794  33.956  32.577  1.00  0.00     0.151 C 
BRANCH   8  14
ATOM     14  C   UNL A   1      38.578  32.431  29.902  1.00  0.00     0.067 A 
ATOM     15  C   UNL A   1      37.858  31.295  29.415  1.00  0.00     0.103 A 
ATOM     16  N   UNL A   1      36.542  31.590  29.390  1.00  0.00    -0.167 NA
ATOM     17  N   UNL A   1      36.400  32.946  29.616  1.00  0.00    -0.240 N 
ATOM     18  C   UNL A   1      37.673  33.497  29.757  1.00  0.00     0.126 A 
BRANCH  15  19
ATOM     19  C   UNL A   1      38.359  29.903  29.144  1.00  0.00     0.003 A 
ATOM     20  C   UNL A   1      39.910  25.897  28.277  1.00  0.00     0.044 C 
ATOM     21  C   UNL A   1      39.381  27.275  28.565  1.00  0.00    -0.051 A 
ATOM     22  C   UNL A   1      38.543  27.493  29.659  1.00  0.00     0.004 A 
ATOM     23  C   UNL A   1      39.685  28.371  27.751  1.00  0.00     0.004 A 
ATOM     24  C   UNL A   1      38.066  28.787  29.954  1.00  0.00     0.011 A 
ATOM     25  C   UNL A   1      39.172  29.659  28.029  1.00  0.00     0.011 A 
ENDBRANCH  15  19
BRANCH  17  26
ATOM     26  C   UNL A   1      35.064  33.624  29.800  1.00  0.00     0.065 A 
ATOM     27  C   UNL A   1      34.508  34.673  28.468  1.00  0.00     0.028 A 
ATOM     28  C   UNL A   1      34.471  33.964  31.445  1.00  0.00     0.028 A 
ATOM     29  C   UNL A   1      33.512  36.149  28.762  1.00  0.00     0.002 A 
ATOM     30  C   UNL A   1      33.291  35.341  31.777  1.00  0.00     0.002 A 
ATOM     31  C   UNL A   1      32.802  36.445  30.436  1.00  0.00     0.000 A 
ENDBRANCH  17  26
ENDBRANCH   8  14
ENDBRANCH   4   7
ENDBRANCH   2   3
ENDBRANCH   1   2
BRANCH   1  32
ATOM     32  C   UNL A   1      42.249  29.918  36.072  1.00  0.00     0.118 C 
BRANCH  32  33
ATOM     33  N   UNL A   1      42.065  28.461  35.860  1.00  0.00    -0.352 N 
ATOM     34  C   UNL A   1      41.940  27.740  34.648  1.00  0.00     0.251 C 
ATOM     35  H   UNL A   1      42.023  27.918  36.680  1.00  0.00     0.163 HD
ATOM     36  O   UNL A   1      41.850  26.521  34.588  1.00  0.00    -0.269 OA
BRANCH  34  37
ATOM     37  C   UNL A   1      42.069  28.499  33.376  1.00  0.00     0.039 A 
ATOM     38  C   UNL A   1      41.147  28.288  32.331  1.00  0.00     0.014 A 
ATOM     39  C   UNL A   1      43.357  28.882  33.103  1.00  0.00     0.014 A 
ATOM     40  C   UNL A   1      41.632  28.108  31.039  1.00  0.00     0.010 A 
ATOM     41  C   UNL A   1      43.871  28.392  31.936  1.00  0.00     0.010 A 
ATOM     42  C   UNL A   1      43.008  27.993  30.901  1.00  0.00    -0.014 A 
BRANCH  42  43
ATOM     43  C   UNL A   1      43.745  28.018  29.658  1.00  0.00     0.031 A 
ATOM     44  C   UNL A   1      44.313  26.657  29.418  1.00  0.00     0.074 A 
ATOM     45  C   UNL A   1      43.432  29.005  28.775  1.00  0.00     0.049 A 
ATOM     46  N   UNL A   1      45.087  26.343  28.458  1.00  0.00    -0.248 NA
ATOM     47  C   UNL A   1      44.050  25.477  30.283  1.00  0.00     0.031 C 
ATOM     48  C   UNL A   1      43.454  29.034  27.318  1.00  0.00     0.029 A 
ATOM     49  N   UNL A   1      43.176  30.337  29.080  1.00  0.00    -0.354 N 
ATOM     50  C   UNL A   1      44.965  24.973  28.298  1.00  0.00     0.074 A 
ATOM     51  C   UNL A   1      44.475  24.459  29.537  1.00  0.00     0.031 C 
ATOM     52  C   UNL A   1      43.559  30.310  26.883  1.00  0.00     0.029 A 
ATOM     53  C   UNL A   1      43.682  31.165  28.049  1.00  0.00     0.049 A 
ATOM     54  H   UNL A   1      42.715  30.656  29.888  1.00  0.00     0.167 HD
ATOM     55  C   UNL A   1      45.089  24.485  27.037  1.00  0.00     0.031 A 
ATOM     56  C   UNL A   1      44.766  31.964  28.330  1.00  0.00     0.031 A 
ATOM     57  C   UNL A   1      45.420  25.597  26.138  1.00  0.00     0.049 A 
ATOM     58  C   UNL A   1      46.077  31.238  27.864  1.00  0.00     0.074 A 
ATOM     59  C   UNL A   1      44.682  26.371  25.262  1.00  0.00     0.029 A 
ATOM     60  N   UNL A   1      46.540  26.346  26.453  1.00  0.00    -0.354 N 
ATOM     61  N   UNL A   1      46.085  30.039  27.332  1.00  0.00    -0.248 NA
ATOM     62  C   UNL A   1      47.443  31.769  27.948  1.00  0.00     0.031 C 
ATOM     63  C   UNL A   1      45.366  27.624  25.108  1.00  0.00     0.029 A 
ATOM     64  C   UNL A   1      46.501  27.610  25.899  1.00  0.00     0.049 A 
ATOM     65  H   UNL A   1      47.281  26.015  27.009  1.00  0.00     0.167 HD
ATOM     66  C   UNL A   1      47.340  29.662  26.943  1.00  0.00     0.074 A 
ATOM     67  C   UNL A   1      48.172  30.756  27.431  1.00  0.00     0.031 C 
ATOM     68  C   UNL A   1      47.600  28.517  26.226  1.00  0.00     0.031 A 
BRANCH  55  69
ATOM     69  C   UNL A   1      44.711  23.109  26.557  1.00  0.00    -0.014 A 
ATOM     70  C   UNL A   1      45.723  22.356  25.932  1.00  0.00     0.010 A 
ATOM     71  C   UNL A   1      43.445  22.491  26.656  1.00  0.00     0.010 A 
ATOM     72  C   UNL A   1      45.500  21.076  25.422  1.00  0.00     0.020 A 
ATOM     73  C   UNL A   1      43.205  21.198  26.146  1.00  0.00     0.020 A 
ATOM     74  C   UNL A   1      44.241  20.499  25.532  1.00  0.00     0.054 A 
BRANCH  74  75
ATOM     75  S   UNL A   1      44.014  18.824  24.881  1.00  0.00     0.124 S 
ATOM     76  O   UNL A   1      45.101  18.092  25.527  1.00  0.00    -0.237 OA
ATOM     77  O   UNL A   1      42.670  18.491  25.342  1.00  0.00    -0.237 OA
ATOM     78  O   UNL A   1      44.152  18.989  23.436  1.00  0.00    -0.744 OA
ENDBRANCH  74  75
ENDBRANCH  55  69
BRANCH  56  79
ATOM     79  C   UNL A   1      44.495  32.625  29.681  1.00  0.00    -0.014 A 
ATOM     80  C   UNL A   1      45.257  32.274  30.832  1.00  0.00     0.010 A 
ATOM     81  C   UNL A   1      44.143  33.943  29.610  1.00  0.00     0.010 A 
ATOM     82  C   UNL A   1      45.794  33.234  31.834  1.00  0.00     0.020 A 
ATOM     83  C   UNL A   1      44.817  34.872  30.465  1.00  0.00     0.020 A 
ATOM     84  C   UNL A   1      45.650  34.767  31.845  1.00  0.00     0.054 A 
BRANCH  84  85
ATOM     85  S   UNL A   1      45.823  36.535  33.683  1.00  0.00     0.124 S 
ATOM     86  O   UNL A   1      47.193  37.136  33.820  1.00  0.00    -0.237 OA
ATOM     87  O   UNL A   1      44.900  37.686  33.492  1.00  0.00    -0.237 OA
ATOM     88  O   UNL A   1      45.506  36.010  35.059  1.00  0.00    -0.744 OA
ENDBRANCH  84  85
ENDBRANCH  56  79
BRANCH  68  89
ATOM     89  C   UNL A   1      48.976  28.103  25.748  1.00  0.00    -0.014 A 
ATOM     90  C   UNL A   1      49.183  27.455  24.530  1.00  0.00     0.010 A 
ATOM     91  C   UNL A   1      50.116  28.259  26.581  1.00  0.00     0.010 A 
ATOM     92  C   UNL A   1      50.473  27.134  24.096  1.00  0.00     0.020 A 
ATOM     93  C   UNL A   1      51.401  27.917  26.180  1.00  0.00     0.020 A 
ATOM     94  C   UNL A   1      51.575  27.390  24.915  1.00  0.00     0.054 A 
BRANCH  94  95
ATOM     95  S   UNL A   1      53.225  26.977  24.328  1.00  0.00     0.124 S 
ATOM     96  O   UNL A   1      54.078  27.676  25.286  1.00  0.00    -0.237 OA
ATOM     97  O   UNL A   1      53.222  25.520  24.432  1.00  0.00    -0.237 OA
ATOM     98  O   UNL A   1      53.256  27.506  22.968  1.00  0.00    -0.744 OA
ENDBRANCH  94  95
ENDBRANCH  68  89
ENDBRANCH  42  43
ENDBRANCH  34  37
ENDBRANCH  32  33
ENDBRANCH   1  32
TORSDOF 16
ENDMDL
MODEL 2
REMARK VINA RESULT:     -10.6      6.476     11.247
REMARK SMILES Cc1ccc(-c2nn(-c3ccccc3)cc2[C@@H]2[NH2+][C@H](C(=O)NCCCNC(=O)c3ccc(-c4c5nc(c(-c6ccc(S(=O)(=O)[O-])cc6)c6ccc([nH]6)c(-c6ccc(S(=O)(=O)[O-])cc6)c6nc(c(-c7ccc(S(=O)(=O)[O-])cc7)c7ccc4[nH]7)C=C6)C=C5)cc3)CS2)cc1
REMARK SMILES IDX 24 1 23 2 22 3 20 4 21 5 19 7 17 8 18 9 90 10 89 13 16 14
REMARK SMILES IDX 6 15 7 16 8 17 15 18 5 19 1 20 2 21 3 22 92 23 4 24 91 25
REMARK SMILES IDX 9 26 10 27 14 28 11 29 13 30 12 31 25 32 26 33 27 34 28 36
REMARK SMILES IDX 29 37 30 38 88 39 31 40 87 41 32 42 33 43 34 44 81 45 35 46
REMARK SMILES IDX 86 47 80 48 82 49 36 50 85 51 79 52 78 53 37 55 67 56 48 57
REMARK SMILES IDX 66 58 49 59 52 60 65 61 83 62 50 63 51 64 64 66 84 67 53 68
REMARK SMILES IDX 38 69 39 70 47 71 40 72 46 73 41 74 42 75 43 76 44 77 45 78
REMARK SMILES IDX 68 79 69 80 77 81 70 82 76 83 71 84 72 85 73 86 74 87 75 88
REMARK SMILES IDX 54 89 55 90 63 91 56 92 62 93 57 94 58 95 59 96 60 97 61 98
REMARK H PARENT 22 6 18 11 18 12 26 35 82 54 52 65
REMARK Flexibility Score: inf
ROOT
ATOM      1  C   UNL A   1      47.652  36.920  27.202  1.00  0.00     0.042 C 
ENDROOT
BRANCH   1   2
ATOM      2  C   UNL A   1      48.369  37.832  26.203  1.00  0.00     0.118 C 
BRANCH   2   3
ATOM      3  N   UNL A   1      47.554  38.367  25.128  1.00  0.00    -0.351 N 
ATOM      4  C   UNL A   1      46.666  39.404  25.142  1.00  0.00     0.279 C 
ATOM      5  O   UNL A   1      46.441  39.948  24.051  1.00  0.00    -0.268 OA
ATOM      6  H   UNL A   1      47.657  37.917  24.259  1.00  0.00     0.163 HD
BRANCH   4   7
ATOM      7  C   UNL A   1      45.946  39.950  26.397  1.00  0.00     0.283 C 
ATOM      8  C   UNL A   1      44.895  42.066  27.003  1.00  0.00     0.278 C 
ATOM      9  N   UNL A   1      46.174  41.386  26.696  1.00  0.00    -0.320 N 
ATOM     10  S   UNL A   1      43.729  40.800  27.514  1.00  0.00    -0.087 SA
ATOM     11  H   UNL A   1      46.798  41.466  27.500  1.00  0.00     0.348 HD
ATOM     12  H   UNL A   1      46.594  41.828  25.878  1.00  0.00     0.348 HD
ATOM     13  C   UNL A   1      44.465  39.589  26.400  1.00  0.00     0.151 C 
BRANCH   8  14
ATOM     14  C   UNL A   1      44.499  42.839  25.774  1.00  0.00     0.067 A 
ATOM     15  C   UNL A   1      45.133  44.044  25.338  1.00  0.00     0.103 A 
ATOM     16  N   UNL A   1      44.925  44.193  24.014  1.00  0.00    -0.167 NA
ATOM     17  N   UNL A   1      43.986  43.260  23.617  1.00  0.00    -0.240 N 
ATOM     18  C   UNL A   1      43.591  42.538  24.744  1.00  0.00     0.126 A 
BRANCH  15  19
ATOM     19  C   UNL A   1      46.063  44.952  26.096  1.00  0.00     0.003 A 
ATOM     20  C   UNL A   1      48.857  47.589  28.206  1.00  0.00     0.044 C 
ATOM     21  C   UNL A   1      47.906  46.679  27.477  1.00  0.00    -0.051 A 
ATOM     22  C   UNL A   1      46.575  46.581  27.882  1.00  0.00     0.004 A 
ATOM     23  C   UNL A   1      48.315  45.892  26.395  1.00  0.00     0.004 A 
ATOM     24  C   UNL A   1      45.669  45.753  27.187  1.00  0.00     0.011 A 
ATOM     25  C   UNL A   1      47.412  45.034  25.726  1.00  0.00     0.011 A 
ENDBRANCH  15  19
BRANCH  17  26
ATOM     26  C   UNL A   1      43.599  43.027  22.177  1.00  0.00     0.065 A 
ATOM     27  C   UNL A   1      44.827  43.423  20.945  1.00  0.00     0.028 A 
ATOM     28  C   UNL A   1      41.882  43.089  21.707  1.00  0.00     0.028 A 
ATOM     29  C   UNL A   1      44.379  44.040  19.309  1.00  0.00     0.002 A 
ATOM     30  C   UNL A   1      41.370  43.521  19.991  1.00  0.00     0.002 A 
ATOM     31  C   UNL A   1      42.616  43.999  18.777  1.00  0.00     0.000 A 
ENDBRANCH  17  26
ENDBRANCH   8  14
ENDBRANCH   4   7
ENDBRANCH   2   3
ENDBRANCH   1   2
BRANCH   1  32
ATOM     32  C   UNL A   1      46.423  36.187  26.641  1.00  0.00     0.118 C 
BRANCH  32  33
ATOM     33  N   UNL A   1      45.130  35.994  27.344  1.00  0.00    -0.352 N 
ATOM     34  C   UNL A   1      44.411  34.799  27.588  1.00  0.00     0.251 C 
ATOM     35  H   UNL A   1      44.712  36.816  27.690  1.00  0.00     0.163 HD
ATOM     36  O   UNL A   1      43.373  34.750  28.236  1.00  0.00    -0.269 OA
BRANCH  34  37
ATOM     37  C   UNL A   1      45.030  33.519  27.153  1.00  0.00     0.039 A 
ATOM     38  C   UNL A   1      44.490  32.809  26.062  1.00  0.00     0.014 A 
ATOM     39  C   UNL A   1      45.673  32.857  28.167  1.00  0.00     0.014 A 
ATOM     40  C   UNL A   1      44.285  31.439  26.192  1.00  0.00     0.010 A 
ATOM     41  C   UNL A   1      45.189  31.609  28.440  1.00  0.00     0.010 A 
ATOM     42  C   UNL A   1      44.483  30.898  27.455  1.00  0.00    -0.014 A 
BRANCH  42  43
ATOM     43  C   UNL A   1      44.540  29.491  27.780  1.00  0.00     0.031 A 
ATOM     44  C   UNL A   1      45.740  28.900  27.113  1.00  0.00     0.074 A 
ATOM     45  C   UNL A   1      43.869  29.087  28.892  1.00  0.00     0.049 A 
ATOM     46  N   UNL A   1      46.050  27.667  27.117  1.00  0.00    -0.248 NA
ATOM     47  C   UNL A   1      46.739  29.687  26.343  1.00  0.00     0.031 C 
ATOM     48  C   UNL A   1      44.142  28.018  29.845  1.00  0.00     0.029 A 
ATOM     49  N   UNL A   1      42.606  29.507  29.295  1.00  0.00    -0.354 N 
ATOM     50  C   UNL A   1      47.410  27.611  26.864  1.00  0.00     0.074 A 
ATOM     51  C   UNL A   1      47.756  28.836  26.217  1.00  0.00     0.031 C 
ATOM     52  C   UNL A   1      43.000  27.654  30.472  1.00  0.00     0.029 A 
ATOM     53  C   UNL A   1      41.915  28.427  29.896  1.00  0.00     0.049 A 
ATOM     54  H   UNL A   1      42.248  30.416  29.179  1.00  0.00     0.167 HD
ATOM     55  C   UNL A   1      48.107  26.604  27.452  1.00  0.00     0.031 A 
ATOM     56  C   UNL A   1      40.835  27.896  29.231  1.00  0.00     0.031 A 
ATOM     57  C   UNL A   1      47.163  25.746  28.177  1.00  0.00     0.049 A 
ATOM     58  C   UNL A   1      41.299  26.641  28.411  1.00  0.00     0.074 A 
ATOM     59  C   UNL A   1      46.795  25.637  29.505  1.00  0.00     0.029 A 
ATOM     60  N   UNL A   1      46.113  25.214  27.449  1.00  0.00    -0.354 N 
ATOM     61  N   UNL A   1      42.545  26.229  28.370  1.00  0.00    -0.248 NA
ATOM     62  C   UNL A   1      40.445  25.767  27.598  1.00  0.00     0.031 C 
ATOM     63  C   UNL A   1      45.474  25.075  29.545  1.00  0.00     0.029 A 
ATOM     64  C   UNL A   1      45.043  24.863  28.247  1.00  0.00     0.049 A 
ATOM     65  H   UNL A   1      46.129  25.098  26.472  1.00  0.00     0.167 HD
ATOM     66  C   UNL A   1      42.676  25.074  27.650  1.00  0.00     0.074 A 
ATOM     67  C   UNL A   1      41.335  24.872  27.116  1.00  0.00     0.031 C 
ATOM     68  C   UNL A   1      43.847  24.357  27.576  1.00  0.00     0.031 A 
BRANCH  55  69
ATOM     69  C   UNL A   1      49.603  26.494  27.582  1.00  0.00    -0.014 A 
ATOM     70  C   UNL A   1      50.206  27.242  28.611  1.00  0.00     0.010 A 
ATOM     71  C   UNL A   1      50.473  25.727  26.776  1.00  0.00     0.010 A 
ATOM     72  C   UNL A   1      51.585  27.247  28.826  1.00  0.00     0.020 A 
ATOM     73  C   UNL A   1      51.869  25.722  26.982  1.00  0.00     0.020 A 
ATOM     74  C   UNL A   1      52.413  26.485  28.012  1.00  0.00     0.054 A 
BRANCH  74  75
ATOM     75  S   UNL A   1      54.192  26.502  28.354  1.00  0.00     0.124 S 
ATOM     76  O   UNL A   1      54.556  27.879  28.028  1.00  0.00    -0.237 OA
ATOM     77  O   UNL A   1      54.239  26.159  29.772  1.00  0.00    -0.237 OA
ATOM     78  O   UNL A   1      54.731  25.489  27.451  1.00  0.00    -0.744 OA
ENDBRANCH  74  75
ENDBRANCH  55  69
BRANCH  56  79
ATOM     79  C   UNL A   1      39.992  29.072  28.739  1.00  0.00    -0.014 A 
ATOM     80  C   UNL A   1      39.166  28.947  27.586  1.00  0.00     0.010 A 
ATOM     81  C   UNL A   1      39.471  29.853  29.731  1.00  0.00     0.010 A 
ATOM     82  C   UNL A   1      37.777  29.465  27.460  1.00  0.00     0.020 A 
ATOM     83  C   UNL A   1      38.078  30.181  29.677  1.00  0.00     0.020 A 
ATOM     84  C   UNL A   1      36.954  30.224  28.518  1.00  0.00     0.054 A 
BRANCH  84  85
ATOM     85  S   UNL A   1      34.933  31.784  28.384  1.00  0.00     0.124 S 
ATOM     86  O   UNL A   1      34.443  32.260  29.721  1.00  0.00    -0.237 OA
ATOM     87  O   UNL A   1      35.183  33.017  27.589  1.00  0.00    -0.237 OA
ATOM     88  O   UNL A   1      33.723  31.153  27.746  1.00  0.00    -0.744 OA
ENDBRANCH  84  85
ENDBRANCH  56  79
BRANCH  68  89
ATOM     89  C   UNL A   1      44.003  23.053  26.821  1.00  0.00    -0.014 A 
ATOM     90  C   UNL A   1      42.957  22.141  26.676  1.00  0.00     0.010 A 
ATOM     91  C   UNL A   1      45.268  22.648  26.316  1.00  0.00     0.010 A 
ATOM     92  C   UNL A   1      43.122  20.971  25.927  1.00  0.00     0.020 A 
ATOM     93  C   UNL A   1      45.458  21.475  25.597  1.00  0.00     0.020 A 
ATOM     94  C   UNL A   1      44.366  20.660  25.373  1.00  0.00     0.054 A 
BRANCH  94  95
ATOM     95  S   UNL A   1      44.548  19.154  24.404  1.00  0.00     0.124 S 
ATOM     96  O   UNL A   1      43.469  18.319  24.925  1.00  0.00    -0.237 OA
ATOM     97  O   UNL A   1      44.360  19.652  23.044  1.00  0.00    -0.237 OA
ATOM     98  O   UNL A   1      45.897  18.694  24.720  1.00  0.00    -0.744 OA
ENDBRANCH  94  95
ENDBRANCH  68  89
ENDBRANCH  42  43
ENDBRANCH  34  37
ENDBRANCH  32  33
ENDBRANCH   1  32
TORSDOF 16
ENDMDL
MODEL 3
REMARK VINA RESULT:     -10.5      7.189     14.733
REMARK SMILES Cc1ccc(-c2nn(-c3ccccc3)cc2[C@@H]2[NH2+][C@H](C(=O)NCCCNC(=O)c3ccc(-c4c5nc(c(-c6ccc(S(=O)(=O)[O-])cc6)c6ccc([nH]6)c(-c6ccc(S(=O)(=O)[O-])cc6)c6nc(c(-c7ccc(S(=O)(=O)[O-])cc7)c7ccc4[nH]7)C=C6)C=C5)cc3)CS2)cc1
REMARK SMILES IDX 24 1 23 2 22 3 20 4 21 5 19 7 17 8 18 9 90 10 89 13 16 14
REMARK SMILES IDX 6 15 7 16 8 17 15 18 5 19 1 20 2 21 3 22 92 23 4 24 91 25
REMARK SMILES IDX 9 26 10 27 14 28 11 29 13 30 12 31 25 32 26 33 27 34 28 36
REMARK SMILES IDX 29 37 30 38 88 39 31 40 87 41 32 42 33 43 34 44 81 45 35 46
REMARK SMILES IDX 86 47 80 48 82 49 36 50 85 51 79 52 78 53 37 55 67 56 48 57
REMARK SMILES IDX 66 58 49 59 52 60 65 61 83 62 50 63 51 64 64 66 84 67 53 68
REMARK SMILES IDX 38 69 39 70 47 71 40 72 46 73 41 74 42 75 43 76 44 77 45 78
REMARK SMILES IDX 68 79 69 80 77 81 70 82 76 83 71 84 72 85 73 86 74 87 75 88
REMARK SMILES IDX 54 89 55 90 63 91 56 92 62 93 57 94 58 95 59 96 60 97 61 98
REMARK H PARENT 22 6 18 11 18 12 26 35 82 54 52 65
REMARK Flexibility Score: inf
ROOT
ATOM      1  C   UNL A   1      43.821  25.271  37.285  1.00  0.00     0.042 C 
ENDROOT
BRANCH   1   2
ATOM      2  C   UNL A   1      45.031  24.872  38.134  1.00  0.00     0.118 C 
BRANCH   2   3
ATOM      3  N   UNL A   1      44.850  23.727  39.007  1.00  0.00    -0.351 N 
ATOM      4  C   UNL A   1      45.783  22.900  39.565  1.00  0.00     0.279 C 
ATOM      5  O   UNL A   1      45.440  22.301  40.594  1.00  0.00    -0.268 OA
ATOM      6  H   UNL A   1      43.915  23.515  39.233  1.00  0.00     0.163 HD
BRANCH   4   7
ATOM      7  C   UNL A   1      47.214  22.673  39.025  1.00  0.00     0.283 C 
ATOM      8  C   UNL A   1      48.823  20.840  39.113  1.00  0.00     0.278 C 
ATOM      9  N   UNL A   1      48.111  21.876  39.899  1.00  0.00    -0.320 N 
ATOM     10  S   UNL A   1      48.814  21.375  37.400  1.00  0.00    -0.087 SA
ATOM     11  H   UNL A   1      48.795  22.496  40.332  1.00  0.00     0.348 HD
ATOM     12  H   UNL A   1      47.548  21.416  40.615  1.00  0.00     0.348 HD
ATOM     13  C   UNL A   1      47.202  22.159  37.590  1.00  0.00     0.151 C 
BRANCH   8  14
ATOM     14  C   UNL A   1      48.129  19.531  39.377  1.00  0.00     0.067 A 
ATOM     15  C   UNL A   1      48.659  18.486  40.197  1.00  0.00     0.103 A 
ATOM     16  N   UNL A   1      47.641  17.721  40.641  1.00  0.00    -0.167 NA
ATOM     17  N   UNL A   1      46.498  18.083  39.954  1.00  0.00    -0.240 N 
ATOM     18  C   UNL A   1      46.839  19.084  39.045  1.00  0.00     0.126 A 
BRANCH  15  19
ATOM     19  C   UNL A   1      50.063  18.302  40.705  1.00  0.00     0.003 A 
ATOM     20  C   UNL A   1      54.189  17.724  42.065  1.00  0.00     0.044 C 
ATOM     21  C   UNL A   1      52.774  17.915  41.592  1.00  0.00    -0.051 A 
ATOM     22  C   UNL A   1      51.883  18.694  42.329  1.00  0.00     0.004 A 
ATOM     23  C   UNL A   1      52.296  17.313  40.422  1.00  0.00     0.004 A 
ATOM     24  C   UNL A   1      50.563  18.902  41.878  1.00  0.00     0.011 A 
ATOM     25  C   UNL A   1      50.960  17.493  39.995  1.00  0.00     0.011 A 
ENDBRANCH  15  19
BRANCH  17  26
ATOM     26  C   UNL A   1      45.126  17.544  40.278  1.00  0.00     0.065 A 
ATOM     27  C   UNL A   1      44.728  17.353  42.007  1.00  0.00     0.028 A 
ATOM     28  C   UNL A   1      44.293  16.499  39.100  1.00  0.00     0.028 A 
ATOM     29  C   UNL A   1      43.647  16.035  42.601  1.00  0.00     0.002 A 
ATOM     30  C   UNL A   1      43.029  15.267  39.632  1.00  0.00     0.002 A 
ATOM     31  C   UNL A   1      42.696  15.026  41.389  1.00  0.00     0.000 A 
ENDBRANCH  17  26
ENDBRANCH   8  14
ENDBRANCH   4   7
ENDBRANCH   2   3
ENDBRANCH   1   2
BRANCH   1  32
ATOM     32  C   UNL A   1      43.560  24.369  36.068  1.00  0.00     0.118 C 
BRANCH  32  33
ATOM     33  N   UNL A   1      44.139  23.021  35.844  1.00  0.00    -0.352 N 
ATOM     34  C   UNL A   1      44.844  22.524  34.721  1.00  0.00     0.251 C 
ATOM     35  H   UNL A   1      44.017  22.381  36.582  1.00  0.00     0.163 HD
ATOM     36  O   UNL A   1      45.334  21.403  34.667  1.00  0.00    -0.269 OA
BRANCH  34  37
ATOM     37  C   UNL A   1      45.123  23.467  33.607  1.00  0.00     0.039 A 
ATOM     38  C   UNL A   1      45.899  24.622  33.836  1.00  0.00     0.014 A 
ATOM     39  C   UNL A   1      44.155  23.460  32.635  1.00  0.00     0.014 A 
ATOM     40  C   UNL A   1      45.444  25.841  33.346  1.00  0.00     0.010 A 
ATOM     41  C   UNL A   1      43.529  24.657  32.434  1.00  0.00     0.010 A 
ATOM     42  C   UNL A   1      44.169  25.854  32.798  1.00  0.00    -0.014 A 
BRANCH  42  43
ATOM     43  C   UNL A   1      43.576  26.935  32.043  1.00  0.00     0.031 A 
ATOM     44  C   UNL A   1      42.822  27.814  32.987  1.00  0.00     0.074 A 
ATOM     45  C   UNL A   1      44.135  27.222  30.836  1.00  0.00     0.049 A 
ATOM     46  N   UNL A   1      42.110  28.813  32.652  1.00  0.00    -0.248 NA
ATOM     47  C   UNL A   1      42.801  27.630  34.463  1.00  0.00     0.031 C 
ATOM     48  C   UNL A   1      44.266  28.481  30.112  1.00  0.00     0.029 A 
ATOM     49  N   UNL A   1      44.571  26.305  29.887  1.00  0.00    -0.354 N 
ATOM     50  C   UNL A   1      42.024  29.619  33.774  1.00  0.00     0.074 A 
ATOM     51  C   UNL A   1      42.295  28.782  34.899  1.00  0.00     0.031 C 
ATOM     52  C   UNL A   1      44.415  28.240  28.790  1.00  0.00     0.029 A 
ATOM     53  C   UNL A   1      44.314  26.806  28.588  1.00  0.00     0.049 A 
ATOM     54  H   UNL A   1      44.993  25.438  30.087  1.00  0.00     0.167 HD
ATOM     55  C   UNL A   1      41.951  30.959  33.569  1.00  0.00     0.031 A 
ATOM     56  C   UNL A   1      43.351  26.183  27.829  1.00  0.00     0.031 A 
ATOM     57  C   UNL A   1      41.899  31.206  32.123  1.00  0.00     0.049 A 
ATOM     58  C   UNL A   1      41.994  26.957  27.979  1.00  0.00     0.074 A 
ATOM     59  C   UNL A   1      42.839  31.586  31.183  1.00  0.00     0.029 A 
ATOM     60  N   UNL A   1      40.889  30.577  31.415  1.00  0.00    -0.354 N 
ATOM     61  N   UNL A   1      41.846  28.006  28.753  1.00  0.00    -0.248 NA
ATOM     62  C   UNL A   1      40.731  26.639  27.301  1.00  0.00     0.031 C 
ATOM     63  C   UNL A   1      42.387  31.117  29.903  1.00  0.00     0.029 A 
ATOM     64  C   UNL A   1      41.189  30.445  30.074  1.00  0.00     0.049 A 
ATOM     65  H   UNL A   1      40.052  30.261  31.823  1.00  0.00     0.167 HD
ATOM     66  C   UNL A   1      40.593  28.543  28.650  1.00  0.00     0.074 A 
ATOM     67  C   UNL A   1      39.905  27.592  27.785  1.00  0.00     0.031 C 
ATOM     68  C   UNL A   1      40.225  29.729  29.241  1.00  0.00     0.031 A 
BRANCH  55  69
ATOM     69  C   UNL A   1      42.148  32.045  34.593  1.00  0.00    -0.014 A 
ATOM     70  C   UNL A   1      40.998  32.749  34.997  1.00  0.00     0.010 A 
ATOM     71  C   UNL A   1      43.365  32.443  35.189  1.00  0.00     0.010 A 
ATOM     72  C   UNL A   1      41.045  33.793  35.923  1.00  0.00     0.020 A 
ATOM     73  C   UNL A   1      43.427  33.495  36.125  1.00  0.00     0.020 A 
ATOM     74  C   UNL A   1      42.259  34.163  36.486  1.00  0.00     0.054 A 
BRANCH  74  75
ATOM     75  S   UNL A   1      42.259  35.503  37.705  1.00  0.00     0.124 S 
ATOM     76  O   UNL A   1      43.552  35.325  38.361  1.00  0.00    -0.237 OA
ATOM     77  O   UNL A   1      42.139  36.690  36.863  1.00  0.00    -0.237 OA
ATOM     78  O   UNL A   1      41.096  35.214  38.540  1.00  0.00    -0.744 OA
ENDBRANCH  74  75
ENDBRANCH  55  69
BRANCH  56  79
ATOM     79  C   UNL A   1      43.587  24.679  27.957  1.00  0.00    -0.014 A 
ATOM     80  C   UNL A   1      42.644  23.846  28.626  1.00  0.00     0.010 A 
ATOM     81  C   UNL A   1      44.190  24.103  26.876  1.00  0.00     0.010 A 
ATOM     82  C   UNL A   1      42.189  22.510  28.155  1.00  0.00     0.020 A 
ATOM     83  C   UNL A   1      43.613  22.911  26.332  1.00  0.00     0.020 A 
ATOM     84  C   UNL A   1      42.622  21.760  26.882  1.00  0.00     0.054 A 
BRANCH  84  85
ATOM     85  S   UNL A   1      42.580  19.299  26.193  1.00  0.00     0.124 S 
ATOM     86  O   UNL A   1      42.996  18.355  27.285  1.00  0.00    -0.237 OA
ATOM     87  O   UNL A   1      41.241  18.827  25.747  1.00  0.00    -0.237 OA
ATOM     88  O   UNL A   1      43.503  18.975  25.048  1.00  0.00    -0.744 OA
ENDBRANCH  84  85
ENDBRANCH  56  79
BRANCH  68  89
ATOM     89  C   UNL A   1      38.856  30.362  29.106  1.00  0.00    -0.014 A 
ATOM     90  C   UNL A   1      38.602  31.684  29.474  1.00  0.00     0.010 A 
ATOM     91  C   UNL A   1      37.734  29.595  28.695  1.00  0.00     0.010 A 
ATOM     92  C   UNL A   1      37.338  32.252  29.286  1.00  0.00     0.020 A 
ATOM     93  C   UNL A   1      36.464  30.134  28.532  1.00  0.00     0.020 A 
ATOM     94  C   UNL A   1      36.284  31.478  28.793  1.00  0.00     0.054 A 
BRANCH  94  95
ATOM     95  S   UNL A   1      34.671  32.237  28.550  1.00  0.00     0.124 S 
ATOM     96  O   UNL A   1      34.978  33.328  27.627  1.00  0.00    -0.237 OA
ATOM     97  O   UNL A   1      33.904  31.130  27.985  1.00  0.00    -0.237 OA
ATOM     98  O   UNL A   1      34.273  32.653  29.891  1.00  0.00    -0.744 OA
ENDBRANCH  94  95
ENDBRANCH  68  89
ENDBRANCH  42  43
ENDBRANCH  34  37
ENDBRANCH  32  33
ENDBRANCH   1  32
TORSDOF 16
ENDMDL
