MODEL 1
REMARK VINA RESULT:     -10.8      0.000      0.000
REMARK SMILES O=C(NCCCNC(=O)[C@@H]1CC[C@H](CNc2c(F)c(F)c(F)c(F)c2F)O1)c1ccc(-c2c3nc(c(-c4ccc(S(=O)(=O)[O-])cc4)c4ccc([nH]4)c(-c4ccc(S(=O)(=O)[O-])cc4)c4nc(c(-c5ccc(S(=O)(=O)[O-])cc5)c5ccc2[nH]5)C=C4)C=C3)cc1
REMARK SMILES IDX 5 1 4 2 3 3 1 4 2 5 28 7 29 8 87 9 30 10 86 11 31 12 32 13
REMARK SMILES IDX 33 14 80 15 34 16 85 17 79 18 81 19 35 20 84 21 78 22 77 23
REMARK SMILES IDX 36 25 66 26 47 27 65 28 48 29 51 30 64 31 82 32 49 33 50 34
REMARK SMILES IDX 63 36 83 37 52 38 37 39 38 40 46 41 39 42 45 43 40 44 41 45
REMARK SMILES IDX 42 46 43 47 44 48 67 49 68 50 76 51 69 52 75 53 70 54 71 55
REMARK SMILES IDX 72 56 73 57 74 58 53 59 54 60 62 61 55 62 61 63 56 64 57 65
REMARK SMILES IDX 58 66 59 67 60 68 6 69 7 70 8 71 9 73 10 74 11 75 27 76
REMARK SMILES IDX 12 77 13 78 14 79 15 80 16 82 17 83 25 84 18 85 19 86 23 87
REMARK SMILES IDX 26 88 20 89 21 90 24 91 22 92
REMARK H PARENT 3 6 81 24 51 35 7 72 15 81
REMARK Flexibility Score: inf
ROOT
ATOM      1  C   UNL A   1      34.809  33.443  28.087  1.00  0.00     0.042 C 
ENDROOT
BRANCH   1   2
ATOM      2  C   UNL A   1      34.954  32.321  29.109  1.00  0.00     0.118 C 
BRANCH   2   3
ATOM      3  N   UNL A   1      34.341  31.078  28.656  1.00  0.00    -0.352 N 
ATOM      4  O   UNL A   1      34.238  29.065  27.658  1.00  0.00    -0.269 OA
ATOM      5  C   UNL A   1      34.926  29.918  28.221  1.00  0.00     0.251 C 
ATOM      6  H   UNL A   1      33.356  31.071  28.663  1.00  0.00     0.163 HD
BRANCH   5   7
ATOM      7  C   UNL A   1      36.371  29.691  28.426  1.00  0.00     0.039 A 
ATOM      8  C   UNL A   1      36.840  29.178  29.638  1.00  0.00     0.014 A 
ATOM      9  C   UNL A   1      37.261  29.939  27.377  1.00  0.00     0.014 A 
ATOM     10  C   UNL A   1      38.205  29.030  29.846  1.00  0.00     0.010 A 
ATOM     11  C   UNL A   1      38.626  29.700  27.557  1.00  0.00     0.010 A 
ATOM     12  C   UNL A   1      39.108  29.251  28.795  1.00  0.00    -0.014 A 
BRANCH  12  13
ATOM     13  C   UNL A   1      40.531  28.874  28.974  1.00  0.00     0.031 A 
ATOM     14  C   UNL A   1      41.049  27.535  28.537  1.00  0.00     0.074 A 
ATOM     15  C   UNL A   1      41.352  29.771  29.559  1.00  0.00     0.049 A 
ATOM     16  N   UNL A   1      42.258  27.051  28.652  1.00  0.00    -0.248 NA
ATOM     17  C   UNL A   1      40.093  26.617  27.894  1.00  0.00     0.031 C 
ATOM     18  C   UNL A   1      40.947  31.099  30.036  1.00  0.00     0.029 A 
ATOM     19  N   UNL A   1      42.688  29.710  29.855  1.00  0.00    -0.354 N 
ATOM     20  C   UNL A   1      42.208  25.766  28.125  1.00  0.00     0.074 A 
ATOM     21  C   UNL A   1      40.845  25.541  27.693  1.00  0.00     0.031 C 
ATOM     22  C   UNL A   1      42.014  31.733  30.538  1.00  0.00     0.029 A 
ATOM     23  C   UNL A   1      43.161  30.835  30.491  1.00  0.00     0.049 A 
ATOM     24  H   UNL A   1      43.256  28.937  29.633  1.00  0.00     0.167 HD
ATOM     25  C   UNL A   1      43.210  24.861  28.021  1.00  0.00     0.031 A 
ATOM     26  C   UNL A   1      44.368  31.103  31.021  1.00  0.00     0.031 A 
ATOM     27  C   UNL A   1      44.563  25.107  28.449  1.00  0.00     0.049 A 
ATOM     28  C   UNL A   1      45.444  30.060  30.926  1.00  0.00     0.074 A 
ATOM     29  C   UNL A   1      45.666  24.280  28.318  1.00  0.00     0.029 A 
ATOM     30  N   UNL A   1      44.997  26.247  29.109  1.00  0.00    -0.354 N 
ATOM     31  N   UNL A   1      45.399  28.885  30.345  1.00  0.00    -0.248 NA
ATOM     32  C   UNL A   1      46.730  30.373  31.563  1.00  0.00     0.031 C 
ATOM     33  C   UNL A   1      46.746  24.887  28.964  1.00  0.00     0.029 A 
ATOM     34  C   UNL A   1      46.335  26.122  29.440  1.00  0.00     0.049 A 
ATOM     35  H   UNL A   1      44.434  27.030  29.314  1.00  0.00     0.167 HD
ATOM     36  C   UNL A   1      46.653  28.321  30.539  1.00  0.00     0.074 A 
ATOM     37  C   UNL A   1      47.443  29.296  31.263  1.00  0.00     0.031 C 
ATOM     38  C   UNL A   1      47.106  27.102  30.162  1.00  0.00     0.031 A 
BRANCH  25  39
ATOM     39  C   UNL A   1      42.895  23.502  27.453  1.00  0.00    -0.014 A 
ATOM     40  C   UNL A   1      43.291  23.139  26.154  1.00  0.00     0.010 A 
ATOM     41  C   UNL A   1      42.293  22.535  28.279  1.00  0.00     0.010 A 
ATOM     42  C   UNL A   1      43.080  21.838  25.690  1.00  0.00     0.020 A 
ATOM     43  C   UNL A   1      42.100  21.227  27.828  1.00  0.00     0.020 A 
ATOM     44  C   UNL A   1      42.491  20.887  26.531  1.00  0.00     0.054 A 
BRANCH  44  45
ATOM     45  S   UNL A   1      42.291  19.190  25.923  1.00  0.00     0.124 S 
ATOM     46  O   UNL A   1      40.844  19.106  25.734  1.00  0.00    -0.237 OA
ATOM     47  O   UNL A   1      43.083  19.195  24.696  1.00  0.00    -0.237 OA
ATOM     48  O   UNL A   1      42.826  18.366  27.004  1.00  0.00    -0.744 OA
ENDBRANCH  44  45
ENDBRANCH  25  39
BRANCH  26  49
ATOM     49  C   UNL A   1      44.596  32.382  31.746  1.00  0.00    -0.014 A 
ATOM     50  C   UNL A   1      45.133  33.500  31.089  1.00  0.00     0.010 A 
ATOM     51  C   UNL A   1      44.277  32.480  33.114  1.00  0.00     0.010 A 
ATOM     52  C   UNL A   1      45.377  34.683  31.794  1.00  0.00     0.020 A 
ATOM     53  C   UNL A   1      44.486  33.671  33.813  1.00  0.00     0.020 A 
ATOM     54  C   UNL A   1      45.054  34.759  33.152  1.00  0.00     0.054 A 
BRANCH  54  55
ATOM     55  S   UNL A   1      45.366  36.308  34.043  1.00  0.00     0.124 S 
ATOM     56  O   UNL A   1      45.053  35.932  35.418  1.00  0.00    -0.237 OA
ATOM     57  O   UNL A   1      46.778  36.555  33.760  1.00  0.00    -0.237 OA
ATOM     58  O   UNL A   1      44.439  37.252  33.423  1.00  0.00    -0.744 OA
ENDBRANCH  54  55
ENDBRANCH  26  49
BRANCH  38  59
ATOM     59  C   UNL A   1      48.526  26.754  30.515  1.00  0.00    -0.014 A 
ATOM     60  C   UNL A   1      49.583  27.066  29.642  1.00  0.00     0.010 A 
ATOM     61  C   UNL A   1      48.813  26.175  31.764  1.00  0.00     0.010 A 
ATOM     62  C   UNL A   1      50.903  26.789  30.005  1.00  0.00     0.020 A 
ATOM     63  C   UNL A   1      50.133  25.925  32.144  1.00  0.00     0.020 A 
ATOM     64  C   UNL A   1      51.170  26.227  31.258  1.00  0.00     0.054 A 
BRANCH  64  65
ATOM     65  S   UNL A   1      52.896  25.945  31.733  1.00  0.00     0.124 S 
ATOM     66  O   UNL A   1      53.598  26.148  30.470  1.00  0.00    -0.237 OA
ATOM     67  O   UNL A   1      53.119  26.972  32.749  1.00  0.00    -0.237 OA
ATOM     68  O   UNL A   1      52.898  24.572  32.234  1.00  0.00    -0.744 OA
ENDBRANCH  64  65
ENDBRANCH  38  59
ENDBRANCH  12  13
ENDBRANCH   5   7
ENDBRANCH   2   3
ENDBRANCH   1   2
BRANCH   1  69
ATOM     69  C   UNL A   1      33.411  34.044  28.054  1.00  0.00     0.117 C 
BRANCH  69  70
ATOM     70  N   UNL A   1      33.441  35.493  28.132  1.00  0.00    -0.354 N 
ATOM     71  C   UNL A   1      33.226  36.345  29.169  1.00  0.00     0.249 C 
ATOM     72  H   UNL A   1      33.658  35.939  27.281  1.00  0.00     0.163 HD
ATOM     73  O   UNL A   1      33.307  37.554  28.926  1.00  0.00    -0.272 OA
BRANCH  71  74
ATOM     74  C   UNL A   1      32.864  35.851  30.585  1.00  0.00     0.207 C 
ATOM     75  C   UNL A   1      32.890  37.040  31.541  1.00  0.00     0.045 C 
ATOM     76  O   UNL A   1      33.653  34.837  31.197  1.00  0.00    -0.363 OA
ATOM     77  C   UNL A   1      33.110  36.395  32.883  1.00  0.00     0.037 C 
ATOM     78  C   UNL A   1      33.990  35.206  32.541  1.00  0.00     0.138 C 
BRANCH  78  79
ATOM     79  C   UNL A   1      35.507  35.484  32.637  1.00  0.00     0.145 C 
BRANCH  79  80
ATOM     80  N   UNL A   1      36.107  34.645  33.668  1.00  0.00    -0.378 N 
ATOM     81  H   UNL A   1      35.977  34.904  34.608  1.00  0.00     0.160 HD
BRANCH  80  82
ATOM     82  C   UNL A   1      36.851  33.502  33.403  1.00  0.00     0.113 A 
ATOM     83  C   UNL A   1      36.309  32.238  33.126  1.00  0.00     0.188 A 
ATOM     84  C   UNL A   1      38.254  33.595  33.452  1.00  0.00     0.188 A 
ATOM     85  F   UNL A   1      34.979  32.079  33.025  1.00  0.00    -0.201 F 
ATOM     86  C   UNL A   1      37.129  31.128  32.915  1.00  0.00     0.199 A 
ATOM     87  C   UNL A   1      39.073  32.488  33.255  1.00  0.00     0.199 A 
ATOM     88  F   UNL A   1      38.817  34.786  33.719  1.00  0.00    -0.201 F 
ATOM     89  F   UNL A   1      36.583  29.937  32.635  1.00  0.00    -0.200 F 
ATOM     90  C   UNL A   1      38.508  31.253  32.987  1.00  0.00     0.200 A 
ATOM     91  F   UNL A   1      40.405  32.619  33.329  1.00  0.00    -0.200 F 
ATOM     92  F   UNL A   1      39.294  30.186  32.789  1.00  0.00    -0.200 F 
ENDBRANCH  80  82
ENDBRANCH  79  80
ENDBRANCH  78  79
ENDBRANCH  71  74
ENDBRANCH  69  70
ENDBRANCH   1  69
TORSDOF 16
ENDMDL
MODEL 2
REMARK VINA RESULT:     -10.6      0.911      8.207
REMARK SMILES O=C(NCCCNC(=O)[C@@H]1CC[C@H](CNc2c(F)c(F)c(F)c(F)c2F)O1)c1ccc(-c2c3nc(c(-c4ccc(S(=O)(=O)[O-])cc4)c4ccc([nH]4)c(-c4ccc(S(=O)(=O)[O-])cc4)c4nc(c(-c5ccc(S(=O)(=O)[O-])cc5)c5ccc2[nH]5)C=C4)C=C3)cc1
REMARK SMILES IDX 5 1 4 2 3 3 1 4 2 5 28 7 29 8 87 9 30 10 86 11 31 12 32 13
REMARK SMILES IDX 33 14 80 15 34 16 85 17 79 18 81 19 35 20 84 21 78 22 77 23
REMARK SMILES IDX 36 25 66 26 47 27 65 28 48 29 51 30 64 31 82 32 49 33 50 34
REMARK SMILES IDX 63 36 83 37 52 38 37 39 38 40 46 41 39 42 45 43 40 44 41 45
REMARK SMILES IDX 42 46 43 47 44 48 67 49 68 50 76 51 69 52 75 53 70 54 71 55
REMARK SMILES IDX 72 56 73 57 74 58 53 59 54 60 62 61 55 62 61 63 56 64 57 65
REMARK SMILES IDX 58 66 59 67 60 68 6 69 7 70 8 71 9 73 10 74 11 75 27 76
REMARK SMILES IDX 12 77 13 78 14 79 15 80 16 82 17 83 25 84 18 85 19 86 23 87
REMARK SMILES IDX 26 88 20 89 21 90 24 91 22 92
REMARK H PARENT 3 6 81 24 51 35 7 72 15 81
REMARK Flexibility Score: inf
ROOT
ATOM      1  C   UNL A   1      34.654  33.834  28.475  1.00  0.00     0.042 C 
ENDROOT
BRANCH   1   2
ATOM      2  C   UNL A   1      34.703  32.481  29.175  1.00  0.00     0.118 C 
BRANCH   2   3
ATOM      3  N   UNL A   1      34.068  31.429  28.391  1.00  0.00    -0.352 N 
ATOM      4  O   UNL A   1      33.956  29.668  26.996  1.00  0.00    -0.269 OA
ATOM      5  C   UNL A   1      34.612  30.310  27.818  1.00  0.00     0.251 C 
ATOM      6  H   UNL A   1      33.099  31.540  28.251  1.00  0.00     0.163 HD
BRANCH   5   7
ATOM      7  C   UNL A   1      35.975  29.875  28.182  1.00  0.00     0.039 A 
ATOM      8  C   UNL A   1      37.036  30.055  27.290  1.00  0.00     0.014 A 
ATOM      9  C   UNL A   1      36.208  29.334  29.449  1.00  0.00     0.014 A 
ATOM     10  C   UNL A   1      38.301  29.583  27.614  1.00  0.00     0.010 A 
ATOM     11  C   UNL A   1      37.501  28.946  29.810  1.00  0.00     0.010 A 
ATOM     12  C   UNL A   1      38.556  29.061  28.891  1.00  0.00    -0.014 A 
BRANCH  12  13
ATOM     13  C   UNL A   1      39.955  28.772  29.288  1.00  0.00     0.031 A 
ATOM     14  C   UNL A   1      40.794  29.791  30.001  1.00  0.00     0.074 A 
ATOM     15  C   UNL A   1      40.461  27.561  28.976  1.00  0.00     0.049 A 
ATOM     16  N   UNL A   1      42.040  29.696  30.387  1.00  0.00    -0.248 NA
ATOM     17  C   UNL A   1      40.165  31.084  30.319  1.00  0.00     0.031 C 
ATOM     18  C   UNL A   1      39.733  26.499  28.270  1.00  0.00     0.029 A 
ATOM     19  N   UNL A   1      41.697  27.015  29.206  1.00  0.00    -0.354 N 
ATOM     20  C   UNL A   1      42.356  30.919  30.966  1.00  0.00     0.074 A 
ATOM     21  C   UNL A   1      41.171  31.746  30.877  1.00  0.00     0.031 C 
ATOM     22  C   UNL A   1      40.525  25.426  28.149  1.00  0.00     0.029 A 
ATOM     23  C   UNL A   1      41.837  25.744  28.696  1.00  0.00     0.049 A 
ATOM     24  H   UNL A   1      42.414  27.484  29.689  1.00  0.00     0.167 HD
ATOM     25  C   UNL A   1      43.531  31.310  31.514  1.00  0.00     0.031 A 
ATOM     26  C   UNL A   1      42.912  24.937  28.633  1.00  0.00     0.031 A 
ATOM     27  C   UNL A   1      44.698  30.469  31.601  1.00  0.00     0.049 A 
ATOM     28  C   UNL A   1      44.210  25.420  29.212  1.00  0.00     0.074 A 
ATOM     29  C   UNL A   1      45.912  30.750  32.204  1.00  0.00     0.029 A 
ATOM     30  N   UNL A   1      44.809  29.200  31.054  1.00  0.00    -0.354 N 
ATOM     31  N   UNL A   1      44.463  26.546  29.834  1.00  0.00    -0.248 NA
ATOM     32  C   UNL A   1      45.371  24.529  29.076  1.00  0.00     0.031 C 
ATOM     33  C   UNL A   1      46.779  29.682  31.957  1.00  0.00     0.029 A 
ATOM     34  C   UNL A   1      46.086  28.707  31.258  1.00  0.00     0.049 A 
ATOM     35  H   UNL A   1      44.085  28.720  30.588  1.00  0.00     0.167 HD
ATOM     36  C   UNL A   1      45.810  26.496  30.170  1.00  0.00     0.074 A 
ATOM     37  C   UNL A   1      46.309  25.216  29.711  1.00  0.00     0.031 C 
ATOM     38  C   UNL A   1      46.567  27.431  30.793  1.00  0.00     0.031 A 
BRANCH  25  39
ATOM     39  C   UNL A   1      43.646  32.717  32.038  1.00  0.00    -0.014 A 
ATOM     40  C   UNL A   1      44.059  33.777  31.213  1.00  0.00     0.010 A 
ATOM     41  C   UNL A   1      43.224  32.998  33.351  1.00  0.00     0.010 A 
ATOM     42  C   UNL A   1      44.056  35.090  31.695  1.00  0.00     0.020 A 
ATOM     43  C   UNL A   1      43.198  34.311  33.830  1.00  0.00     0.020 A 
ATOM     44  C   UNL A   1      43.621  35.349  32.999  1.00  0.00     0.054 A 
BRANCH  44  45
ATOM     45  S   UNL A   1      43.566  37.070  33.572  1.00  0.00     0.124 S 
ATOM     46  O   UNL A   1      44.793  37.163  34.362  1.00  0.00    -0.237 OA
ATOM     47  O   UNL A   1      43.568  37.824  32.321  1.00  0.00    -0.237 OA
ATOM     48  O   UNL A   1      42.326  37.142  34.340  1.00  0.00    -0.744 OA
ENDBRANCH  44  45
ENDBRANCH  25  39
BRANCH  26  49
ATOM     49  C   UNL A   1      42.818  23.625  27.938  1.00  0.00    -0.014 A 
ATOM     50  C   UNL A   1      42.355  22.482  28.609  1.00  0.00     0.010 A 
ATOM     51  C   UNL A   1      43.203  23.517  26.588  1.00  0.00     0.010 A 
ATOM     52  C   UNL A   1      42.310  21.248  27.952  1.00  0.00     0.020 A 
ATOM     53  C   UNL A   1      43.125  22.294  25.918  1.00  0.00     0.020 A 
ATOM     54  C   UNL A   1      42.697  21.163  26.612  1.00  0.00     0.054 A 
BRANCH  54  55
ATOM     55  S   UNL A   1      42.617  19.555  25.775  1.00  0.00     0.124 S 
ATOM     56  O   UNL A   1      43.547  19.746  24.667  1.00  0.00    -0.237 OA
ATOM     57  O   UNL A   1      43.057  18.634  26.820  1.00  0.00    -0.237 OA
ATOM     58  O   UNL A   1      41.210  19.435  25.401  1.00  0.00    -0.744 OA
ENDBRANCH  54  55
ENDBRANCH  26  49
BRANCH  38  59
ATOM     59  C   UNL A   1      48.016  27.101  31.025  1.00  0.00    -0.014 A 
ATOM     60  C   UNL A   1      48.410  26.323  32.128  1.00  0.00     0.010 A 
ATOM     61  C   UNL A   1      48.984  27.514  30.092  1.00  0.00     0.010 A 
ATOM     62  C   UNL A   1      49.752  25.976  32.303  1.00  0.00     0.020 A 
ATOM     63  C   UNL A   1      50.321  27.144  30.247  1.00  0.00     0.020 A 
ATOM     64  C   UNL A   1      50.698  26.383  31.356  1.00  0.00     0.054 A 
BRANCH  64  65
ATOM     65  S   UNL A   1      52.420  25.857  31.568  1.00  0.00     0.124 S 
ATOM     66  O   UNL A   1      52.912  26.815  32.555  1.00  0.00    -0.237 OA
ATOM     67  O   UNL A   1      52.278  24.482  32.042  1.00  0.00    -0.237 OA
ATOM     68  O   UNL A   1      52.991  25.993  30.230  1.00  0.00    -0.744 OA
ENDBRANCH  64  65
ENDBRANCH  38  59
ENDBRANCH  12  13
ENDBRANCH   5   7
ENDBRANCH   2   3
ENDBRANCH   1   2
BRANCH   1  69
ATOM     69  C   UNL A   1      33.264  34.453  28.468  1.00  0.00     0.117 C 
BRANCH  69  70
ATOM     70  N   UNL A   1      33.316  35.903  28.515  1.00  0.00    -0.354 N 
ATOM     71  C   UNL A   1      33.147  36.778  29.542  1.00  0.00     0.249 C 
ATOM     72  H   UNL A   1      33.509  36.329  27.649  1.00  0.00     0.163 HD
ATOM     73  O   UNL A   1      33.236  37.981  29.272  1.00  0.00    -0.272 OA
BRANCH  71  74
ATOM     74  C   UNL A   1      32.827  36.317  30.979  1.00  0.00     0.207 C 
ATOM     75  C   UNL A   1      33.619  37.177  31.959  1.00  0.00     0.045 C 
ATOM     76  O   UNL A   1      33.073  34.966  31.353  1.00  0.00    -0.363 OA
ATOM     77  C   UNL A   1      33.699  36.311  33.188  1.00  0.00     0.037 C 
ATOM     78  C   UNL A   1      33.772  34.911  32.605  1.00  0.00     0.138 C 
BRANCH  78  79
ATOM     79  C   UNL A   1      35.207  34.388  32.374  1.00  0.00     0.145 C 
BRANCH  79  80
ATOM     80  N   UNL A   1      35.434  33.179  33.158  1.00  0.00    -0.378 N 
ATOM     81  H   UNL A   1      34.654  32.749  33.578  1.00  0.00     0.160 HD
BRANCH  80  82
ATOM     82  C   UNL A   1      36.681  32.598  33.346  1.00  0.00     0.113 A 
ATOM     83  C   UNL A   1      37.001  31.267  33.039  1.00  0.00     0.188 A 
ATOM     84  C   UNL A   1      37.699  33.378  33.926  1.00  0.00     0.188 A 
ATOM     85  F   UNL A   1      36.093  30.472  32.448  1.00  0.00    -0.201 F 
ATOM     86  C   UNL A   1      38.269  30.747  33.302  1.00  0.00     0.199 A 
ATOM     87  C   UNL A   1      38.959  32.858  34.201  1.00  0.00     0.199 A 
ATOM     88  F   UNL A   1      37.435  34.658  34.242  1.00  0.00    -0.201 F 
ATOM     89  F   UNL A   1      38.550  29.476  32.980  1.00  0.00    -0.200 F 
ATOM     90  C   UNL A   1      39.243  31.540  33.889  1.00  0.00     0.200 A 
ATOM     91  F   UNL A   1      39.892  33.633  34.771  1.00  0.00    -0.200 F 
ATOM     92  F   UNL A   1      40.458  31.038  34.145  1.00  0.00    -0.200 F 
ENDBRANCH  80  82
ENDBRANCH  79  80
ENDBRANCH  78  79
ENDBRANCH  71  74
ENDBRANCH  69  70
ENDBRANCH   1  69
TORSDOF 16
ENDMDL
MODEL 3
REMARK VINA RESULT:     -10.5      4.187      6.809
REMARK SMILES O=C(NCCCNC(=O)[C@@H]1CC[C@H](CNc2c(F)c(F)c(F)c(F)c2F)O1)c1ccc(-c2c3nc(c(-c4ccc(S(=O)(=O)[O-])cc4)c4ccc([nH]4)c(-c4ccc(S(=O)(=O)[O-])cc4)c4nc(c(-c5ccc(S(=O)(=O)[O-])cc5)c5ccc2[nH]5)C=C4)C=C3)cc1
REMARK SMILES IDX 5 1 4 2 3 3 1 4 2 5 28 7 29 8 87 9 30 10 86 11 31 12 32 13
REMARK SMILES IDX 33 14 80 15 34 16 85 17 79 18 81 19 35 20 84 21 78 22 77 23
REMARK SMILES IDX 36 25 66 26 47 27 65 28 48 29 51 30 64 31 82 32 49 33 50 34
REMARK SMILES IDX 63 36 83 37 52 38 37 39 38 40 46 41 39 42 45 43 40 44 41 45
REMARK SMILES IDX 42 46 43 47 44 48 67 49 68 50 76 51 69 52 75 53 70 54 71 55
REMARK SMILES IDX 72 56 73 57 74 58 53 59 54 60 62 61 55 62 61 63 56 64 57 65
REMARK SMILES IDX 58 66 59 67 60 68 6 69 7 70 8 71 9 73 10 74 11 75 27 76
REMARK SMILES IDX 12 77 13 78 14 79 15 80 16 82 17 83 25 84 18 85 19 86 23 87
REMARK SMILES IDX 26 88 20 89 21 90 24 91 22 92
REMARK H PARENT 3 6 81 24 51 35 7 72 15 81
REMARK Flexibility Score: inf
ROOT
ATOM      1  C   UNL A   1      32.590  28.006  25.955  1.00  0.00     0.042 C 
ENDROOT
BRANCH   1   2
ATOM      2  C   UNL A   1      33.650  28.387  26.982  1.00  0.00     0.118 C 
BRANCH   2   3
ATOM      3  N   UNL A   1      33.554  29.785  27.383  1.00  0.00    -0.352 N 
ATOM      4  O   UNL A   1      34.067  31.648  28.534  1.00  0.00    -0.269 OA
ATOM      5  C   UNL A   1      34.434  30.558  28.094  1.00  0.00     0.251 C 
ATOM      6  H   UNL A   1      32.729  30.244  27.100  1.00  0.00     0.163 HD
BRANCH   5   7
ATOM      7  C   UNL A   1      35.814  30.088  28.330  1.00  0.00     0.039 A 
ATOM      8  C   UNL A   1      36.779  30.201  27.327  1.00  0.00     0.014 A 
ATOM      9  C   UNL A   1      36.162  29.581  29.585  1.00  0.00     0.014 A 
ATOM     10  C   UNL A   1      38.057  29.697  27.534  1.00  0.00     0.010 A 
ATOM     11  C   UNL A   1      37.472  29.160  29.822  1.00  0.00     0.010 A 
ATOM     12  C   UNL A   1      38.428  29.208  28.795  1.00  0.00    -0.014 A 
BRANCH  12  13
ATOM     13  C   UNL A   1      39.851  28.883  29.055  1.00  0.00     0.031 A 
ATOM     14  C   UNL A   1      40.445  27.570  28.637  1.00  0.00     0.074 A 
ATOM     15  C   UNL A   1      40.601  29.804  29.695  1.00  0.00     0.049 A 
ATOM     16  N   UNL A   1      41.663  27.131  28.820  1.00  0.00    -0.248 NA
ATOM     17  C   UNL A   1      39.565  26.624  27.931  1.00  0.00     0.031 C 
ATOM     18  C   UNL A   1      40.118  31.111  30.158  1.00  0.00     0.029 A 
ATOM     19  N   UNL A   1      41.919  29.791  30.069  1.00  0.00    -0.354 N 
ATOM     20  C   UNL A   1      41.693  25.851  28.281  1.00  0.00     0.074 A 
ATOM     21  C   UNL A   1      40.367  25.579  27.767  1.00  0.00     0.031 C 
ATOM     22  C   UNL A   1      41.129  31.780  30.728  1.00  0.00     0.029 A 
ATOM     23  C   UNL A   1      42.309  30.926  30.742  1.00  0.00     0.049 A 
ATOM     24  H   UNL A   1      42.528  29.043  29.874  1.00  0.00     0.167 HD
ATOM     25  C   UNL A   1      42.734  24.986  28.228  1.00  0.00     0.031 A 
ATOM     26  C   UNL A   1      43.472  31.234  31.345  1.00  0.00     0.031 A 
ATOM     27  C   UNL A   1      44.049  25.278  28.738  1.00  0.00     0.049 A 
ATOM     28  C   UNL A   1      44.591  30.234  31.304  1.00  0.00     0.074 A 
ATOM     29  C   UNL A   1      45.189  24.495  28.666  1.00  0.00     0.029 A 
ATOM     30  N   UNL A   1      44.399  26.427  29.432  1.00  0.00    -0.354 N 
ATOM     31  N   UNL A   1      44.626  29.065  30.712  1.00  0.00    -0.248 NA
ATOM     32  C   UNL A   1      45.825  30.588  32.019  1.00  0.00     0.031 C 
ATOM     33  C   UNL A   1      46.205  25.136  29.379  1.00  0.00     0.029 A 
ATOM     34  C   UNL A   1      45.719  26.349  29.840  1.00  0.00     0.049 A 
ATOM     35  H   UNL A   1      43.796  27.185  29.610  1.00  0.00     0.167 HD
ATOM     36  C   UNL A   1      45.887  28.547  30.976  1.00  0.00     0.074 A 
ATOM     37  C   UNL A   1      46.595  29.543  31.753  1.00  0.00     0.031 C 
ATOM     38  C   UNL A   1      46.408  27.349  30.615  1.00  0.00     0.031 A 
BRANCH  25  39
ATOM     39  C   UNL A   1      42.506  23.622  27.631  1.00  0.00    -0.014 A 
ATOM     40  C   UNL A   1      42.855  23.335  26.300  1.00  0.00     0.010 A 
ATOM     41  C   UNL A   1      42.039  22.581  28.455  1.00  0.00     0.010 A 
ATOM     42  C   UNL A   1      42.731  22.034  25.803  1.00  0.00     0.020 A 
ATOM     43  C   UNL A   1      41.934  21.275  27.969  1.00  0.00     0.020 A 
ATOM     44  C   UNL A   1      42.276  21.011  26.642  1.00  0.00     0.054 A 
BRANCH  44  45
ATOM     45  S   UNL A   1      42.189  19.321  25.986  1.00  0.00     0.124 S 
ATOM     46  O   UNL A   1      42.758  18.542  27.084  1.00  0.00    -0.237 OA
ATOM     47  O   UNL A   1      40.757  19.138  25.764  1.00  0.00    -0.237 OA
ATOM     48  O   UNL A   1      43.004  19.375  24.774  1.00  0.00    -0.744 OA
ENDBRANCH  44  45
ENDBRANCH  25  39
BRANCH  26  49
ATOM     49  C   UNL A   1      43.608  32.513  32.093  1.00  0.00    -0.014 A 
ATOM     50  C   UNL A   1      44.087  33.673  31.462  1.00  0.00     0.010 A 
ATOM     51  C   UNL A   1      43.258  32.570  33.456  1.00  0.00     0.010 A 
ATOM     52  C   UNL A   1      44.245  34.857  32.189  1.00  0.00     0.020 A 
ATOM     53  C   UNL A   1      43.380  33.760  34.176  1.00  0.00     0.020 A 
ATOM     54  C   UNL A   1      43.892  34.891  33.541  1.00  0.00     0.054 A 
BRANCH  54  55
ATOM     55  S   UNL A   1      44.093  36.442  34.462  1.00  0.00     0.124 S 
ATOM     56  O   UNL A   1      43.935  37.439  33.409  1.00  0.00    -0.237 OA
ATOM     57  O   UNL A   1      43.007  36.372  35.436  1.00  0.00    -0.237 OA
ATOM     58  O   UNL A   1      45.436  36.332  35.027  1.00  0.00    -0.744 OA
ENDBRANCH  54  55
ENDBRANCH  26  49
BRANCH  38  59
ATOM     59  C   UNL A   1      47.817  27.052  31.049  1.00  0.00    -0.014 A 
ATOM     60  C   UNL A   1      48.071  26.303  32.211  1.00  0.00     0.010 A 
ATOM     61  C   UNL A   1      48.896  27.465  30.246  1.00  0.00     0.010 A 
ATOM     62  C   UNL A   1      49.382  25.986  32.574  1.00  0.00     0.020 A 
ATOM     63  C   UNL A   1      50.206  27.124  30.588  1.00  0.00     0.020 A 
ATOM     64  C   UNL A   1      50.441  26.392  31.755  1.00  0.00     0.054 A 
BRANCH  64  65
ATOM     65  S   UNL A   1      52.127  25.905  32.210  1.00  0.00     0.124 S 
ATOM     66  O   UNL A   1      51.892  24.714  33.022  1.00  0.00    -0.237 OA
ATOM     67  O   UNL A   1      52.752  25.667  30.910  1.00  0.00    -0.237 OA
ATOM     68  O   UNL A   1      52.639  27.064  32.937  1.00  0.00    -0.744 OA
ENDBRANCH  64  65
ENDBRANCH  38  59
ENDBRANCH  12  13
ENDBRANCH   5   7
ENDBRANCH   2   3
ENDBRANCH   1   2
BRANCH   1  69
ATOM     69  C   UNL A   1      33.161  27.786  24.561  1.00  0.00     0.117 C 
BRANCH  69  70
ATOM     70  N   UNL A   1      32.160  27.983  23.528  1.00  0.00    -0.354 N 
ATOM     71  C   UNL A   1      31.431  27.098  22.798  1.00  0.00     0.249 C 
ATOM     72  H   UNL A   1      31.975  28.927  23.320  1.00  0.00     0.163 HD
ATOM     73  O   UNL A   1      30.652  27.569  21.963  1.00  0.00    -0.272 OA
BRANCH  71  74
ATOM     74  C   UNL A   1      31.577  25.570  22.962  1.00  0.00     0.207 C 
ATOM     75  C   UNL A   1      30.907  25.150  24.266  1.00  0.00     0.045 C 
ATOM     76  O   UNL A   1      32.876  24.988  22.981  1.00  0.00    -0.363 OA
ATOM     77  C   UNL A   1      31.589  23.850  24.598  1.00  0.00     0.037 C 
ATOM     78  C   UNL A   1      32.998  24.070  24.076  1.00  0.00     0.138 C 
BRANCH  78  79
ATOM     79  C   UNL A   1      33.985  24.636  25.120  1.00  0.00     0.145 C 
BRANCH  79  80
ATOM     80  N   UNL A   1      34.399  23.585  26.042  1.00  0.00    -0.378 N 
ATOM     81  H   UNL A   1      33.972  23.555  26.929  1.00  0.00     0.160 HD
BRANCH  80  82
ATOM     82  C   UNL A   1      35.357  22.625  25.746  1.00  0.00     0.113 A 
ATOM     83  C   UNL A   1      36.744  22.842  25.764  1.00  0.00     0.188 A 
ATOM     84  C   UNL A   1      34.920  21.345  25.357  1.00  0.00     0.188 A 
ATOM     85  F   UNL A   1      37.238  24.026  26.162  1.00  0.00    -0.201 F 
ATOM     86  C   UNL A   1      37.640  21.833  25.408  1.00  0.00     0.199 A 
ATOM     87  C   UNL A   1      35.811  20.342  24.989  1.00  0.00     0.199 A 
ATOM     88  F   UNL A   1      33.600  21.094  25.320  1.00  0.00    -0.201 F 
ATOM     89  F   UNL A   1      38.960  22.065  25.453  1.00  0.00    -0.200 F 
ATOM     90  C   UNL A   1      37.173  20.588  25.015  1.00  0.00     0.200 A 
ATOM     91  F   UNL A   1      35.348  19.143  24.608  1.00  0.00    -0.200 F 
ATOM     92  F   UNL A   1      38.035  19.622  24.669  1.00  0.00    -0.200 F 
ENDBRANCH  80  82
ENDBRANCH  79  80
ENDBRANCH  78  79
ENDBRANCH  71  74
ENDBRANCH  69  70
ENDBRANCH   1  69
TORSDOF 16
ENDMDL
