MODEL 1
REMARK VINA RESULT:     -14.1      0.000      0.000
REMARK SMILES Cc1ccc(-c2cc([C@@H](C)C(=O)NCCCNC(=O)c3ccc(-c4c5nc(c(-c6ccc(S(=O)(=O)[O-])cc6)c6ccc([nH]6)c(-c6ccc(S(=O)(=O)[O-])cc6)c6nc(c(-c7ccc(S(=O)(=O)[O-])cc7)c7ccc4[nH]7)C=C6)C=C5)cc3)ccc2C[C@H]2CCCC2=O)cc1
REMARK SMILES IDX 15 1 14 2 13 3 11 4 12 5 9 7 10 8 8 9 6 10 7 11 82 12 81 13
REMARK SMILES IDX 80 14 5 15 1 16 2 17 3 18 91 19 4 20 90 21 83 22 84 23 85 24
REMARK SMILES IDX 88 25 86 26 87 27 89 28 16 29 17 30 18 31 19 33 20 34 21 35
REMARK SMILES IDX 79 36 22 37 78 38 23 39 24 40 25 41 72 42 26 43 77 44 71 45
REMARK SMILES IDX 73 46 27 47 76 48 70 49 69 50 28 52 58 53 39 54 57 55 40 56
REMARK SMILES IDX 43 57 56 58 74 59 41 60 42 61 55 63 75 64 44 65 29 66 30 67
REMARK SMILES IDX 38 68 31 69 37 70 32 71 33 72 34 73 35 74 36 75 59 76 60 77
REMARK SMILES IDX 68 78 61 79 67 80 62 81 63 82 64 83 65 84 66 85 45 86 46 87
REMARK SMILES IDX 54 88 47 89 53 90 48 91 49 92 50 93 51 94 52 95
REMARK H PARENT 13 6 17 32 73 51 43 62
REMARK Flexibility Score: inf
ROOT
ATOM      1  C   UNL A   1      32.859  29.817  27.216  1.00  0.00     0.042 C 
ENDROOT
BRANCH   1   2
ATOM      2  C   UNL A   1      32.066  28.570  26.832  1.00  0.00     0.117 C 
BRANCH   2   3
ATOM      3  N   UNL A   1      31.424  28.677  25.531  1.00  0.00    -0.356 N 
ATOM      4  C   UNL A   1      31.852  28.419  24.264  1.00  0.00     0.227 C 
ATOM      5  O   UNL A   1      31.035  28.628  23.355  1.00  0.00    -0.274 OA
ATOM      6  H   UNL A   1      30.495  29.000  25.574  1.00  0.00     0.163 HD
BRANCH   4   7
ATOM      7  C   UNL A   1      33.256  27.903  23.898  1.00  0.00     0.105 C 
ATOM      8  C   UNL A   1      33.980  28.681  22.802  1.00  0.00     0.023 C 
BRANCH   7   9
ATOM      9  C   UNL A   1      33.328  26.387  23.774  1.00  0.00    -0.035 A 
ATOM     10  C   UNL A   1      34.400  24.255  24.393  1.00  0.00    -0.015 A 
ATOM     11  C   UNL A   1      34.348  25.666  24.421  1.00  0.00     0.013 A 
ATOM     12  C   UNL A   1      33.313  23.551  23.828  1.00  0.00    -0.039 A 
ATOM     13  C   UNL A   1      32.350  24.270  23.107  1.00  0.00     0.004 A 
ATOM     14  C   UNL A   1      32.396  25.662  23.037  1.00  0.00     0.005 A 
BRANCH  10  15
ATOM     15  C   UNL A   1      35.635  23.573  24.824  1.00  0.00    -0.018 A 
ATOM     16  C   UNL A   1      39.229  21.434  25.937  1.00  0.00     0.044 C 
ATOM     17  C   UNL A   1      37.998  22.197  25.549  1.00  0.00    -0.051 A 
ATOM     18  C   UNL A   1      37.261  21.789  24.436  1.00  0.00     0.004 A 
ATOM     19  C   UNL A   1      37.557  23.301  26.289  1.00  0.00     0.004 A 
ATOM     20  C   UNL A   1      36.106  22.478  24.073  1.00  0.00     0.009 A 
ATOM     21  C   UNL A   1      36.389  23.986  25.928  1.00  0.00     0.009 A 
ENDBRANCH  10  15
BRANCH  12  22
ATOM     22  C   UNL A   1      33.125  22.052  23.977  1.00  0.00     0.047 C 
BRANCH  22  23
ATOM     23  C   UNL A   1      32.495  21.567  25.291  1.00  0.00     0.060 C 
ATOM     24  C   UNL A   1      33.445  21.156  26.421  1.00  0.00     0.012 C 
ATOM     25  C   UNL A   1      31.643  22.620  25.959  1.00  0.00     0.136 C 
ATOM     26  C   UNL A   1      33.505  22.339  27.379  1.00  0.00     0.009 C 
ATOM     27  C   UNL A   1      32.107  22.940  27.354  1.00  0.00     0.076 C 
ATOM     28  O   UNL A   1      30.657  23.123  25.432  1.00  0.00    -0.299 OA
ENDBRANCH  22  23
ENDBRANCH  12  22
ENDBRANCH   7   9
ENDBRANCH   4   7
ENDBRANCH   2   3
ENDBRANCH   1   2
BRANCH   1  29
ATOM     29  C   UNL A   1      34.371  29.660  27.124  1.00  0.00     0.118 C 
BRANCH  29  30
ATOM     30  N   UNL A   1      35.044  30.865  27.626  1.00  0.00    -0.352 N 
ATOM     31  C   UNL A   1      36.346  31.015  28.057  1.00  0.00     0.251 C 
ATOM     32  H   UNL A   1      34.489  31.676  27.660  1.00  0.00     0.163 HD
ATOM     33  O   UNL A   1      36.794  32.077  28.453  1.00  0.00    -0.269 OA
BRANCH  31  34
ATOM     34  C   UNL A   1      37.196  29.820  27.974  1.00  0.00     0.039 A 
ATOM     35  C   UNL A   1      37.304  29.019  29.115  1.00  0.00     0.014 A 
ATOM     36  C   UNL A   1      38.101  29.731  26.921  1.00  0.00     0.014 A 
ATOM     37  C   UNL A   1      38.444  28.242  29.282  1.00  0.00     0.010 A 
ATOM     38  C   UNL A   1      39.269  29.026  27.131  1.00  0.00     0.010 A 
ATOM     39  C   UNL A   1      39.464  28.327  28.333  1.00  0.00    -0.014 A 
BRANCH  39  40
ATOM     40  C   UNL A   1      40.810  27.815  28.568  1.00  0.00     0.031 A 
ATOM     41  C   UNL A   1      41.155  26.425  28.187  1.00  0.00     0.074 A 
ATOM     42  C   UNL A   1      41.775  28.606  29.092  1.00  0.00     0.049 A 
ATOM     43  N   UNL A   1      42.077  25.726  28.764  1.00  0.00    -0.248 NA
ATOM     44  C   UNL A   1      40.441  25.691  27.145  1.00  0.00     0.031 C 
ATOM     45  C   UNL A   1      43.210  28.332  29.091  1.00  0.00     0.029 A 
ATOM     46  N   UNL A   1      41.647  29.722  29.923  1.00  0.00    -0.354 N 
ATOM     47  C   UNL A   1      42.278  24.605  27.994  1.00  0.00     0.074 A 
ATOM     48  C   UNL A   1      41.184  24.585  27.050  1.00  0.00     0.031 C 
ATOM     49  C   UNL A   1      43.779  29.023  30.089  1.00  0.00     0.029 A 
ATOM     50  C   UNL A   1      42.713  29.663  30.837  1.00  0.00     0.049 A 
ATOM     51  H   UNL A   1      40.947  30.413  29.877  1.00  0.00     0.167 HD
ATOM     52  C   UNL A   1      43.426  23.882  28.113  1.00  0.00     0.031 A 
ATOM     53  C   UNL A   1      42.583  29.650  32.196  1.00  0.00     0.031 A 
ATOM     54  C   UNL A   1      44.319  24.413  29.134  1.00  0.00     0.049 A 
ATOM     55  C   UNL A   1      43.262  28.474  32.857  1.00  0.00     0.074 A 
ATOM     56  C   UNL A   1      45.441  25.224  29.069  1.00  0.00     0.029 A 
ATOM     57  N   UNL A   1      43.952  24.351  30.471  1.00  0.00    -0.354 N 
ATOM     58  N   UNL A   1      43.698  27.433  32.207  1.00  0.00    -0.248 NA
ATOM     59  C   UNL A   1      43.435  28.336  34.302  1.00  0.00     0.031 C 
ATOM     60  C   UNL A   1      45.724  25.687  30.377  1.00  0.00     0.029 A 
ATOM     61  C   UNL A   1      44.782  25.149  31.234  1.00  0.00     0.049 A 
ATOM     62  H   UNL A   1      43.206  23.815  30.825  1.00  0.00     0.167 HD
ATOM     63  C   UNL A   1      44.146  26.488  33.094  1.00  0.00     0.074 A 
ATOM     64  C   UNL A   1      43.987  27.113  34.394  1.00  0.00     0.031 C 
ATOM     65  C   UNL A   1      44.576  25.264  32.671  1.00  0.00     0.031 A 
BRANCH  52  66
ATOM     66  C   UNL A   1      43.856  22.887  27.064  1.00  0.00    -0.014 A 
ATOM     67  C   UNL A   1      42.987  21.837  26.705  1.00  0.00     0.010 A 
ATOM     68  C   UNL A   1      45.119  22.901  26.442  1.00  0.00     0.010 A 
ATOM     69  C   UNL A   1      43.393  20.794  25.864  1.00  0.00     0.020 A 
ATOM     70  C   UNL A   1      45.553  21.843  25.629  1.00  0.00     0.020 A 
ATOM     71  C   UNL A   1      44.690  20.785  25.357  1.00  0.00     0.054 A 
BRANCH  71  72
ATOM     72  S   UNL A   1      45.228  19.369  24.366  1.00  0.00     0.124 S 
ATOM     73  O   UNL A   1      44.488  19.553  23.120  1.00  0.00    -0.237 OA
ATOM     74  O   UNL A   1      46.670  19.579  24.278  1.00  0.00    -0.237 OA
ATOM     75  O   UNL A   1      44.814  18.213  25.160  1.00  0.00    -0.744 OA
ENDBRANCH  71  72
ENDBRANCH  52  66
BRANCH  53  76
ATOM     76  C   UNL A   1      41.350  30.300  32.709  1.00  0.00    -0.014 A 
ATOM     77  C   UNL A   1      40.265  29.466  33.042  1.00  0.00     0.010 A 
ATOM     78  C   UNL A   1      41.410  31.599  33.244  1.00  0.00     0.010 A 
ATOM     79  C   UNL A   1      39.350  29.858  34.021  1.00  0.00     0.020 A 
ATOM     80  C   UNL A   1      40.493  31.992  34.227  1.00  0.00     0.020 A 
ATOM     81  C   UNL A   1      39.510  31.093  34.650  1.00  0.00     0.054 A 
BRANCH  81  82
ATOM     82  S   UNL A   1      38.559  31.396  36.168  1.00  0.00     0.124 S 
ATOM     83  O   UNL A   1      39.534  32.076  37.014  1.00  0.00    -0.237 OA
ATOM     84  O   UNL A   1      37.463  32.229  35.674  1.00  0.00    -0.237 OA
ATOM     85  O   UNL A   1      38.175  30.055  36.597  1.00  0.00    -0.744 OA
ENDBRANCH  81  82
ENDBRANCH  53  76
BRANCH  65  86
ATOM     86  C   UNL A   1      44.911  24.077  33.541  1.00  0.00    -0.014 A 
ATOM     87  C   UNL A   1      44.011  23.049  33.863  1.00  0.00     0.010 A 
ATOM     88  C   UNL A   1      46.252  23.909  33.971  1.00  0.00     0.010 A 
ATOM     89  C   UNL A   1      44.413  21.939  34.623  1.00  0.00     0.020 A 
ATOM     90  C   UNL A   1      46.672  22.788  34.692  1.00  0.00     0.020 A 
ATOM     91  C   UNL A   1      45.740  21.817  35.036  1.00  0.00     0.054 A 
BRANCH  91  92
ATOM     92  S   UNL A   1      46.267  20.351  35.960  1.00  0.00     0.124 S 
ATOM     93  O   UNL A   1      45.779  20.649  37.303  1.00  0.00    -0.237 OA
ATOM     94  O   UNL A   1      45.577  19.262  35.270  1.00  0.00    -0.237 OA
ATOM     95  O   UNL A   1      47.719  20.354  35.803  1.00  0.00    -0.744 OA
ENDBRANCH  91  92
ENDBRANCH  65  86
ENDBRANCH  39  40
ENDBRANCH  31  34
ENDBRANCH  29  30
ENDBRANCH   1  29
TORSDOF 17
ENDMDL
MODEL 2
REMARK VINA RESULT:     -13.5      1.250      2.573
REMARK SMILES Cc1ccc(-c2cc([C@@H](C)C(=O)NCCCNC(=O)c3ccc(-c4c5nc(c(-c6ccc(S(=O)(=O)[O-])cc6)c6ccc([nH]6)c(-c6ccc(S(=O)(=O)[O-])cc6)c6nc(c(-c7ccc(S(=O)(=O)[O-])cc7)c7ccc4[nH]7)C=C6)C=C5)cc3)ccc2C[C@H]2CCCC2=O)cc1
REMARK SMILES IDX 15 1 14 2 13 3 11 4 12 5 9 7 10 8 8 9 6 10 7 11 82 12 81 13
REMARK SMILES IDX 80 14 5 15 1 16 2 17 3 18 91 19 4 20 90 21 83 22 84 23 85 24
REMARK SMILES IDX 88 25 86 26 87 27 89 28 16 29 17 30 18 31 19 33 20 34 21 35
REMARK SMILES IDX 79 36 22 37 78 38 23 39 24 40 25 41 72 42 26 43 77 44 71 45
REMARK SMILES IDX 73 46 27 47 76 48 70 49 69 50 28 52 58 53 39 54 57 55 40 56
REMARK SMILES IDX 43 57 56 58 74 59 41 60 42 61 55 63 75 64 44 65 29 66 30 67
REMARK SMILES IDX 38 68 31 69 37 70 32 71 33 72 34 73 35 74 36 75 59 76 60 77
REMARK SMILES IDX 68 78 61 79 67 80 62 81 63 82 64 83 65 84 66 85 45 86 46 87
REMARK SMILES IDX 54 88 47 89 53 90 48 91 49 92 50 93 51 94 52 95
REMARK H PARENT 13 6 17 32 73 51 43 62
REMARK Flexibility Score: inf
ROOT
ATOM      1  C   UNL A   1      33.789  29.696  26.066  1.00  0.00     0.042 C 
ENDROOT
BRANCH   1   2
ATOM      2  C   UNL A   1      32.297  29.563  25.768  1.00  0.00     0.117 C 
BRANCH   2   3
ATOM      3  N   UNL A   1      31.661  28.477  26.497  1.00  0.00    -0.356 N 
ATOM      4  C   UNL A   1      31.337  27.198  26.158  1.00  0.00     0.227 C 
ATOM      5  O   UNL A   1      30.783  26.521  27.034  1.00  0.00    -0.274 OA
ATOM      6  H   UNL A   1      31.415  28.713  27.421  1.00  0.00     0.163 HD
BRANCH   4   7
ATOM      7  C   UNL A   1      31.605  26.560  24.781  1.00  0.00     0.105 C 
ATOM      8  C   UNL A   1      30.363  26.166  23.985  1.00  0.00     0.023 C 
BRANCH   7   9
ATOM      9  C   UNL A   1      32.718  25.523  24.803  1.00  0.00    -0.035 A 
ATOM     10  C   UNL A   1      33.474  23.210  24.405  1.00  0.00    -0.015 A 
ATOM     11  C   UNL A   1      32.452  24.183  24.471  1.00  0.00     0.013 A 
ATOM     12  C   UNL A   1      34.816  23.634  24.526  1.00  0.00    -0.039 A 
ATOM     13  C   UNL A   1      35.070  24.947  24.947  1.00  0.00     0.004 A 
ATOM     14  C   UNL A   1      34.030  25.855  25.136  1.00  0.00     0.005 A 
BRANCH  10  15
ATOM     15  C   UNL A   1      33.106  21.783  24.349  1.00  0.00    -0.018 A 
ATOM     16  C   UNL A   1      32.090  17.576  24.379  1.00  0.00     0.044 C 
ATOM     17  C   UNL A   1      32.418  19.039  24.362  1.00  0.00    -0.051 A 
ATOM     18  C   UNL A   1      32.910  19.646  25.519  1.00  0.00     0.004 A 
ATOM     19  C   UNL A   1      32.258  19.811  23.205  1.00  0.00     0.004 A 
ATOM     20  C   UNL A   1      33.234  21.001  25.512  1.00  0.00     0.009 A 
ATOM     21  C   UNL A   1      32.595  21.172  23.199  1.00  0.00     0.009 A 
ENDBRANCH  10  15
BRANCH  12  22
ATOM     22  C   UNL A   1      36.003  22.742  24.207  1.00  0.00     0.047 C 
BRANCH  22  23
ATOM     23  C   UNL A   1      36.549  21.889  25.362  1.00  0.00     0.060 C 
ATOM     24  C   UNL A   1      36.781  20.398  25.091  1.00  0.00     0.012 C 
ATOM     25  C   UNL A   1      37.910  22.342  25.835  1.00  0.00     0.136 C 
ATOM     26  C   UNL A   1      38.273  20.240  24.828  1.00  0.00     0.009 C 
ATOM     27  C   UNL A   1      38.946  21.254  25.742  1.00  0.00     0.076 C 
ATOM     28  O   UNL A   1      38.129  23.460  26.285  1.00  0.00    -0.299 OA
ENDBRANCH  22  23
ENDBRANCH  12  22
ENDBRANCH   7   9
ENDBRANCH   4   7
ENDBRANCH   2   3
ENDBRANCH   1   2
BRANCH   1  29
ATOM     29  C   UNL A   1      34.146  29.647  27.546  1.00  0.00     0.118 C 
BRANCH  29  30
ATOM     30  N   UNL A   1      34.853  30.869  27.945  1.00  0.00    -0.352 N 
ATOM     31  C   UNL A   1      36.186  31.037  28.263  1.00  0.00     0.251 C 
ATOM     32  H   UNL A   1      34.300  31.681  27.992  1.00  0.00     0.163 HD
ATOM     33  O   UNL A   1      36.661  32.113  28.579  1.00  0.00    -0.269 OA
BRANCH  31  34
ATOM     34  C   UNL A   1      37.030  29.839  28.159  1.00  0.00     0.039 A 
ATOM     35  C   UNL A   1      37.170  29.041  29.298  1.00  0.00     0.014 A 
ATOM     36  C   UNL A   1      37.903  29.745  27.079  1.00  0.00     0.014 A 
ATOM     37  C   UNL A   1      38.312  28.261  29.434  1.00  0.00     0.010 A 
ATOM     38  C   UNL A   1      39.075  29.038  27.256  1.00  0.00     0.010 A 
ATOM     39  C   UNL A   1      39.304  28.341  28.455  1.00  0.00    -0.014 A 
BRANCH  39  40
ATOM     40  C   UNL A   1      40.655  27.826  28.651  1.00  0.00     0.031 A 
ATOM     41  C   UNL A   1      40.985  26.434  28.263  1.00  0.00     0.074 A 
ATOM     42  C   UNL A   1      41.637  28.617  29.144  1.00  0.00     0.049 A 
ATOM     43  N   UNL A   1      41.922  25.735  28.816  1.00  0.00    -0.248 NA
ATOM     44  C   UNL A   1      40.239  25.700  27.245  1.00  0.00     0.031 C 
ATOM     45  C   UNL A   1      43.071  28.338  29.102  1.00  0.00     0.029 A 
ATOM     46  N   UNL A   1      41.536  29.734  29.975  1.00  0.00    -0.354 N 
ATOM     47  C   UNL A   1      42.098  24.611  28.043  1.00  0.00     0.074 A 
ATOM     48  C   UNL A   1      40.976  24.592  27.132  1.00  0.00     0.031 C 
ATOM     49  C   UNL A   1      43.671  29.031  30.080  1.00  0.00     0.029 A 
ATOM     50  C   UNL A   1      42.628  29.676  30.858  1.00  0.00     0.049 A 
ATOM     51  H   UNL A   1      40.837  30.427  29.948  1.00  0.00     0.167 HD
ATOM     52  C   UNL A   1      43.246  23.885  28.130  1.00  0.00     0.031 A 
ATOM     53  C   UNL A   1      42.539  29.667  32.220  1.00  0.00     0.031 A 
ATOM     54  C   UNL A   1      44.170  24.417  29.122  1.00  0.00     0.049 A 
ATOM     55  C   UNL A   1      43.234  28.491  32.863  1.00  0.00     0.074 A 
ATOM     56  C   UNL A   1      45.292  25.225  29.023  1.00  0.00     0.029 A 
ATOM     57  N   UNL A   1      43.843  24.359  30.470  1.00  0.00    -0.354 N 
ATOM     58  N   UNL A   1      43.648  27.446  32.204  1.00  0.00    -0.248 NA
ATOM     59  C   UNL A   1      43.449  28.356  34.303  1.00  0.00     0.031 C 
ATOM     60  C   UNL A   1      45.615  25.691  30.320  1.00  0.00     0.029 A 
ATOM     61  C   UNL A   1      44.697  25.157  31.206  1.00  0.00     0.049 A 
ATOM     62  H   UNL A   1      43.106  23.826  30.847  1.00  0.00     0.167 HD
ATOM     63  C   UNL A   1      44.119  26.503  33.080  1.00  0.00     0.074 A 
ATOM     64  C   UNL A   1      44.001  27.131  34.382  1.00  0.00     0.031 C 
ATOM     65  C   UNL A   1      44.534  25.277  32.648  1.00  0.00     0.031 A 
BRANCH  52  66
ATOM     66  C   UNL A   1      43.642  22.886  27.071  1.00  0.00    -0.014 A 
ATOM     67  C   UNL A   1      42.814  21.774  26.821  1.00  0.00     0.010 A 
ATOM     68  C   UNL A   1      44.841  22.959  26.335  1.00  0.00     0.010 A 
ATOM     69  C   UNL A   1      43.208  20.732  25.973  1.00  0.00     0.020 A 
ATOM     70  C   UNL A   1      45.267  21.904  25.513  1.00  0.00     0.020 A 
ATOM     71  C   UNL A   1      44.452  20.788  25.348  1.00  0.00     0.054 A 
BRANCH  71  72
ATOM     72  S   UNL A   1      44.989  19.377  24.349  1.00  0.00     0.124 S 
ATOM     73  O   UNL A   1      44.228  18.271  24.926  1.00  0.00    -0.237 OA
ATOM     74  O   UNL A   1      44.591  19.778  23.002  1.00  0.00    -0.237 OA
ATOM     75  O   UNL A   1      46.430  19.316  24.581  1.00  0.00    -0.744 OA
ENDBRANCH  71  72
ENDBRANCH  52  66
BRANCH  53  76
ATOM     76  C   UNL A   1      41.323  30.321  32.767  1.00  0.00    -0.014 A 
ATOM     77  C   UNL A   1      40.279  29.487  33.213  1.00  0.00     0.010 A 
ATOM     78  C   UNL A   1      41.384  31.651  33.221  1.00  0.00     0.010 A 
ATOM     79  C   UNL A   1      39.414  29.917  34.220  1.00  0.00     0.020 A 
ATOM     80  C   UNL A   1      40.517  32.083  34.233  1.00  0.00     0.020 A 
ATOM     81  C   UNL A   1      39.582  31.190  34.766  1.00  0.00     0.054 A 
BRANCH  81  82
ATOM     82  S   UNL A   1      38.715  31.564  36.318  1.00  0.00     0.124 S 
ATOM     83  O   UNL A   1      38.058  30.297  36.620  1.00  0.00    -0.237 OA
ATOM     84  O   UNL A   1      39.825  31.924  37.201  1.00  0.00    -0.237 OA
ATOM     85  O   UNL A   1      37.830  32.665  35.952  1.00  0.00    -0.744 OA
ENDBRANCH  81  82
ENDBRANCH  53  76
BRANCH  65  86
ATOM     86  C   UNL A   1      44.892  24.091  33.511  1.00  0.00    -0.014 A 
ATOM     87  C   UNL A   1      43.995  23.074  33.875  1.00  0.00     0.010 A 
ATOM     88  C   UNL A   1      46.246  23.912  33.889  1.00  0.00     0.010 A 
ATOM     89  C   UNL A   1      44.415  21.964  34.625  1.00  0.00     0.020 A 
ATOM     90  C   UNL A   1      46.684  22.791  34.599  1.00  0.00     0.020 A 
ATOM     91  C   UNL A   1      45.757  21.831  34.985  1.00  0.00     0.054 A 
BRANCH  91  92
ATOM     92  S   UNL A   1      46.305  20.365  35.896  1.00  0.00     0.124 S 
ATOM     93  O   UNL A   1      47.677  20.210  35.421  1.00  0.00    -0.237 OA
ATOM     94  O   UNL A   1      46.169  20.775  37.292  1.00  0.00    -0.237 OA
ATOM     95  O   UNL A   1      45.370  19.328  35.467  1.00  0.00    -0.744 OA
ENDBRANCH  91  92
ENDBRANCH  65  86
ENDBRANCH  39  40
ENDBRANCH  31  34
ENDBRANCH  29  30
ENDBRANCH   1  29
TORSDOF 17
ENDMDL
MODEL 3
REMARK VINA RESULT:     -13.3      4.658     11.373
REMARK SMILES Cc1ccc(-c2cc([C@@H](C)C(=O)NCCCNC(=O)c3ccc(-c4c5nc(c(-c6ccc(S(=O)(=O)[O-])cc6)c6ccc([nH]6)c(-c6ccc(S(=O)(=O)[O-])cc6)c6nc(c(-c7ccc(S(=O)(=O)[O-])cc7)c7ccc4[nH]7)C=C6)C=C5)cc3)ccc2C[C@H]2CCCC2=O)cc1
REMARK SMILES IDX 15 1 14 2 13 3 11 4 12 5 9 7 10 8 8 9 6 10 7 11 82 12 81 13
REMARK SMILES IDX 80 14 5 15 1 16 2 17 3 18 91 19 4 20 90 21 83 22 84 23 85 24
REMARK SMILES IDX 88 25 86 26 87 27 89 28 16 29 17 30 18 31 19 33 20 34 21 35
REMARK SMILES IDX 79 36 22 37 78 38 23 39 24 40 25 41 72 42 26 43 77 44 71 45
REMARK SMILES IDX 73 46 27 47 76 48 70 49 69 50 28 52 58 53 39 54 57 55 40 56
REMARK SMILES IDX 43 57 56 58 74 59 41 60 42 61 55 63 75 64 44 65 29 66 30 67
REMARK SMILES IDX 38 68 31 69 37 70 32 71 33 72 34 73 35 74 36 75 59 76 60 77
REMARK SMILES IDX 68 78 61 79 67 80 62 81 63 82 64 83 65 84 66 85 45 86 46 87
REMARK SMILES IDX 54 88 47 89 53 90 48 91 49 92 50 93 51 94 52 95
REMARK H PARENT 13 6 17 32 73 51 43 62
REMARK Flexibility Score: inf
ROOT
ATOM      1  C   UNL A   1      37.074  22.559  26.201  1.00  0.00     0.042 C 
ENDROOT
BRANCH   1   2
ATOM      2  C   UNL A   1      36.553  21.573  25.157  1.00  0.00     0.117 C 
BRANCH   2   3
ATOM      3  N   UNL A   1      36.184  22.209  23.902  1.00  0.00    -0.356 N 
ATOM      4  C   UNL A   1      35.029  22.776  23.455  1.00  0.00     0.227 C 
ATOM      5  O   UNL A   1      35.051  23.232  22.303  1.00  0.00    -0.274 OA
ATOM      6  H   UNL A   1      36.916  22.236  23.244  1.00  0.00     0.163 HD
BRANCH   4   7
ATOM      7  C   UNL A   1      33.726  22.875  24.271  1.00  0.00     0.105 C 
ATOM      8  C   UNL A   1      32.545  22.074  23.728  1.00  0.00     0.023 C 
BRANCH   7   9
ATOM      9  C   UNL A   1      33.399  24.294  24.714  1.00  0.00    -0.035 A 
ATOM     10  C   UNL A   1      31.788  26.154  24.861  1.00  0.00    -0.015 A 
ATOM     11  C   UNL A   1      32.156  24.871  24.400  1.00  0.00     0.013 A 
ATOM     12  C   UNL A   1      32.633  26.805  25.788  1.00  0.00    -0.039 A 
ATOM     13  C   UNL A   1      33.907  26.271  26.025  1.00  0.00     0.004 A 
ATOM     14  C   UNL A   1      34.298  25.064  25.448  1.00  0.00     0.005 A 
BRANCH  10  15
ATOM     15  C   UNL A   1      30.618  26.825  24.264  1.00  0.00    -0.018 A 
ATOM     16  C   UNL A   1      27.312  28.938  22.438  1.00  0.00     0.044 C 
ATOM     17  C   UNL A   1      28.450  28.185  23.057  1.00  0.00    -0.051 A 
ATOM     18  C   UNL A   1      29.755  28.647  22.881  1.00  0.00     0.004 A 
ATOM     19  C   UNL A   1      28.235  27.034  23.826  1.00  0.00     0.004 A 
ATOM     20  C   UNL A   1      30.822  27.967  23.465  1.00  0.00     0.009 A 
ATOM     21  C   UNL A   1      29.309  26.358  24.421  1.00  0.00     0.009 A 
ENDBRANCH  10  15
BRANCH  12  22
ATOM     22  C   UNL A   1      32.223  28.049  26.556  1.00  0.00     0.047 C 
BRANCH  22  23
ATOM     23  C   UNL A   1      32.733  29.391  26.010  1.00  0.00     0.060 C 
ATOM     24  C   UNL A   1      31.714  30.526  25.860  1.00  0.00     0.012 C 
ATOM     25  C   UNL A   1      33.786  30.022  26.890  1.00  0.00     0.136 C 
ATOM     26  C   UNL A   1      31.903  31.430  27.072  1.00  0.00     0.009 C 
ATOM     27  C   UNL A   1      33.397  31.397  27.364  1.00  0.00     0.076 C 
ATOM     28  O   UNL A   1      34.858  29.486  27.149  1.00  0.00    -0.299 OA
ENDBRANCH  22  23
ENDBRANCH  12  22
ENDBRANCH   7   9
ENDBRANCH   4   7
ENDBRANCH   2   3
ENDBRANCH   1   2
BRANCH   1  29
ATOM     29  C   UNL A   1      38.128  23.530  25.685  1.00  0.00     0.118 C 
BRANCH  29  30
ATOM     30  N   UNL A   1      39.438  23.226  26.272  1.00  0.00    -0.352 N 
ATOM     31  C   UNL A   1      40.278  24.049  26.994  1.00  0.00     0.251 C 
ATOM     32  H   UNL A   1      39.762  22.308  26.131  1.00  0.00     0.163 HD
ATOM     33  O   UNL A   1      41.350  23.677  27.437  1.00  0.00    -0.269 OA
BRANCH  31  34
ATOM     34  C   UNL A   1      39.788  25.411  27.244  1.00  0.00     0.039 A 
ATOM     35  C   UNL A   1      40.388  26.457  26.539  1.00  0.00     0.014 A 
ATOM     36  C   UNL A   1      39.024  25.633  28.386  1.00  0.00     0.014 A 
ATOM     37  C   UNL A   1      40.371  27.734  27.089  1.00  0.00     0.010 A 
ATOM     38  C   UNL A   1      39.084  26.881  28.971  1.00  0.00     0.010 A 
ATOM     39  C   UNL A   1      39.803  27.917  28.351  1.00  0.00    -0.014 A 
BRANCH  39  40
ATOM     40  C   UNL A   1      40.013  29.120  29.148  1.00  0.00     0.031 A 
ATOM     41  C   UNL A   1      38.973  30.175  29.192  1.00  0.00     0.074 A 
ATOM     42  C   UNL A   1      41.132  29.276  29.893  1.00  0.00     0.049 A 
ATOM     43  N   UNL A   1      39.221  31.425  29.416  1.00  0.00    -0.248 NA
ATOM     44  C   UNL A   1      37.561  29.904  28.932  1.00  0.00     0.031 C 
ATOM     45  C   UNL A   1      41.331  30.259  30.956  1.00  0.00     0.029 A 
ATOM     46  N   UNL A   1      42.401  28.723  29.706  1.00  0.00    -0.354 N 
ATOM     47  C   UNL A   1      38.013  32.046  29.628  1.00  0.00     0.074 A 
ATOM     48  C   UNL A   1      37.011  31.083  29.234  1.00  0.00     0.031 C 
ATOM     49  C   UNL A   1      42.647  30.465  31.109  1.00  0.00     0.029 A 
ATOM     50  C   UNL A   1      43.327  29.717  30.068  1.00  0.00     0.049 A 
ATOM     51  H   UNL A   1      42.606  27.816  29.383  1.00  0.00     0.167 HD
ATOM     52  C   UNL A   1      37.958  33.251  30.261  1.00  0.00     0.031 A 
ATOM     53  C   UNL A   1      44.312  30.205  29.259  1.00  0.00     0.031 A 
ATOM     54  C   UNL A   1      39.276  33.759  30.613  1.00  0.00     0.049 A 
ATOM     55  C   UNL A   1      44.273  31.707  29.099  1.00  0.00     0.074 A 
ATOM     56  C   UNL A   1      40.003  33.748  31.792  1.00  0.00     0.029 A 
ATOM     57  N   UNL A   1      40.156  34.146  29.610  1.00  0.00    -0.354 N 
ATOM     58  N   UNL A   1      43.264  32.446  29.462  1.00  0.00    -0.248 NA
ATOM     59  C   UNL A   1      45.325  32.487  28.449  1.00  0.00     0.031 C 
ATOM     60  C   UNL A   1      41.343  34.092  31.487  1.00  0.00     0.029 A 
ATOM     61  C   UNL A   1      41.425  34.321  30.126  1.00  0.00     0.049 A 
ATOM     62  H   UNL A   1      39.909  34.277  28.666  1.00  0.00     0.167 HD
ATOM     63  C   UNL A   1      43.477  33.743  29.071  1.00  0.00     0.074 A 
ATOM     64  C   UNL A   1      44.795  33.724  28.466  1.00  0.00     0.031 C 
ATOM     65  C   UNL A   1      42.527  34.705  29.256  1.00  0.00     0.031 A 
BRANCH  52  66
ATOM     66  C   UNL A   1      36.674  33.791  30.839  1.00  0.00    -0.014 A 
ATOM     67  C   UNL A   1      35.551  33.956  30.004  1.00  0.00     0.010 A 
ATOM     68  C   UNL A   1      36.530  34.205  32.178  1.00  0.00     0.010 A 
ATOM     69  C   UNL A   1      34.390  34.604  30.442  1.00  0.00     0.020 A 
ATOM     70  C   UNL A   1      35.389  34.891  32.620  1.00  0.00     0.020 A 
ATOM     71  C   UNL A   1      34.329  35.100  31.742  1.00  0.00     0.054 A 
BRANCH  71  72
ATOM     72  S   UNL A   1      32.863  36.034  32.250  1.00  0.00     0.124 S 
ATOM     73  O   UNL A   1      32.511  36.760  31.031  1.00  0.00    -0.237 OA
ATOM     74  O   UNL A   1      31.937  34.976  32.641  1.00  0.00    -0.237 OA
ATOM     75  O   UNL A   1      33.349  36.873  33.344  1.00  0.00    -0.744 OA
ENDBRANCH  71  72
ENDBRANCH  52  66
BRANCH  53  76
ATOM     76  C   UNL A   1      44.779  29.264  28.210  1.00  0.00    -0.014 A 
ATOM     77  C   UNL A   1      45.456  28.103  28.631  1.00  0.00     0.010 A 
ATOM     78  C   UNL A   1      44.202  29.299  26.927  1.00  0.00     0.010 A 
ATOM     79  C   UNL A   1      45.412  26.942  27.857  1.00  0.00     0.020 A 
ATOM     80  C   UNL A   1      44.156  28.134  26.151  1.00  0.00     0.020 A 
ATOM     81  C   UNL A   1      44.708  26.951  26.652  1.00  0.00     0.054 A 
BRANCH  81  82
ATOM     82  S   UNL A   1      44.339  25.349  25.879  1.00  0.00     0.124 S 
ATOM     83  O   UNL A   1      45.442  25.197  24.937  1.00  0.00    -0.237 OA
ATOM     84  O   UNL A   1      44.365  24.447  27.031  1.00  0.00    -0.237 OA
ATOM     85  O   UNL A   1      43.022  25.558  25.285  1.00  0.00    -0.744 OA
ENDBRANCH  81  82
ENDBRANCH  53  76
BRANCH  65  86
ATOM     86  C   UNL A   1      42.552  36.112  28.709  1.00  0.00    -0.014 A 
ATOM     87  C   UNL A   1      43.241  37.183  29.300  1.00  0.00     0.010 A 
ATOM     88  C   UNL A   1      41.944  36.361  27.452  1.00  0.00     0.010 A 
ATOM     89  C   UNL A   1      43.275  38.450  28.697  1.00  0.00     0.020 A 
ATOM     90  C   UNL A   1      42.008  37.607  26.823  1.00  0.00     0.020 A 
ATOM     91  C   UNL A   1      42.655  38.656  27.464  1.00  0.00     0.054 A 
BRANCH  91  92
ATOM     92  S   UNL A   1      42.759  40.276  26.661  1.00  0.00     0.124 S 
ATOM     93  O   UNL A   1      43.874  40.085  25.739  1.00  0.00    -0.237 OA
ATOM     94  O   UNL A   1      41.446  40.417  26.034  1.00  0.00    -0.237 OA
ATOM     95  O   UNL A   1      43.010  41.191  27.772  1.00  0.00    -0.744 OA
ENDBRANCH  91  92
ENDBRANCH  65  86
ENDBRANCH  39  40
ENDBRANCH  31  34
ENDBRANCH  29  30
ENDBRANCH   1  29
TORSDOF 17
ENDMDL
