MODEL 1
REMARK VINA RESULT:     -10.9      0.000      0.000
REMARK SMILES COc1cccc(S(=O)(=O)N[C@H](CC(C)C)C(=O)NCCCNC(=O)c2ccc(-c3c4nc(c(-c5ccc(S(=O)(=O)[O-])cc5)c5ccc([nH]5)c(-c5ccc(S(=O)(=O)[O-])cc5)c5nc(c(-c6ccc(S(=O)(=O)[O-])cc6)c6ccc3[nH]6)C=C5)C=C4)cc2)c1
REMARK SMILES IDX 20 1 19 2 17 3 18 4 12 6 11 7 8 9 9 10 10 11 7 12 3 13 4 14
REMARK SMILES IDX 86 15 5 16 6 17 2 18 1 19 13 20 14 21 15 22 16 23 21 24
REMARK SMILES IDX 22 25 23 26 24 27 25 29 26 30 27 31 85 32 28 33 84 34 29 35
REMARK SMILES IDX 30 36 31 37 78 38 32 39 83 40 77 41 79 42 33 43 82 44 76 45
REMARK SMILES IDX 75 46 34 48 64 49 45 50 63 51 46 52 49 53 62 54 80 55 47 56
REMARK SMILES IDX 48 57 61 59 81 60 50 61 35 62 36 63 44 64 37 65 43 66 38 67
REMARK SMILES IDX 39 68 40 69 41 70 42 71 65 72 66 73 74 74 67 75 73 76 68 77
REMARK SMILES IDX 69 78 70 79 71 80 72 81 51 82 52 83 60 84 53 85 59 86 54 87
REMARK SMILES IDX 55 88 56 89 57 90 58 91
REMARK H PARENT 19 5 11 8 23 28 79 47 49 58
REMARK Flexibility Score: inf
ROOT
ATOM      1  C   UNL A   1      33.377  29.785  26.447  1.00  0.00     0.117 C 
ENDROOT
BRANCH   1   2
ATOM      2  N   UNL A   1      32.008  29.423  26.797  1.00  0.00    -0.355 N 
ATOM      3  C   UNL A   1      31.492  28.156  26.870  1.00  0.00     0.238 C 
ATOM      4  O   UNL A   1      31.019  27.830  27.969  1.00  0.00    -0.273 OA
ATOM      5  H   UNL A   1      31.392  30.163  27.001  1.00  0.00     0.163 HD
BRANCH   3   6
ATOM      6  C   UNL A   1      31.374  27.169  25.669  1.00  0.00     0.159 C 
BRANCH   6   7
ATOM      7  N   UNL A   1      31.854  25.823  26.075  1.00  0.00    -0.199 NA
ATOM      8  H   UNL A   1      32.739  25.670  25.594  1.00  0.00     0.142 HD
BRANCH   7   9
ATOM      9  S   UNL A   1      30.900  24.453  25.787  1.00  0.00     0.241 S 
ATOM     10  O   UNL A   1      30.513  24.411  24.401  1.00  0.00    -0.207 OA
ATOM     11  O   UNL A   1      29.910  24.458  26.850  1.00  0.00    -0.207 OA
BRANCH   9  12
ATOM     12  C   UNL A   1      31.992  23.083  26.105  1.00  0.00     0.086 A 
ATOM     13  C   UNL A   1      32.834  20.922  25.468  1.00  0.00     0.120 A 
ATOM     14  C   UNL A   1      33.820  21.003  26.449  1.00  0.00     0.046 A 
ATOM     15  C   UNL A   1      31.875  21.923  25.333  1.00  0.00     0.068 A 
ATOM     16  C   UNL A   1      33.881  22.124  27.279  1.00  0.00     0.005 A 
ATOM     17  C   UNL A   1      32.971  23.170  27.104  1.00  0.00     0.022 A 
BRANCH  13  18
ATOM     18  O   UNL A   1      32.797  19.842  24.629  1.00  0.00    -0.497 OA
ATOM     19  C   UNL A   1      32.699  18.628  25.384  1.00  0.00     0.278 C 
ENDBRANCH  13  18
ENDBRANCH   9  12
ENDBRANCH   7   9
ENDBRANCH   6   7
BRANCH   6  20
ATOM     20  C   UNL A   1      31.875  27.584  24.282  1.00  0.00     0.033 C 
BRANCH  20  21
ATOM     21  C   UNL A   1      33.299  27.183  23.822  1.00  0.00    -0.015 C 
ATOM     22  C   UNL A   1      33.363  25.967  22.903  1.00  0.00     0.007 C 
ATOM     23  C   UNL A   1      33.968  28.355  23.078  1.00  0.00     0.007 C 
ENDBRANCH  20  21
ENDBRANCH   6  20
ENDBRANCH   3   6
ENDBRANCH   1   2
BRANCH   1  24
ATOM     24  C   UNL A   1      34.122  30.590  27.508  1.00  0.00     0.042 C 
BRANCH  24  25
ATOM     25  C   UNL A   1      35.423  30.000  28.036  1.00  0.00     0.118 C 
BRANCH  25  26
ATOM     26  N   UNL A   1      35.513  30.140  29.480  1.00  0.00    -0.352 N 
ATOM     27  C   UNL A   1      36.525  29.865  30.369  1.00  0.00     0.251 C 
ATOM     28  H   UNL A   1      34.697  30.498  29.899  1.00  0.00     0.163 HD
ATOM     29  O   UNL A   1      36.203  29.722  31.550  1.00  0.00    -0.269 OA
BRANCH  27  30
ATOM     30  C   UNL A   1      37.968  29.766  29.996  1.00  0.00     0.039 A 
ATOM     31  C   UNL A   1      38.308  29.945  28.645  1.00  0.00     0.014 A 
ATOM     32  C   UNL A   1      38.968  29.349  30.878  1.00  0.00     0.014 A 
ATOM     33  C   UNL A   1      39.606  29.676  28.184  1.00  0.00     0.010 A 
ATOM     34  C   UNL A   1      40.286  29.167  30.435  1.00  0.00     0.010 A 
ATOM     35  C   UNL A   1      40.608  29.270  29.074  1.00  0.00    -0.014 A 
BRANCH  35  36
ATOM     36  C   UNL A   1      41.949  28.838  28.581  1.00  0.00     0.031 A 
ATOM     37  C   UNL A   1      43.092  29.829  28.534  1.00  0.00     0.074 A 
ATOM     38  C   UNL A   1      42.156  27.571  28.169  1.00  0.00     0.049 A 
ATOM     39  N   UNL A   1      44.330  29.653  28.140  1.00  0.00    -0.248 NA
ATOM     40  C   UNL A   1      42.798  31.206  28.963  1.00  0.00     0.031 C 
ATOM     41  C   UNL A   1      41.143  26.514  28.138  1.00  0.00     0.029 A 
ATOM     42  N   UNL A   1      43.291  26.954  27.703  1.00  0.00    -0.354 N 
ATOM     43  C   UNL A   1      44.944  30.899  28.239  1.00  0.00     0.074 A 
ATOM     44  C   UNL A   1      43.932  31.830  28.686  1.00  0.00     0.031 C 
ATOM     45  C   UNL A   1      41.712  25.372  27.717  1.00  0.00     0.029 A 
ATOM     46  C   UNL A   1      43.120  25.620  27.419  1.00  0.00     0.049 A 
ATOM     47  H   UNL A   1      44.148  27.424  27.583  1.00  0.00     0.167 HD
ATOM     48  C   UNL A   1      46.234  31.241  28.000  1.00  0.00     0.031 A 
ATOM     49  C   UNL A   1      43.997  24.694  26.983  1.00  0.00     0.031 A 
ATOM     50  C   UNL A   1      47.253  30.310  27.592  1.00  0.00     0.049 A 
ATOM     51  C   UNL A   1      45.432  25.086  26.754  1.00  0.00     0.074 A 
ATOM     52  C   UNL A   1      48.603  30.542  27.389  1.00  0.00     0.029 A 
ATOM     53  N   UNL A   1      47.035  28.966  27.329  1.00  0.00    -0.354 N 
ATOM     54  N   UNL A   1      46.002  26.257  26.906  1.00  0.00    -0.248 NA
ATOM     55  C   UNL A   1      46.346  24.021  26.315  1.00  0.00     0.031 C 
ATOM     56  C   UNL A   1      49.193  29.345  26.966  1.00  0.00     0.029 A 
ATOM     57  C   UNL A   1      48.221  28.358  26.954  1.00  0.00     0.049 A 
ATOM     58  H   UNL A   1      46.165  28.511  27.400  1.00  0.00     0.167 HD
ATOM     59  C   UNL A   1      47.349  26.063  26.616  1.00  0.00     0.074 A 
ATOM     60  C   UNL A   1      47.507  24.660  26.287  1.00  0.00     0.031 C 
ATOM     61  C   UNL A   1      48.364  26.962  26.630  1.00  0.00     0.031 A 
BRANCH  48  62
ATOM     62  C   UNL A   1      46.609  32.693  28.163  1.00  0.00    -0.014 A 
ATOM     63  C   UNL A   1      46.363  33.633  27.145  1.00  0.00     0.010 A 
ATOM     64  C   UNL A   1      47.214  33.126  29.358  1.00  0.00     0.010 A 
ATOM     65  C   UNL A   1      46.774  34.961  27.291  1.00  0.00     0.020 A 
ATOM     66  C   UNL A   1      47.599  34.462  29.521  1.00  0.00     0.020 A 
ATOM     67  C   UNL A   1      47.400  35.365  28.474  1.00  0.00     0.054 A 
BRANCH  67  68
ATOM     68  S   UNL A   1      47.938  37.089  28.634  1.00  0.00     0.124 S 
ATOM     69  O   UNL A   1      47.822  37.568  27.259  1.00  0.00    -0.237 OA
ATOM     70  O   UNL A   1      46.970  37.645  29.575  1.00  0.00    -0.237 OA
ATOM     71  O   UNL A   1      49.304  36.980  29.142  1.00  0.00    -0.744 OA
ENDBRANCH  67  68
ENDBRANCH  48  62
BRANCH  49  72
ATOM     72  C   UNL A   1      43.554  23.285  26.793  1.00  0.00    -0.014 A 
ATOM     73  C   UNL A   1      43.526  22.720  25.505  1.00  0.00     0.010 A 
ATOM     74  C   UNL A   1      43.185  22.492  27.894  1.00  0.00     0.010 A 
ATOM     75  C   UNL A   1      43.127  21.395  25.319  1.00  0.00     0.020 A 
ATOM     76  C   UNL A   1      42.809  21.157  27.716  1.00  0.00     0.020 A 
ATOM     77  C   UNL A   1      42.775  20.619  26.427  1.00  0.00     0.054 A 
BRANCH  77  78
ATOM     78  S   UNL A   1      42.330  18.878  26.171  1.00  0.00     0.124 S 
ATOM     79  O   UNL A   1      43.287  18.467  25.150  1.00  0.00    -0.237 OA
ATOM     80  O   UNL A   1      42.533  18.302  27.498  1.00  0.00    -0.237 OA
ATOM     81  O   UNL A   1      40.937  18.943  25.737  1.00  0.00    -0.744 OA
ENDBRANCH  77  78
ENDBRANCH  49  72
BRANCH  61  82
ATOM     82  C   UNL A   1      49.746  26.447  26.329  1.00  0.00    -0.014 A 
ATOM     83  C   UNL A   1      50.298  26.541  25.039  1.00  0.00     0.010 A 
ATOM     84  C   UNL A   1      50.515  25.886  27.365  1.00  0.00     0.010 A 
ATOM     85  C   UNL A   1      51.578  26.040  24.781  1.00  0.00     0.020 A 
ATOM     86  C   UNL A   1      51.803  25.409  27.118  1.00  0.00     0.020 A 
ATOM     87  C   UNL A   1      52.319  25.471  25.821  1.00  0.00     0.054 A 
BRANCH  87  88
ATOM     88  S   UNL A   1      53.984  24.843  25.470  1.00  0.00     0.124 S 
ATOM     89  O   UNL A   1      53.713  23.455  25.106  1.00  0.00    -0.237 OA
ATOM     90  O   UNL A   1      54.430  25.703  24.376  1.00  0.00    -0.237 OA
ATOM     91  O   UNL A   1      54.698  25.030  26.731  1.00  0.00    -0.744 OA
ENDBRANCH  87  88
ENDBRANCH  61  82
ENDBRANCH  35  36
ENDBRANCH  27  30
ENDBRANCH  25  26
ENDBRANCH  24  25
ENDBRANCH   1  24
TORSDOF 19
ENDMDL
MODEL 2
REMARK VINA RESULT:     -10.6      0.682      8.248
REMARK SMILES COc1cccc(S(=O)(=O)N[C@H](CC(C)C)C(=O)NCCCNC(=O)c2ccc(-c3c4nc(c(-c5ccc(S(=O)(=O)[O-])cc5)c5ccc([nH]5)c(-c5ccc(S(=O)(=O)[O-])cc5)c5nc(c(-c6ccc(S(=O)(=O)[O-])cc6)c6ccc3[nH]6)C=C5)C=C4)cc2)c1
REMARK SMILES IDX 20 1 19 2 17 3 18 4 12 6 11 7 8 9 9 10 10 11 7 12 3 13 4 14
REMARK SMILES IDX 86 15 5 16 6 17 2 18 1 19 13 20 14 21 15 22 16 23 21 24
REMARK SMILES IDX 22 25 23 26 24 27 25 29 26 30 27 31 85 32 28 33 84 34 29 35
REMARK SMILES IDX 30 36 31 37 78 38 32 39 83 40 77 41 79 42 33 43 82 44 76 45
REMARK SMILES IDX 75 46 34 48 64 49 45 50 63 51 46 52 49 53 62 54 80 55 47 56
REMARK SMILES IDX 48 57 61 59 81 60 50 61 35 62 36 63 44 64 37 65 43 66 38 67
REMARK SMILES IDX 39 68 40 69 41 70 42 71 65 72 66 73 74 74 67 75 73 76 68 77
REMARK SMILES IDX 69 78 70 79 71 80 72 81 51 82 52 83 60 84 53 85 59 86 54 87
REMARK SMILES IDX 55 88 56 89 57 90 58 91
REMARK H PARENT 19 5 11 8 23 28 79 47 49 58
REMARK Flexibility Score: inf
ROOT
ATOM      1  C   UNL A   1      33.517  29.645  26.450  1.00  0.00     0.117 C 
ENDROOT
BRANCH   1   2
ATOM      2  N   UNL A   1      32.147  29.296  26.813  1.00  0.00    -0.355 N 
ATOM      3  C   UNL A   1      31.610  28.036  26.853  1.00  0.00     0.238 C 
ATOM      4  O   UNL A   1      31.152  27.681  27.949  1.00  0.00    -0.273 OA
ATOM      5  H   UNL A   1      31.549  30.039  27.054  1.00  0.00     0.163 HD
BRANCH   3   6
ATOM      6  C   UNL A   1      31.452  27.093  25.622  1.00  0.00     0.159 C 
BRANCH   6   7
ATOM      7  N   UNL A   1      31.968  25.741  25.955  1.00  0.00    -0.199 NA
ATOM      8  H   UNL A   1      32.822  25.612  25.412  1.00  0.00     0.142 HD
BRANCH   7   9
ATOM      9  S   UNL A   1      31.010  24.371  25.688  1.00  0.00     0.241 S 
ATOM     10  O   UNL A   1      30.627  24.305  24.301  1.00  0.00    -0.207 OA
ATOM     11  O   UNL A   1      30.015  24.399  26.746  1.00  0.00    -0.207 OA
BRANCH   9  12
ATOM     12  C   UNL A   1      32.094  23.001  26.035  1.00  0.00     0.086 A 
ATOM     13  C   UNL A   1      32.893  20.805  25.468  1.00  0.00     0.120 A 
ATOM     14  C   UNL A   1      33.907  20.915  26.418  1.00  0.00     0.046 A 
ATOM     15  C   UNL A   1      31.942  21.811  25.317  1.00  0.00     0.068 A 
ATOM     16  C   UNL A   1      34.003  22.069  27.197  1.00  0.00     0.005 A 
ATOM     17  C   UNL A   1      33.102  23.119  27.002  1.00  0.00     0.022 A 
BRANCH  13  18
ATOM     18  O   UNL A   1      32.820  19.690  24.679  1.00  0.00    -0.497 OA
ATOM     19  C   UNL A   1      32.703  18.513  25.487  1.00  0.00     0.278 C 
ENDBRANCH  13  18
ENDBRANCH   9  12
ENDBRANCH   7   9
ENDBRANCH   6   7
BRANCH   6  20
ATOM     20  C   UNL A   1      31.884  27.568  24.231  1.00  0.00     0.033 C 
BRANCH  20  21
ATOM     21  C   UNL A   1      33.311  27.260  23.717  1.00  0.00    -0.015 C 
ATOM     22  C   UNL A   1      33.424  26.035  22.815  1.00  0.00     0.007 C 
ATOM     23  C   UNL A   1      33.865  28.462  22.927  1.00  0.00     0.007 C 
ENDBRANCH  20  21
ENDBRANCH   6  20
ENDBRANCH   3   6
ENDBRANCH   1   2
BRANCH   1  24
ATOM     24  C   UNL A   1      34.255  30.507  27.470  1.00  0.00     0.042 C 
BRANCH  24  25
ATOM     25  C   UNL A   1      35.542  29.937  28.052  1.00  0.00     0.118 C 
BRANCH  25  26
ATOM     26  N   UNL A   1      35.566  30.073  29.500  1.00  0.00    -0.352 N 
ATOM     27  C   UNL A   1      36.558  29.854  30.427  1.00  0.00     0.251 C 
ATOM     28  H   UNL A   1      34.715  30.379  29.887  1.00  0.00     0.163 HD
ATOM     29  O   UNL A   1      36.200  29.684  31.594  1.00  0.00    -0.269 OA
BRANCH  27  30
ATOM     30  C   UNL A   1      38.018  29.844  30.111  1.00  0.00     0.039 A 
ATOM     31  C   UNL A   1      38.401  30.081  28.780  1.00  0.00     0.014 A 
ATOM     32  C   UNL A   1      39.004  29.457  31.021  1.00  0.00     0.014 A 
ATOM     33  C   UNL A   1      39.728  29.896  28.365  1.00  0.00     0.010 A 
ATOM     34  C   UNL A   1      40.346  29.360  30.627  1.00  0.00     0.010 A 
ATOM     35  C   UNL A   1      40.716  29.519  29.284  1.00  0.00    -0.014 A 
BRANCH  35  36
ATOM     36  C   UNL A   1      42.097  29.176  28.835  1.00  0.00     0.031 A 
ATOM     37  C   UNL A   1      42.398  27.789  28.309  1.00  0.00     0.074 A 
ATOM     38  C   UNL A   1      43.088  30.087  28.900  1.00  0.00     0.049 A 
ATOM     39  N   UNL A   1      43.530  27.293  27.872  1.00  0.00    -0.248 NA
ATOM     40  C   UNL A   1      41.285  26.826  28.296  1.00  0.00     0.031 C 
ATOM     41  C   UNL A   1      42.950  31.455  29.403  1.00  0.00     0.029 A 
ATOM     42  N   UNL A   1      44.409  30.003  28.530  1.00  0.00    -0.354 N 
ATOM     43  C   UNL A   1      43.271  25.958  27.570  1.00  0.00     0.074 A 
ATOM     44  C   UNL A   1      41.890  25.711  27.916  1.00  0.00     0.031 C 
ATOM     45  C   UNL A   1      44.126  32.092  29.274  1.00  0.00     0.029 A 
ATOM     46  C   UNL A   1      45.109  31.173  28.707  1.00  0.00     0.049 A 
ATOM     47  H   UNL A   1      44.816  29.181  28.172  1.00  0.00     0.167 HD
ATOM     48  C   UNL A   1      44.096  25.024  27.036  1.00  0.00     0.031 A 
ATOM     49  C   UNL A   1      46.392  31.479  28.432  1.00  0.00     0.031 A 
ATOM     50  C   UNL A   1      45.461  25.276  26.655  1.00  0.00     0.049 A 
ATOM     51  C   UNL A   1      47.284  30.438  27.811  1.00  0.00     0.074 A 
ATOM     52  C   UNL A   1      46.359  24.417  26.045  1.00  0.00     0.029 A 
ATOM     53  N   UNL A   1      46.123  26.480  26.842  1.00  0.00    -0.354 N 
ATOM     54  N   UNL A   1      47.003  29.199  27.485  1.00  0.00    -0.248 NA
ATOM     55  C   UNL A   1      48.662  30.847  27.501  1.00  0.00     0.031 C 
ATOM     56  C   UNL A   1      47.578  25.091  25.898  1.00  0.00     0.029 A 
ATOM     57  C   UNL A   1      47.421  26.384  26.371  1.00  0.00     0.049 A 
ATOM     58  H   UNL A   1      45.727  27.284  27.248  1.00  0.00     0.167 HD
ATOM     59  C   UNL A   1      48.158  28.692  26.898  1.00  0.00     0.074 A 
ATOM     60  C   UNL A   1      49.136  29.760  26.908  1.00  0.00     0.031 C 
ATOM     61  C   UNL A   1      48.384  27.455  26.387  1.00  0.00     0.031 A 
BRANCH  48  62
ATOM     62  C   UNL A   1      43.542  23.633  26.849  1.00  0.00    -0.014 A 
ATOM     63  C   UNL A   1      43.355  22.764  27.940  1.00  0.00     0.010 A 
ATOM     64  C   UNL A   1      43.196  23.190  25.558  1.00  0.00     0.010 A 
ATOM     65  C   UNL A   1      42.898  21.458  27.737  1.00  0.00     0.020 A 
ATOM     66  C   UNL A   1      42.708  21.894  25.355  1.00  0.00     0.020 A 
ATOM     67  C   UNL A   1      42.588  21.028  26.443  1.00  0.00     0.054 A 
BRANCH  67  68
ATOM     68  S   UNL A   1      42.012  19.325  26.203  1.00  0.00     0.124 S 
ATOM     69  O   UNL A   1      42.351  18.711  27.485  1.00  0.00    -0.237 OA
ATOM     70  O   UNL A   1      40.584  19.499  25.950  1.00  0.00    -0.237 OA
ATOM     71  O   UNL A   1      42.792  18.853  25.061  1.00  0.00    -0.744 OA
ENDBRANCH  67  68
ENDBRANCH  48  62
BRANCH  49  72
ATOM     72  C   UNL A   1      46.896  32.857  28.687  1.00  0.00    -0.014 A 
ATOM     73  C   UNL A   1      47.495  33.175  29.920  1.00  0.00     0.010 A 
ATOM     74  C   UNL A   1      46.806  33.851  27.695  1.00  0.00     0.010 A 
ATOM     75  C   UNL A   1      47.984  34.461  30.161  1.00  0.00     0.020 A 
ATOM     76  C   UNL A   1      47.318  35.132  27.923  1.00  0.00     0.020 A 
ATOM     77  C   UNL A   1      47.897  35.431  29.159  1.00  0.00     0.054 A 
BRANCH  77  78
ATOM     78  S   UNL A   1      48.605  37.074  29.467  1.00  0.00     0.124 S 
ATOM     79  O   UNL A   1      49.714  36.763  30.362  1.00  0.00    -0.237 OA
ATOM     80  O   UNL A   1      48.977  37.514  28.125  1.00  0.00    -0.237 OA
ATOM     81  O   UNL A   1      47.499  37.813  30.071  1.00  0.00    -0.744 OA
ENDBRANCH  77  78
ENDBRANCH  49  72
BRANCH  61  82
ATOM     82  C   UNL A   1      49.726  27.206  25.753  1.00  0.00    -0.014 A 
ATOM     83  C   UNL A   1      50.787  26.638  26.480  1.00  0.00     0.010 A 
ATOM     84  C   UNL A   1      49.916  27.521  24.395  1.00  0.00     0.010 A 
ATOM     85  C   UNL A   1      52.028  26.432  25.872  1.00  0.00     0.020 A 
ATOM     86  C   UNL A   1      51.147  27.292  23.776  1.00  0.00     0.020 A 
ATOM     87  C   UNL A   1      52.202  26.766  24.526  1.00  0.00     0.054 A 
BRANCH  87  88
ATOM     88  S   UNL A   1      53.816  26.475  23.750  1.00  0.00     0.124 S 
ATOM     89  O   UNL A   1      54.490  27.753  23.964  1.00  0.00    -0.237 OA
ATOM     90  O   UNL A   1      54.345  25.350  24.517  1.00  0.00    -0.237 OA
ATOM     91  O   UNL A   1      53.482  26.171  22.360  1.00  0.00    -0.744 OA
ENDBRANCH  87  88
ENDBRANCH  61  82
ENDBRANCH  35  36
ENDBRANCH  27  30
ENDBRANCH  25  26
ENDBRANCH  24  25
ENDBRANCH   1  24
TORSDOF 19
ENDMDL
MODEL 3
REMARK VINA RESULT:      -9.8      4.824     11.974
REMARK SMILES COc1cccc(S(=O)(=O)N[C@H](CC(C)C)C(=O)NCCCNC(=O)c2ccc(-c3c4nc(c(-c5ccc(S(=O)(=O)[O-])cc5)c5ccc([nH]5)c(-c5ccc(S(=O)(=O)[O-])cc5)c5nc(c(-c6ccc(S(=O)(=O)[O-])cc6)c6ccc3[nH]6)C=C5)C=C4)cc2)c1
REMARK SMILES IDX 20 1 19 2 17 3 18 4 12 6 11 7 8 9 9 10 10 11 7 12 3 13 4 14
REMARK SMILES IDX 86 15 5 16 6 17 2 18 1 19 13 20 14 21 15 22 16 23 21 24
REMARK SMILES IDX 22 25 23 26 24 27 25 29 26 30 27 31 85 32 28 33 84 34 29 35
REMARK SMILES IDX 30 36 31 37 78 38 32 39 83 40 77 41 79 42 33 43 82 44 76 45
REMARK SMILES IDX 75 46 34 48 64 49 45 50 63 51 46 52 49 53 62 54 80 55 47 56
REMARK SMILES IDX 48 57 61 59 81 60 50 61 35 62 36 63 44 64 37 65 43 66 38 67
REMARK SMILES IDX 39 68 40 69 41 70 42 71 65 72 66 73 74 74 67 75 73 76 68 77
REMARK SMILES IDX 69 78 70 79 71 80 72 81 51 82 52 83 60 84 53 85 59 86 54 87
REMARK SMILES IDX 55 88 56 89 57 90 58 91
REMARK H PARENT 19 5 11 8 23 28 79 47 49 58
REMARK Flexibility Score: inf
ROOT
ATOM      1  C   UNL A   1      45.741  39.892  26.555  1.00  0.00     0.117 C 
ENDROOT
BRANCH   1   2
ATOM      2  N   UNL A   1      44.391  39.702  26.036  1.00  0.00    -0.355 N 
ATOM      3  C   UNL A   1      43.219  39.968  26.694  1.00  0.00     0.238 C 
ATOM      4  O   UNL A   1      42.465  40.783  26.141  1.00  0.00    -0.273 OA
ATOM      5  H   UNL A   1      44.314  39.347  25.121  1.00  0.00     0.163 HD
BRANCH   3   6
ATOM      6  C   UNL A   1      42.744  39.257  27.997  1.00  0.00     0.159 C 
BRANCH   6   7
ATOM      7  N   UNL A   1      41.959  38.044  27.650  1.00  0.00    -0.199 NA
ATOM      8  H   UNL A   1      41.238  37.948  28.364  1.00  0.00     0.142 HD
BRANCH   7   9
ATOM      9  S   UNL A   1      42.724  36.538  27.526  1.00  0.00     0.241 S 
ATOM     10  O   UNL A   1      43.940  36.670  26.766  1.00  0.00    -0.207 OA
ATOM     11  O   UNL A   1      41.675  35.619  27.122  1.00  0.00    -0.207 OA
BRANCH   9  12
ATOM     12  C   UNL A   1      43.155  36.124  29.204  1.00  0.00     0.086 A 
ATOM     13  C   UNL A   1      42.639  34.950  31.238  1.00  0.00     0.120 A 
ATOM     14  C   UNL A   1      43.885  35.289  31.764  1.00  0.00     0.046 A 
ATOM     15  C   UNL A   1      42.238  35.419  29.990  1.00  0.00     0.068 A 
ATOM     16  C   UNL A   1      44.765  36.068  31.012  1.00  0.00     0.005 A 
ATOM     17  C   UNL A   1      44.405  36.482  29.727  1.00  0.00     0.022 A 
BRANCH  13  18
ATOM     18  O   UNL A   1      41.791  34.155  31.959  1.00  0.00    -0.497 OA
ATOM     19  C   UNL A   1      40.437  34.356  31.536  1.00  0.00     0.278 C 
ENDBRANCH  13  18
ENDBRANCH   9  12
ENDBRANCH   7   9
ENDBRANCH   6   7
BRANCH   6  20
ATOM     20  C   UNL A   1      42.108  40.071  29.128  1.00  0.00     0.033 C 
BRANCH  20  21
ATOM     21  C   UNL A   1      42.952  40.468  30.365  1.00  0.00    -0.015 C 
ATOM     22  C   UNL A   1      44.436  40.126  30.271  1.00  0.00     0.007 C 
ATOM     23  C   UNL A   1      42.847  41.984  30.618  1.00  0.00     0.007 C 
ENDBRANCH  20  21
ENDBRANCH   6  20
ENDBRANCH   3   6
ENDBRANCH   1   2
BRANCH   1  24
ATOM     24  C   UNL A   1      46.462  38.610  26.962  1.00  0.00     0.042 C 
BRANCH  24  25
ATOM     25  C   UNL A   1      47.070  38.572  28.359  1.00  0.00     0.118 C 
BRANCH  25  26
ATOM     26  N   UNL A   1      48.408  38.005  28.331  1.00  0.00    -0.352 N 
ATOM     27  C   UNL A   1      48.874  36.737  28.585  1.00  0.00     0.251 C 
ATOM     28  H   UNL A   1      49.111  38.649  28.085  1.00  0.00     0.163 HD
ATOM     29  O   UNL A   1      50.071  36.628  28.856  1.00  0.00    -0.269 OA
BRANCH  27  30
ATOM     30  C   UNL A   1      48.033  35.504  28.522  1.00  0.00     0.039 A 
ATOM     31  C   UNL A   1      47.959  34.702  29.674  1.00  0.00     0.014 A 
ATOM     32  C   UNL A   1      47.455  35.021  27.346  1.00  0.00     0.014 A 
ATOM     33  C   UNL A   1      47.356  33.436  29.637  1.00  0.00     0.010 A 
ATOM     34  C   UNL A   1      46.773  33.796  27.331  1.00  0.00     0.010 A 
ATOM     35  C   UNL A   1      46.767  32.962  28.458  1.00  0.00    -0.014 A 
BRANCH  35  36
ATOM     36  C   UNL A   1      46.254  31.564  28.360  1.00  0.00     0.031 A 
ATOM     37  C   UNL A   1      44.806  31.266  28.686  1.00  0.00     0.074 A 
ATOM     38  C   UNL A   1      47.069  30.556  27.989  1.00  0.00     0.049 A 
ATOM     39  N   UNL A   1      44.168  30.121  28.662  1.00  0.00    -0.248 NA
ATOM     40  C   UNL A   1      43.974  32.399  29.119  1.00  0.00     0.031 C 
ATOM     41  C   UNL A   1      48.491  30.692  27.665  1.00  0.00     0.029 A 
ATOM     42  N   UNL A   1      46.816  29.217  27.814  1.00  0.00    -0.354 N 
ATOM     43  C   UNL A   1      42.878  30.393  29.111  1.00  0.00     0.074 A 
ATOM     44  C   UNL A   1      42.838  31.800  29.442  1.00  0.00     0.031 C 
ATOM     45  C   UNL A   1      48.973  29.494  27.293  1.00  0.00     0.029 A 
ATOM     46  C   UNL A   1      47.906  28.500  27.379  1.00  0.00     0.049 A 
ATOM     47  H   UNL A   1      45.937  28.809  27.983  1.00  0.00     0.167 HD
ATOM     48  C   UNL A   1      41.814  29.559  29.222  1.00  0.00     0.031 A 
ATOM     49  C   UNL A   1      48.032  27.195  27.069  1.00  0.00     0.031 A 
ATOM     50  C   UNL A   1      41.839  28.168  28.858  1.00  0.00     0.049 A 
ATOM     51  C   UNL A   1      46.833  26.292  27.168  1.00  0.00     0.074 A 
ATOM     52  C   UNL A   1      40.798  27.254  28.870  1.00  0.00     0.029 A 
ATOM     53  N   UNL A   1      42.962  27.489  28.410  1.00  0.00    -0.354 N 
ATOM     54  N   UNL A   1      45.610  26.582  27.544  1.00  0.00    -0.248 NA
ATOM     55  C   UNL A   1      47.028  24.887  26.780  1.00  0.00     0.031 C 
ATOM     56  C   UNL A   1      41.303  26.012  28.465  1.00  0.00     0.029 A 
ATOM     57  C   UNL A   1      42.645  26.165  28.154  1.00  0.00     0.049 A 
ATOM     58  H   UNL A   1      43.853  27.889  28.291  1.00  0.00     0.167 HD
ATOM     59  C   UNL A   1      44.881  25.406  27.402  1.00  0.00     0.074 A 
ATOM     60  C   UNL A   1      45.799  24.403  26.901  1.00  0.00     0.031 C 
ATOM     61  C   UNL A   1      43.568  25.179  27.656  1.00  0.00     0.031 A 
BRANCH  48  62
ATOM     62  C   UNL A   1      40.535  30.136  29.777  1.00  0.00    -0.014 A 
ATOM     63  C   UNL A   1      39.522  30.625  28.931  1.00  0.00     0.010 A 
ATOM     64  C   UNL A   1      40.340  30.185  31.170  1.00  0.00     0.010 A 
ATOM     65  C   UNL A   1      38.372  31.211  29.466  1.00  0.00     0.020 A 
ATOM     66  C   UNL A   1      39.176  30.742  31.710  1.00  0.00     0.020 A 
ATOM     67  C   UNL A   1      38.211  31.277  30.853  1.00  0.00     0.054 A 
BRANCH  67  68
ATOM     68  S   UNL A   1      36.717  32.057  31.524  1.00  0.00     0.124 S 
ATOM     69  O   UNL A   1      36.025  30.915  32.118  1.00  0.00    -0.237 OA
ATOM     70  O   UNL A   1      37.256  33.026  32.474  1.00  0.00    -0.237 OA
ATOM     71  O   UNL A   1      36.070  32.634  30.348  1.00  0.00    -0.744 OA
ENDBRANCH  67  68
ENDBRANCH  48  62
BRANCH  49  72
ATOM     72  C   UNL A   1      49.337  26.673  26.574  1.00  0.00    -0.014 A 
ATOM     73  C   UNL A   1      49.692  26.825  25.221  1.00  0.00     0.010 A 
ATOM     74  C   UNL A   1      50.240  26.047  27.451  1.00  0.00     0.010 A 
ATOM     75  C   UNL A   1      50.920  26.354  24.752  1.00  0.00     0.020 A 
ATOM     76  C   UNL A   1      51.481  25.596  26.991  1.00  0.00     0.020 A 
ATOM     77  C   UNL A   1      51.810  25.745  25.642  1.00  0.00     0.054 A 
BRANCH  77  78
ATOM     78  S   UNL A   1      53.430  25.205  25.026  1.00  0.00     0.124 S 
ATOM     79  O   UNL A   1      53.355  23.759  25.204  1.00  0.00    -0.237 OA
ATOM     80  O   UNL A   1      53.415  25.675  23.643  1.00  0.00    -0.237 OA
ATOM     81  O   UNL A   1      54.374  25.897  25.900  1.00  0.00    -0.744 OA
ENDBRANCH  77  78
ENDBRANCH  49  72
BRANCH  61  82
ATOM     82  C   UNL A   1      43.033  23.806  27.348  1.00  0.00    -0.014 A 
ATOM     83  C   UNL A   1      43.054  22.779  28.307  1.00  0.00     0.010 A 
ATOM     84  C   UNL A   1      42.475  23.551  26.082  1.00  0.00     0.010 A 
ATOM     85  C   UNL A   1      42.566  21.508  27.991  1.00  0.00     0.020 A 
ATOM     86  C   UNL A   1      41.962  22.290  25.770  1.00  0.00     0.020 A 
ATOM     87  C   UNL A   1      42.029  21.270  26.722  1.00  0.00     0.054 A 
BRANCH  87  88
ATOM     88  S   UNL A   1      41.386  19.618  26.337  1.00  0.00     0.124 S 
ATOM     89  O   UNL A   1      41.496  18.942  27.627  1.00  0.00    -0.237 OA
ATOM     90  O   UNL A   1      40.024  19.898  25.889  1.00  0.00    -0.237 OA
ATOM     91  O   UNL A   1      42.288  19.129  25.297  1.00  0.00    -0.744 OA
ENDBRANCH  87  88
ENDBRANCH  61  82
ENDBRANCH  35  36
ENDBRANCH  27  30
ENDBRANCH  25  26
ENDBRANCH  24  25
ENDBRANCH   1  24
TORSDOF 19
ENDMDL
