MODEL 1
REMARK VINA RESULT:     -10.8      0.000      0.000
REMARK SMILES O=C(CSc1ccccc1C(=O)NCCCNC(=O)c1ccc(-c2c3nc(c(-c4ccc(S(=O)(=O)[O-])cc4)c4ccc([nH]4)c(-c4ccc(S(=O)(=O)[O-])cc4)c4nc(c(-c5ccc(S(=O)(=O)[O-])cc5)c5ccc2[nH]5)C=C4)C=C3)cc1)c1ccc(Cl)cc1
REMARK SMILES IDX 14 1 13 2 11 3 12 4 10 6 5 7 6 8 7 9 9 10 8 11 4 12 3 13
REMARK SMILES IDX 2 14 1 15 80 16 81 17 86 18 82 19 85 20 83 21 84 22 15 23
REMARK SMILES IDX 16 24 17 25 18 26 19 28 20 29 21 30 79 31 22 32 78 33 23 34
REMARK SMILES IDX 24 35 25 36 72 37 26 38 77 39 71 40 73 41 27 42 76 43 70 44
REMARK SMILES IDX 69 45 28 47 58 48 39 49 57 50 40 51 43 52 56 53 74 54 41 55
REMARK SMILES IDX 42 56 55 58 75 59 44 60 29 61 30 62 38 63 31 64 37 65 32 66
REMARK SMILES IDX 33 67 34 68 35 69 36 70 59 71 60 72 68 73 61 74 67 75 62 76
REMARK SMILES IDX 63 77 64 78 65 79 66 80 45 81 46 82 54 83 47 84 53 85 48 86
REMARK SMILES IDX 49 87 50 88 51 89 52 90
REMARK H PARENT 13 5 17 27 73 46 43 57
REMARK Flexibility Score: inf
ROOT
ATOM      1  C   UNL A   1      32.600  26.532  26.391  1.00  0.00     0.118 C 
ENDROOT
BRANCH   1   2
ATOM      2  N   UNL A   1      31.352  25.788  26.477  1.00  0.00    -0.352 N 
ATOM      3  C   UNL A   1      31.058  24.454  26.582  1.00  0.00     0.252 C 
ATOM      4  O   UNL A   1      29.900  24.160  26.888  1.00  0.00    -0.269 OA
ATOM      5  H   UNL A   1      30.553  26.363  26.455  1.00  0.00     0.163 HD
BRANCH   3   6
ATOM      6  C   UNL A   1      32.026  23.345  26.388  1.00  0.00     0.053 A 
ATOM      7  C   UNL A   1      32.310  22.703  25.173  1.00  0.00     0.020 A 
ATOM      8  C   UNL A   1      33.200  21.611  25.168  1.00  0.00     0.016 A 
ATOM      9  C   UNL A   1      33.735  21.102  26.351  1.00  0.00     0.001 A 
ATOM     10  C   UNL A   1      32.557  22.806  27.579  1.00  0.00     0.015 A 
ATOM     11  C   UNL A   1      33.397  21.690  27.562  1.00  0.00     0.001 A 
BRANCH   7  12
ATOM     12  S   UNL A   1      31.625  23.082  23.578  1.00  0.00    -0.117 SA
BRANCH  12  13
ATOM     13  C   UNL A   1      33.121  23.298  22.559  1.00  0.00     0.156 C 
BRANCH  13  14
ATOM     14  C   UNL A   1      34.036  24.338  23.164  1.00  0.00     0.173 C 
ATOM     15  O   UNL A   1      33.822  25.544  23.098  1.00  0.00    -0.293 OA
BRANCH  14  16
ATOM     16  C   UNL A   1      35.199  23.855  23.935  1.00  0.00     0.018 A 
ATOM     17  C   UNL A   1      35.450  24.360  25.216  1.00  0.00     0.013 A 
ATOM     18  C   UNL A   1      36.042  22.898  23.366  1.00  0.00     0.013 A 
ATOM     19  C   UNL A   1      36.581  23.939  25.913  1.00  0.00     0.021 A 
ATOM     20  C   UNL A   1      37.167  22.471  24.075  1.00  0.00     0.021 A 
ATOM     21  C   UNL A   1      37.437  23.000  25.339  1.00  0.00     0.041 A 
ATOM     22  Cl  UNL A   1      38.835  22.492  26.196  1.00  0.00    -0.084 Cl
ENDBRANCH  14  16
ENDBRANCH  13  14
ENDBRANCH  12  13
ENDBRANCH   7  12
ENDBRANCH   3   6
ENDBRANCH   1   2
BRANCH   1  23
ATOM     23  C   UNL A   1      32.431  28.004  25.980  1.00  0.00     0.042 C 
BRANCH  23  24
ATOM     24  C   UNL A   1      33.711  28.835  25.857  1.00  0.00     0.118 C 
BRANCH  24  25
ATOM     25  N   UNL A   1      33.612  30.081  26.593  1.00  0.00    -0.352 N 
ATOM     26  C   UNL A   1      34.401  30.567  27.605  1.00  0.00     0.251 C 
ATOM     27  H   UNL A   1      32.868  30.668  26.325  1.00  0.00     0.163 HD
ATOM     28  O   UNL A   1      33.972  31.499  28.288  1.00  0.00    -0.269 OA
BRANCH  26  29
ATOM     29  C   UNL A   1      35.751  30.014  27.897  1.00  0.00     0.039 A 
ATOM     30  C   UNL A   1      36.030  29.598  29.205  1.00  0.00     0.014 A 
ATOM     31  C   UNL A   1      36.781  30.025  26.951  1.00  0.00     0.014 A 
ATOM     32  C   UNL A   1      37.323  29.195  29.563  1.00  0.00     0.010 A 
ATOM     33  C   UNL A   1      38.065  29.582  27.298  1.00  0.00     0.010 A 
ATOM     34  C   UNL A   1      38.357  29.188  28.614  1.00  0.00    -0.014 A 
BRANCH  34  35
ATOM     35  C   UNL A   1      39.747  28.824  29.009  1.00  0.00     0.031 A 
ATOM     36  C   UNL A   1      40.617  29.815  29.743  1.00  0.00     0.074 A 
ATOM     37  C   UNL A   1      40.244  27.609  28.703  1.00  0.00     0.049 A 
ATOM     38  N   UNL A   1      41.849  29.680  30.164  1.00  0.00    -0.248 NA
ATOM     39  C   UNL A   1      40.029  31.134  30.026  1.00  0.00     0.031 C 
ATOM     40  C   UNL A   1      39.527  26.559  27.978  1.00  0.00     0.029 A 
ATOM     41  N   UNL A   1      41.474  27.054  28.961  1.00  0.00    -0.354 N 
ATOM     42  C   UNL A   1      42.192  30.897  30.744  1.00  0.00     0.074 A 
ATOM     43  C   UNL A   1      41.046  31.770  30.593  1.00  0.00     0.031 C 
ATOM     44  C   UNL A   1      40.324  25.483  27.862  1.00  0.00     0.029 A 
ATOM     45  C   UNL A   1      41.615  25.772  28.483  1.00  0.00     0.049 A 
ATOM     46  H   UNL A   1      42.189  27.530  29.444  1.00  0.00     0.167 HD
ATOM     47  C   UNL A   1      43.346  31.257  31.357  1.00  0.00     0.031 A 
ATOM     48  C   UNL A   1      42.661  24.924  28.533  1.00  0.00     0.031 A 
ATOM     49  C   UNL A   1      44.483  30.392  31.530  1.00  0.00     0.049 A 
ATOM     50  C   UNL A   1      43.929  25.341  29.228  1.00  0.00     0.074 A 
ATOM     51  C   UNL A   1      45.672  30.655  32.190  1.00  0.00     0.029 A 
ATOM     52  N   UNL A   1      44.577  29.098  31.043  1.00  0.00    -0.354 N 
ATOM     53  N   UNL A   1      44.206  26.477  29.824  1.00  0.00    -0.248 NA
ATOM     54  C   UNL A   1      45.021  24.357  29.269  1.00  0.00     0.031 C 
ATOM     55  C   UNL A   1      46.501  29.534  32.066  1.00  0.00     0.029 A 
ATOM     56  C   UNL A   1      45.810  28.558  31.368  1.00  0.00     0.049 A 
ATOM     57  H   UNL A   1      43.870  28.632  30.539  1.00  0.00     0.167 HD
ATOM     58  C   UNL A   1      45.496  26.334  30.328  1.00  0.00     0.074 A 
ATOM     59  C   UNL A   1      45.939  25.000  29.979  1.00  0.00     0.031 C 
ATOM     60  C   UNL A   1      46.243  27.229  31.019  1.00  0.00     0.031 A 
BRANCH  47  61
ATOM     61  C   UNL A   1      43.446  32.666  31.881  1.00  0.00    -0.014 A 
ATOM     62  C   UNL A   1      43.069  32.979  33.200  1.00  0.00     0.010 A 
ATOM     63  C   UNL A   1      43.971  33.680  31.061  1.00  0.00     0.010 A 
ATOM     64  C   UNL A   1      43.178  34.289  33.674  1.00  0.00     0.020 A 
ATOM     65  C   UNL A   1      44.102  34.987  31.538  1.00  0.00     0.020 A 
ATOM     66  C   UNL A   1      43.687  35.287  32.837  1.00  0.00     0.054 A 
BRANCH  66  67
ATOM     67  S   UNL A   1      43.833  36.977  33.482  1.00  0.00     0.124 S 
ATOM     68  O   UNL A   1      43.846  37.765  32.252  1.00  0.00    -0.237 OA
ATOM     69  O   UNL A   1      42.633  37.115  34.303  1.00  0.00    -0.237 OA
ATOM     70  O   UNL A   1      45.092  36.957  34.222  1.00  0.00    -0.744 OA
ENDBRANCH  66  67
ENDBRANCH  47  61
BRANCH  48  71
ATOM     71  C   UNL A   1      42.548  23.576  27.914  1.00  0.00    -0.014 A 
ATOM     72  C   UNL A   1      42.081  22.482  28.664  1.00  0.00     0.010 A 
ATOM     73  C   UNL A   1      42.898  23.382  26.566  1.00  0.00     0.010 A 
ATOM     74  C   UNL A   1      41.977  21.216  28.079  1.00  0.00     0.020 A 
ATOM     75  C   UNL A   1      42.773  22.124  25.972  1.00  0.00     0.020 A 
ATOM     76  C   UNL A   1      42.323  21.045  26.736  1.00  0.00     0.054 A 
BRANCH  76  77
ATOM     77  S   UNL A   1      42.126  19.408  25.977  1.00  0.00     0.124 S 
ATOM     78  O   UNL A   1      42.976  19.521  24.793  1.00  0.00    -0.237 OA
ATOM     79  O   UNL A   1      42.621  18.512  27.023  1.00  0.00    -0.237 OA
ATOM     80  O   UNL A   1      40.697  19.318  25.717  1.00  0.00    -0.744 OA
ENDBRANCH  76  77
ENDBRANCH  48  71
BRANCH  60  81
ATOM     81  C   UNL A   1      47.612  26.793  31.470  1.00  0.00    -0.014 A 
ATOM     82  C   UNL A   1      48.747  27.022  30.672  1.00  0.00     0.010 A 
ATOM     83  C   UNL A   1      47.771  26.196  32.734  1.00  0.00     0.010 A 
ATOM     84  C   UNL A   1      50.013  26.636  31.119  1.00  0.00     0.020 A 
ATOM     85  C   UNL A   1      49.037  25.828  33.193  1.00  0.00     0.020 A 
ATOM     86  C   UNL A   1      50.151  26.039  32.376  1.00  0.00     0.054 A 
BRANCH  86  87
ATOM     87  S   UNL A   1      51.810  25.586  32.957  1.00  0.00     0.124 S 
ATOM     88  O   UNL A   1      52.621  26.689  32.447  1.00  0.00    -0.237 OA
ATOM     89  O   UNL A   1      51.645  25.546  34.408  1.00  0.00    -0.237 OA
ATOM     90  O   UNL A   1      52.055  24.290  32.328  1.00  0.00    -0.744 OA
ENDBRANCH  86  87
ENDBRANCH  60  81
ENDBRANCH  34  35
ENDBRANCH  26  29
ENDBRANCH  24  25
ENDBRANCH  23  24
ENDBRANCH   1  23
TORSDOF 17
ENDMDL
MODEL 2
REMARK VINA RESULT:     -10.5      1.373      2.068
REMARK SMILES O=C(CSc1ccccc1C(=O)NCCCNC(=O)c1ccc(-c2c3nc(c(-c4ccc(S(=O)(=O)[O-])cc4)c4ccc([nH]4)c(-c4ccc(S(=O)(=O)[O-])cc4)c4nc(c(-c5ccc(S(=O)(=O)[O-])cc5)c5ccc2[nH]5)C=C4)C=C3)cc1)c1ccc(Cl)cc1
REMARK SMILES IDX 14 1 13 2 11 3 12 4 10 6 5 7 6 8 7 9 9 10 8 11 4 12 3 13
REMARK SMILES IDX 2 14 1 15 80 16 81 17 86 18 82 19 85 20 83 21 84 22 15 23
REMARK SMILES IDX 16 24 17 25 18 26 19 28 20 29 21 30 79 31 22 32 78 33 23 34
REMARK SMILES IDX 24 35 25 36 72 37 26 38 77 39 71 40 73 41 27 42 76 43 70 44
REMARK SMILES IDX 69 45 28 47 58 48 39 49 57 50 40 51 43 52 56 53 74 54 41 55
REMARK SMILES IDX 42 56 55 58 75 59 44 60 29 61 30 62 38 63 31 64 37 65 32 66
REMARK SMILES IDX 33 67 34 68 35 69 36 70 59 71 60 72 68 73 61 74 67 75 62 76
REMARK SMILES IDX 63 77 64 78 65 79 66 80 45 81 46 82 54 83 47 84 53 85 48 86
REMARK SMILES IDX 49 87 50 88 51 89 52 90
REMARK H PARENT 13 5 17 27 73 46 43 57
REMARK Flexibility Score: inf
ROOT
ATOM      1  C   UNL A   1      31.453  27.891  25.305  1.00  0.00     0.118 C 
ENDROOT
BRANCH   1   2
ATOM      2  N   UNL A   1      31.701  27.008  24.175  1.00  0.00    -0.352 N 
ATOM      3  C   UNL A   1      31.833  25.649  24.055  1.00  0.00     0.252 C 
ATOM      4  O   UNL A   1      31.789  25.182  22.914  1.00  0.00    -0.269 OA
ATOM      5  H   UNL A   1      31.792  27.486  23.319  1.00  0.00     0.163 HD
BRANCH   3   6
ATOM      6  C   UNL A   1      31.993  24.700  25.186  1.00  0.00     0.053 A 
ATOM      7  C   UNL A   1      33.194  24.400  25.845  1.00  0.00     0.020 A 
ATOM      8  C   UNL A   1      33.195  23.415  26.853  1.00  0.00     0.016 A 
ATOM      9  C   UNL A   1      32.051  22.675  27.147  1.00  0.00     0.001 A 
ATOM     10  C   UNL A   1      30.849  23.928  25.479  1.00  0.00     0.015 A 
ATOM     11  C   UNL A   1      30.879  22.919  26.444  1.00  0.00     0.001 A 
BRANCH   7  12
ATOM     12  S   UNL A   1      34.794  25.104  25.526  1.00  0.00    -0.117 SA
BRANCH  12  13
ATOM     13  C   UNL A   1      35.650  23.741  24.670  1.00  0.00     0.156 C 
BRANCH  13  14
ATOM     14  C   UNL A   1      34.767  23.140  23.601  1.00  0.00     0.173 C 
ATOM     15  O   UNL A   1      34.613  23.643  22.492  1.00  0.00    -0.293 OA
BRANCH  14  16
ATOM     16  C   UNL A   1      34.127  21.842  23.897  1.00  0.00     0.018 A 
ATOM     17  C   UNL A   1      34.784  20.906  24.702  1.00  0.00     0.013 A 
ATOM     18  C   UNL A   1      32.869  21.567  23.358  1.00  0.00     0.013 A 
ATOM     19  C   UNL A   1      34.197  19.662  24.930  1.00  0.00     0.021 A 
ATOM     20  C   UNL A   1      32.280  20.323  23.601  1.00  0.00     0.021 A 
ATOM     21  C   UNL A   1      32.951  19.374  24.376  1.00  0.00     0.041 A 
ATOM     22  Cl  UNL A   1      32.235  17.838  24.650  1.00  0.00    -0.084 Cl
ENDBRANCH  14  16
ENDBRANCH  13  14
ENDBRANCH  12  13
ENDBRANCH   7  12
ENDBRANCH   3   6
ENDBRANCH   1   2
BRANCH   1  23
ATOM     23  C   UNL A   1      32.638  28.021  26.277  1.00  0.00     0.042 C 
BRANCH  23  24
ATOM     24  C   UNL A   1      33.733  29.021  25.895  1.00  0.00     0.118 C 
BRANCH  24  25
ATOM     25  N   UNL A   1      33.643  30.238  26.679  1.00  0.00    -0.352 N 
ATOM     26  C   UNL A   1      34.436  30.678  27.709  1.00  0.00     0.251 C 
ATOM     27  H   UNL A   1      32.903  30.840  26.435  1.00  0.00     0.163 HD
ATOM     28  O   UNL A   1      34.013  31.585  28.428  1.00  0.00    -0.269 OA
BRANCH  26  29
ATOM     29  C   UNL A   1      35.781  30.105  27.978  1.00  0.00     0.039 A 
ATOM     30  C   UNL A   1      36.056  29.632  29.267  1.00  0.00     0.014 A 
ATOM     31  C   UNL A   1      36.812  30.149  27.034  1.00  0.00     0.014 A 
ATOM     32  C   UNL A   1      37.346  29.206  29.609  1.00  0.00     0.010 A 
ATOM     33  C   UNL A   1      38.094  29.684  27.363  1.00  0.00     0.010 A 
ATOM     34  C   UNL A   1      38.382  29.233  28.661  1.00  0.00    -0.014 A 
BRANCH  34  35
ATOM     35  C   UNL A   1      39.769  28.844  29.042  1.00  0.00     0.031 A 
ATOM     36  C   UNL A   1      40.660  29.815  29.776  1.00  0.00     0.074 A 
ATOM     37  C   UNL A   1      40.244  27.624  28.722  1.00  0.00     0.049 A 
ATOM     38  N   UNL A   1      41.894  29.657  30.186  1.00  0.00    -0.248 NA
ATOM     39  C   UNL A   1      40.096  31.141  30.075  1.00  0.00     0.031 C 
ATOM     40  C   UNL A   1      39.505  26.591  27.995  1.00  0.00     0.029 A 
ATOM     41  N   UNL A   1      41.467  27.048  28.965  1.00  0.00    -0.354 N 
ATOM     42  C   UNL A   1      42.261  30.865  30.772  1.00  0.00     0.074 A 
ATOM     43  C   UNL A   1      41.128  31.756  30.638  1.00  0.00     0.031 C 
ATOM     44  C   UNL A   1      40.283  25.504  27.864  1.00  0.00     0.029 A 
ATOM     45  C   UNL A   1      41.584  25.767  28.476  1.00  0.00     0.049 A 
ATOM     46  H   UNL A   1      42.194  27.508  29.446  1.00  0.00     0.167 HD
ATOM     47  C   UNL A   1      43.426  31.201  31.378  1.00  0.00     0.031 A 
ATOM     48  C   UNL A   1      42.617  24.902  28.510  1.00  0.00     0.031 A 
ATOM     49  C   UNL A   1      44.550  30.317  31.535  1.00  0.00     0.049 A 
ATOM     50  C   UNL A   1      43.897  25.294  29.198  1.00  0.00     0.074 A 
ATOM     51  C   UNL A   1      45.749  30.556  32.187  1.00  0.00     0.029 A 
ATOM     52  N   UNL A   1      44.619  29.025  31.037  1.00  0.00    -0.354 N 
ATOM     53  N   UNL A   1      44.197  26.420  29.800  1.00  0.00    -0.248 NA
ATOM     54  C   UNL A   1      44.973  24.293  29.222  1.00  0.00     0.031 C 
ATOM     55  C   UNL A   1      46.559  29.423  32.047  1.00  0.00     0.029 A 
ATOM     56  C   UNL A   1      45.846  28.463  31.347  1.00  0.00     0.049 A 
ATOM     57  H   UNL A   1      43.901  28.575  30.535  1.00  0.00     0.167 HD
ATOM     58  C   UNL A   1      45.489  26.253  30.292  1.00  0.00     0.074 A 
ATOM     59  C   UNL A   1      45.907  24.915  29.929  1.00  0.00     0.031 C 
ATOM     60  C   UNL A   1      46.256  27.131  30.983  1.00  0.00     0.031 A 
BRANCH  47  61
ATOM     61  C   UNL A   1      43.553  32.604  31.913  1.00  0.00    -0.014 A 
ATOM     62  C   UNL A   1      43.236  32.903  33.251  1.00  0.00     0.010 A 
ATOM     63  C   UNL A   1      44.042  33.626  31.080  1.00  0.00     0.010 A 
ATOM     64  C   UNL A   1      43.369  34.208  33.734  1.00  0.00     0.020 A 
ATOM     65  C   UNL A   1      44.197  34.928  31.565  1.00  0.00     0.020 A 
ATOM     66  C   UNL A   1      43.842  35.214  32.885  1.00  0.00     0.054 A 
BRANCH  66  67
ATOM     67  S   UNL A   1      44.021  36.897  33.541  1.00  0.00     0.124 S 
ATOM     68  O   UNL A   1      45.080  36.720  34.531  1.00  0.00    -0.237 OA
ATOM     69  O   UNL A   1      44.391  37.667  32.357  1.00  0.00    -0.237 OA
ATOM     70  O   UNL A   1      42.700  37.197  34.088  1.00  0.00    -0.744 OA
ENDBRANCH  66  67
ENDBRANCH  47  61
BRANCH  48  71
ATOM     71  C   UNL A   1      42.477  23.561  27.882  1.00  0.00    -0.014 A 
ATOM     72  C   UNL A   1      42.883  23.349  26.553  1.00  0.00     0.010 A 
ATOM     73  C   UNL A   1      41.945  22.486  28.615  1.00  0.00     0.010 A 
ATOM     74  C   UNL A   1      42.749  22.088  25.965  1.00  0.00     0.020 A 
ATOM     75  C   UNL A   1      41.831  21.218  28.039  1.00  0.00     0.020 A 
ATOM     76  C   UNL A   1      42.224  21.029  26.712  1.00  0.00     0.054 A 
BRANCH  76  77
ATOM     77  S   UNL A   1      42.112  19.385  25.953  1.00  0.00     0.124 S 
ATOM     78  O   UNL A   1      42.951  19.543  24.766  1.00  0.00    -0.237 OA
ATOM     79  O   UNL A   1      42.658  18.515  26.996  1.00  0.00    -0.237 OA
ATOM     80  O   UNL A   1      40.689  19.218  25.697  1.00  0.00    -0.744 OA
ENDBRANCH  76  77
ENDBRANCH  48  71
BRANCH  60  81
ATOM     81  C   UNL A   1      47.621  26.670  31.420  1.00  0.00    -0.014 A 
ATOM     82  C   UNL A   1      48.754  26.894  30.618  1.00  0.00     0.010 A 
ATOM     83  C   UNL A   1      47.780  26.053  32.674  1.00  0.00     0.010 A 
ATOM     84  C   UNL A   1      50.018  26.484  31.051  1.00  0.00     0.020 A 
ATOM     85  C   UNL A   1      49.044  25.661  33.120  1.00  0.00     0.020 A 
ATOM     86  C   UNL A   1      50.155  25.868  32.299  1.00  0.00     0.054 A 
BRANCH  86  87
ATOM     87  S   UNL A   1      51.812  25.385  32.862  1.00  0.00     0.124 S 
ATOM     88  O   UNL A   1      51.549  24.101  33.509  1.00  0.00    -0.237 OA
ATOM     89  O   UNL A   1      52.570  25.316  31.616  1.00  0.00    -0.237 OA
ATOM     90  O   UNL A   1      52.200  26.468  33.762  1.00  0.00    -0.744 OA
ENDBRANCH  86  87
ENDBRANCH  60  81
ENDBRANCH  34  35
ENDBRANCH  26  29
ENDBRANCH  24  25
ENDBRANCH  23  24
ENDBRANCH   1  23
TORSDOF 17
ENDMDL
MODEL 3
REMARK VINA RESULT:     -10.4      4.511     10.099
REMARK SMILES O=C(CSc1ccccc1C(=O)NCCCNC(=O)c1ccc(-c2c3nc(c(-c4ccc(S(=O)(=O)[O-])cc4)c4ccc([nH]4)c(-c4ccc(S(=O)(=O)[O-])cc4)c4nc(c(-c5ccc(S(=O)(=O)[O-])cc5)c5ccc2[nH]5)C=C4)C=C3)cc1)c1ccc(Cl)cc1
REMARK SMILES IDX 14 1 13 2 11 3 12 4 10 6 5 7 6 8 7 9 9 10 8 11 4 12 3 13
REMARK SMILES IDX 2 14 1 15 80 16 81 17 86 18 82 19 85 20 83 21 84 22 15 23
REMARK SMILES IDX 16 24 17 25 18 26 19 28 20 29 21 30 79 31 22 32 78 33 23 34
REMARK SMILES IDX 24 35 25 36 72 37 26 38 77 39 71 40 73 41 27 42 76 43 70 44
REMARK SMILES IDX 69 45 28 47 58 48 39 49 57 50 40 51 43 52 56 53 74 54 41 55
REMARK SMILES IDX 42 56 55 58 75 59 44 60 29 61 30 62 38 63 31 64 37 65 32 66
REMARK SMILES IDX 33 67 34 68 35 69 36 70 59 71 60 72 68 73 61 74 67 75 62 76
REMARK SMILES IDX 63 77 64 78 65 79 66 80 45 81 46 82 54 83 47 84 53 85 48 86
REMARK SMILES IDX 49 87 50 88 51 89 52 90
REMARK H PARENT 13 5 17 27 73 46 43 57
REMARK Flexibility Score: inf
ROOT
ATOM      1  C   UNL A   1      36.779  22.892  25.778  1.00  0.00     0.118 C 
ENDROOT
BRANCH   1   2
ATOM      2  N   UNL A   1      35.553  22.830  26.561  1.00  0.00    -0.352 N 
ATOM      3  C   UNL A   1      34.314  23.395  26.415  1.00  0.00     0.252 C 
ATOM      4  O   UNL A   1      33.408  22.944  27.120  1.00  0.00    -0.269 OA
ATOM      5  H   UNL A   1      35.632  22.264  27.363  1.00  0.00     0.163 HD
BRANCH   3   6
ATOM      6  C   UNL A   1      33.974  24.479  25.459  1.00  0.00     0.053 A 
ATOM      7  C   UNL A   1      33.801  24.332  24.075  1.00  0.00     0.020 A 
ATOM      8  C   UNL A   1      33.556  25.476  23.290  1.00  0.00     0.016 A 
ATOM      9  C   UNL A   1      33.570  26.755  23.844  1.00  0.00     0.001 A 
ATOM     10  C   UNL A   1      34.006  25.781  26.002  1.00  0.00     0.015 A 
ATOM     11  C   UNL A   1      33.815  26.909  25.202  1.00  0.00     0.001 A 
BRANCH   7  12
ATOM     12  S   UNL A   1      33.897  22.824  23.140  1.00  0.00    -0.117 SA
BRANCH  12  13
ATOM     13  C   UNL A   1      32.361  21.972  23.625  1.00  0.00     0.156 C 
BRANCH  13  14
ATOM     14  C   UNL A   1      32.161  20.717  22.806  1.00  0.00     0.173 C 
ATOM     15  O   UNL A   1      31.845  20.730  21.621  1.00  0.00    -0.293 OA
BRANCH  14  16
ATOM     16  C   UNL A   1      32.441  19.424  23.463  1.00  0.00     0.018 A 
ATOM     17  C   UNL A   1      32.461  19.338  24.859  1.00  0.00     0.013 A 
ATOM     18  C   UNL A   1      32.690  18.301  22.672  1.00  0.00     0.013 A 
ATOM     19  C   UNL A   1      32.782  18.127  25.469  1.00  0.00     0.021 A 
ATOM     20  C   UNL A   1      32.998  17.086  23.290  1.00  0.00     0.021 A 
ATOM     21  C   UNL A   1      33.053  17.007  24.683  1.00  0.00     0.041 A 
ATOM     22  Cl  UNL A   1      33.457  15.519  25.438  1.00  0.00    -0.084 Cl
ENDBRANCH  14  16
ENDBRANCH  13  14
ENDBRANCH  12  13
ENDBRANCH   7  12
ENDBRANCH   3   6
ENDBRANCH   1   2
BRANCH   1  23
ATOM     23  C   UNL A   1      37.693  24.078  26.129  1.00  0.00     0.042 C 
BRANCH  23  24
ATOM     24  C   UNL A   1      39.015  23.743  26.825  1.00  0.00     0.118 C 
BRANCH  24  25
ATOM     25  N   UNL A   1      40.156  24.176  26.043  1.00  0.00    -0.352 N 
ATOM     26  C   UNL A   1      40.927  25.305  26.166  1.00  0.00     0.251 C 
ATOM     27  H   UNL A   1      40.419  23.568  25.313  1.00  0.00     0.163 HD
ATOM     28  O   UNL A   1      41.653  25.625  25.223  1.00  0.00    -0.269 OA
BRANCH  26  29
ATOM     29  C   UNL A   1      40.920  26.142  27.395  1.00  0.00     0.039 A 
ATOM     30  C   UNL A   1      39.827  26.037  28.264  1.00  0.00     0.014 A 
ATOM     31  C   UNL A   1      41.892  27.119  27.635  1.00  0.00     0.014 A 
ATOM     32  C   UNL A   1      39.708  26.897  29.363  1.00  0.00     0.010 A 
ATOM     33  C   UNL A   1      41.794  27.953  28.759  1.00  0.00     0.010 A 
ATOM     34  C   UNL A   1      40.688  27.869  29.620  1.00  0.00    -0.014 A 
BRANCH  34  35
ATOM     35  C   UNL A   1      40.528  28.828  30.749  1.00  0.00     0.031 A 
ATOM     36  C   UNL A   1      41.401  28.719  31.974  1.00  0.00     0.074 A 
ATOM     37  C   UNL A   1      39.591  29.797  30.690  1.00  0.00     0.049 A 
ATOM     38  N   UNL A   1      41.405  29.458  33.056  1.00  0.00    -0.248 NA
ATOM     39  C   UNL A   1      42.387  27.626  31.993  1.00  0.00     0.031 C 
ATOM     40  C   UNL A   1      38.662  30.010  29.579  1.00  0.00     0.029 A 
ATOM     41  N   UNL A   1      39.265  30.782  31.590  1.00  0.00    -0.354 N 
ATOM     42  C   UNL A   1      42.376  28.912  33.889  1.00  0.00     0.074 A 
ATOM     43  C   UNL A   1      42.919  27.760  33.201  1.00  0.00     0.031 C 
ATOM     44  C   UNL A   1      37.881  31.067  29.857  1.00  0.00     0.029 A 
ATOM     45  C   UNL A   1      38.236  31.594  31.174  1.00  0.00     0.049 A 
ATOM     46  H   UNL A   1      39.725  30.897  32.454  1.00  0.00     0.167 HD
ATOM     47  C   UNL A   1      42.790  29.333  35.110  1.00  0.00     0.031 A 
ATOM     48  C   UNL A   1      37.641  32.642  31.778  1.00  0.00     0.031 A 
ATOM     49  C   UNL A   1      42.271  30.488  35.793  1.00  0.00     0.049 A 
ATOM     50  C   UNL A   1      38.125  33.098  33.128  1.00  0.00     0.074 A 
ATOM     51  C   UNL A   1      42.673  31.021  37.008  1.00  0.00     0.029 A 
ATOM     52  N   UNL A   1      41.240  31.289  35.329  1.00  0.00    -0.354 N 
ATOM     53  N   UNL A   1      39.087  32.603  33.869  1.00  0.00    -0.248 NA
ATOM     54  C   UNL A   1      37.449  34.264  33.718  1.00  0.00     0.031 C 
ATOM     55  C   UNL A   1      41.856  32.121  37.296  1.00  0.00     0.029 A 
ATOM     56  C   UNL A   1      40.977  32.298  36.240  1.00  0.00     0.049 A 
ATOM     57  H   UNL A   1      40.764  31.159  34.476  1.00  0.00     0.167 HD
ATOM     58  C   UNL A   1      39.145  33.410  35.002  1.00  0.00     0.074 A 
ATOM     59  C   UNL A   1      38.131  34.432  34.843  1.00  0.00     0.031 C 
ATOM     60  C   UNL A   1      39.967  33.312  36.075  1.00  0.00     0.031 A 
BRANCH  47  61
ATOM     61  C   UNL A   1      43.858  28.526  35.799  1.00  0.00    -0.014 A 
ATOM     62  C   UNL A   1      45.219  28.860  35.670  1.00  0.00     0.010 A 
ATOM     63  C   UNL A   1      43.494  27.450  36.628  1.00  0.00     0.010 A 
ATOM     64  C   UNL A   1      46.197  28.107  36.325  1.00  0.00     0.020 A 
ATOM     65  C   UNL A   1      44.468  26.708  37.303  1.00  0.00     0.020 A 
ATOM     66  C   UNL A   1      45.816  27.031  37.131  1.00  0.00     0.054 A 
BRANCH  66  67
ATOM     67  S   UNL A   1      47.104  26.079  37.984  1.00  0.00     0.124 S 
ATOM     68  O   UNL A   1      46.482  25.830  39.282  1.00  0.00    -0.237 OA
ATOM     69  O   UNL A   1      47.259  24.906  37.128  1.00  0.00    -0.237 OA
ATOM     70  O   UNL A   1      48.248  26.987  38.006  1.00  0.00    -0.744 OA
ENDBRANCH  66  67
ENDBRANCH  47  61
BRANCH  48  71
ATOM     71  C   UNL A   1      36.522  33.348  31.098  1.00  0.00    -0.014 A 
ATOM     72  C   UNL A   1      35.259  33.441  31.708  1.00  0.00     0.010 A 
ATOM     73  C   UNL A   1      36.719  33.941  29.838  1.00  0.00     0.010 A 
ATOM     74  C   UNL A   1      34.210  34.103  31.065  1.00  0.00     0.020 A 
ATOM     75  C   UNL A   1      35.679  34.625  29.203  1.00  0.00     0.020 A 
ATOM     76  C   UNL A   1      34.426  34.693  29.816  1.00  0.00     0.054 A 
BRANCH  76  77
ATOM     77  S   UNL A   1      33.070  35.600  29.023  1.00  0.00     0.124 S 
ATOM     78  O   UNL A   1      32.443  34.558  28.213  1.00  0.00    -0.237 OA
ATOM     79  O   UNL A   1      32.285  36.063  30.169  1.00  0.00    -0.237 OA
ATOM     80  O   UNL A   1      33.747  36.652  28.279  1.00  0.00    -0.744 OA
ENDBRANCH  76  77
ENDBRANCH  48  71
BRANCH  60  81
ATOM     81  C   UNL A   1      39.828  34.350  37.157  1.00  0.00    -0.014 A 
ATOM     82  C   UNL A   1      38.972  34.145  38.254  1.00  0.00     0.010 A 
ATOM     83  C   UNL A   1      40.605  35.521  37.102  1.00  0.00     0.010 A 
ATOM     84  C   UNL A   1      38.876  35.106  39.263  1.00  0.00     0.020 A 
ATOM     85  C   UNL A   1      40.527  36.475  38.120  1.00  0.00     0.020 A 
ATOM     86  C   UNL A   1      39.652  36.268  39.189  1.00  0.00     0.054 A 
BRANCH  86  87
ATOM     87  S   UNL A   1      39.546  37.483  40.533  1.00  0.00     0.124 S 
ATOM     88  O   UNL A   1      40.941  37.889  40.685  1.00  0.00    -0.237 OA
ATOM     89  O   UNL A   1      38.653  38.498  39.981  1.00  0.00    -0.237 OA
ATOM     90  O   UNL A   1      38.995  36.717  41.649  1.00  0.00    -0.744 OA
ENDBRANCH  86  87
ENDBRANCH  60  81
ENDBRANCH  34  35
ENDBRANCH  26  29
ENDBRANCH  24  25
ENDBRANCH  23  24
ENDBRANCH   1  23
TORSDOF 17
ENDMDL
