MODEL 1
REMARK VINA RESULT:     -10.9      0.000      0.000
REMARK SMILES COC[C@H]1CC[N@@H+](Cc2ccc(C(=O)NCCCNC(=O)c3ccc(-c4c5nc(c(-c6ccc(S(=O)(=O)[O-])cc6)c6ccc([nH]6)c(-c6ccc(S(=O)(=O)[O-])cc6)c6nc(c(-c7ccc(S(=O)(=O)[O-])cc7)c7ccc4[nH]7)C=C6)C=C5)cc3)cn2)C1
REMARK SMILES IDX 16 1 15 2 13 3 14 4 12 6 9 7 10 8 83 9 11 10 82 11 8 12 7 13
REMARK SMILES IDX 4 14 5 15 84 16 6 17 3 19 2 20 1 21 17 22 18 23 19 24 20 25
REMARK SMILES IDX 21 27 22 28 23 29 81 30 24 31 80 32 25 33 26 34 27 35 74 36
REMARK SMILES IDX 28 37 79 38 73 39 75 40 29 41 78 42 72 43 71 44 30 46 60 47
REMARK SMILES IDX 41 48 59 49 42 50 45 51 58 52 76 53 43 54 44 55 57 57 77 58
REMARK SMILES IDX 46 59 31 60 32 61 40 62 33 63 39 64 34 65 35 66 36 67 37 68
REMARK SMILES IDX 38 69 61 70 62 71 70 72 63 73 69 74 64 75 65 76 66 77 67 78
REMARK SMILES IDX 68 79 47 80 48 81 56 82 49 83 55 84 50 85 51 86 52 87 53 88
REMARK SMILES IDX 54 89
REMARK H PARENT 15 5 7 18 19 26 75 45 45 56
REMARK Flexibility Score: inf
ROOT
ATOM      1  C   UNL A   1      31.720  29.180  24.973  1.00  0.00     0.118 C 
ENDROOT
BRANCH   1   2
ATOM      2  N   UNL A   1      30.993  29.450  23.742  1.00  0.00    -0.352 N 
ATOM      3  C   UNL A   1      30.534  28.598  22.768  1.00  0.00     0.252 C 
ATOM      4  O   UNL A   1      29.788  29.030  21.895  1.00  0.00    -0.269 OA
ATOM      5  H   UNL A   1      30.799  30.402  23.581  1.00  0.00     0.163 HD
BRANCH   3   6
ATOM      6  C   UNL A   1      30.859  27.160  22.784  1.00  0.00     0.058 A 
ATOM      7  C   UNL A   1      31.420  24.477  23.098  1.00  0.00     0.095 A 
ATOM      8  C   UNL A   1      32.133  25.217  22.158  1.00  0.00     0.030 A 
ATOM      9  N   UNL A   1      30.391  25.014  23.805  1.00  0.00    -0.255 NA
ATOM     10  C   UNL A   1      31.842  26.571  21.995  1.00  0.00     0.017 A 
ATOM     11  C   UNL A   1      30.128  26.334  23.625  1.00  0.00     0.125 A 
BRANCH   7  12
ATOM     12  C   UNL A   1      31.824  23.044  23.411  1.00  0.00     0.319 C 
BRANCH  12  13
ATOM     13  N   UNL A   1      32.317  22.754  24.775  1.00  0.00    -0.330 N 
ATOM     14  C   UNL A   1      33.271  20.621  25.438  1.00  0.00     0.076 C 
ATOM     15  C   UNL A   1      34.343  21.509  24.821  1.00  0.00     0.073 C 
ATOM     16  C   UNL A   1      31.970  21.426  25.294  1.00  0.00     0.268 C 
ATOM     17  C   UNL A   1      33.766  22.908  24.924  1.00  0.00     0.263 C 
ATOM     18  H   UNL A   1      31.827  23.461  25.322  1.00  0.00     0.348 HD
BRANCH  14  19
ATOM     19  C   UNL A   1      33.156  19.226  24.823  1.00  0.00     0.169 C 
BRANCH  19  20
ATOM     20  O   UNL A   1      32.241  18.370  25.504  1.00  0.00    -0.384 OA
ATOM     21  C   UNL A   1      32.677  17.022  25.630  1.00  0.00     0.194 C 
ENDBRANCH  19  20
ENDBRANCH  14  19
ENDBRANCH  12  13
ENDBRANCH   7  12
ENDBRANCH   3   6
ENDBRANCH   1   2
BRANCH   1  22
ATOM     22  C   UNL A   1      33.193  28.880  24.721  1.00  0.00     0.042 C 
BRANCH  22  23
ATOM     23  C   UNL A   1      34.057  28.925  25.975  1.00  0.00     0.118 C 
BRANCH  23  24
ATOM     24  N   UNL A   1      33.822  30.120  26.767  1.00  0.00    -0.352 N 
ATOM     25  C   UNL A   1      34.569  30.670  27.780  1.00  0.00     0.251 C 
ATOM     26  H   UNL A   1      33.000  30.613  26.542  1.00  0.00     0.163 HD
ATOM     27  O   UNL A   1      34.089  31.586  28.442  1.00  0.00    -0.269 OA
BRANCH  25  28
ATOM     28  C   UNL A   1      35.930  30.168  28.089  1.00  0.00     0.039 A 
ATOM     29  C   UNL A   1      36.172  29.634  29.360  1.00  0.00     0.014 A 
ATOM     30  C   UNL A   1      36.979  30.272  27.173  1.00  0.00     0.014 A 
ATOM     31  C   UNL A   1      37.451  29.184  29.697  1.00  0.00     0.010 A 
ATOM     32  C   UNL A   1      38.231  29.742  27.478  1.00  0.00     0.010 A 
ATOM     33  C   UNL A   1      38.489  29.222  28.753  1.00  0.00    -0.014 A 
BRANCH  33  34
ATOM     34  C   UNL A   1      39.861  28.769  29.103  1.00  0.00     0.031 A 
ATOM     35  C   UNL A   1      40.812  29.707  29.800  1.00  0.00     0.074 A 
ATOM     36  C   UNL A   1      40.273  27.537  28.751  1.00  0.00     0.049 A 
ATOM     37  N   UNL A   1      42.051  29.506  30.168  1.00  0.00    -0.248 NA
ATOM     38  C   UNL A   1      40.314  31.062  30.091  1.00  0.00     0.031 C 
ATOM     39  C   UNL A   1      39.471  26.554  28.019  1.00  0.00     0.029 A 
ATOM     40  N   UNL A   1      41.472  26.904  28.953  1.00  0.00    -0.354 N 
ATOM     41  C   UNL A   1      42.488  30.711  30.707  1.00  0.00     0.074 A 
ATOM     42  C   UNL A   1      41.399  31.653  30.566  1.00  0.00     0.031 C 
ATOM     43  C   UNL A   1      40.194  25.435  27.852  1.00  0.00     0.029 A 
ATOM     44  C   UNL A   1      41.518  25.631  28.437  1.00  0.00     0.049 A 
ATOM     45  H   UNL A   1      42.230  27.321  29.423  1.00  0.00     0.167 HD
ATOM     46  C   UNL A   1      43.677  31.006  31.286  1.00  0.00     0.031 A 
ATOM     47  C   UNL A   1      42.511  24.720  28.435  1.00  0.00     0.031 A 
ATOM     48  C   UNL A   1      44.753  30.063  31.435  1.00  0.00     0.049 A 
ATOM     49  C   UNL A   1      43.807  25.045  29.120  1.00  0.00     0.074 A 
ATOM     50  C   UNL A   1      45.973  30.238  32.066  1.00  0.00     0.029 A 
ATOM     51  N   UNL A   1      44.741  28.767  30.940  1.00  0.00    -0.354 N 
ATOM     52  N   UNL A   1      44.173  26.165  29.699  1.00  0.00    -0.248 NA
ATOM     53  C   UNL A   1      44.814  23.978  29.175  1.00  0.00     0.031 C 
ATOM     54  C   UNL A   1      46.716  29.062  31.912  1.00  0.00     0.029 A 
ATOM     55  C   UNL A   1      45.938  28.135  31.235  1.00  0.00     0.049 A 
ATOM     56  H   UNL A   1      43.992  28.356  30.452  1.00  0.00     0.167 HD
ATOM     57  C   UNL A   1      45.445  25.929  30.208  1.00  0.00     0.074 A 
ATOM     58  C   UNL A   1      45.777  24.557  29.880  1.00  0.00     0.031 C 
ATOM     59  C   UNL A   1      46.261  26.773  30.890  1.00  0.00     0.031 A 
BRANCH  46  60
ATOM     60  C   UNL A   1      43.869  32.419  31.779  1.00  0.00    -0.014 A 
ATOM     61  C   UNL A   1      44.439  33.409  30.956  1.00  0.00     0.010 A 
ATOM     62  C   UNL A   1      43.494  32.756  33.091  1.00  0.00     0.010 A 
ATOM     63  C   UNL A   1      44.703  34.685  31.462  1.00  0.00     0.020 A 
ATOM     64  C   UNL A   1      43.724  34.042  33.590  1.00  0.00     0.020 A 
ATOM     65  C   UNL A   1      44.357  34.990  32.782  1.00  0.00     0.054 A 
BRANCH  65  66
ATOM     66  S   UNL A   1      44.742  36.640  33.427  1.00  0.00     0.124 S 
ATOM     67  O   UNL A   1      45.550  36.321  34.602  1.00  0.00    -0.237 OA
ATOM     68  O   UNL A   1      45.464  37.260  32.319  1.00  0.00    -0.237 OA
ATOM     69  O   UNL A   1      43.429  37.215  33.711  1.00  0.00    -0.744 OA
ENDBRANCH  65  66
ENDBRANCH  46  60
BRANCH  47  70
ATOM     70  C   UNL A   1      42.281  23.401  27.785  1.00  0.00    -0.014 A 
ATOM     71  C   UNL A   1      42.615  23.200  26.435  1.00  0.00     0.010 A 
ATOM     72  C   UNL A   1      41.800  22.315  28.541  1.00  0.00     0.010 A 
ATOM     73  C   UNL A   1      42.481  21.936  25.854  1.00  0.00     0.020 A 
ATOM     74  C   UNL A   1      41.687  21.046  27.970  1.00  0.00     0.020 A 
ATOM     75  C   UNL A   1      42.028  20.864  26.628  1.00  0.00     0.054 A 
BRANCH  75  76
ATOM     76  S   UNL A   1      41.967  19.209  25.884  1.00  0.00     0.124 S 
ATOM     77  O   UNL A   1      40.543  19.054  25.602  1.00  0.00    -0.237 OA
ATOM     78  O   UNL A   1      42.832  19.357  24.717  1.00  0.00    -0.237 OA
ATOM     79  O   UNL A   1      42.496  18.343  26.935  1.00  0.00    -0.744 OA
ENDBRANCH  75  76
ENDBRANCH  47  70
BRANCH  59  80
ATOM     80  C   UNL A   1      47.585  26.226  31.354  1.00  0.00    -0.014 A 
ATOM     81  C   UNL A   1      47.737  25.659  32.632  1.00  0.00     0.010 A 
ATOM     82  C   UNL A   1      48.685  26.241  30.476  1.00  0.00     0.010 A 
ATOM     83  C   UNL A   1      48.976  25.156  33.039  1.00  0.00     0.020 A 
ATOM     84  C   UNL A   1      49.917  25.714  30.869  1.00  0.00     0.020 A 
ATOM     85  C   UNL A   1      50.060  25.191  32.155  1.00  0.00     0.054 A 
BRANCH  85  86
ATOM     86  S   UNL A   1      51.651  24.509  32.696  1.00  0.00     0.124 S 
ATOM     87  O   UNL A   1      51.494  23.091  32.387  1.00  0.00    -0.237 OA
ATOM     88  O   UNL A   1      52.610  25.232  31.864  1.00  0.00    -0.237 OA
ATOM     89  O   UNL A   1      51.702  24.835  34.120  1.00  0.00    -0.744 OA
ENDBRANCH  85  86
ENDBRANCH  59  80
ENDBRANCH  33  34
ENDBRANCH  25  28
ENDBRANCH  23  24
ENDBRANCH  22  23
ENDBRANCH   1  22
TORSDOF 17
ENDMDL
MODEL 2
REMARK VINA RESULT:     -10.6      0.942      1.502
REMARK SMILES COC[C@H]1CC[N@@H+](Cc2ccc(C(=O)NCCCNC(=O)c3ccc(-c4c5nc(c(-c6ccc(S(=O)(=O)[O-])cc6)c6ccc([nH]6)c(-c6ccc(S(=O)(=O)[O-])cc6)c6nc(c(-c7ccc(S(=O)(=O)[O-])cc7)c7ccc4[nH]7)C=C6)C=C5)cc3)cn2)C1
REMARK SMILES IDX 16 1 15 2 13 3 14 4 12 6 9 7 10 8 83 9 11 10 82 11 8 12 7 13
REMARK SMILES IDX 4 14 5 15 84 16 6 17 3 19 2 20 1 21 17 22 18 23 19 24 20 25
REMARK SMILES IDX 21 27 22 28 23 29 81 30 24 31 80 32 25 33 26 34 27 35 74 36
REMARK SMILES IDX 28 37 79 38 73 39 75 40 29 41 78 42 72 43 71 44 30 46 60 47
REMARK SMILES IDX 41 48 59 49 42 50 45 51 58 52 76 53 43 54 44 55 57 57 77 58
REMARK SMILES IDX 46 59 31 60 32 61 40 62 33 63 39 64 34 65 35 66 36 67 37 68
REMARK SMILES IDX 38 69 61 70 62 71 70 72 63 73 69 74 64 75 65 76 66 77 67 78
REMARK SMILES IDX 68 79 47 80 48 81 56 82 49 83 55 84 50 85 51 86 52 87 53 88
REMARK SMILES IDX 54 89
REMARK H PARENT 15 5 7 18 19 26 75 45 45 56
REMARK Flexibility Score: inf
ROOT
ATOM      1  C   UNL A   1      31.645  29.102  25.484  1.00  0.00     0.118 C 
ENDROOT
BRANCH   1   2
ATOM      2  N   UNL A   1      31.155  29.571  24.197  1.00  0.00    -0.352 N 
ATOM      3  C   UNL A   1      30.754  28.874  23.084  1.00  0.00     0.252 C 
ATOM      4  O   UNL A   1      30.208  29.476  22.163  1.00  0.00    -0.269 OA
ATOM      5  H   UNL A   1      31.102  30.551  24.110  1.00  0.00     0.163 HD
BRANCH   3   6
ATOM      6  C   UNL A   1      30.899  27.410  22.995  1.00  0.00     0.058 A 
ATOM      7  C   UNL A   1      31.117  24.662  23.111  1.00  0.00     0.095 A 
ATOM      8  C   UNL A   1      31.945  25.376  22.248  1.00  0.00     0.030 A 
ATOM      9  N   UNL A   1      30.140  25.269  23.836  1.00  0.00    -0.255 NA
ATOM     10  C   UNL A   1      31.827  26.763  22.184  1.00  0.00     0.017 A 
ATOM     11  C   UNL A   1      30.046  26.622  23.753  1.00  0.00     0.125 A 
BRANCH   7  12
ATOM     12  C   UNL A   1      31.332  23.171  23.322  1.00  0.00     0.319 C 
BRANCH  12  13
ATOM     13  N   UNL A   1      32.652  22.733  23.825  1.00  0.00    -0.330 N 
ATOM     14  C   UNL A   1      33.110  22.245  26.159  1.00  0.00     0.076 C 
ATOM     15  C   UNL A   1      32.535  21.017  25.467  1.00  0.00     0.073 C 
ATOM     16  C   UNL A   1      33.072  23.348  25.090  1.00  0.00     0.268 C 
ATOM     17  C   UNL A   1      32.769  21.283  23.992  1.00  0.00     0.263 C 
ATOM     18  H   UNL A   1      33.269  23.055  23.080  1.00  0.00     0.348 HD
BRANCH  14  19
ATOM     19  C   UNL A   1      32.388  22.661  27.441  1.00  0.00     0.169 C 
BRANCH  19  20
ATOM     20  O   UNL A   1      31.376  23.646  27.238  1.00  0.00    -0.384 OA
ATOM     21  C   UNL A   1      30.079  23.117  26.995  1.00  0.00     0.194 C 
ENDBRANCH  19  20
ENDBRANCH  14  19
ENDBRANCH  12  13
ENDBRANCH   7  12
ENDBRANCH   3   6
ENDBRANCH   1   2
BRANCH   1  22
ATOM     22  C   UNL A   1      33.090  28.621  25.412  1.00  0.00     0.042 C 
BRANCH  22  23
ATOM     23  C   UNL A   1      33.842  28.723  26.733  1.00  0.00     0.118 C 
BRANCH  23  24
ATOM     24  N   UNL A   1      33.693  30.026  27.356  1.00  0.00    -0.352 N 
ATOM     25  C   UNL A   1      34.545  30.709  28.189  1.00  0.00     0.251 C 
ATOM     26  H   UNL A   1      32.851  30.493  27.148  1.00  0.00     0.163 HD
ATOM     27  O   UNL A   1      34.138  31.721  28.754  1.00  0.00    -0.269 OA
BRANCH  25  28
ATOM     28  C   UNL A   1      35.931  30.238  28.425  1.00  0.00     0.039 A 
ATOM     29  C   UNL A   1      36.249  29.694  29.674  1.00  0.00     0.014 A 
ATOM     30  C   UNL A   1      36.930  30.381  27.458  1.00  0.00     0.014 A 
ATOM     31  C   UNL A   1      37.554  29.273  29.941  1.00  0.00     0.010 A 
ATOM     32  C   UNL A   1      38.208  29.878  27.694  1.00  0.00     0.010 A 
ATOM     33  C   UNL A   1      38.543  29.349  28.947  1.00  0.00    -0.014 A 
BRANCH  33  34
ATOM     34  C   UNL A   1      39.941  28.926  29.223  1.00  0.00     0.031 A 
ATOM     35  C   UNL A   1      40.910  29.889  29.859  1.00  0.00     0.074 A 
ATOM     36  C   UNL A   1      40.358  27.700  28.856  1.00  0.00     0.049 A 
ATOM     37  N   UNL A   1      42.172  29.715  30.158  1.00  0.00    -0.248 NA
ATOM     38  C   UNL A   1      40.401  31.235  30.170  1.00  0.00     0.031 C 
ATOM     39  C   UNL A   1      39.536  26.696  28.176  1.00  0.00     0.029 A 
ATOM     40  N   UNL A   1      41.579  27.093  28.994  1.00  0.00    -0.354 N 
ATOM     41  C   UNL A   1      42.613  30.932  30.665  1.00  0.00     0.074 A 
ATOM     42  C   UNL A   1      41.499  31.851  30.580  1.00  0.00     0.031 C 
ATOM     43  C   UNL A   1      40.272  25.591  27.975  1.00  0.00     0.029 A 
ATOM     44  C   UNL A   1      41.622  25.818  28.484  1.00  0.00     0.049 A 
ATOM     45  H   UNL A   1      42.354  27.529  29.418  1.00  0.00     0.167 HD
ATOM     46  C   UNL A   1      43.827  31.256  31.175  1.00  0.00     0.031 A 
ATOM     47  C   UNL A   1      42.632  24.927  28.431  1.00  0.00     0.031 A 
ATOM     48  C   UNL A   1      44.928  30.336  31.269  1.00  0.00     0.049 A 
ATOM     49  C   UNL A   1      43.958  25.283  29.041  1.00  0.00     0.074 A 
ATOM     50  C   UNL A   1      46.177  30.540  31.830  1.00  0.00     0.029 A 
ATOM     51  N   UNL A   1      44.916  29.036  30.783  1.00  0.00    -0.354 N 
ATOM     52  N   UNL A   1      44.332  26.414  29.591  1.00  0.00    -0.248 NA
ATOM     53  C   UNL A   1      44.988  24.237  29.045  1.00  0.00     0.031 C 
ATOM     54  C   UNL A   1      46.935  29.378  31.641  1.00  0.00     0.029 A 
ATOM     55  C   UNL A   1      46.140  28.431  31.014  1.00  0.00     0.049 A 
ATOM     56  H   UNL A   1      44.148  28.607  30.340  1.00  0.00     0.167 HD
ATOM     57  C   UNL A   1      45.636  26.208  30.030  1.00  0.00     0.074 A 
ATOM     58  C   UNL A   1      45.977  24.840  29.692  1.00  0.00     0.031 C 
ATOM     59  C   UNL A   1      46.471  27.073  30.660  1.00  0.00     0.031 A 
BRANCH  46  60
ATOM     60  C   UNL A   1      44.016  32.676  31.647  1.00  0.00    -0.014 A 
ATOM     61  C   UNL A   1      43.760  33.043  32.982  1.00  0.00     0.010 A 
ATOM     62  C   UNL A   1      44.434  33.663  30.737  1.00  0.00     0.010 A 
ATOM     63  C   UNL A   1      43.843  34.381  33.377  1.00  0.00     0.020 A 
ATOM     64  C   UNL A   1      44.552  34.997  31.137  1.00  0.00     0.020 A 
ATOM     65  C   UNL A   1      44.224  35.353  32.448  1.00  0.00     0.054 A 
BRANCH  65  66
ATOM     66  S   UNL A   1      44.289  37.087  32.974  1.00  0.00     0.124 S 
ATOM     67  O   UNL A   1      43.035  37.222  33.712  1.00  0.00    -0.237 OA
ATOM     68  O   UNL A   1      45.502  37.133  33.787  1.00  0.00    -0.237 OA
ATOM     69  O   UNL A   1      44.355  37.828  31.717  1.00  0.00    -0.744 OA
ENDBRANCH  65  66
ENDBRANCH  46  60
BRANCH  47  70
ATOM     70  C   UNL A   1      42.394  23.599  27.804  1.00  0.00    -0.014 A 
ATOM     71  C   UNL A   1      42.771  23.359  26.471  1.00  0.00     0.010 A 
ATOM     72  C   UNL A   1      41.859  22.543  28.566  1.00  0.00     0.010 A 
ATOM     73  C   UNL A   1      42.626  22.085  25.914  1.00  0.00     0.020 A 
ATOM     74  C   UNL A   1      41.736  21.263  28.019  1.00  0.00     0.020 A 
ATOM     75  C   UNL A   1      42.120  21.042  26.696  1.00  0.00     0.054 A 
BRANCH  75  76
ATOM     76  S   UNL A   1      42.045  19.372  25.987  1.00  0.00     0.124 S 
ATOM     77  O   UNL A   1      40.619  19.220  25.717  1.00  0.00    -0.237 OA
ATOM     78  O   UNL A   1      42.904  19.491  24.811  1.00  0.00    -0.237 OA
ATOM     79  O   UNL A   1      42.577  18.526  27.052  1.00  0.00    -0.744 OA
ENDBRANCH  75  76
ENDBRANCH  47  70
BRANCH  59  80
ATOM     80  C   UNL A   1      47.830  26.556  31.052  1.00  0.00    -0.014 A 
ATOM     81  C   UNL A   1      48.954  26.753  30.230  1.00  0.00     0.010 A 
ATOM     82  C   UNL A   1      47.990  25.898  32.286  1.00  0.00     0.010 A 
ATOM     83  C   UNL A   1      50.206  26.267  30.617  1.00  0.00     0.020 A 
ATOM     84  C   UNL A   1      49.244  25.435  32.688  1.00  0.00     0.020 A 
ATOM     85  C   UNL A   1      50.341  25.606  31.842  1.00  0.00     0.054 A 
BRANCH  85  86
ATOM     86  S   UNL A   1      51.980  25.004  32.335  1.00  0.00     0.124 S 
ATOM     87  O   UNL A   1      51.771  23.561  32.386  1.00  0.00    -0.237 OA
ATOM     88  O   UNL A   1      52.836  25.477  31.250  1.00  0.00    -0.237 OA
ATOM     89  O   UNL A   1      52.211  25.647  33.627  1.00  0.00    -0.744 OA
ENDBRANCH  85  86
ENDBRANCH  59  80
ENDBRANCH  33  34
ENDBRANCH  25  28
ENDBRANCH  23  24
ENDBRANCH  22  23
ENDBRANCH   1  22
TORSDOF 17
ENDMDL
MODEL 3
REMARK VINA RESULT:     -10.6      2.492      3.067
REMARK SMILES COC[C@H]1CC[N@@H+](Cc2ccc(C(=O)NCCCNC(=O)c3ccc(-c4c5nc(c(-c6ccc(S(=O)(=O)[O-])cc6)c6ccc([nH]6)c(-c6ccc(S(=O)(=O)[O-])cc6)c6nc(c(-c7ccc(S(=O)(=O)[O-])cc7)c7ccc4[nH]7)C=C6)C=C5)cc3)cn2)C1
REMARK SMILES IDX 16 1 15 2 13 3 14 4 12 6 9 7 10 8 83 9 11 10 82 11 8 12 7 13
REMARK SMILES IDX 4 14 5 15 84 16 6 17 3 19 2 20 1 21 17 22 18 23 19 24 20 25
REMARK SMILES IDX 21 27 22 28 23 29 81 30 24 31 80 32 25 33 26 34 27 35 74 36
REMARK SMILES IDX 28 37 79 38 73 39 75 40 29 41 78 42 72 43 71 44 30 46 60 47
REMARK SMILES IDX 41 48 59 49 42 50 45 51 58 52 76 53 43 54 44 55 57 57 77 58
REMARK SMILES IDX 46 59 31 60 32 61 40 62 33 63 39 64 34 65 35 66 36 67 37 68
REMARK SMILES IDX 38 69 61 70 62 71 70 72 63 73 69 74 64 75 65 76 66 77 67 78
REMARK SMILES IDX 68 79 47 80 48 81 56 82 49 83 55 84 50 85 51 86 52 87 53 88
REMARK SMILES IDX 54 89
REMARK H PARENT 15 5 7 18 19 26 75 45 45 56
REMARK Flexibility Score: inf
ROOT
ATOM      1  C   UNL A   1      31.737  29.313  25.013  1.00  0.00     0.118 C 
ENDROOT
BRANCH   1   2
ATOM      2  N   UNL A   1      31.157  29.658  23.724  1.00  0.00    -0.352 N 
ATOM      3  C   UNL A   1      30.687  28.860  22.711  1.00  0.00     0.252 C 
ATOM      4  O   UNL A   1      30.075  29.372  21.778  1.00  0.00    -0.269 OA
ATOM      5  H   UNL A   1      31.091  30.626  23.550  1.00  0.00     0.163 HD
BRANCH   3   6
ATOM      6  C   UNL A   1      30.837  27.394  22.751  1.00  0.00     0.058 A 
ATOM      7  C   UNL A   1      31.050  24.665  23.103  1.00  0.00     0.095 A 
ATOM      8  C   UNL A   1      31.915  25.309  22.221  1.00  0.00     0.030 A 
ATOM      9  N   UNL A   1      30.041  25.326  23.730  1.00  0.00    -0.255 NA
ATOM     10  C   UNL A   1      31.800  26.686  22.038  1.00  0.00     0.017 A 
ATOM     11  C   UNL A   1      29.951  26.667  23.531  1.00  0.00     0.125 A 
BRANCH   7  12
ATOM     12  C   UNL A   1      31.256  23.198  23.445  1.00  0.00     0.319 C 
BRANCH  12  13
ATOM     13  N   UNL A   1      31.965  22.880  24.703  1.00  0.00    -0.330 N 
ATOM     14  C   UNL A   1      33.002  20.733  25.160  1.00  0.00     0.076 C 
ATOM     15  C   UNL A   1      33.963  21.629  24.392  1.00  0.00     0.073 C 
ATOM     16  C   UNL A   1      31.699  21.543  25.247  1.00  0.00     0.268 C 
ATOM     17  C   UNL A   1      33.419  23.027  24.614  1.00  0.00     0.263 C 
ATOM     18  H   UNL A   1      31.575  23.578  25.336  1.00  0.00     0.348 HD
BRANCH  14  19
ATOM     19  C   UNL A   1      32.779  19.350  24.547  1.00  0.00     0.169 C 
BRANCH  19  20
ATOM     20  O   UNL A   1      32.096  18.441  25.408  1.00  0.00    -0.384 OA
ATOM     21  C   UNL A   1      32.786  17.221  25.645  1.00  0.00     0.194 C 
ENDBRANCH  19  20
ENDBRANCH  14  19
ENDBRANCH  12  13
ENDBRANCH   7  12
ENDBRANCH   3   6
ENDBRANCH   1   2
BRANCH   1  22
ATOM     22  C   UNL A   1      33.207  28.926  24.901  1.00  0.00     0.042 C 
BRANCH  22  23
ATOM     23  C   UNL A   1      34.030  29.255  26.140  1.00  0.00     0.118 C 
BRANCH  23  24
ATOM     24  N   UNL A   1      33.740  30.580  26.661  1.00  0.00    -0.352 N 
ATOM     25  C   UNL A   1      34.347  31.283  27.672  1.00  0.00     0.251 C 
ATOM     26  H   UNL A   1      32.993  31.046  26.221  1.00  0.00     0.163 HD
ATOM     27  O   UNL A   1      33.820  32.316  28.076  1.00  0.00    -0.269 OA
BRANCH  25  28
ATOM     28  C   UNL A   1      35.611  30.810  28.286  1.00  0.00     0.039 A 
ATOM     29  C   UNL A   1      35.558  29.739  29.185  1.00  0.00     0.014 A 
ATOM     30  C   UNL A   1      36.832  31.441  28.036  1.00  0.00     0.014 A 
ATOM     31  C   UNL A   1      36.726  29.290  29.808  1.00  0.00     0.010 A 
ATOM     32  C   UNL A   1      38.008  30.936  28.587  1.00  0.00     0.010 A 
ATOM     33  C   UNL A   1      37.964  29.877  29.504  1.00  0.00    -0.014 A 
BRANCH  33  34
ATOM     34  C   UNL A   1      39.211  29.426  30.174  1.00  0.00     0.031 A 
ATOM     35  C   UNL A   1      39.675  30.100  31.440  1.00  0.00     0.074 A 
ATOM     36  C   UNL A   1      39.956  28.450  29.623  1.00  0.00     0.049 A 
ATOM     37  N   UNL A   1      40.743  29.866  32.158  1.00  0.00    -0.248 NA
ATOM     38  C   UNL A   1      38.844  31.206  31.946  1.00  0.00     0.031 C 
ATOM     39  C   UNL A   1      39.651  27.759  28.369  1.00  0.00     0.029 A 
ATOM     40  N   UNL A   1      41.129  27.877  30.043  1.00  0.00    -0.354 N 
ATOM     41  C   UNL A   1      40.727  30.808  33.180  1.00  0.00     0.074 A 
ATOM     42  C   UNL A   1      39.574  31.652  32.956  1.00  0.00     0.031 C 
ATOM     43  C   UNL A   1      40.602  26.841  28.131  1.00  0.00     0.029 A 
ATOM     44  C   UNL A   1      41.597  26.898  29.199  1.00  0.00     0.049 A 
ATOM     45  H   UNL A   1      41.593  28.141  30.870  1.00  0.00     0.167 HD
ATOM     46  C   UNL A   1      41.580  30.949  34.225  1.00  0.00     0.031 A 
ATOM     47  C   UNL A   1      42.702  26.129  29.273  1.00  0.00     0.031 A 
ATOM     48  C   UNL A   1      42.719  30.100  34.452  1.00  0.00     0.049 A 
ATOM     49  C   UNL A   1      43.613  26.267  30.459  1.00  0.00     0.074 A 
ATOM     50  C   UNL A   1      43.607  30.113  35.513  1.00  0.00     0.029 A 
ATOM     51  N   UNL A   1      43.132  29.088  33.596  1.00  0.00    -0.354 N 
ATOM     52  N   UNL A   1      43.537  27.110  31.462  1.00  0.00    -0.248 NA
ATOM     53  C   UNL A   1      44.743  25.333  30.537  1.00  0.00     0.031 C 
ATOM     54  C   UNL A   1      44.584  29.139  35.276  1.00  0.00     0.029 A 
ATOM     55  C   UNL A   1      44.272  28.481  34.096  1.00  0.00     0.049 A 
ATOM     56  H   UNL A   1      42.679  28.838  32.759  1.00  0.00     0.167 HD
ATOM     57  C   UNL A   1      44.597  26.793  32.304  1.00  0.00     0.074 A 
ATOM     58  C   UNL A   1      45.289  25.673  31.699  1.00  0.00     0.031 C 
ATOM     59  C   UNL A   1      44.959  27.375  33.476  1.00  0.00     0.031 A 
BRANCH  46  60
ATOM     60  C   UNL A   1      41.310  32.084  35.182  1.00  0.00    -0.014 A 
ATOM     61  C   UNL A   1      40.488  31.908  36.311  1.00  0.00     0.010 A 
ATOM     62  C   UNL A   1      41.869  33.350  34.937  1.00  0.00     0.010 A 
ATOM     63  C   UNL A   1      40.167  32.994  37.130  1.00  0.00     0.020 A 
ATOM     64  C   UNL A   1      41.579  34.432  35.774  1.00  0.00     0.020 A 
ATOM     65  C   UNL A   1      40.703  34.254  36.847  1.00  0.00     0.054 A 
BRANCH  65  66
ATOM     66  S   UNL A   1      40.243  35.655  37.903  1.00  0.00     0.124 S 
ATOM     67  O   UNL A   1      39.085  35.123  38.618  1.00  0.00    -0.237 OA
ATOM     68  O   UNL A   1      41.441  35.856  38.713  1.00  0.00    -0.237 OA
ATOM     69  O   UNL A   1      39.951  36.724  36.951  1.00  0.00    -0.744 OA
ENDBRANCH  65  66
ENDBRANCH  46  60
BRANCH  47  70
ATOM     70  C   UNL A   1      42.967  25.139  28.196  1.00  0.00    -0.014 A 
ATOM     71  C   UNL A   1      43.782  25.473  27.101  1.00  0.00     0.010 A 
ATOM     72  C   UNL A   1      42.468  23.827  28.303  1.00  0.00     0.010 A 
ATOM     73  C   UNL A   1      44.102  24.512  26.136  1.00  0.00     0.020 A 
ATOM     74  C   UNL A   1      42.805  22.858  27.354  1.00  0.00     0.020 A 
ATOM     75  C   UNL A   1      43.619  23.207  26.276  1.00  0.00     0.054 A 
BRANCH  75  76
ATOM     76  S   UNL A   1      44.137  21.949  25.074  1.00  0.00     0.124 S 
ATOM     77  O   UNL A   1      43.177  20.878  25.321  1.00  0.00    -0.237 OA
ATOM     78  O   UNL A   1      43.991  22.650  23.801  1.00  0.00    -0.237 OA
ATOM     79  O   UNL A   1      45.516  21.657  25.458  1.00  0.00    -0.744 OA
ENDBRANCH  75  76
ENDBRANCH  47  70
BRANCH  59  80
ATOM     80  C   UNL A   1      46.145  26.792  34.197  1.00  0.00    -0.014 A 
ATOM     81  C   UNL A   1      47.453  27.245  33.944  1.00  0.00     0.010 A 
ATOM     82  C   UNL A   1      45.941  25.801  35.176  1.00  0.00     0.010 A 
ATOM     83  C   UNL A   1      48.537  26.690  34.628  1.00  0.00     0.020 A 
ATOM     84  C   UNL A   1      47.019  25.264  35.881  1.00  0.00     0.020 A 
ATOM     85  C   UNL A   1      48.314  25.699  35.589  1.00  0.00     0.054 A 
BRANCH  85  86
ATOM     86  S   UNL A   1      49.734  25.010  36.482  1.00  0.00     0.124 S 
ATOM     87  O   UNL A   1      49.275  23.658  36.785  1.00  0.00    -0.237 OA
ATOM     88  O   UNL A   1      50.810  25.104  35.498  1.00  0.00    -0.237 OA
ATOM     89  O   UNL A   1      49.877  25.893  37.638  1.00  0.00    -0.744 OA
ENDBRANCH  85  86
ENDBRANCH  59  80
ENDBRANCH  33  34
ENDBRANCH  25  28
ENDBRANCH  23  24
ENDBRANCH  22  23
ENDBRANCH   1  22
TORSDOF 17
ENDMDL
