MODEL 1
REMARK VINA RESULT:     -10.2      0.000      0.000
REMARK SMILES COc1ccc([C@@H]([NH3+])[C@](C)(C(N)=O)C(=O)NCCCNC(=O)c2ccc(-c3c4nc(c(-c5ccc(S(=O)(=O)[O-])cc5)c5ccc([nH]5)c(-c5ccc(S(=O)(=O)[O-])cc5)c5nc(c(-c6ccc(S(=O)(=O)[O-])cc6)c6ccc3[nH]6)C=C5)C=C4)cc2)cc1OC
REMARK SMILES IDX 18 1 17 2 16 3 14 4 15 5 9 7 10 8 7 9 6 10 3 11 4 12 84 13
REMARK SMILES IDX 5 14 83 15 2 16 1 17 85 18 86 19 8 20 11 24 12 25 13 26
REMARK SMILES IDX 19 29 20 30 21 31 22 33 23 34 24 35 82 36 25 37 81 38 26 39
REMARK SMILES IDX 27 40 28 41 75 42 29 43 80 44 74 45 76 46 30 47 79 48 73 49
REMARK SMILES IDX 72 50 31 52 61 53 42 54 60 55 43 56 46 57 59 58 77 59 44 60
REMARK SMILES IDX 45 61 58 63 78 64 47 65 32 66 33 67 41 68 34 69 40 70 35 71
REMARK SMILES IDX 36 72 37 73 38 74 39 75 62 76 63 77 71 78 64 79 70 80 65 81
REMARK SMILES IDX 66 82 67 83 68 84 69 85 48 86 49 87 57 88 50 89 56 90 51 91
REMARK SMILES IDX 52 92 53 93 54 94 55 95
REMARK H PARENT 16 6 8 21 8 22 8 23 12 27 12 28 20 32 76 51 46 62
REMARK Flexibility Score: inf
ROOT
ATOM      1  C   UNL A   1      36.517  23.274  23.533  1.00  0.00     0.042 C 
ENDROOT
BRANCH   1   2
ATOM      2  C   UNL A   1      35.008  23.113  23.444  1.00  0.00     0.117 C 
BRANCH   2   3
ATOM      3  N   UNL A   1      34.465  22.419  24.601  1.00  0.00    -0.355 N 
ATOM      4  C   UNL A   1      33.381  22.678  25.385  1.00  0.00     0.241 C 
ATOM      5  O   UNL A   1      33.278  21.989  26.407  1.00  0.00    -0.274 OA
ATOM      6  H   UNL A   1      34.973  21.618  24.867  1.00  0.00     0.163 HD
BRANCH   4   7
ATOM      7  C   UNL A   1      32.354  23.767  25.031  1.00  0.00     0.180 C 
ATOM      8  C   UNL A   1      31.583  23.331  23.759  1.00  0.00     0.039 C 
BRANCH   7   9
ATOM      9  C   UNL A   1      33.097  25.141  24.822  1.00  0.00     0.237 C 
BRANCH   9  10
ATOM     10  C   UNL A   1      32.184  26.315  24.476  1.00  0.00     0.015 A 
ATOM     11  C   UNL A   1      30.647  28.594  23.831  1.00  0.00     0.160 A 
ATOM     12  C   UNL A   1      30.607  27.451  23.021  1.00  0.00     0.051 A 
ATOM     13  C   UNL A   1      31.413  28.594  24.999  1.00  0.00     0.161 A 
ATOM     14  C   UNL A   1      31.367  26.322  23.342  1.00  0.00     0.014 A 
ATOM     15  C   UNL A   1      32.167  27.451  25.306  1.00  0.00     0.060 A 
BRANCH  11  16
ATOM     16  O   UNL A   1      29.837  29.644  23.491  1.00  0.00    -0.493 OA
ATOM     17  C   UNL A   1      29.794  29.834  22.077  1.00  0.00     0.278 C 
ENDBRANCH  11  16
BRANCH  13  18
ATOM     18  O   UNL A   1      31.542  29.573  25.946  1.00  0.00    -0.493 OA
ATOM     19  C   UNL A   1      32.824  29.827  26.496  1.00  0.00     0.278 C 
ENDBRANCH  13  18
ENDBRANCH   9  10
BRANCH   9  20
ATOM     20  N   UNL A   1      33.996  25.524  25.931  1.00  0.00    -0.350 N 
ATOM     21  H   UNL A   1      33.660  25.110  26.800  1.00  0.00     0.345 HD
ATOM     22  H   UNL A   1      34.009  26.540  26.022  1.00  0.00     0.345 HD
ATOM     23  H   UNL A   1      34.939  25.188  25.737  1.00  0.00     0.345 HD
ENDBRANCH   9  20
ENDBRANCH   7   9
BRANCH   7  24
ATOM     24  C   UNL A   1      31.293  23.889  26.131  1.00  0.00     0.239 C 
ATOM     25  N   UNL A   1      30.057  23.363  25.871  1.00  0.00    -0.369 N 
ATOM     26  O   UNL A   1      31.485  24.470  27.196  1.00  0.00    -0.274 OA
ATOM     27  H   UNL A   1      29.890  22.895  25.021  1.00  0.00     0.159 HD
ATOM     28  H   UNL A   1      29.334  23.454  26.532  1.00  0.00     0.159 HD
ENDBRANCH   7  24
ENDBRANCH   4   7
ENDBRANCH   2   3
ENDBRANCH   1   2
BRANCH   1  29
ATOM     29  C   UNL A   1      37.012  23.588  24.937  1.00  0.00     0.118 C 
BRANCH  29  30
ATOM     30  N   UNL A   1      37.977  22.612  25.424  1.00  0.00    -0.352 N 
ATOM     31  C   UNL A   1      39.118  22.799  26.172  1.00  0.00     0.251 C 
ATOM     32  H   UNL A   1      37.784  21.677  25.182  1.00  0.00     0.163 HD
ATOM     33  O   UNL A   1      39.910  21.878  26.315  1.00  0.00    -0.269 OA
BRANCH  31  34
ATOM     34  C   UNL A   1      39.392  24.122  26.772  1.00  0.00     0.039 A 
ATOM     35  C   UNL A   1      38.948  24.384  28.070  1.00  0.00     0.014 A 
ATOM     36  C   UNL A   1      40.100  25.094  26.062  1.00  0.00     0.014 A 
ATOM     37  C   UNL A   1      39.295  25.590  28.687  1.00  0.00     0.010 A 
ATOM     38  C   UNL A   1      40.526  26.248  26.711  1.00  0.00     0.010 A 
ATOM     39  C   UNL A   1      40.131  26.508  28.031  1.00  0.00    -0.014 A 
BRANCH  39  40
ATOM     40  C   UNL A   1      40.618  27.740  28.705  1.00  0.00     0.031 A 
ATOM     41  C   UNL A   1      41.997  27.775  29.309  1.00  0.00     0.074 A 
ATOM     42  C   UNL A   1      39.791  28.795  28.847  1.00  0.00     0.049 A 
ATOM     43  N   UNL A   1      42.561  28.716  30.021  1.00  0.00    -0.248 NA
ATOM     44  C   UNL A   1      42.843  26.585  29.109  1.00  0.00     0.031 C 
ATOM     45  C   UNL A   1      38.419  28.873  28.338  1.00  0.00     0.029 A 
ATOM     46  N   UNL A   1      39.978  30.002  29.475  1.00  0.00    -0.354 N 
ATOM     47  C   UNL A   1      43.815  28.227  30.369  1.00  0.00     0.074 A 
ATOM     48  C   UNL A   1      43.909  26.887  29.835  1.00  0.00     0.031 C 
ATOM     49  C   UNL A   1      37.901  30.072  28.650  1.00  0.00     0.029 A 
ATOM     50  C   UNL A   1      38.879  30.827  29.427  1.00  0.00     0.049 A 
ATOM     51  H   UNL A   1      40.822  30.254  29.918  1.00  0.00     0.167 HD
ATOM     52  C   UNL A   1      44.806  28.845  31.055  1.00  0.00     0.031 A 
ATOM     53  C   UNL A   1      38.672  32.047  29.961  1.00  0.00     0.031 A 
ATOM     54  C   UNL A   1      44.710  30.182  31.578  1.00  0.00     0.049 A 
ATOM     55  C   UNL A   1      39.775  32.699  30.749  1.00  0.00     0.074 A 
ATOM     56  C   UNL A   1      45.678  30.917  32.239  1.00  0.00     0.029 A 
ATOM     57  N   UNL A   1      43.579  30.982  31.507  1.00  0.00    -0.354 N 
ATOM     58  N   UNL A   1      40.978  32.246  31.009  1.00  0.00    -0.248 NA
ATOM     59  C   UNL A   1      39.495  34.028  31.310  1.00  0.00     0.031 C 
ATOM     60  C   UNL A   1      45.113  32.136  32.625  1.00  0.00     0.029 A 
ATOM     61  C   UNL A   1      43.816  32.189  32.143  1.00  0.00     0.049 A 
ATOM     62  H   UNL A   1      42.734  30.729  31.070  1.00  0.00     0.167 HD
ATOM     63  C   UNL A   1      41.608  33.247  31.741  1.00  0.00     0.074 A 
ATOM     64  C   UNL A   1      40.658  34.333  31.868  1.00  0.00     0.031 C 
ATOM     65  C   UNL A   1      42.861  33.263  32.262  1.00  0.00     0.031 A 
BRANCH  52  66
ATOM     66  C   UNL A   1      46.080  28.074  31.287  1.00  0.00    -0.014 A 
ATOM     67  C   UNL A   1      46.236  27.245  32.413  1.00  0.00     0.010 A 
ATOM     68  C   UNL A   1      47.120  28.143  30.342  1.00  0.00     0.010 A 
ATOM     69  C   UNL A   1      47.422  26.535  32.612  1.00  0.00     0.020 A 
ATOM     70  C   UNL A   1      48.296  27.409  30.520  1.00  0.00     0.020 A 
ATOM     71  C   UNL A   1      48.445  26.623  31.664  1.00  0.00     0.054 A 
BRANCH  71  72
ATOM     72  S   UNL A   1      49.964  25.671  31.938  1.00  0.00     0.124 S 
ATOM     73  O   UNL A   1      50.111  24.967  30.666  1.00  0.00    -0.237 OA
ATOM     74  O   UNL A   1      50.953  26.714  32.195  1.00  0.00    -0.237 OA
ATOM     75  O   UNL A   1      49.643  24.824  33.084  1.00  0.00    -0.744 OA
ENDBRANCH  71  72
ENDBRANCH  52  66
BRANCH  53  76
ATOM     76  C   UNL A   1      37.363  32.732  29.768  1.00  0.00    -0.014 A 
ATOM     77  C   UNL A   1      36.353  32.632  30.741  1.00  0.00     0.010 A 
ATOM     78  C   UNL A   1      37.122  33.498  28.613  1.00  0.00     0.010 A 
ATOM     79  C   UNL A   1      35.123  33.268  30.556  1.00  0.00     0.020 A 
ATOM     80  C   UNL A   1      35.904  34.162  28.437  1.00  0.00     0.020 A 
ATOM     81  C   UNL A   1      34.908  34.033  29.405  1.00  0.00     0.054 A 
BRANCH  81  82
ATOM     82  S   UNL A   1      33.321  34.890  29.210  1.00  0.00     0.124 S 
ATOM     83  O   UNL A   1      32.654  34.068  28.205  1.00  0.00    -0.237 OA
ATOM     84  O   UNL A   1      32.760  34.824  30.558  1.00  0.00    -0.237 OA
ATOM     85  O   UNL A   1      33.707  36.229  28.770  1.00  0.00    -0.744 OA
ENDBRANCH  81  82
ENDBRANCH  53  76
BRANCH  65  86
ATOM     86  C   UNL A   1      43.296  34.505  32.993  1.00  0.00    -0.014 A 
ATOM     87  C   UNL A   1      43.795  35.622  32.300  1.00  0.00     0.010 A 
ATOM     88  C   UNL A   1      43.134  34.582  34.389  1.00  0.00     0.010 A 
ATOM     89  C   UNL A   1      44.143  36.786  32.992  1.00  0.00     0.020 A 
ATOM     90  C   UNL A   1      43.450  35.754  35.080  1.00  0.00     0.020 A 
ATOM     91  C   UNL A   1      43.963  36.846  34.378  1.00  0.00     0.054 A 
BRANCH  91  92
ATOM     92  S   UNL A   1      44.361  38.389  35.242  1.00  0.00     0.124 S 
ATOM     93  O   UNL A   1      45.815  38.441  35.117  1.00  0.00    -0.237 OA
ATOM     94  O   UNL A   1      43.628  39.387  34.467  1.00  0.00    -0.237 OA
ATOM     95  O   UNL A   1      43.860  38.170  36.596  1.00  0.00    -0.744 OA
ENDBRANCH  91  92
ENDBRANCH  65  86
ENDBRANCH  39  40
ENDBRANCH  31  34
ENDBRANCH  29  30
ENDBRANCH   1  29
TORSDOF 19
ENDMDL
MODEL 2
REMARK VINA RESULT:     -10.1      3.182      4.004
REMARK SMILES COc1ccc([C@@H]([NH3+])[C@](C)(C(N)=O)C(=O)NCCCNC(=O)c2ccc(-c3c4nc(c(-c5ccc(S(=O)(=O)[O-])cc5)c5ccc([nH]5)c(-c5ccc(S(=O)(=O)[O-])cc5)c5nc(c(-c6ccc(S(=O)(=O)[O-])cc6)c6ccc3[nH]6)C=C5)C=C4)cc2)cc1OC
REMARK SMILES IDX 18 1 17 2 16 3 14 4 15 5 9 7 10 8 7 9 6 10 3 11 4 12 84 13
REMARK SMILES IDX 5 14 83 15 2 16 1 17 85 18 86 19 8 20 11 24 12 25 13 26
REMARK SMILES IDX 19 29 20 30 21 31 22 33 23 34 24 35 82 36 25 37 81 38 26 39
REMARK SMILES IDX 27 40 28 41 75 42 29 43 80 44 74 45 76 46 30 47 79 48 73 49
REMARK SMILES IDX 72 50 31 52 61 53 42 54 60 55 43 56 46 57 59 58 77 59 44 60
REMARK SMILES IDX 45 61 58 63 78 64 47 65 32 66 33 67 41 68 34 69 40 70 35 71
REMARK SMILES IDX 36 72 37 73 38 74 39 75 62 76 63 77 71 78 64 79 70 80 65 81
REMARK SMILES IDX 66 82 67 83 68 84 69 85 48 86 49 87 57 88 50 89 56 90 51 91
REMARK SMILES IDX 52 92 53 93 54 94 55 95
REMARK H PARENT 16 6 8 21 8 22 8 23 12 27 12 28 20 32 76 51 46 62
REMARK Flexibility Score: inf
ROOT
ATOM      1  C   UNL A   1      37.281  23.627  25.164  1.00  0.00     0.042 C 
ENDROOT
BRANCH   1   2
ATOM      2  C   UNL A   1      35.785  23.685  25.432  1.00  0.00     0.117 C 
BRANCH   2   3
ATOM      3  N   UNL A   1      35.406  22.877  26.581  1.00  0.00    -0.355 N 
ATOM      4  C   UNL A   1      34.245  22.237  26.893  1.00  0.00     0.241 C 
ATOM      5  O   UNL A   1      34.178  21.768  28.035  1.00  0.00    -0.274 OA
ATOM      6  H   UNL A   1      36.116  22.776  27.255  1.00  0.00     0.163 HD
BRANCH   4   7
ATOM      7  C   UNL A   1      33.081  22.116  25.894  1.00  0.00     0.180 C 
ATOM      8  C   UNL A   1      33.551  22.643  24.514  1.00  0.00     0.039 C 
BRANCH   7   9
ATOM      9  C   UNL A   1      31.838  22.919  26.435  1.00  0.00     0.237 C 
BRANCH   9  10
ATOM     10  C   UNL A   1      31.753  24.366  25.953  1.00  0.00     0.015 A 
ATOM     11  C   UNL A   1      31.416  27.040  25.111  1.00  0.00     0.160 A 
ATOM     12  C   UNL A   1      32.394  26.705  26.057  1.00  0.00     0.051 A 
ATOM     13  C   UNL A   1      30.630  26.038  24.536  1.00  0.00     0.161 A 
ATOM     14  C   UNL A   1      32.562  25.380  26.472  1.00  0.00     0.014 A 
ATOM     15  C   UNL A   1      30.814  24.714  24.963  1.00  0.00     0.060 A 
BRANCH  11  16
ATOM     16  O   UNL A   1      31.340  28.345  24.708  1.00  0.00    -0.493 OA
ATOM     17  C   UNL A   1      32.614  28.837  24.290  1.00  0.00     0.278 C 
ENDBRANCH  11  16
BRANCH  13  18
ATOM     18  O   UNL A   1      29.672  26.143  23.565  1.00  0.00    -0.493 OA
ATOM     19  C   UNL A   1      28.358  26.522  23.941  1.00  0.00     0.278 C 
ENDBRANCH  13  18
ENDBRANCH   9  10
BRANCH   9  20
ATOM     20  N   UNL A   1      30.538  22.250  26.223  1.00  0.00    -0.350 N 
ATOM     21  H   UNL A   1      30.671  21.239  26.227  1.00  0.00     0.345 HD
ATOM     22  H   UNL A   1      30.150  22.538  25.325  1.00  0.00     0.345 HD
ATOM     23  H   UNL A   1      29.895  22.510  26.971  1.00  0.00     0.345 HD
ENDBRANCH   9  20
ENDBRANCH   7   9
BRANCH   7  24
ATOM     24  C   UNL A   1      32.714  20.644  25.667  1.00  0.00     0.239 C 
ATOM     25  N   UNL A   1      33.320  19.716  26.468  1.00  0.00    -0.369 N 
ATOM     26  O   UNL A   1      31.952  20.265  24.780  1.00  0.00    -0.274 OA
ATOM     27  H   UNL A   1      33.932  20.007  27.182  1.00  0.00     0.159 HD
ATOM     28  H   UNL A   1      33.144  18.757  26.332  1.00  0.00     0.159 HD
ENDBRANCH   7  24
ENDBRANCH   4   7
ENDBRANCH   2   3
ENDBRANCH   1   2
BRANCH   1  29
ATOM     29  C   UNL A   1      38.116  24.309  26.237  1.00  0.00     0.118 C 
BRANCH  29  30
ATOM     30  N   UNL A   1      39.531  23.979  26.142  1.00  0.00    -0.352 N 
ATOM     31  C   UNL A   1      40.626  24.644  26.647  1.00  0.00     0.251 C 
ATOM     32  H   UNL A   1      39.735  23.156  25.641  1.00  0.00     0.163 HD
ATOM     33  O   UNL A   1      41.752  24.320  26.293  1.00  0.00    -0.269 OA
BRANCH  31  34
ATOM     34  C   UNL A   1      40.432  25.765  27.591  1.00  0.00     0.039 A 
ATOM     35  C   UNL A   1      39.524  25.619  28.642  1.00  0.00     0.014 A 
ATOM     36  C   UNL A   1      41.157  26.950  27.449  1.00  0.00     0.014 A 
ATOM     37  C   UNL A   1      39.412  26.629  29.602  1.00  0.00     0.010 A 
ATOM     38  C   UNL A   1      41.116  27.908  28.456  1.00  0.00     0.010 A 
ATOM     39  C   UNL A   1      40.246  27.757  29.545  1.00  0.00    -0.014 A 
BRANCH  39  40
ATOM     40  C   UNL A   1      40.239  28.789  30.616  1.00  0.00     0.031 A 
ATOM     41  C   UNL A   1      41.160  28.654  31.799  1.00  0.00     0.074 A 
ATOM     42  C   UNL A   1      39.346  29.797  30.565  1.00  0.00     0.049 A 
ATOM     43  N   UNL A   1      41.229  29.391  32.877  1.00  0.00    -0.248 NA
ATOM     44  C   UNL A   1      42.109  27.527  31.781  1.00  0.00     0.031 C 
ATOM     45  C   UNL A   1      38.375  30.019  29.491  1.00  0.00     0.029 A 
ATOM     46  N   UNL A   1      39.100  30.820  31.448  1.00  0.00    -0.354 N 
ATOM     47  C   UNL A   1      42.212  28.810  33.670  1.00  0.00     0.074 A 
ATOM     48  C   UNL A   1      42.674  27.630  32.974  1.00  0.00     0.031 C 
ATOM     49  C   UNL A   1      37.659  31.122  29.764  1.00  0.00     0.029 A 
ATOM     50  C   UNL A   1      38.080  31.656  31.056  1.00  0.00     0.049 A 
ATOM     51  H   UNL A   1      39.607  30.945  32.283  1.00  0.00     0.167 HD
ATOM     52  C   UNL A   1      42.700  29.231  34.862  1.00  0.00     0.031 A 
ATOM     53  C   UNL A   1      37.530  32.721  31.671  1.00  0.00     0.031 A 
ATOM     54  C   UNL A   1      42.241  30.411  35.547  1.00  0.00     0.049 A 
ATOM     55  C   UNL A   1      38.064  33.149  33.011  1.00  0.00     0.074 A 
ATOM     56  C   UNL A   1      42.709  30.951  36.732  1.00  0.00     0.029 A 
ATOM     57  N   UNL A   1      41.207  31.228  35.115  1.00  0.00    -0.354 N 
ATOM     58  N   UNL A   1      39.040  32.624  33.713  1.00  0.00    -0.248 NA
ATOM     59  C   UNL A   1      37.428  34.315  33.639  1.00  0.00     0.031 C 
ATOM     60  C   UNL A   1      41.916  32.058  37.049  1.00  0.00     0.029 A 
ATOM     61  C   UNL A   1      41.000  32.248  36.028  1.00  0.00     0.049 A 
ATOM     62  H   UNL A   1      40.696  31.101  34.283  1.00  0.00     0.167 HD
ATOM     63  C   UNL A   1      39.152  33.414  34.853  1.00  0.00     0.074 A 
ATOM     64  C   UNL A   1      38.156  34.459  34.738  1.00  0.00     0.031 C 
ATOM     65  C   UNL A   1      40.004  33.283  35.901  1.00  0.00     0.031 A 
BRANCH  52  66
ATOM     66  C   UNL A   1      43.780  28.402  35.506  1.00  0.00    -0.014 A 
ATOM     67  C   UNL A   1      43.467  27.360  36.398  1.00  0.00     0.010 A 
ATOM     68  C   UNL A   1      45.128  28.639  35.181  1.00  0.00     0.010 A 
ATOM     69  C   UNL A   1      44.481  26.600  36.984  1.00  0.00     0.020 A 
ATOM     70  C   UNL A   1      46.145  27.859  35.739  1.00  0.00     0.020 A 
ATOM     71  C   UNL A   1      45.814  26.854  36.652  1.00  0.00     0.054 A 
BRANCH  71  72
ATOM     72  S   UNL A   1      47.107  25.835  37.411  1.00  0.00     0.124 S 
ATOM     73  O   UNL A   1      46.600  24.484  37.179  1.00  0.00    -0.237 OA
ATOM     74  O   UNL A   1      48.294  26.199  36.643  1.00  0.00    -0.237 OA
ATOM     75  O   UNL A   1      47.115  26.265  38.807  1.00  0.00    -0.744 OA
ENDBRANCH  71  72
ENDBRANCH  52  66
BRANCH  53  76
ATOM     76  C   UNL A   1      36.408  33.458  31.026  1.00  0.00    -0.014 A 
ATOM     77  C   UNL A   1      35.378  34.015  31.803  1.00  0.00     0.010 A 
ATOM     78  C   UNL A   1      36.368  33.615  29.628  1.00  0.00     0.010 A 
ATOM     79  C   UNL A   1      34.320  34.699  31.195  1.00  0.00     0.020 A 
ATOM     80  C   UNL A   1      35.330  34.325  29.018  1.00  0.00     0.020 A 
ATOM     81  C   UNL A   1      34.306  34.853  29.806  1.00  0.00     0.054 A 
BRANCH  81  82
ATOM     82  S   UNL A   1      32.950  35.787  29.044  1.00  0.00     0.124 S 
ATOM     83  O   UNL A   1      32.410  34.818  28.096  1.00  0.00    -0.237 OA
ATOM     84  O   UNL A   1      32.098  36.095  30.191  1.00  0.00    -0.237 OA
ATOM     85  O   UNL A   1      33.622  36.941  28.449  1.00  0.00    -0.744 OA
ENDBRANCH  81  82
ENDBRANCH  53  76
BRANCH  65  86
ATOM     86  C   UNL A   1      39.923  34.312  36.997  1.00  0.00    -0.014 A 
ATOM     87  C   UNL A   1      40.567  35.556  36.879  1.00  0.00     0.010 A 
ATOM     88  C   UNL A   1      39.130  34.056  38.131  1.00  0.00     0.010 A 
ATOM     89  C   UNL A   1      40.435  36.519  37.884  1.00  0.00     0.020 A 
ATOM     90  C   UNL A   1      38.971  35.027  39.123  1.00  0.00     0.020 A 
ATOM     91  C   UNL A   1      39.632  36.249  38.998  1.00  0.00     0.054 A 
BRANCH  91  92
ATOM     92  S   UNL A   1      39.427  37.539  40.256  1.00  0.00     0.124 S 
ATOM     93  O   UNL A   1      38.507  38.462  39.597  1.00  0.00    -0.237 OA
ATOM     94  O   UNL A   1      38.871  36.798  41.386  1.00  0.00    -0.237 OA
ATOM     95  O   UNL A   1      40.781  38.047  40.457  1.00  0.00    -0.744 OA
ENDBRANCH  91  92
ENDBRANCH  65  86
ENDBRANCH  39  40
ENDBRANCH  31  34
ENDBRANCH  29  30
ENDBRANCH   1  29
TORSDOF 19
ENDMDL
MODEL 3
REMARK VINA RESULT:     -10.0      3.166      9.333
REMARK SMILES COc1ccc([C@@H]([NH3+])[C@](C)(C(N)=O)C(=O)NCCCNC(=O)c2ccc(-c3c4nc(c(-c5ccc(S(=O)(=O)[O-])cc5)c5ccc([nH]5)c(-c5ccc(S(=O)(=O)[O-])cc5)c5nc(c(-c6ccc(S(=O)(=O)[O-])cc6)c6ccc3[nH]6)C=C5)C=C4)cc2)cc1OC
REMARK SMILES IDX 18 1 17 2 16 3 14 4 15 5 9 7 10 8 7 9 6 10 3 11 4 12 84 13
REMARK SMILES IDX 5 14 83 15 2 16 1 17 85 18 86 19 8 20 11 24 12 25 13 26
REMARK SMILES IDX 19 29 20 30 21 31 22 33 23 34 24 35 82 36 25 37 81 38 26 39
REMARK SMILES IDX 27 40 28 41 75 42 29 43 80 44 74 45 76 46 30 47 79 48 73 49
REMARK SMILES IDX 72 50 31 52 61 53 42 54 60 55 43 56 46 57 59 58 77 59 44 60
REMARK SMILES IDX 45 61 58 63 78 64 47 65 32 66 33 67 41 68 34 69 40 70 35 71
REMARK SMILES IDX 36 72 37 73 38 74 39 75 62 76 63 77 71 78 64 79 70 80 65 81
REMARK SMILES IDX 66 82 67 83 68 84 69 85 48 86 49 87 57 88 50 89 56 90 51 91
REMARK SMILES IDX 52 92 53 93 54 94 55 95
REMARK H PARENT 16 6 8 21 8 22 8 23 12 27 12 28 20 32 76 51 46 62
REMARK Flexibility Score: inf
ROOT
ATOM      1  C   UNL A   1      32.005  28.120  27.280  1.00  0.00     0.042 C 
ENDROOT
BRANCH   1   2
ATOM      2  C   UNL A   1      31.406  27.354  26.112  1.00  0.00     0.117 C 
BRANCH   2   3
ATOM      3  N   UNL A   1      32.275  27.373  24.945  1.00  0.00    -0.355 N 
ATOM      4  C   UNL A   1      32.840  26.366  24.222  1.00  0.00     0.241 C 
ATOM      5  O   UNL A   1      33.674  26.711  23.378  1.00  0.00    -0.274 OA
ATOM      6  H   UNL A   1      32.495  28.275  24.620  1.00  0.00     0.163 HD
BRANCH   4   7
ATOM      7  C   UNL A   1      32.473  24.889  24.447  1.00  0.00     0.180 C 
ATOM      8  C   UNL A   1      32.918  24.476  25.874  1.00  0.00     0.039 C 
BRANCH   7   9
ATOM      9  C   UNL A   1      33.161  24.002  23.341  1.00  0.00     0.237 C 
BRANCH   9  10
ATOM     10  C   UNL A   1      33.353  22.537  23.724  1.00  0.00     0.015 A 
ATOM     11  C   UNL A   1      33.732  19.882  24.608  1.00  0.00     0.160 A 
ATOM     12  C   UNL A   1      32.567  20.248  23.919  1.00  0.00     0.051 A 
ATOM     13  C   UNL A   1      34.742  20.823  24.818  1.00  0.00     0.161 A 
ATOM     14  C   UNL A   1      32.382  21.563  23.480  1.00  0.00     0.014 A 
ATOM     15  C   UNL A   1      34.539  22.136  24.368  1.00  0.00     0.060 A 
BRANCH  11  16
ATOM     16  O   UNL A   1      33.875  18.568  24.962  1.00  0.00    -0.493 OA
ATOM     17  C   UNL A   1      33.784  17.708  23.827  1.00  0.00     0.278 C 
ENDBRANCH  11  16
BRANCH  13  18
ATOM     18  O   UNL A   1      35.965  20.658  25.409  1.00  0.00    -0.493 OA
ATOM     19  C   UNL A   1      36.897  19.769  24.816  1.00  0.00     0.278 C 
ENDBRANCH  13  18
ENDBRANCH   9  10
BRANCH   9  20
ATOM     20  N   UNL A   1      32.526  24.086  22.009  1.00  0.00    -0.350 N 
ATOM     21  H   UNL A   1      33.173  24.520  21.350  1.00  0.00     0.345 HD
ATOM     22  H   UNL A   1      31.677  24.647  22.071  1.00  0.00     0.345 HD
ATOM     23  H   UNL A   1      32.291  23.148  21.684  1.00  0.00     0.345 HD
ENDBRANCH   9  20
ENDBRANCH   7   9
BRANCH   7  24
ATOM     24  C   UNL A   1      30.952  24.699  24.422  1.00  0.00     0.239 C 
ATOM     25  N   UNL A   1      30.406  23.879  25.371  1.00  0.00    -0.369 N 
ATOM     26  O   UNL A   1      30.220  25.201  23.571  1.00  0.00    -0.274 OA
ATOM     27  H   UNL A   1      30.981  23.471  26.058  1.00  0.00     0.159 HD
ATOM     28  H   UNL A   1      29.439  23.698  25.368  1.00  0.00     0.159 HD
ENDBRANCH   7  24
ENDBRANCH   4   7
ENDBRANCH   2   3
ENDBRANCH   1   2
BRANCH   1  29
ATOM     29  C   UNL A   1      33.408  28.640  27.008  1.00  0.00     0.118 C 
BRANCH  29  30
ATOM     30  N   UNL A   1      33.482  30.094  27.025  1.00  0.00    -0.352 N 
ATOM     31  C   UNL A   1      34.410  30.922  27.615  1.00  0.00     0.251 C 
ATOM     32  H   UNL A   1      32.759  30.555  26.540  1.00  0.00     0.163 HD
ATOM     33  O   UNL A   1      34.195  32.125  27.689  1.00  0.00    -0.269 OA
BRANCH  31  34
ATOM     34  C   UNL A   1      35.649  30.348  28.182  1.00  0.00     0.039 A 
ATOM     35  C   UNL A   1      36.866  30.587  27.540  1.00  0.00     0.014 A 
ATOM     36  C   UNL A   1      35.612  29.591  29.355  1.00  0.00     0.014 A 
ATOM     37  C   UNL A   1      38.054  30.142  28.125  1.00  0.00     0.010 A 
ATOM     38  C   UNL A   1      36.800  29.234  29.984  1.00  0.00     0.010 A 
ATOM     39  C   UNL A   1      38.034  29.508  29.378  1.00  0.00    -0.014 A 
BRANCH  39  40
ATOM     40  C   UNL A   1      39.288  29.134  30.084  1.00  0.00     0.031 A 
ATOM     41  C   UNL A   1      39.729  29.904  31.298  1.00  0.00     0.074 A 
ATOM     42  C   UNL A   1      40.070  28.157  29.582  1.00  0.00     0.049 A 
ATOM     43  N   UNL A   1      40.836  29.795  31.987  1.00  0.00    -0.248 NA
ATOM     44  C   UNL A   1      38.820  30.956  31.788  1.00  0.00     0.031 C 
ATOM     45  C   UNL A   1      39.772  27.358  28.390  1.00  0.00     0.029 A 
ATOM     46  N   UNL A   1      41.285  27.677  30.004  1.00  0.00    -0.354 N 
ATOM     47  C   UNL A   1      40.765  30.770  32.975  1.00  0.00     0.074 A 
ATOM     48  C   UNL A   1      39.533  31.496  32.766  1.00  0.00     0.031 C 
ATOM     49  C   UNL A   1      40.762  26.472  28.194  1.00  0.00     0.029 A 
ATOM     50  C   UNL A   1      41.790  26.673  29.210  1.00  0.00     0.049 A 
ATOM     51  H   UNL A   1      41.752  28.018  30.802  1.00  0.00     0.167 HD
ATOM     52  C   UNL A   1      41.639  31.026  33.979  1.00  0.00     0.031 A 
ATOM     53  C   UNL A   1      42.956  26.001  29.278  1.00  0.00     0.031 A 
ATOM     54  C   UNL A   1      42.861  30.296  34.187  1.00  0.00     0.049 A 
ATOM     55  C   UNL A   1      43.926  26.327  30.381  1.00  0.00     0.074 A 
ATOM     56  C   UNL A   1      43.786  30.443  35.206  1.00  0.00     0.029 A 
ATOM     57  N   UNL A   1      43.334  29.288  33.360  1.00  0.00    -0.354 N 
ATOM     58  N   UNL A   1      43.809  27.208  31.346  1.00  0.00    -0.248 NA
ATOM     59  C   UNL A   1      45.183  25.565  30.408  1.00  0.00     0.031 C 
ATOM     60  C   UNL A   1      44.848  29.569  34.960  1.00  0.00     0.029 A 
ATOM     61  C   UNL A   1      44.554  28.828  33.827  1.00  0.00     0.049 A 
ATOM     62  H   UNL A   1      42.871  28.950  32.560  1.00  0.00     0.167 HD
ATOM     63  C   UNL A   1      44.965  27.086  32.110  1.00  0.00     0.074 A 
ATOM     64  C   UNL A   1      45.759  26.037  31.504  1.00  0.00     0.031 C 
ATOM     65  C   UNL A   1      45.335  27.783  33.214  1.00  0.00     0.031 A 
BRANCH  52  66
ATOM     66  C   UNL A   1      41.306  32.152  34.924  1.00  0.00    -0.014 A 
ATOM     67  C   UNL A   1      40.614  31.915  36.126  1.00  0.00     0.010 A 
ATOM     68  C   UNL A   1      41.733  33.459  34.629  1.00  0.00     0.010 A 
ATOM     69  C   UNL A   1      40.316  32.969  36.991  1.00  0.00     0.020 A 
ATOM     70  C   UNL A   1      41.466  34.513  35.508  1.00  0.00     0.020 A 
ATOM     71  C   UNL A   1      40.744  34.262  36.677  1.00  0.00     0.054 A 
BRANCH  71  72
ATOM     72  S   UNL A   1      40.362  35.607  37.832  1.00  0.00     0.124 S 
ATOM     73  O   UNL A   1      40.098  36.719  36.923  1.00  0.00    -0.237 OA
ATOM     74  O   UNL A   1      39.199  35.092  38.549  1.00  0.00    -0.237 OA
ATOM     75  O   UNL A   1      41.578  35.734  38.632  1.00  0.00    -0.744 OA
ENDBRANCH  71  72
ENDBRANCH  52  66
BRANCH  53  76
ATOM     76  C   UNL A   1      43.271  24.951  28.269  1.00  0.00    -0.014 A 
ATOM     77  C   UNL A   1      42.868  23.620  28.472  1.00  0.00     0.010 A 
ATOM     78  C   UNL A   1      43.969  25.280  27.092  1.00  0.00     0.010 A 
ATOM     79  C   UNL A   1      43.172  22.635  27.529  1.00  0.00     0.020 A 
ATOM     80  C   UNL A   1      44.247  24.304  26.131  1.00  0.00     0.020 A 
ATOM     81  C   UNL A   1      43.856  22.984  26.360  1.00  0.00     0.054 A 
BRANCH  81  82
ATOM     82  S   UNL A   1      44.195  21.698  25.127  1.00  0.00     0.124 S 
ATOM     83  O   UNL A   1      43.125  20.739  25.388  1.00  0.00    -0.237 OA
ATOM     84  O   UNL A   1      44.095  22.434  23.870  1.00  0.00    -0.237 OA
ATOM     85  O   UNL A   1      45.541  21.243  25.470  1.00  0.00    -0.744 OA
ENDBRANCH  81  82
ENDBRANCH  53  76
BRANCH  65  86
ATOM     86  C   UNL A   1      46.642  27.416  33.864  1.00  0.00    -0.014 A 
ATOM     87  C   UNL A   1      46.712  26.413  34.848  1.00  0.00     0.010 A 
ATOM     88  C   UNL A   1      47.830  28.035  33.431  1.00  0.00     0.010 A 
ATOM     89  C   UNL A   1      47.944  26.050  35.400  1.00  0.00     0.020 A 
ATOM     90  C   UNL A   1      49.066  27.652  33.958  1.00  0.00     0.020 A 
ATOM     91  C   UNL A   1      49.114  26.669  34.947  1.00  0.00     0.054 A 
BRANCH  91  92
ATOM     92  S   UNL A   1      50.704  26.133  35.634  1.00  0.00     0.124 S 
ATOM     93  O   UNL A   1      50.352  25.836  37.020  1.00  0.00    -0.237 OA
ATOM     94  O   UNL A   1      51.035  24.975  34.807  1.00  0.00    -0.237 OA
ATOM     95  O   UNL A   1      51.572  27.293  35.447  1.00  0.00    -0.744 OA
ENDBRANCH  91  92
ENDBRANCH  65  86
ENDBRANCH  39  40
ENDBRANCH  31  34
ENDBRANCH  29  30
ENDBRANCH   1  29
TORSDOF 19
ENDMDL
