MODEL 1
REMARK VINA RESULT:     -10.0      0.000      0.000
REMARK SMILES C/C=C/C[C@H](Cc1cccc(F)c1)C(=O)NCCCNC(=O)c1ccc(-c2c3nc(c(-c4ccc(S(=O)(=O)[O-])cc4)c4ccc([nH]4)c(-c4ccc(S(=O)(=O)[O-])cc4)c4nc(c(-c5ccc(S(=O)(=O)[O-])cc5)c5ccc2[nH]5)C=C4)C=C3)cc1
REMARK SMILES IDX 18 1 17 2 16 3 14 4 15 5 5 7 4 8 3 9 1 10 2 11 6 12 7 13
REMARK SMILES IDX 8 14 13 15 9 16 11 17 10 18 12 19 19 20 20 21 21 22 22 24
REMARK SMILES IDX 23 25 24 26 82 27 25 28 81 29 26 30 27 31 28 32 75 33 29 34
REMARK SMILES IDX 80 35 74 36 76 37 30 38 79 39 73 40 72 41 31 43 61 44 42 45
REMARK SMILES IDX 60 46 43 47 46 48 59 49 77 50 44 51 45 52 58 54 78 55 47 56
REMARK SMILES IDX 32 57 33 58 41 59 34 60 40 61 35 62 36 63 37 64 38 65 39 66
REMARK SMILES IDX 62 67 63 68 71 69 64 70 70 71 65 72 66 73 67 74 68 75 69 76
REMARK SMILES IDX 48 77 49 78 57 79 50 80 56 81 51 82 52 83 53 84 54 85 55 86
REMARK H PARENT 16 6 20 23 76 42 46 53
REMARK Flexibility Score: inf
ROOT
ATOM      1  C   UNL A   1      32.098  27.726  27.168  1.00  0.00     0.042 C 
ENDROOT
BRANCH   1   2
ATOM      2  C   UNL A   1      31.739  27.164  25.801  1.00  0.00     0.117 C 
BRANCH   2   3
ATOM      3  N   UNL A   1      32.611  27.647  24.743  1.00  0.00    -0.356 N 
ATOM      4  C   UNL A   1      33.429  26.970  23.888  1.00  0.00     0.223 C 
ATOM      5  O   UNL A   1      34.053  27.622  23.049  1.00  0.00    -0.275 OA
ATOM      6  H   UNL A   1      32.612  28.624  24.625  1.00  0.00     0.163 HD
BRANCH   4   7
ATOM      7  C   UNL A   1      33.566  25.454  23.955  1.00  0.00     0.086 C 
BRANCH   7   8
ATOM      8  C   UNL A   1      32.195  24.803  23.670  1.00  0.00     0.040 C 
BRANCH   8   9
ATOM      9  C   UNL A   1      32.230  23.600  22.772  1.00  0.00    -0.031 C 
ATOM     10  C   UNL A   1      32.015  21.142  22.332  1.00  0.00     0.035 C 
ATOM     11  C   UNL A   1      31.940  22.359  23.193  1.00  0.00    -0.035 C 
ENDBRANCH   8   9
ENDBRANCH   7   8
BRANCH   7  12
ATOM     12  C   UNL A   1      34.294  25.055  25.256  1.00  0.00     0.049 C 
BRANCH  12  13
ATOM     13  C   UNL A   1      35.457  24.115  25.031  1.00  0.00    -0.044 A 
ATOM     14  C   UNL A   1      35.492  23.261  23.920  1.00  0.00     0.004 A 
ATOM     15  C   UNL A   1      36.512  24.074  25.954  1.00  0.00     0.043 A 
ATOM     16  C   UNL A   1      36.563  22.382  23.733  1.00  0.00     0.003 A 
ATOM     17  C   UNL A   1      37.570  23.192  25.760  1.00  0.00     0.123 A 
ATOM     18  C   UNL A   1      37.605  22.346  24.658  1.00  0.00     0.039 A 
ATOM     19  F   UNL A   1      38.569  23.154  26.652  1.00  0.00    -0.207 F 
ENDBRANCH  12  13
ENDBRANCH   7  12
ENDBRANCH   4   7
ENDBRANCH   2   3
ENDBRANCH   1   2
BRANCH   1  20
ATOM     20  C   UNL A   1      33.485  28.350  27.234  1.00  0.00     0.118 C 
BRANCH  20  21
ATOM     21  N   UNL A   1      33.443  29.786  27.473  1.00  0.00    -0.352 N 
ATOM     22  C   UNL A   1      34.369  30.616  28.052  1.00  0.00     0.251 C 
ATOM     23  H   UNL A   1      32.617  30.231  27.173  1.00  0.00     0.163 HD
ATOM     24  O   UNL A   1      34.045  31.767  28.346  1.00  0.00    -0.269 OA
BRANCH  22  25
ATOM     25  C   UNL A   1      35.738  30.136  28.339  1.00  0.00     0.039 A 
ATOM     26  C   UNL A   1      36.690  30.153  27.316  1.00  0.00     0.014 A 
ATOM     27  C   UNL A   1      36.082  29.648  29.602  1.00  0.00     0.014 A 
ATOM     28  C   UNL A   1      37.999  29.746  27.580  1.00  0.00     0.010 A 
ATOM     29  C   UNL A   1      37.405  29.330  29.888  1.00  0.00     0.010 A 
ATOM     30  C   UNL A   1      38.378  29.366  28.879  1.00  0.00    -0.014 A 
BRANCH  30  31
ATOM     31  C   UNL A   1      39.782  28.999  29.199  1.00  0.00     0.031 A 
ATOM     32  C   UNL A   1      40.700  30.004  29.843  1.00  0.00     0.074 A 
ATOM     33  C   UNL A   1      40.248  27.783  28.853  1.00  0.00     0.049 A 
ATOM     34  N   UNL A   1      41.967  29.886  30.148  1.00  0.00    -0.248 NA
ATOM     35  C   UNL A   1      40.128  31.322  30.165  1.00  0.00     0.031 C 
ATOM     36  C   UNL A   1      39.471  26.734  28.185  1.00  0.00     0.029 A 
ATOM     37  N   UNL A   1      41.490  27.221  29.011  1.00  0.00    -0.354 N 
ATOM     38  C   UNL A   1      42.346  31.115  30.677  1.00  0.00     0.074 A 
ATOM     39  C   UNL A   1      41.191  31.981  30.603  1.00  0.00     0.031 C 
ATOM     40  C   UNL A   1      40.245  25.650  28.021  1.00  0.00     0.029 A 
ATOM     41  C   UNL A   1      41.583  25.937  28.527  1.00  0.00     0.049 A 
ATOM     42  H   UNL A   1      42.245  27.694  29.432  1.00  0.00     0.167 HD
ATOM     43  C   UNL A   1      43.541  31.485  31.197  1.00  0.00     0.031 A 
ATOM     44  C   UNL A   1      42.628  25.087  28.488  1.00  0.00     0.031 A 
ATOM     45  C   UNL A   1      44.685  30.616  31.279  1.00  0.00     0.049 A 
ATOM     46  C   UNL A   1      43.948  25.523  29.062  1.00  0.00     0.074 A 
ATOM     47  C   UNL A   1      45.924  30.876  31.839  1.00  0.00     0.029 A 
ATOM     48  N   UNL A   1      44.735  29.321  30.784  1.00  0.00    -0.354 N 
ATOM     49  N   UNL A   1      44.266  26.667  29.620  1.00  0.00    -0.248 NA
ATOM     50  C   UNL A   1      45.047  24.550  29.013  1.00  0.00     0.031 C 
ATOM     51  C   UNL A   1      46.741  29.760  31.632  1.00  0.00     0.029 A 
ATOM     52  C   UNL A   1      45.990  28.779  31.003  1.00  0.00     0.049 A 
ATOM     53  H   UNL A   1      43.988  28.857  30.342  1.00  0.00     0.167 HD
ATOM     54  C   UNL A   1      45.593  26.539  30.014  1.00  0.00     0.074 A 
ATOM     55  C   UNL A   1      46.012  25.202  29.646  1.00  0.00     0.031 C 
ATOM     56  C   UNL A   1      46.393  27.446  30.629  1.00  0.00     0.031 A 
BRANCH  43  57
ATOM     57  C   UNL A   1      43.672  32.894  31.716  1.00  0.00    -0.014 A 
ATOM     58  C   UNL A   1      43.934  33.969  30.847  1.00  0.00     0.010 A 
ATOM     59  C   UNL A   1      43.490  33.153  33.087  1.00  0.00     0.010 A 
ATOM     60  C   UNL A   1      44.054  35.269  31.344  1.00  0.00     0.020 A 
ATOM     61  C   UNL A   1      43.579  34.457  33.584  1.00  0.00     0.020 A 
ATOM     62  C   UNL A   1      43.877  35.504  32.711  1.00  0.00     0.054 A 
BRANCH  62  63
ATOM     63  S   UNL A   1      44.017  37.205  33.324  1.00  0.00     0.124 S 
ATOM     64  O   UNL A   1      44.240  37.954  32.089  1.00  0.00    -0.237 OA
ATOM     65  O   UNL A   1      42.721  37.422  33.963  1.00  0.00    -0.237 OA
ATOM     66  O   UNL A   1      45.157  37.155  34.235  1.00  0.00    -0.744 OA
ENDBRANCH  62  63
ENDBRANCH  43  57
BRANCH  44  67
ATOM     67  C   UNL A   1      42.461  23.730  27.898  1.00  0.00    -0.014 A 
ATOM     68  C   UNL A   1      41.962  22.669  28.673  1.00  0.00     0.010 A 
ATOM     69  C   UNL A   1      42.790  23.494  26.549  1.00  0.00     0.010 A 
ATOM     70  C   UNL A   1      41.813  21.394  28.119  1.00  0.00     0.020 A 
ATOM     71  C   UNL A   1      42.614  22.229  25.984  1.00  0.00     0.020 A 
ATOM     72  C   UNL A   1      42.138  21.183  26.776  1.00  0.00     0.054 A 
BRANCH  72  73
ATOM     73  S   UNL A   1      41.888  19.532  26.065  1.00  0.00     0.124 S 
ATOM     74  O   UNL A   1      40.445  19.510  25.847  1.00  0.00    -0.237 OA
ATOM     75  O   UNL A   1      42.711  19.581  24.859  1.00  0.00    -0.237 OA
ATOM     76  O   UNL A   1      42.379  18.633  27.107  1.00  0.00    -0.744 OA
ENDBRANCH  72  73
ENDBRANCH  44  67
BRANCH  56  77
ATOM     77  C   UNL A   1      47.793  27.013  30.979  1.00  0.00    -0.014 A 
ATOM     78  C   UNL A   1      48.077  26.364  32.193  1.00  0.00     0.010 A 
ATOM     79  C   UNL A   1      48.832  27.216  30.051  1.00  0.00     0.010 A 
ATOM     80  C   UNL A   1      49.382  25.958  32.488  1.00  0.00     0.020 A 
ATOM     81  C   UNL A   1      50.130  26.783  30.329  1.00  0.00     0.020 A 
ATOM     82  C   UNL A   1      50.399  26.171  31.553  1.00  0.00     0.054 A 
BRANCH  82  83
ATOM     83  S   UNL A   1      52.075  25.598  31.943  1.00  0.00     0.124 S 
ATOM     84  O   UNL A   1      52.806  25.948  30.728  1.00  0.00    -0.237 OA
ATOM     85  O   UNL A   1      52.415  26.382  33.128  1.00  0.00    -0.237 OA
ATOM     86  O   UNL A   1      51.908  24.166  32.179  1.00  0.00    -0.744 OA
ENDBRANCH  82  83
ENDBRANCH  56  77
ENDBRANCH  30  31
ENDBRANCH  22  25
ENDBRANCH  20  21
ENDBRANCH   1  20
TORSDOF 17
ENDMDL
MODEL 2
REMARK VINA RESULT:     -10.0      1.350      8.520
REMARK SMILES C/C=C/C[C@H](Cc1cccc(F)c1)C(=O)NCCCNC(=O)c1ccc(-c2c3nc(c(-c4ccc(S(=O)(=O)[O-])cc4)c4ccc([nH]4)c(-c4ccc(S(=O)(=O)[O-])cc4)c4nc(c(-c5ccc(S(=O)(=O)[O-])cc5)c5ccc2[nH]5)C=C4)C=C3)cc1
REMARK SMILES IDX 18 1 17 2 16 3 14 4 15 5 5 7 4 8 3 9 1 10 2 11 6 12 7 13
REMARK SMILES IDX 8 14 13 15 9 16 11 17 10 18 12 19 19 20 20 21 21 22 22 24
REMARK SMILES IDX 23 25 24 26 82 27 25 28 81 29 26 30 27 31 28 32 75 33 29 34
REMARK SMILES IDX 80 35 74 36 76 37 30 38 79 39 73 40 72 41 31 43 61 44 42 45
REMARK SMILES IDX 60 46 43 47 46 48 59 49 77 50 44 51 45 52 58 54 78 55 47 56
REMARK SMILES IDX 32 57 33 58 41 59 34 60 40 61 35 62 36 63 37 64 38 65 39 66
REMARK SMILES IDX 62 67 63 68 71 69 64 70 70 71 65 72 66 73 67 74 68 75 69 76
REMARK SMILES IDX 48 77 49 78 57 79 50 80 56 81 51 82 52 83 53 84 54 85 55 86
REMARK H PARENT 16 6 20 23 76 42 46 53
REMARK Flexibility Score: inf
ROOT
ATOM      1  C   UNL A   1      33.686  27.027  25.109  1.00  0.00     0.042 C 
ENDROOT
BRANCH   1   2
ATOM      2  C   UNL A   1      32.314  26.431  24.829  1.00  0.00     0.117 C 
BRANCH   2   3
ATOM      3  N   UNL A   1      31.771  25.706  25.966  1.00  0.00    -0.356 N 
ATOM      4  C   UNL A   1      31.993  24.431  26.394  1.00  0.00     0.223 C 
ATOM      5  O   UNL A   1      31.421  24.059  27.420  1.00  0.00    -0.275 OA
ATOM      6  H   UNL A   1      31.138  26.220  26.517  1.00  0.00     0.163 HD
BRANCH   4   7
ATOM      7  C   UNL A   1      32.925  23.491  25.638  1.00  0.00     0.086 C 
BRANCH   7   8
ATOM      8  C   UNL A   1      32.101  22.644  24.644  1.00  0.00     0.040 C 
BRANCH   8   9
ATOM      9  C   UNL A   1      32.102  21.166  24.906  1.00  0.00    -0.031 C 
ATOM     10  C   UNL A   1      32.528  18.786  24.244  1.00  0.00     0.035 C 
ATOM     11  C   UNL A   1      32.560  20.263  24.025  1.00  0.00    -0.035 C 
ENDBRANCH   8   9
ENDBRANCH   7   8
BRANCH   7  12
ATOM     12  C   UNL A   1      33.833  22.744  26.639  1.00  0.00     0.049 C 
BRANCH  12  13
ATOM     13  C   UNL A   1      35.234  22.512  26.121  1.00  0.00    -0.044 A 
ATOM     14  C   UNL A   1      35.631  21.256  25.644  1.00  0.00     0.004 A 
ATOM     15  C   UNL A   1      36.167  23.560  26.134  1.00  0.00     0.043 A 
ATOM     16  C   UNL A   1      36.935  21.048  25.186  1.00  0.00     0.003 A 
ATOM     17  C   UNL A   1      37.464  23.341  25.681  1.00  0.00     0.123 A 
ATOM     18  C   UNL A   1      37.856  22.095  25.207  1.00  0.00     0.039 A 
ATOM     19  F   UNL A   1      38.350  24.346  25.705  1.00  0.00    -0.207 F 
ENDBRANCH  12  13
ENDBRANCH   7  12
ENDBRANCH   4   7
ENDBRANCH   2   3
ENDBRANCH   1   2
BRANCH   1  20
ATOM     20  C   UNL A   1      33.881  27.479  26.549  1.00  0.00     0.118 C 
BRANCH  20  21
ATOM     21  N   UNL A   1      33.424  28.844  26.775  1.00  0.00    -0.352 N 
ATOM     22  C   UNL A   1      34.031  29.883  27.432  1.00  0.00     0.251 C 
ATOM     23  H   UNL A   1      32.539  29.052  26.396  1.00  0.00     0.163 HD
ATOM     24  O   UNL A   1      33.377  30.896  27.688  1.00  0.00    -0.269 OA
BRANCH  22  25
ATOM     25  C   UNL A   1      35.447  29.791  27.848  1.00  0.00     0.039 A 
ATOM     26  C   UNL A   1      35.744  29.467  29.175  1.00  0.00     0.014 A 
ATOM     27  C   UNL A   1      36.482  30.043  26.944  1.00  0.00     0.014 A 
ATOM     28  C   UNL A   1      37.075  29.332  29.574  1.00  0.00     0.010 A 
ATOM     29  C   UNL A   1      37.802  29.818  27.319  1.00  0.00     0.010 A 
ATOM     30  C   UNL A   1      38.116  29.468  28.640  1.00  0.00    -0.014 A 
BRANCH  30  31
ATOM     31  C   UNL A   1      39.534  29.257  29.027  1.00  0.00     0.031 A 
ATOM     32  C   UNL A   1      40.212  27.943  28.736  1.00  0.00     0.074 A 
ATOM     33  C   UNL A   1      40.195  30.223  29.696  1.00  0.00     0.049 A 
ATOM     34  N   UNL A   1      41.422  27.554  29.044  1.00  0.00    -0.248 NA
ATOM     35  C   UNL A   1      39.418  26.925  28.028  1.00  0.00     0.031 C 
ATOM     36  C   UNL A   1      39.637  31.524  30.077  1.00  0.00     0.029 A 
ATOM     37  N   UNL A   1      41.479  30.261  30.179  1.00  0.00    -0.354 N 
ATOM     38  C   UNL A   1      41.528  26.246  28.586  1.00  0.00     0.074 A 
ATOM     39  C   UNL A   1      40.243  25.888  28.028  1.00  0.00     0.031 C 
ATOM     40  C   UNL A   1      40.582  32.241  30.704  1.00  0.00     0.029 A 
ATOM     41  C   UNL A   1      41.797  31.440  30.813  1.00  0.00     0.049 A 
ATOM     42  H   UNL A   1      42.113  29.514  30.081  1.00  0.00     0.167 HD
ATOM     43  C   UNL A   1      42.603  25.421  28.609  1.00  0.00     0.031 A 
ATOM     44  C   UNL A   1      42.934  31.830  31.420  1.00  0.00     0.031 A 
ATOM     45  C   UNL A   1      43.883  25.784  29.155  1.00  0.00     0.049 A 
ATOM     46  C   UNL A   1      44.111  30.894  31.443  1.00  0.00     0.074 A 
ATOM     47  C   UNL A   1      45.051  25.042  29.176  1.00  0.00     0.029 A 
ATOM     48  N   UNL A   1      44.165  26.989  29.781  1.00  0.00    -0.354 N 
ATOM     49  N   UNL A   1      44.211  29.685  30.943  1.00  0.00    -0.248 NA
ATOM     50  C   UNL A   1      45.332  31.379  32.098  1.00  0.00     0.031 C 
ATOM     51  C   UNL A   1      46.022  25.774  29.865  1.00  0.00     0.029 A 
ATOM     52  C   UNL A   1      45.480  27.001  30.214  1.00  0.00     0.049 A 
ATOM     53  H   UNL A   1      43.524  27.727  29.900  1.00  0.00     0.167 HD
ATOM     54  C   UNL A   1      45.515  29.277  31.200  1.00  0.00     0.074 A 
ATOM     55  C   UNL A   1      46.170  30.374  31.883  1.00  0.00     0.031 C 
ATOM     56  C   UNL A   1      46.118  28.101  30.894  1.00  0.00     0.031 A 
BRANCH  43  57
ATOM     57  C   UNL A   1      42.437  24.040  28.027  1.00  0.00    -0.014 A 
ATOM     58  C   UNL A   1      42.399  23.836  26.635  1.00  0.00     0.010 A 
ATOM     59  C   UNL A   1      42.357  22.926  28.882  1.00  0.00     0.010 A 
ATOM     60  C   UNL A   1      42.242  22.550  26.111  1.00  0.00     0.020 A 
ATOM     61  C   UNL A   1      42.231  21.635  28.362  1.00  0.00     0.020 A 
ATOM     62  C   UNL A   1      42.157  21.457  26.979  1.00  0.00     0.054 A 
BRANCH  62  63
ATOM     63  S   UNL A   1      41.976  19.798  26.269  1.00  0.00     0.124 S 
ATOM     64  O   UNL A   1      42.374  18.947  27.389  1.00  0.00    -0.237 OA
ATOM     65  O   UNL A   1      40.558  19.753  25.920  1.00  0.00    -0.237 OA
ATOM     66  O   UNL A   1      42.896  19.802  25.135  1.00  0.00    -0.744 OA
ENDBRANCH  62  63
ENDBRANCH  43  57
BRANCH  44  67
ATOM     67  C   UNL A   1      43.019  33.181  32.043  1.00  0.00    -0.014 A 
ATOM     68  C   UNL A   1      42.664  33.372  33.389  1.00  0.00     0.010 A 
ATOM     69  C   UNL A   1      43.469  34.284  31.292  1.00  0.00     0.010 A 
ATOM     70  C   UNL A   1      42.737  34.642  33.970  1.00  0.00     0.020 A 
ATOM     71  C   UNL A   1      43.572  35.549  31.877  1.00  0.00     0.020 A 
ATOM     72  C   UNL A   1      43.194  35.722  33.209  1.00  0.00     0.054 A 
BRANCH  72  73
ATOM     73  S   UNL A   1      43.329  37.351  33.998  1.00  0.00     0.124 S 
ATOM     74  O   UNL A   1      44.509  37.183  34.841  1.00  0.00    -0.237 OA
ATOM     75  O   UNL A   1      43.490  38.243  32.853  1.00  0.00    -0.237 OA
ATOM     76  O   UNL A   1      42.062  37.491  34.712  1.00  0.00    -0.744 OA
ENDBRANCH  72  73
ENDBRANCH  44  67
BRANCH  56  77
ATOM     77  C   UNL A   1      47.571  27.950  31.261  1.00  0.00    -0.014 A 
ATOM     78  C   UNL A   1      48.594  28.355  30.386  1.00  0.00     0.010 A 
ATOM     79  C   UNL A   1      47.915  27.438  32.527  1.00  0.00     0.010 A 
ATOM     80  C   UNL A   1      49.935  28.219  30.756  1.00  0.00     0.020 A 
ATOM     81  C   UNL A   1      49.253  27.330  32.912  1.00  0.00     0.020 A 
ATOM     82  C   UNL A   1      50.255  27.707  32.016  1.00  0.00     0.054 A 
BRANCH  82  83
ATOM     83  S   UNL A   1      52.002  27.578  32.488  1.00  0.00     0.124 S 
ATOM     84  O   UNL A   1      52.634  27.230  31.218  1.00  0.00    -0.237 OA
ATOM     85  O   UNL A   1      52.298  28.917  32.992  1.00  0.00    -0.237 OA
ATOM     86  O   UNL A   1      52.012  26.522  33.498  1.00  0.00    -0.744 OA
ENDBRANCH  82  83
ENDBRANCH  56  77
ENDBRANCH  30  31
ENDBRANCH  22  25
ENDBRANCH  20  21
ENDBRANCH   1  20
TORSDOF 17
ENDMDL
MODEL 3
REMARK VINA RESULT:      -9.7      4.519     10.246
REMARK SMILES C/C=C/C[C@H](Cc1cccc(F)c1)C(=O)NCCCNC(=O)c1ccc(-c2c3nc(c(-c4ccc(S(=O)(=O)[O-])cc4)c4ccc([nH]4)c(-c4ccc(S(=O)(=O)[O-])cc4)c4nc(c(-c5ccc(S(=O)(=O)[O-])cc5)c5ccc2[nH]5)C=C4)C=C3)cc1
REMARK SMILES IDX 18 1 17 2 16 3 14 4 15 5 5 7 4 8 3 9 1 10 2 11 6 12 7 13
REMARK SMILES IDX 8 14 13 15 9 16 11 17 10 18 12 19 19 20 20 21 21 22 22 24
REMARK SMILES IDX 23 25 24 26 82 27 25 28 81 29 26 30 27 31 28 32 75 33 29 34
REMARK SMILES IDX 80 35 74 36 76 37 30 38 79 39 73 40 72 41 31 43 61 44 42 45
REMARK SMILES IDX 60 46 43 47 46 48 59 49 77 50 44 51 45 52 58 54 78 55 47 56
REMARK SMILES IDX 32 57 33 58 41 59 34 60 40 61 35 62 36 63 37 64 38 65 39 66
REMARK SMILES IDX 62 67 63 68 71 69 64 70 70 71 65 72 66 73 67 74 68 75 69 76
REMARK SMILES IDX 48 77 49 78 57 79 50 80 56 81 51 82 52 83 53 84 54 85 55 86
REMARK H PARENT 16 6 20 23 76 42 46 53
REMARK Flexibility Score: inf
ROOT
ATOM      1  C   UNL A   1      38.853  22.684  26.332  1.00  0.00     0.042 C 
ENDROOT
BRANCH   1   2
ATOM      2  C   UNL A   1      37.869  23.791  25.986  1.00  0.00     0.117 C 
BRANCH   2   3
ATOM      3  N   UNL A   1      37.187  23.566  24.721  1.00  0.00    -0.356 N 
ATOM      4  C   UNL A   1      35.906  23.837  24.344  1.00  0.00     0.223 C 
ATOM      5  O   UNL A   1      35.577  23.571  23.187  1.00  0.00    -0.275 OA
ATOM      6  H   UNL A   1      37.741  23.149  24.023  1.00  0.00     0.163 HD
BRANCH   4   7
ATOM      7  C   UNL A   1      34.907  24.458  25.314  1.00  0.00     0.086 C 
BRANCH   7   8
ATOM      8  C   UNL A   1      34.131  23.336  26.036  1.00  0.00     0.040 C 
BRANCH   8   9
ATOM      9  C   UNL A   1      33.267  22.483  25.153  1.00  0.00    -0.031 C 
ATOM     10  C   UNL A   1      32.522  20.276  24.225  1.00  0.00     0.035 C 
ATOM     11  C   UNL A   1      33.336  21.143  25.129  1.00  0.00    -0.035 C 
ENDBRANCH   8   9
ENDBRANCH   7   8
BRANCH   7  12
ATOM     12  C   UNL A   1      34.089  25.548  24.589  1.00  0.00     0.049 C 
BRANCH  12  13
ATOM     13  C   UNL A   1      33.285  26.419  25.528  1.00  0.00    -0.044 A 
ATOM     14  C   UNL A   1      31.903  26.238  25.680  1.00  0.00     0.004 A 
ATOM     15  C   UNL A   1      33.919  27.443  26.247  1.00  0.00     0.043 A 
ATOM     16  C   UNL A   1      31.168  27.062  26.536  1.00  0.00     0.003 A 
ATOM     17  C   UNL A   1      33.176  28.261  27.093  1.00  0.00     0.123 A 
ATOM     18  C   UNL A   1      31.807  28.080  27.243  1.00  0.00     0.039 A 
ATOM     19  F   UNL A   1      33.790  29.241  27.769  1.00  0.00    -0.207 F 
ENDBRANCH  12  13
ENDBRANCH   7  12
ENDBRANCH   4   7
ENDBRANCH   2   3
ENDBRANCH   1   2
BRANCH   1  20
ATOM     20  C   UNL A   1      40.120  23.175  27.018  1.00  0.00     0.118 C 
BRANCH  20  21
ATOM     21  N   UNL A   1      41.049  23.808  26.091  1.00  0.00    -0.352 N 
ATOM     22  C   UNL A   1      41.601  25.063  26.109  1.00  0.00     0.251 C 
ATOM     23  H   UNL A   1      41.323  23.245  25.331  1.00  0.00     0.163 HD
ATOM     24  O   UNL A   1      42.201  25.471  25.114  1.00  0.00    -0.269 OA
BRANCH  22  25
ATOM     25  C   UNL A   1      41.466  25.930  27.300  1.00  0.00     0.039 A 
ATOM     26  C   UNL A   1      42.432  26.912  27.535  1.00  0.00     0.014 A 
ATOM     27  C   UNL A   1      40.408  25.765  28.197  1.00  0.00     0.014 A 
ATOM     28  C   UNL A   1      42.297  27.769  28.630  1.00  0.00     0.010 A 
ATOM     29  C   UNL A   1      40.225  26.676  29.231  1.00  0.00     0.010 A 
ATOM     30  C   UNL A   1      41.171  27.683  29.467  1.00  0.00    -0.014 A 
BRANCH  30  31
ATOM     31  C   UNL A   1      40.971  28.631  30.593  1.00  0.00     0.031 A 
ATOM     32  C   UNL A   1      41.809  28.516  31.839  1.00  0.00     0.074 A 
ATOM     33  C   UNL A   1      39.992  29.556  30.520  1.00  0.00     0.049 A 
ATOM     34  N   UNL A   1      41.743  29.215  32.943  1.00  0.00    -0.248 NA
ATOM     35  C   UNL A   1      42.838  27.464  31.857  1.00  0.00     0.031 C 
ATOM     36  C   UNL A   1      39.083  29.741  29.385  1.00  0.00     0.029 A 
ATOM     37  N   UNL A   1      39.594  30.512  31.420  1.00  0.00    -0.354 N 
ATOM     38  C   UNL A   1      42.706  28.676  33.790  1.00  0.00     0.074 A 
ATOM     39  C   UNL A   1      43.303  27.559  33.094  1.00  0.00     0.031 C 
ATOM     40  C   UNL A   1      38.258  30.767  29.646  1.00  0.00     0.029 A 
ATOM     41  C   UNL A   1      38.544  31.284  30.980  1.00  0.00     0.049 A 
ATOM     42  H   UNL A   1      40.020  30.633  32.300  1.00  0.00     0.167 HD
ATOM     43  C   UNL A   1      43.074  29.085  35.028  1.00  0.00     0.031 A 
ATOM     44  C   UNL A   1      37.881  32.290  31.583  1.00  0.00     0.031 A 
ATOM     45  C   UNL A   1      42.484  30.204  35.713  1.00  0.00     0.049 A 
ATOM     46  C   UNL A   1      38.301  32.720  32.962  1.00  0.00     0.074 A 
ATOM     47  C   UNL A   1      42.824  30.735  36.945  1.00  0.00     0.029 A 
ATOM     48  N   UNL A   1      41.429  30.964  35.230  1.00  0.00    -0.354 N 
ATOM     49  N   UNL A   1      39.259  32.240  33.718  1.00  0.00    -0.248 NA
ATOM     50  C   UNL A   1      37.558  33.835  33.563  1.00  0.00     0.031 C 
ATOM     51  C   UNL A   1      41.938  31.778  37.232  1.00  0.00     0.029 A 
ATOM     52  C   UNL A   1      41.089  31.941  36.149  1.00  0.00     0.049 A 
ATOM     53  H   UNL A   1      40.987  30.827  34.360  1.00  0.00     0.167 HD
ATOM     54  C   UNL A   1      39.253  33.015  34.873  1.00  0.00     0.074 A 
ATOM     55  C   UNL A   1      38.207  34.004  34.707  1.00  0.00     0.031 C 
ATOM     56  C   UNL A   1      40.044  32.919  35.971  1.00  0.00     0.031 A 
BRANCH  43  57
ATOM     57  C   UNL A   1      44.167  28.314  35.723  1.00  0.00    -0.014 A 
ATOM     58  C   UNL A   1      43.870  27.210  36.544  1.00  0.00     0.010 A 
ATOM     59  C   UNL A   1      45.512  28.672  35.521  1.00  0.00     0.010 A 
ATOM     60  C   UNL A   1      44.895  26.506  37.183  1.00  0.00     0.020 A 
ATOM     61  C   UNL A   1      46.542  27.952  36.133  1.00  0.00     0.020 A 
ATOM     62  C   UNL A   1      46.224  26.884  36.974  1.00  0.00     0.054 A 
BRANCH  62  63
ATOM     63  S   UNL A   1      47.534  25.938  37.799  1.00  0.00     0.124 S 
ATOM     64  O   UNL A   1      46.880  24.650  38.023  1.00  0.00    -0.237 OA
ATOM     65  O   UNL A   1      48.602  25.933  36.802  1.00  0.00    -0.237 OA
ATOM     66  O   UNL A   1      47.814  26.710  39.006  1.00  0.00    -0.744 OA
ENDBRANCH  62  63
ENDBRANCH  43  57
BRANCH  44  67
ATOM     67  C   UNL A   1      36.760  32.971  30.877  1.00  0.00    -0.014 A 
ATOM     68  C   UNL A   1      37.009  33.779  29.754  1.00  0.00     0.010 A 
ATOM     69  C   UNL A   1      35.434  32.804  31.318  1.00  0.00     0.010 A 
ATOM     70  C   UNL A   1      35.956  34.424  29.097  1.00  0.00     0.020 A 
ATOM     71  C   UNL A   1      34.377  33.421  30.646  1.00  0.00     0.020 A 
ATOM     72  C   UNL A   1      34.646  34.238  29.546  1.00  0.00     0.054 A 
BRANCH  72  73
ATOM     73  S   UNL A   1      33.291  35.043  28.647  1.00  0.00     0.124 S 
ATOM     74  O   UNL A   1      33.996  36.076  27.894  1.00  0.00    -0.237 OA
ATOM     75  O   UNL A   1      32.742  33.945  27.856  1.00  0.00    -0.237 OA
ATOM     76  O   UNL A   1      32.416  35.530  29.711  1.00  0.00    -0.744 OA
ENDBRANCH  72  73
ENDBRANCH  44  67
BRANCH  56  77
ATOM     77  C   UNL A   1      39.838  33.932  37.066  1.00  0.00    -0.014 A 
ATOM     78  C   UNL A   1      38.942  33.696  38.124  1.00  0.00     0.010 A 
ATOM     79  C   UNL A   1      40.593  35.120  37.060  1.00  0.00     0.010 A 
ATOM     80  C   UNL A   1      38.781  34.645  39.137  1.00  0.00     0.020 A 
ATOM     81  C   UNL A   1      40.457  36.056  38.088  1.00  0.00     0.020 A 
ATOM     82  C   UNL A   1      39.539  35.819  39.112  1.00  0.00     0.054 A 
BRANCH  82  83
ATOM     83  S   UNL A   1      39.340  37.016  40.459  1.00  0.00     0.124 S 
ATOM     84  O   UNL A   1      40.718  37.437  40.698  1.00  0.00    -0.237 OA
ATOM     85  O   UNL A   1      38.468  38.026  39.865  1.00  0.00    -0.237 OA
ATOM     86  O   UNL A   1      38.733  36.233  41.533  1.00  0.00    -0.744 OA
ENDBRANCH  82  83
ENDBRANCH  56  77
ENDBRANCH  30  31
ENDBRANCH  22  25
ENDBRANCH  20  21
ENDBRANCH   1  20
TORSDOF 17
ENDMDL
