MODEL 1
REMARK VINA RESULT:     -11.0      0.000      0.000
REMARK SMILES C[C@@H](C(=O)NCCCNC(=O)c1ccc(-c2c3nc(c(-c4ccc(S(=O)(=O)[O-])cc4)c4ccc([nH]4)c(-c4ccc(S(=O)(=O)[O-])cc4)c4nc(c(-c5ccc(S(=O)(=O)[O-])cc5)c5ccc2[nH]5)C=C4)C=C3)cc1)c1ccc(Cc2ccco2)cc1F
REMARK SMILES IDX 7 1 6 2 5 3 3 4 4 5 2 7 1 8 72 9 73 10 83 11 74 12 82 13
REMARK SMILES IDX 84 14 75 15 76 16 77 17 78 18 81 19 79 20 80 21 8 22 9 23
REMARK SMILES IDX 10 24 11 26 12 27 13 28 71 29 14 30 70 31 15 32 16 33 17 34
REMARK SMILES IDX 64 35 18 36 69 37 63 38 65 39 19 40 68 41 62 42 61 43 20 45
REMARK SMILES IDX 50 46 31 47 49 48 32 49 35 50 48 51 66 52 33 53 34 54 47 56
REMARK SMILES IDX 67 57 36 58 21 59 22 60 30 61 23 62 29 63 24 64 25 65 26 66
REMARK SMILES IDX 27 67 28 68 51 69 52 70 60 71 53 72 59 73 54 74 55 75 56 76
REMARK SMILES IDX 57 77 58 78 37 79 38 80 46 81 39 82 45 83 40 84 41 85 42 86
REMARK SMILES IDX 43 87 44 88
REMARK H PARENT 5 6 9 25 65 44 35 55
REMARK Flexibility Score: inf
ROOT
ATOM      1  C   UNL A   1      33.050  28.068  25.954  1.00  0.00     0.042 C 
ENDROOT
BRANCH   1   2
ATOM      2  C   UNL A   1      33.848  26.815  25.591  1.00  0.00     0.117 C 
BRANCH   2   3
ATOM      3  N   UNL A   1      34.102  26.740  24.164  1.00  0.00    -0.356 N 
ATOM      4  C   UNL A   1      33.464  26.042  23.178  1.00  0.00     0.227 C 
ATOM      5  O   UNL A   1      33.990  26.069  22.064  1.00  0.00    -0.274 OA
ATOM      6  H   UNL A   1      34.862  27.284  23.853  1.00  0.00     0.163 HD
BRANCH   4   7
ATOM      7  C   UNL A   1      32.125  25.328  23.463  1.00  0.00     0.108 C 
ATOM      8  C   UNL A   1      32.013  24.058  22.615  1.00  0.00     0.023 C 
BRANCH   7   9
ATOM      9  C   UNL A   1      30.930  26.282  23.343  1.00  0.00    -0.000 A 
ATOM     10  C   UNL A   1      31.017  27.374  22.462  1.00  0.00     0.008 A 
ATOM     11  C   UNL A   1      29.739  26.150  24.070  1.00  0.00     0.127 A 
ATOM     12  C   UNL A   1      29.952  28.271  22.302  1.00  0.00     0.005 A 
ATOM     13  C   UNL A   1      28.689  27.061  23.943  1.00  0.00     0.043 A 
ATOM     14  F   UNL A   1      29.552  25.136  24.924  1.00  0.00    -0.207 F 
ATOM     15  C   UNL A   1      28.780  28.137  23.056  1.00  0.00    -0.038 A 
BRANCH  15  16
ATOM     16  C   UNL A   1      27.618  29.091  22.889  1.00  0.00     0.111 C 
BRANCH  16  17
ATOM     17  C   UNL A   1      28.008  30.528  22.820  1.00  0.00     0.108 A 
ATOM     18  C   UNL A   1      28.570  31.412  23.719  1.00  0.00     0.046 A 
ATOM     19  O   UNL A   1      27.838  31.147  21.614  1.00  0.00    -0.469 OA
ATOM     20  C   UNL A   1      28.735  32.638  23.033  1.00  0.00     0.042 A 
ATOM     21  C   UNL A   1      28.279  32.423  21.754  1.00  0.00     0.195 A 
ENDBRANCH  16  17
ENDBRANCH  15  16
ENDBRANCH   7   9
ENDBRANCH   4   7
ENDBRANCH   2   3
ENDBRANCH   1   2
BRANCH   1  22
ATOM     22  C   UNL A   1      33.196  28.507  27.410  1.00  0.00     0.118 C 
BRANCH  22  23
ATOM     23  N   UNL A   1      33.222  29.955  27.559  1.00  0.00    -0.352 N 
ATOM     24  C   UNL A   1      34.205  30.776  28.052  1.00  0.00     0.251 C 
ATOM     25  H   UNL A   1      32.406  30.418  27.260  1.00  0.00     0.163 HD
ATOM     26  O   UNL A   1      33.943  31.957  28.277  1.00  0.00    -0.269 OA
BRANCH  24  27
ATOM     27  C   UNL A   1      35.559  30.253  28.340  1.00  0.00     0.039 A 
ATOM     28  C   UNL A   1      36.497  30.212  27.303  1.00  0.00     0.014 A 
ATOM     29  C   UNL A   1      35.908  29.791  29.612  1.00  0.00     0.014 A 
ATOM     30  C   UNL A   1      37.804  29.792  27.564  1.00  0.00     0.010 A 
ATOM     31  C   UNL A   1      37.229  29.435  29.886  1.00  0.00     0.010 A 
ATOM     32  C   UNL A   1      38.195  29.450  28.869  1.00  0.00    -0.014 A 
BRANCH  32  33
ATOM     33  C   UNL A   1      39.622  29.184  29.196  1.00  0.00     0.031 A 
ATOM     34  C   UNL A   1      40.504  30.268  29.755  1.00  0.00     0.074 A 
ATOM     35  C   UNL A   1      40.141  27.969  28.916  1.00  0.00     0.049 A 
ATOM     36  N   UNL A   1      41.780  30.224  30.035  1.00  0.00    -0.248 NA
ATOM     37  C   UNL A   1      39.877  31.575  30.018  1.00  0.00     0.031 C 
ATOM     38  C   UNL A   1      39.400  26.846  28.335  1.00  0.00     0.029 A 
ATOM     39  N   UNL A   1      41.414  27.478  29.068  1.00  0.00    -0.354 N 
ATOM     40  C   UNL A   1      42.116  31.493  30.492  1.00  0.00     0.074 A 
ATOM     41  C   UNL A   1      40.915  32.296  30.423  1.00  0.00     0.031 C 
ATOM     42  C   UNL A   1      40.224  25.796  28.197  1.00  0.00     0.029 A 
ATOM     43  C   UNL A   1      41.562  26.181  28.629  1.00  0.00     0.049 A 
ATOM     44  H   UNL A   1      42.151  28.003  29.454  1.00  0.00     0.167 HD
ATOM     45  C   UNL A   1      43.315  31.943  30.935  1.00  0.00     0.031 A 
ATOM     46  C   UNL A   1      42.656  25.396  28.559  1.00  0.00     0.031 A 
ATOM     47  C   UNL A   1      44.505  31.136  31.013  1.00  0.00     0.049 A 
ATOM     48  C   UNL A   1      43.978  25.937  29.031  1.00  0.00     0.074 A 
ATOM     49  C   UNL A   1      45.744  31.486  31.521  1.00  0.00     0.029 A 
ATOM     50  N   UNL A   1      44.614  29.831  30.559  1.00  0.00    -0.354 N 
ATOM     51  N   UNL A   1      44.249  27.109  29.552  1.00  0.00    -0.248 NA
ATOM     52  C   UNL A   1      45.142  25.048  28.907  1.00  0.00     0.031 C 
ATOM     53  C   UNL A   1      46.621  30.417  31.311  1.00  0.00     0.029 A 
ATOM     54  C   UNL A   1      45.911  29.377  30.734  1.00  0.00     0.049 A 
ATOM     55  H   UNL A   1      43.878  29.303  30.172  1.00  0.00     0.167 HD
ATOM     56  C   UNL A   1      45.610  27.090  29.835  1.00  0.00     0.074 A 
ATOM     57  C   UNL A   1      46.099  25.781  29.457  1.00  0.00     0.031 C 
ATOM     58  C   UNL A   1      46.388  28.072  30.353  1.00  0.00     0.031 A 
BRANCH  45  59
ATOM     59  C   UNL A   1      43.421  33.380  31.372  1.00  0.00    -0.014 A 
ATOM     60  C   UNL A   1      43.217  33.751  32.714  1.00  0.00     0.010 A 
ATOM     61  C   UNL A   1      43.847  34.357  30.450  1.00  0.00     0.010 A 
ATOM     62  C   UNL A   1      43.428  35.071  33.122  1.00  0.00     0.020 A 
ATOM     63  C   UNL A   1      44.083  35.671  30.861  1.00  0.00     0.020 A 
ATOM     64  C   UNL A   1      43.868  36.021  32.195  1.00  0.00     0.054 A 
BRANCH  64  65
ATOM     65  S   UNL A   1      44.207  37.707  32.774  1.00  0.00     0.124 S 
ATOM     66  O   UNL A   1      43.109  37.931  33.711  1.00  0.00    -0.237 OA
ATOM     67  O   UNL A   1      45.531  37.575  33.377  1.00  0.00    -0.237 OA
ATOM     68  O   UNL A   1      44.157  38.510  31.555  1.00  0.00    -0.744 OA
ENDBRANCH  64  65
ENDBRANCH  45  59
BRANCH  46  69
ATOM     69  C   UNL A   1      42.561  24.021  27.989  1.00  0.00    -0.014 A 
ATOM     70  C   UNL A   1      42.672  23.807  26.604  1.00  0.00     0.010 A 
ATOM     71  C   UNL A   1      42.322  22.920  28.832  1.00  0.00     0.010 A 
ATOM     72  C   UNL A   1      42.503  22.526  26.068  1.00  0.00     0.020 A 
ATOM     73  C   UNL A   1      42.187  21.633  28.305  1.00  0.00     0.020 A 
ATOM     74  C   UNL A   1      42.257  21.448  26.924  1.00  0.00     0.054 A 
BRANCH  74  75
ATOM     75  S   UNL A   1      42.047  19.794  26.209  1.00  0.00     0.124 S 
ATOM     76  O   UNL A   1      42.493  18.934  27.301  1.00  0.00    -0.237 OA
ATOM     77  O   UNL A   1      40.617  19.756  25.916  1.00  0.00    -0.237 OA
ATOM     78  O   UNL A   1      42.916  19.818  25.034  1.00  0.00    -0.744 OA
ENDBRANCH  74  75
ENDBRANCH  46  69
BRANCH  58  79
ATOM     79  C   UNL A   1      47.848  27.766  30.560  1.00  0.00    -0.014 A 
ATOM     80  C   UNL A   1      48.288  27.075  31.703  1.00  0.00     0.010 A 
ATOM     81  C   UNL A   1      48.784  28.126  29.575  1.00  0.00     0.010 A 
ATOM     82  C   UNL A   1      49.641  26.774  31.869  1.00  0.00     0.020 A 
ATOM     83  C   UNL A   1      50.134  27.799  29.721  1.00  0.00     0.020 A 
ATOM     84  C   UNL A   1      50.557  27.136  30.876  1.00  0.00     0.054 A 
BRANCH  84  85
ATOM     85  S   UNL A   1      52.301  26.688  31.093  1.00  0.00     0.124 S 
ATOM     86  O   UNL A   1      52.894  27.961  31.493  1.00  0.00    -0.237 OA
ATOM     87  O   UNL A   1      52.240  25.668  32.138  1.00  0.00    -0.237 OA
ATOM     88  O   UNL A   1      52.701  26.200  29.776  1.00  0.00    -0.744 OA
ENDBRANCH  84  85
ENDBRANCH  58  79
ENDBRANCH  32  33
ENDBRANCH  24  27
ENDBRANCH  22  23
ENDBRANCH   1  22
TORSDOF 16
ENDMDL
MODEL 2
REMARK VINA RESULT:     -10.8      2.249      9.293
REMARK SMILES C[C@@H](C(=O)NCCCNC(=O)c1ccc(-c2c3nc(c(-c4ccc(S(=O)(=O)[O-])cc4)c4ccc([nH]4)c(-c4ccc(S(=O)(=O)[O-])cc4)c4nc(c(-c5ccc(S(=O)(=O)[O-])cc5)c5ccc2[nH]5)C=C4)C=C3)cc1)c1ccc(Cc2ccco2)cc1F
REMARK SMILES IDX 7 1 6 2 5 3 3 4 4 5 2 7 1 8 72 9 73 10 83 11 74 12 82 13
REMARK SMILES IDX 84 14 75 15 76 16 77 17 78 18 81 19 79 20 80 21 8 22 9 23
REMARK SMILES IDX 10 24 11 26 12 27 13 28 71 29 14 30 70 31 15 32 16 33 17 34
REMARK SMILES IDX 64 35 18 36 69 37 63 38 65 39 19 40 68 41 62 42 61 43 20 45
REMARK SMILES IDX 50 46 31 47 49 48 32 49 35 50 48 51 66 52 33 53 34 54 47 56
REMARK SMILES IDX 67 57 36 58 21 59 22 60 30 61 23 62 29 63 24 64 25 65 26 66
REMARK SMILES IDX 27 67 28 68 51 69 52 70 60 71 53 72 59 73 54 74 55 75 56 76
REMARK SMILES IDX 57 77 58 78 37 79 38 80 46 81 39 82 45 83 40 84 41 85 42 86
REMARK SMILES IDX 43 87 44 88
REMARK H PARENT 5 6 9 25 65 44 35 55
REMARK Flexibility Score: inf
ROOT
ATOM      1  C   UNL A   1      32.270  28.156  26.459  1.00  0.00     0.042 C 
ENDROOT
BRANCH   1   2
ATOM      2  C   UNL A   1      31.904  26.671  26.471  1.00  0.00     0.117 C 
BRANCH   2   3
ATOM      3  N   UNL A   1      30.775  26.394  25.601  1.00  0.00    -0.356 N 
ATOM      4  C   UNL A   1      30.730  25.906  24.325  1.00  0.00     0.227 C 
ATOM      5  O   UNL A   1      29.622  25.900  23.784  1.00  0.00    -0.274 OA
ATOM      6  H   UNL A   1      29.895  26.591  25.995  1.00  0.00     0.163 HD
BRANCH   4   7
ATOM      7  C   UNL A   1      31.999  25.339  23.655  1.00  0.00     0.108 C 
ATOM      8  C   UNL A   1      31.894  25.463  22.134  1.00  0.00     0.023 C 
BRANCH   7   9
ATOM      9  C   UNL A   1      32.332  23.930  24.159  1.00  0.00    -0.000 A 
ATOM     10  C   UNL A   1      31.346  23.203  24.849  1.00  0.00     0.008 A 
ATOM     11  C   UNL A   1      33.575  23.304  23.991  1.00  0.00     0.127 A 
ATOM     12  C   UNL A   1      31.589  21.906  25.321  1.00  0.00     0.005 A 
ATOM     13  C   UNL A   1      33.836  22.027  24.492  1.00  0.00     0.043 A 
ATOM     14  F   UNL A   1      34.576  23.906  23.336  1.00  0.00    -0.207 F 
ATOM     15  C   UNL A   1      32.845  21.308  25.165  1.00  0.00    -0.038 A 
BRANCH  15  16
ATOM     16  C   UNL A   1      33.122  19.906  25.660  1.00  0.00     0.111 C 
BRANCH  16  17
ATOM     17  C   UNL A   1      33.314  18.899  24.577  1.00  0.00     0.108 A 
ATOM     18  C   UNL A   1      34.294  17.968  24.298  1.00  0.00     0.046 A 
ATOM     19  O   UNL A   1      32.311  18.800  23.655  1.00  0.00    -0.469 OA
ATOM     20  C   UNL A   1      33.876  17.276  23.136  1.00  0.00     0.042 A 
ATOM     21  C   UNL A   1      32.662  17.817  22.787  1.00  0.00     0.195 A 
ENDBRANCH  16  17
ENDBRANCH  15  16
ENDBRANCH   7   9
ENDBRANCH   4   7
ENDBRANCH   2   3
ENDBRANCH   1   2
BRANCH   1  22
ATOM     22  C   UNL A   1      33.463  28.516  27.342  1.00  0.00     0.118 C 
BRANCH  22  23
ATOM     23  N   UNL A   1      33.512  29.934  27.668  1.00  0.00    -0.352 N 
ATOM     24  C   UNL A   1      34.519  30.679  28.229  1.00  0.00     0.251 C 
ATOM     25  H   UNL A   1      32.693  30.438  27.453  1.00  0.00     0.163 HD
ATOM     26  O   UNL A   1      34.278  31.826  28.606  1.00  0.00    -0.269 OA
BRANCH  24  27
ATOM     27  C   UNL A   1      35.874  30.113  28.409  1.00  0.00     0.039 A 
ATOM     28  C   UNL A   1      36.759  30.136  27.328  1.00  0.00     0.014 A 
ATOM     29  C   UNL A   1      36.273  29.549  29.624  1.00  0.00     0.014 A 
ATOM     30  C   UNL A   1      38.069  29.675  27.491  1.00  0.00     0.010 A 
ATOM     31  C   UNL A   1      37.598  29.150  29.805  1.00  0.00     0.010 A 
ATOM     32  C   UNL A   1      38.515  29.227  28.746  1.00  0.00    -0.014 A 
BRANCH  32  33
ATOM     33  C   UNL A   1      39.950  28.912  28.981  1.00  0.00     0.031 A 
ATOM     34  C   UNL A   1      40.521  27.572  28.602  1.00  0.00     0.074 A 
ATOM     35  C   UNL A   1      40.723  29.822  29.611  1.00  0.00     0.049 A 
ATOM     36  N   UNL A   1      41.730  27.112  28.793  1.00  0.00    -0.248 NA
ATOM     37  C   UNL A   1      39.616  26.620  27.937  1.00  0.00     0.031 C 
ATOM     38  C   UNL A   1      40.277  31.142  30.066  1.00  0.00     0.029 A 
ATOM     39  N   UNL A   1      42.042  29.773  29.989  1.00  0.00    -0.354 N 
ATOM     40  C   UNL A   1      41.732  25.817  28.289  1.00  0.00     0.074 A 
ATOM     41  C   UNL A   1      40.392  25.551  27.810  1.00  0.00     0.031 C 
ATOM     42  C   UNL A   1      41.306  31.781  30.644  1.00  0.00     0.029 A 
ATOM     43  C   UNL A   1      42.470  30.903  30.649  1.00  0.00     0.049 A 
ATOM     44  H   UNL A   1      42.627  29.003  29.807  1.00  0.00     0.167 HD
ATOM     45  C   UNL A   1      42.758  24.935  28.226  1.00  0.00     0.031 A 
ATOM     46  C   UNL A   1      43.658  31.195  31.217  1.00  0.00     0.031 A 
ATOM     47  C   UNL A   1      44.092  25.209  28.694  1.00  0.00     0.049 A 
ATOM     48  C   UNL A   1      44.767  30.180  31.156  1.00  0.00     0.074 A 
ATOM     49  C   UNL A   1      45.214  24.403  28.600  1.00  0.00     0.029 A 
ATOM     50  N   UNL A   1      44.483  26.362  29.355  1.00  0.00    -0.354 N 
ATOM     51  N   UNL A   1      44.772  29.000  30.585  1.00  0.00    -0.248 NA
ATOM     52  C   UNL A   1      46.032  30.538  31.814  1.00  0.00     0.031 C 
ATOM     53  C   UNL A   1      46.266  25.039  29.266  1.00  0.00     0.029 A 
ATOM     54  C   UNL A   1      45.818  26.269  29.715  1.00  0.00     0.049 A 
ATOM     55  H   UNL A   1      43.900  27.133  29.540  1.00  0.00     0.167 HD
ATOM     56  C   UNL A   1      46.045  28.484  30.799  1.00  0.00     0.074 A 
ATOM     57  C   UNL A   1      46.791  29.491  31.523  1.00  0.00     0.031 C 
ATOM     58  C   UNL A   1      46.550  27.279  30.437  1.00  0.00     0.031 A 
BRANCH  45  59
ATOM     59  C   UNL A   1      42.495  23.575  27.634  1.00  0.00    -0.014 A 
ATOM     60  C   UNL A   1      42.796  23.295  26.288  1.00  0.00     0.010 A 
ATOM     61  C   UNL A   1      42.051  22.529  28.467  1.00  0.00     0.010 A 
ATOM     62  C   UNL A   1      42.650  21.999  25.787  1.00  0.00     0.020 A 
ATOM     63  C   UNL A   1      41.928  21.227  27.974  1.00  0.00     0.020 A 
ATOM     64  C   UNL A   1      42.225  20.972  26.634  1.00  0.00     0.054 A 
BRANCH  64  65
ATOM     65  S   UNL A   1      42.120  19.286  25.971  1.00  0.00     0.124 S 
ATOM     66  O   UNL A   1      42.975  19.372  24.790  1.00  0.00    -0.237 OA
ATOM     67  O   UNL A   1      42.645  18.479  27.069  1.00  0.00    -0.237 OA
ATOM     68  O   UNL A   1      40.697  19.108  25.695  1.00  0.00    -0.744 OA
ENDBRANCH  64  65
ENDBRANCH  45  59
BRANCH  46  69
ATOM     69  C   UNL A   1      43.857  32.491  31.926  1.00  0.00    -0.014 A 
ATOM     70  C   UNL A   1      44.340  33.619  31.241  1.00  0.00     0.010 A 
ATOM     71  C   UNL A   1      43.597  32.590  33.306  1.00  0.00     0.010 A 
ATOM     72  C   UNL A   1      44.600  34.809  31.928  1.00  0.00     0.020 A 
ATOM     73  C   UNL A   1      43.822  33.788  33.990  1.00  0.00     0.020 A 
ATOM     74  C   UNL A   1      44.343  34.884  33.301  1.00  0.00     0.054 A 
BRANCH  74  75
ATOM     75  S   UNL A   1      44.681  36.438  34.172  1.00  0.00     0.124 S 
ATOM     76  O   UNL A   1      44.321  37.433  33.166  1.00  0.00    -0.237 OA
ATOM     77  O   UNL A   1      43.791  36.353  35.327  1.00  0.00    -0.237 OA
ATOM     78  O   UNL A   1      46.106  36.350  34.486  1.00  0.00    -0.744 OA
ENDBRANCH  74  75
ENDBRANCH  46  69
BRANCH  58  79
ATOM     79  C   UNL A   1      47.982  26.987  30.801  1.00  0.00    -0.014 A 
ATOM     80  C   UNL A   1      48.308  26.369  32.022  1.00  0.00     0.010 A 
ATOM     81  C   UNL A   1      49.009  27.284  29.888  1.00  0.00     0.010 A 
ATOM     82  C   UNL A   1      49.638  26.080  32.334  1.00  0.00     0.020 A 
ATOM     83  C   UNL A   1      50.338  26.967  30.182  1.00  0.00     0.020 A 
ATOM     84  C   UNL A   1      50.645  26.378  31.410  1.00  0.00     0.054 A 
BRANCH  84  85
ATOM     85  S   UNL A   1      52.358  25.946  31.820  1.00  0.00     0.124 S 
ATOM     86  O   UNL A   1      53.051  26.226  30.566  1.00  0.00    -0.237 OA
ATOM     87  O   UNL A   1      52.662  26.856  32.923  1.00  0.00    -0.237 OA
ATOM     88  O   UNL A   1      52.282  24.535  32.189  1.00  0.00    -0.744 OA
ENDBRANCH  84  85
ENDBRANCH  58  79
ENDBRANCH  32  33
ENDBRANCH  24  27
ENDBRANCH  22  23
ENDBRANCH   1  22
TORSDOF 16
ENDMDL
MODEL 3
REMARK VINA RESULT:     -10.7      4.448      7.457
REMARK SMILES C[C@@H](C(=O)NCCCNC(=O)c1ccc(-c2c3nc(c(-c4ccc(S(=O)(=O)[O-])cc4)c4ccc([nH]4)c(-c4ccc(S(=O)(=O)[O-])cc4)c4nc(c(-c5ccc(S(=O)(=O)[O-])cc5)c5ccc2[nH]5)C=C4)C=C3)cc1)c1ccc(Cc2ccco2)cc1F
REMARK SMILES IDX 7 1 6 2 5 3 3 4 4 5 2 7 1 8 72 9 73 10 83 11 74 12 82 13
REMARK SMILES IDX 84 14 75 15 76 16 77 17 78 18 81 19 79 20 80 21 8 22 9 23
REMARK SMILES IDX 10 24 11 26 12 27 13 28 71 29 14 30 70 31 15 32 16 33 17 34
REMARK SMILES IDX 64 35 18 36 69 37 63 38 65 39 19 40 68 41 62 42 61 43 20 45
REMARK SMILES IDX 50 46 31 47 49 48 32 49 35 50 48 51 66 52 33 53 34 54 47 56
REMARK SMILES IDX 67 57 36 58 21 59 22 60 30 61 23 62 29 63 24 64 25 65 26 66
REMARK SMILES IDX 27 67 28 68 51 69 52 70 60 71 53 72 59 73 54 74 55 75 56 76
REMARK SMILES IDX 57 77 58 78 37 79 38 80 46 81 39 82 45 83 40 84 41 85 42 86
REMARK SMILES IDX 43 87 44 88
REMARK H PARENT 5 6 9 25 65 44 35 55
REMARK Flexibility Score: inf
ROOT
ATOM      1  C   UNL A   1      34.961  33.978  29.082  1.00  0.00     0.042 C 
ENDROOT
BRANCH   1   2
ATOM      2  C   UNL A   1      33.565  34.587  28.941  1.00  0.00     0.117 C 
BRANCH   2   3
ATOM      3  N   UNL A   1      33.484  35.887  29.582  1.00  0.00    -0.356 N 
ATOM      4  C   UNL A   1      33.024  36.247  30.817  1.00  0.00     0.227 C 
ATOM      5  O   UNL A   1      32.955  37.457  31.041  1.00  0.00    -0.274 OA
ATOM      6  H   UNL A   1      33.815  36.636  29.034  1.00  0.00     0.163 HD
BRANCH   4   7
ATOM      7  C   UNL A   1      32.687  35.173  31.873  1.00  0.00     0.108 C 
ATOM      8  C   UNL A   1      31.650  35.712  32.862  1.00  0.00     0.023 C 
BRANCH   7   9
ATOM      9  C   UNL A   1      33.948  34.592  32.524  1.00  0.00    -0.000 A 
ATOM     10  C   UNL A   1      34.218  33.219  32.378  1.00  0.00     0.008 A 
ATOM     11  C   UNL A   1      34.862  35.339  33.278  1.00  0.00     0.127 A 
ATOM     12  C   UNL A   1      35.362  32.636  32.939  1.00  0.00     0.005 A 
ATOM     13  C   UNL A   1      35.984  34.757  33.871  1.00  0.00     0.043 A 
ATOM     14  F   UNL A   1      34.702  36.656  33.463  1.00  0.00    -0.207 F 
ATOM     15  C   UNL A   1      36.251  33.394  33.711  1.00  0.00    -0.038 A 
BRANCH  15  16
ATOM     16  C   UNL A   1      37.495  32.783  34.317  1.00  0.00     0.111 C 
BRANCH  16  17
ATOM     17  C   UNL A   1      37.555  32.860  35.804  1.00  0.00     0.108 A 
ATOM     18  C   UNL A   1      37.615  33.902  36.708  1.00  0.00     0.046 A 
ATOM     19  O   UNL A   1      37.494  31.672  36.478  1.00  0.00    -0.469 OA
ATOM     20  C   UNL A   1      37.609  33.320  37.998  1.00  0.00     0.042 A 
ATOM     21  C   UNL A   1      37.530  31.962  37.803  1.00  0.00     0.195 A 
ENDBRANCH  16  17
ENDBRANCH  15  16
ENDBRANCH   7   9
ENDBRANCH   4   7
ENDBRANCH   2   3
ENDBRANCH   1   2
BRANCH   1  22
ATOM     22  C   UNL A   1      35.407  33.144  27.883  1.00  0.00     0.118 C 
BRANCH  22  23
ATOM     23  N   UNL A   1      34.509  32.032  27.607  1.00  0.00    -0.352 N 
ATOM     24  C   UNL A   1      34.735  30.679  27.651  1.00  0.00     0.251 C 
ATOM     25  H   UNL A   1      33.595  32.292  27.347  1.00  0.00     0.163 HD
ATOM     26  O   UNL A   1      33.891  29.914  27.184  1.00  0.00    -0.269 OA
BRANCH  24  27
ATOM     27  C   UNL A   1      35.986  30.136  28.226  1.00  0.00     0.039 A 
ATOM     28  C   UNL A   1      37.145  30.152  27.445  1.00  0.00     0.014 A 
ATOM     29  C   UNL A   1      36.023  29.599  29.516  1.00  0.00     0.014 A 
ATOM     30  C   UNL A   1      38.356  29.712  27.988  1.00  0.00     0.010 A 
ATOM     31  C   UNL A   1      37.243  29.223  30.079  1.00  0.00     0.010 A 
ATOM     32  C   UNL A   1      38.425  29.293  29.327  1.00  0.00    -0.014 A 
BRANCH  32  33
ATOM     33  C   UNL A   1      39.734  29.003  29.972  1.00  0.00     0.031 A 
ATOM     34  C   UNL A   1      40.258  29.871  31.085  1.00  0.00     0.074 A 
ATOM     35  C   UNL A   1      40.487  27.990  29.495  1.00  0.00     0.049 A 
ATOM     36  N   UNL A   1      41.403  29.797  31.712  1.00  0.00    -0.248 NA
ATOM     37  C   UNL A   1      39.394  30.971  31.543  1.00  0.00     0.031 C 
ATOM     38  C   UNL A   1      40.109  27.101  28.392  1.00  0.00     0.029 A 
ATOM     39  N   UNL A   1      41.731  27.541  29.865  1.00  0.00    -0.354 N 
ATOM     40  C   UNL A   1      41.407  30.844  32.627  1.00  0.00     0.074 A 
ATOM     41  C   UNL A   1      40.162  31.559  32.451  1.00  0.00     0.031 C 
ATOM     42  C   UNL A   1      41.089  26.207  28.188  1.00  0.00     0.029 A 
ATOM     43  C   UNL A   1      42.187  26.486  29.106  1.00  0.00     0.049 A 
ATOM     44  H   UNL A   1      42.249  27.937  30.602  1.00  0.00     0.167 HD
ATOM     45  C   UNL A   1      42.360  31.173  33.532  1.00  0.00     0.031 A 
ATOM     46  C   UNL A   1      43.365  25.831  29.128  1.00  0.00     0.031 A 
ATOM     47  C   UNL A   1      43.592  30.451  33.710  1.00  0.00     0.049 A 
ATOM     48  C   UNL A   1      44.412  26.241  30.126  1.00  0.00     0.074 A 
ATOM     49  C   UNL A   1      44.581  30.666  34.655  1.00  0.00     0.029 A 
ATOM     50  N   UNL A   1      44.016  29.391  32.923  1.00  0.00    -0.354 N 
ATOM     51  N   UNL A   1      44.353  27.173  31.047  1.00  0.00    -0.248 NA
ATOM     52  C   UNL A   1      45.688  25.511  30.090  1.00  0.00     0.031 C 
ATOM     53  C   UNL A   1      45.634  29.782  34.396  1.00  0.00     0.029 A 
ATOM     54  C   UNL A   1      45.271  28.972  33.333  1.00  0.00     0.049 A 
ATOM     55  H   UNL A   1      43.501  28.994  32.184  1.00  0.00     0.167 HD
ATOM     56  C   UNL A   1      45.573  27.126  31.711  1.00  0.00     0.074 A 
ATOM     57  C   UNL A   1      46.339  26.056  31.107  1.00  0.00     0.031 C 
ATOM     58  C   UNL A   1      46.025  27.906  32.724  1.00  0.00     0.031 A 
BRANCH  45  59
ATOM     59  C   UNL A   1      42.125  32.374  34.411  1.00  0.00    -0.014 A 
ATOM     60  C   UNL A   1      42.421  33.674  33.964  1.00  0.00     0.010 A 
ATOM     61  C   UNL A   1      41.490  32.207  35.657  1.00  0.00     0.010 A 
ATOM     62  C   UNL A   1      42.094  34.783  34.749  1.00  0.00     0.020 A 
ATOM     63  C   UNL A   1      41.139  33.315  36.433  1.00  0.00     0.020 A 
ATOM     64  C   UNL A   1      41.448  34.597  35.975  1.00  0.00     0.054 A 
BRANCH  64  65
ATOM     65  S   UNL A   1      40.967  36.061  36.934  1.00  0.00     0.124 S 
ATOM     66  O   UNL A   1      40.602  35.473  38.220  1.00  0.00    -0.237 OA
ATOM     67  O   UNL A   1      42.191  36.858  36.932  1.00  0.00    -0.237 OA
ATOM     68  O   UNL A   1      39.857  36.627  36.172  1.00  0.00    -0.744 OA
ENDBRANCH  64  65
ENDBRANCH  45  59
BRANCH  46  69
ATOM     69  C   UNL A   1      43.636  24.736  28.154  1.00  0.00    -0.014 A 
ATOM     70  C   UNL A   1      44.277  25.004  26.931  1.00  0.00     0.010 A 
ATOM     71  C   UNL A   1      43.219  23.420  28.431  1.00  0.00     0.010 A 
ATOM     72  C   UNL A   1      44.457  23.987  25.987  1.00  0.00     0.020 A 
ATOM     73  C   UNL A   1      43.429  22.395  27.506  1.00  0.00     0.020 A 
ATOM     74  C   UNL A   1      44.027  22.689  26.280  1.00  0.00     0.054 A 
BRANCH  74  75
ATOM     75  S   UNL A   1      44.276  21.385  25.045  1.00  0.00     0.124 S 
ATOM     76  O   UNL A   1      43.157  20.489  25.321  1.00  0.00    -0.237 OA
ATOM     77  O   UNL A   1      44.203  22.122  23.787  1.00  0.00    -0.237 OA
ATOM     78  O   UNL A   1      45.599  20.854  25.371  1.00  0.00    -0.744 OA
ENDBRANCH  74  75
ENDBRANCH  46  69
BRANCH  58  79
ATOM     79  C   UNL A   1      47.404  27.621  33.258  1.00  0.00    -0.014 A 
ATOM     80  C   UNL A   1      48.531  28.287  32.745  1.00  0.00     0.010 A 
ATOM     81  C   UNL A   1      47.568  26.718  34.324  1.00  0.00     0.010 A 
ATOM     82  C   UNL A   1      49.800  28.033  33.270  1.00  0.00     0.020 A 
ATOM     83  C   UNL A   1      48.831  26.485  34.872  1.00  0.00     0.020 A 
ATOM     84  C   UNL A   1      49.943  27.135  34.332  1.00  0.00     0.054 A 
BRANCH  84  85
ATOM     85  S   UNL A   1      51.596  26.863  35.027  1.00  0.00     0.124 S 
ATOM     86  O   UNL A   1      52.073  25.730  34.240  1.00  0.00    -0.237 OA
ATOM     87  O   UNL A   1      52.265  28.135  34.766  1.00  0.00    -0.237 OA
ATOM     88  O   UNL A   1      51.338  26.578  36.436  1.00  0.00    -0.744 OA
ENDBRANCH  84  85
ENDBRANCH  58  79
ENDBRANCH  32  33
ENDBRANCH  24  27
ENDBRANCH  22  23
ENDBRANCH   1  22
TORSDOF 16
ENDMDL
