MODEL 1
REMARK VINA RESULT:     -12.1      0.000      0.000
REMARK SMILES O=C(C[C@]1(C(=O)NC2CCCCC2)CC(c2ccc([N+](=O)[O-])cc2)=NO1)NCCCNC(=O)c1ccc(-c2c3nc(c(-c4ccc(S(=O)(=O)[O-])cc4)c4ccc([nH]4)c(-c4ccc(S(=O)(=O)[O-])cc4)c4nc(c(-c5ccc(S(=O)(=O)[O-])cc5)c5ccc2[nH]5)C=C4)C=C3)cc1
REMARK SMILES IDX 29 1 28 2 27 3 1 4 2 5 3 7 4 8 14 9 26 10 15 11 25 12 5 13
REMARK SMILES IDX 6 14 7 15 8 17 9 18 13 19 10 20 12 21 11 22 16 23 17 24
REMARK SMILES IDX 24 25 18 26 23 27 19 28 20 29 21 30 22 31 30 32 31 33 32 34
REMARK SMILES IDX 33 36 34 37 35 38 93 39 36 40 92 41 37 42 38 43 39 44 86 45
REMARK SMILES IDX 40 46 91 47 85 48 87 49 41 50 90 51 84 52 83 53 42 55 72 56
REMARK SMILES IDX 53 57 71 58 54 59 57 60 70 61 88 62 55 63 56 64 69 66 89 67
REMARK SMILES IDX 58 68 43 69 44 70 52 71 45 72 51 73 46 74 47 75 48 76 49 77
REMARK SMILES IDX 50 78 73 79 74 80 82 81 75 82 81 83 76 84 77 85 78 86 79 87
REMARK SMILES IDX 80 88 59 89 60 90 68 91 61 92 67 93 62 94 63 95 64 96 65 97
REMARK SMILES IDX 66 98
REMARK H PARENT 27 6 7 16 31 35 87 54 57 65
REMARK Flexibility Score: inf
ROOT
ATOM      1  C   UNL A   1      34.550  30.029  27.631  1.00  0.00     0.042 C 
ENDROOT
BRANCH   1   2
ATOM      2  C   UNL A   1      33.138  30.465  27.259  1.00  0.00     0.117 C 
BRANCH   2   3
ATOM      3  N   UNL A   1      32.551  29.673  26.195  1.00  0.00    -0.356 N 
ATOM      4  O   UNL A   1      31.627  28.123  27.593  1.00  0.00    -0.275 OA
ATOM      5  C   UNL A   1      31.794  28.561  26.459  1.00  0.00     0.224 C 
ATOM      6  H   UNL A   1      32.700  29.941  25.260  1.00  0.00     0.163 HD
BRANCH   5   7
ATOM      7  C   UNL A   1      31.201  27.877  25.243  1.00  0.00     0.162 C 
BRANCH   7   8
ATOM      8  C   UNL A   1      32.240  27.524  24.172  1.00  0.00     0.229 C 
ATOM      9  C   UNL A   1      32.163  26.128  23.583  1.00  0.00     0.123 C 
ATOM     10  O   UNL A   1      33.509  27.485  24.899  1.00  0.00    -0.378 OA
ATOM     11  C   UNL A   1      33.031  25.404  24.540  1.00  0.00     0.092 C 
ATOM     12  N   UNL A   1      33.764  26.145  25.297  1.00  0.00    -0.089 NA
BRANCH   8  13
ATOM     13  C   UNL A   1      32.410  28.572  23.055  1.00  0.00     0.268 C 
ATOM     14  O   UNL A   1      33.484  28.676  22.445  1.00  0.00    -0.270 OA
ATOM     15  N   UNL A   1      31.458  29.450  22.659  1.00  0.00    -0.350 N 
ATOM     16  H   UNL A   1      31.853  30.114  22.049  1.00  0.00     0.163 HD
BRANCH  15  17
ATOM     17  C   UNL A   1      30.020  29.741  22.844  1.00  0.00     0.082 C 
ATOM     18  C   UNL A   1      29.630  30.831  23.839  1.00  0.00     0.025 C 
ATOM     19  C   UNL A   1      29.448  30.063  21.445  1.00  0.00     0.025 C 
ATOM     20  C   UNL A   1      28.145  31.176  23.829  1.00  0.00     0.002 C 
ATOM     21  C   UNL A   1      27.974  30.452  21.451  1.00  0.00     0.002 C 
ATOM     22  C   UNL A   1      27.697  31.580  22.435  1.00  0.00     0.000 C 
ENDBRANCH  15  17
ENDBRANCH   8  13
BRANCH  11  23
ATOM     23  C   UNL A   1      33.034  23.942  24.542  1.00  0.00    -0.000 A 
ATOM     24  C   UNL A   1      34.056  23.235  23.906  1.00  0.00     0.017 A 
ATOM     25  C   UNL A   1      32.029  23.282  25.256  1.00  0.00     0.017 A 
ATOM     26  C   UNL A   1      34.077  21.837  23.991  1.00  0.00     0.086 A 
ATOM     27  C   UNL A   1      32.042  21.889  25.336  1.00  0.00     0.086 A 
ATOM     28  C   UNL A   1      33.067  21.169  24.704  1.00  0.00     0.269 A 
BRANCH  28  29
ATOM     29  N   UNL A   1      33.083  19.703  24.800  1.00  0.00     0.062 N 
ATOM     30  O   UNL A   1      34.176  19.129  24.695  1.00  0.00    -0.258 OA
ATOM     31  O   UNL A   1      32.003  19.128  24.992  1.00  0.00    -0.258 OA
ENDBRANCH  28  29
ENDBRANCH  11  23
ENDBRANCH   7   8
ENDBRANCH   5   7
ENDBRANCH   2   3
ENDBRANCH   1   2
BRANCH   1  32
ATOM     32  C   UNL A   1      35.436  31.157  28.141  1.00  0.00     0.118 C 
BRANCH  32  33
ATOM     33  N   UNL A   1      35.364  31.336  29.586  1.00  0.00    -0.352 N 
ATOM     34  C   UNL A   1      36.263  30.948  30.548  1.00  0.00     0.251 C 
ATOM     35  H   UNL A   1      34.560  31.799  29.917  1.00  0.00     0.163 HD
ATOM     36  O   UNL A   1      35.991  31.071  31.738  1.00  0.00    -0.269 OA
BRANCH  34  37
ATOM     37  C   UNL A   1      37.548  30.348  30.134  1.00  0.00     0.039 A 
ATOM     38  C   UNL A   1      37.956  30.469  28.804  1.00  0.00     0.014 A 
ATOM     39  C   UNL A   1      38.363  29.709  31.072  1.00  0.00     0.014 A 
ATOM     40  C   UNL A   1      39.221  30.016  28.428  1.00  0.00     0.010 A 
ATOM     41  C   UNL A   1      39.650  29.322  30.711  1.00  0.00     0.010 A 
ATOM     42  C   UNL A   1      40.094  29.478  29.388  1.00  0.00    -0.014 A 
BRANCH  42  43
ATOM     43  C   UNL A   1      41.481  29.073  29.048  1.00  0.00     0.031 A 
ATOM     44  C   UNL A   1      42.574  30.104  29.027  1.00  0.00     0.074 A 
ATOM     45  C   UNL A   1      41.733  27.807  28.660  1.00  0.00     0.049 A 
ATOM     46  N   UNL A   1      43.810  29.989  28.615  1.00  0.00    -0.248 NA
ATOM     47  C   UNL A   1      42.223  31.451  29.509  1.00  0.00     0.031 C 
ATOM     48  C   UNL A   1      40.750  26.721  28.611  1.00  0.00     0.029 A 
ATOM     49  N   UNL A   1      42.892  27.222  28.213  1.00  0.00    -0.354 N 
ATOM     50  C   UNL A   1      44.373  31.251  28.757  1.00  0.00     0.074 A 
ATOM     51  C   UNL A   1      43.335  32.125  29.258  1.00  0.00     0.031 C 
ATOM     52  C   UNL A   1      41.351  25.602  28.172  1.00  0.00     0.029 A 
ATOM     53  C   UNL A   1      42.746  25.901  27.862  1.00  0.00     0.049 A 
ATOM     54  H   UNL A   1      43.749  27.704  28.149  1.00  0.00     0.167 HD
ATOM     55  C   UNL A   1      45.645  31.643  28.506  1.00  0.00     0.031 A 
ATOM     56  C   UNL A   1      43.629  25.031  27.331  1.00  0.00     0.031 A 
ATOM     57  C   UNL A   1      46.677  30.765  28.023  1.00  0.00     0.049 A 
ATOM     58  C   UNL A   1      45.033  25.492  27.052  1.00  0.00     0.074 A 
ATOM     59  C   UNL A   1      48.007  31.053  27.783  1.00  0.00     0.029 A 
ATOM     60  N   UNL A   1      46.493  29.426  27.710  1.00  0.00    -0.354 N 
ATOM     61  N   UNL A   1      45.561  26.679  27.235  1.00  0.00    -0.248 NA
ATOM     62  C   UNL A   1      45.964  24.496  26.503  1.00  0.00     0.031 C 
ATOM     63  C   UNL A   1      48.620  29.900  27.281  1.00  0.00     0.029 A 
ATOM     64  C   UNL A   1      47.682  28.879  27.265  1.00  0.00     0.049 A 
ATOM     65  H   UNL A   1      45.641  28.938  27.792  1.00  0.00     0.167 HD
ATOM     66  C   UNL A   1      46.895  26.561  26.861  1.00  0.00     0.074 A 
ATOM     67  C   UNL A   1      47.094  25.189  26.441  1.00  0.00     0.031 C 
ATOM     68  C   UNL A   1      47.868  27.505  26.870  1.00  0.00     0.031 A 
BRANCH  55  69
ATOM     69  C   UNL A   1      45.987  33.091  28.741  1.00  0.00    -0.014 A 
ATOM     70  C   UNL A   1      46.482  33.529  29.982  1.00  0.00     0.010 A 
ATOM     71  C   UNL A   1      45.844  34.021  27.695  1.00  0.00     0.010 A 
ATOM     72  C   UNL A   1      46.786  34.877  30.188  1.00  0.00     0.020 A 
ATOM     73  C   UNL A   1      46.174  35.366  27.887  1.00  0.00     0.020 A 
ATOM     74  C   UNL A   1      46.625  35.789  29.139  1.00  0.00     0.054 A 
BRANCH  74  75
ATOM     75  S   UNL A   1      47.044  37.529  29.427  1.00  0.00     0.124 S 
ATOM     76  O   UNL A   1      46.426  37.774  30.728  1.00  0.00    -0.237 OA
ATOM     77  O   UNL A   1      48.504  37.514  29.420  1.00  0.00    -0.237 OA
ATOM     78  O   UNL A   1      46.425  38.226  28.303  1.00  0.00    -0.744 OA
ENDBRANCH  74  75
ENDBRANCH  55  69
BRANCH  56  79
ATOM     79  C   UNL A   1      43.210  23.632  27.041  1.00  0.00    -0.014 A 
ATOM     80  C   UNL A   1      43.137  22.682  28.074  1.00  0.00     0.010 A 
ATOM     81  C   UNL A   1      42.866  23.245  25.732  1.00  0.00     0.010 A 
ATOM     82  C   UNL A   1      42.746  21.367  27.803  1.00  0.00     0.020 A 
ATOM     83  C   UNL A   1      42.449  21.939  25.461  1.00  0.00     0.020 A 
ATOM     84  C   UNL A   1      42.403  21.004  26.497  1.00  0.00     0.054 A 
BRANCH  84  85
ATOM     85  S   UNL A   1      41.851  19.305  26.178  1.00  0.00     0.124 S 
ATOM     86  O   UNL A   1      42.693  18.919  25.050  1.00  0.00    -0.237 OA
ATOM     87  O   UNL A   1      42.142  18.636  27.444  1.00  0.00    -0.237 OA
ATOM     88  O   UNL A   1      40.430  19.459  25.876  1.00  0.00    -0.744 OA
ENDBRANCH  84  85
ENDBRANCH  56  79
BRANCH  68  89
ATOM     89  C   UNL A   1      49.257  27.083  26.474  1.00  0.00    -0.014 A 
ATOM     90  C   UNL A   1      50.115  26.440  27.382  1.00  0.00     0.010 A 
ATOM     91  C   UNL A   1      49.670  27.253  25.139  1.00  0.00     0.010 A 
ATOM     92  C   UNL A   1      51.368  25.983  26.964  1.00  0.00     0.020 A 
ATOM     93  C   UNL A   1      50.911  26.776  24.711  1.00  0.00     0.020 A 
ATOM     94  C   UNL A   1      51.755  26.148  25.629  1.00  0.00     0.054 A 
BRANCH  94  95
ATOM     95  S   UNL A   1      53.353  25.477  25.092  1.00  0.00     0.124 S 
ATOM     96  O   UNL A   1      53.246  24.078  25.494  1.00  0.00    -0.237 OA
ATOM     97  O   UNL A   1      53.335  25.721  23.653  1.00  0.00    -0.237 OA
ATOM     98  O   UNL A   1      54.329  26.267  25.839  1.00  0.00    -0.744 OA
ENDBRANCH  94  95
ENDBRANCH  68  89
ENDBRANCH  42  43
ENDBRANCH  34  37
ENDBRANCH  32  33
ENDBRANCH   1  32
TORSDOF 18
ENDMDL
MODEL 2
REMARK VINA RESULT:     -12.0      5.841      9.926
REMARK SMILES O=C(C[C@]1(C(=O)NC2CCCCC2)CC(c2ccc([N+](=O)[O-])cc2)=NO1)NCCCNC(=O)c1ccc(-c2c3nc(c(-c4ccc(S(=O)(=O)[O-])cc4)c4ccc([nH]4)c(-c4ccc(S(=O)(=O)[O-])cc4)c4nc(c(-c5ccc(S(=O)(=O)[O-])cc5)c5ccc2[nH]5)C=C4)C=C3)cc1
REMARK SMILES IDX 29 1 28 2 27 3 1 4 2 5 3 7 4 8 14 9 26 10 15 11 25 12 5 13
REMARK SMILES IDX 6 14 7 15 8 17 9 18 13 19 10 20 12 21 11 22 16 23 17 24
REMARK SMILES IDX 24 25 18 26 23 27 19 28 20 29 21 30 22 31 30 32 31 33 32 34
REMARK SMILES IDX 33 36 34 37 35 38 93 39 36 40 92 41 37 42 38 43 39 44 86 45
REMARK SMILES IDX 40 46 91 47 85 48 87 49 41 50 90 51 84 52 83 53 42 55 72 56
REMARK SMILES IDX 53 57 71 58 54 59 57 60 70 61 88 62 55 63 56 64 69 66 89 67
REMARK SMILES IDX 58 68 43 69 44 70 52 71 45 72 51 73 46 74 47 75 48 76 49 77
REMARK SMILES IDX 50 78 73 79 74 80 82 81 75 82 81 83 76 84 77 85 78 86 79 87
REMARK SMILES IDX 80 88 59 89 60 90 68 91 61 92 67 93 62 94 63 95 64 96 65 97
REMARK SMILES IDX 66 98
REMARK H PARENT 27 6 7 16 31 35 87 54 57 65
REMARK Flexibility Score: inf
ROOT
ATOM      1  C   UNL A   1      33.028  30.511  27.311  1.00  0.00     0.042 C 
ENDROOT
BRANCH   1   2
ATOM      2  C   UNL A   1      31.755  30.818  26.532  1.00  0.00     0.117 C 
BRANCH   2   3
ATOM      3  N   UNL A   1      31.745  30.251  25.197  1.00  0.00    -0.356 N 
ATOM      4  O   UNL A   1      31.376  28.110  25.898  1.00  0.00    -0.275 OA
ATOM      5  C   UNL A   1      31.513  28.916  24.983  1.00  0.00     0.224 C 
ATOM      6  H   UNL A   1      31.909  30.839  24.425  1.00  0.00     0.163 HD
BRANCH   5   7
ATOM      7  C   UNL A   1      31.475  28.489  23.529  1.00  0.00     0.162 C 
BRANCH   7   8
ATOM      8  C   UNL A   1      30.571  27.278  23.270  1.00  0.00     0.229 C 
ATOM      9  C   UNL A   1      30.896  26.010  24.037  1.00  0.00     0.123 C 
ATOM     10  O   UNL A   1      30.873  26.892  21.891  1.00  0.00    -0.378 OA
ATOM     11  C   UNL A   1      31.856  25.387  23.098  1.00  0.00     0.092 C 
ATOM     12  N   UNL A   1      31.875  25.884  21.910  1.00  0.00    -0.089 NA
BRANCH   8  13
ATOM     13  C   UNL A   1      29.059  27.566  23.320  1.00  0.00     0.268 C 
ATOM     14  O   UNL A   1      28.272  26.734  23.795  1.00  0.00    -0.270 OA
ATOM     15  N   UNL A   1      28.465  28.693  22.858  1.00  0.00    -0.350 N 
ATOM     16  H   UNL A   1      27.487  28.575  22.857  1.00  0.00     0.163 HD
BRANCH  15  17
ATOM     17  C   UNL A   1      28.802  30.041  22.354  1.00  0.00     0.082 C 
ATOM     18  C   UNL A   1      28.059  30.554  21.123  1.00  0.00     0.025 C 
ATOM     19  C   UNL A   1      28.618  31.017  23.537  1.00  0.00     0.025 C 
ATOM     20  C   UNL A   1      28.349  32.013  20.788  1.00  0.00     0.002 C 
ATOM     21  C   UNL A   1      28.865  32.479  23.180  1.00  0.00     0.002 C 
ATOM     22  C   UNL A   1      28.040  32.908  21.975  1.00  0.00     0.000 C 
ENDBRANCH  15  17
ENDBRANCH   8  13
BRANCH  11  23
ATOM     23  C   UNL A   1      32.670  24.258  23.547  1.00  0.00    -0.000 A 
ATOM     24  C   UNL A   1      33.813  23.883  22.838  1.00  0.00     0.017 A 
ATOM     25  C   UNL A   1      32.311  23.619  24.738  1.00  0.00     0.017 A 
ATOM     26  C   UNL A   1      34.617  22.849  23.334  1.00  0.00     0.086 A 
ATOM     27  C   UNL A   1      33.105  22.583  25.230  1.00  0.00     0.086 A 
ATOM     28  C   UNL A   1      34.258  22.202  24.527  1.00  0.00     0.269 A 
BRANCH  28  29
ATOM     29  N   UNL A   1      35.098  21.118  25.056  1.00  0.00     0.062 N 
ATOM     30  O   UNL A   1      36.024  21.425  25.820  1.00  0.00    -0.258 OA
ATOM     31  O   UNL A   1      34.822  19.958  24.716  1.00  0.00    -0.258 OA
ENDBRANCH  28  29
ENDBRANCH  11  23
ENDBRANCH   7   8
ENDBRANCH   5   7
ENDBRANCH   2   3
ENDBRANCH   1   2
BRANCH   1  32
ATOM     32  C   UNL A   1      33.996  31.682  27.411  1.00  0.00     0.118 C 
BRANCH  32  33
ATOM     33  N   UNL A   1      33.345  32.935  27.771  1.00  0.00    -0.352 N 
ATOM     34  C   UNL A   1      33.627  33.783  28.814  1.00  0.00     0.251 C 
ATOM     35  H   UNL A   1      32.603  33.213  27.186  1.00  0.00     0.163 HD
ATOM     36  O   UNL A   1      32.899  34.744  29.047  1.00  0.00    -0.269 OA
BRANCH  34  37
ATOM     37  C   UNL A   1      34.795  33.505  29.674  1.00  0.00     0.039 A 
ATOM     38  C   UNL A   1      34.664  32.592  30.722  1.00  0.00     0.014 A 
ATOM     39  C   UNL A   1      36.025  34.114  29.413  1.00  0.00     0.014 A 
ATOM     40  C   UNL A   1      35.789  32.228  31.464  1.00  0.00     0.010 A 
ATOM     41  C   UNL A   1      37.156  33.699  30.106  1.00  0.00     0.010 A 
ATOM     42  C   UNL A   1      37.052  32.747  31.133  1.00  0.00    -0.014 A 
BRANCH  42  43
ATOM     43  C   UNL A   1      38.285  32.313  31.835  1.00  0.00     0.031 A 
ATOM     44  C   UNL A   1      39.179  31.283  31.202  1.00  0.00     0.074 A 
ATOM     45  C   UNL A   1      38.544  32.768  33.077  1.00  0.00     0.049 A 
ATOM     46  N   UNL A   1      40.213  30.665  31.710  1.00  0.00    -0.248 NA
ATOM     47  C   UNL A   1      38.849  30.876  29.826  1.00  0.00     0.031 C 
ATOM     48  C   UNL A   1      37.738  33.747  33.809  1.00  0.00     0.029 A 
ATOM     49  N   UNL A   1      39.551  32.449  33.955  1.00  0.00    -0.354 N 
ATOM     50  C   UNL A   1      40.637  29.775  30.731  1.00  0.00     0.074 A 
ATOM     51  C   UNL A   1      39.727  29.906  29.615  1.00  0.00     0.031 C 
ATOM     52  C   UNL A   1      38.288  33.958  35.017  1.00  0.00     0.029 A 
ATOM     53  C   UNL A   1      39.456  33.094  35.165  1.00  0.00     0.049 A 
ATOM     54  H   UNL A   1      40.275  31.816  33.737  1.00  0.00     0.167 HD
ATOM     55  C   UNL A   1      41.698  28.933  30.755  1.00  0.00     0.031 A 
ATOM     56  C   UNL A   1      40.211  32.990  36.277  1.00  0.00     0.031 A 
ATOM     57  C   UNL A   1      42.609  28.819  31.862  1.00  0.00     0.049 A 
ATOM     58  C   UNL A   1      41.378  32.041  36.283  1.00  0.00     0.074 A 
ATOM     59  C   UNL A   1      43.741  28.031  31.966  1.00  0.00     0.029 A 
ATOM     60  N   UNL A   1      42.493  29.514  33.057  1.00  0.00    -0.354 N 
ATOM     61  N   UNL A   1      41.791  31.240  35.331  1.00  0.00    -0.248 NA
ATOM     62  C   UNL A   1      42.187  31.989  37.509  1.00  0.00     0.031 C 
ATOM     63  C   UNL A   1      44.285  28.216  33.240  1.00  0.00     0.029 A 
ATOM     64  C   UNL A   1      43.525  29.163  33.908  1.00  0.00     0.049 A 
ATOM     65  H   UNL A   1      41.781  30.161  33.267  1.00  0.00     0.167 HD
ATOM     66  C   UNL A   1      42.930  30.616  35.828  1.00  0.00     0.074 A 
ATOM     67  C   UNL A   1      43.141  31.133  37.165  1.00  0.00     0.031 C 
ATOM     68  C   UNL A   1      43.732  29.703  35.229  1.00  0.00     0.031 A 
BRANCH  55  69
ATOM     69  C   UNL A   1      41.923  28.062  29.547  1.00  0.00    -0.014 A 
ATOM     70  C   UNL A   1      41.248  26.837  29.398  1.00  0.00     0.010 A 
ATOM     71  C   UNL A   1      42.794  28.491  28.529  1.00  0.00     0.010 A 
ATOM     72  C   UNL A   1      41.475  26.036  28.276  1.00  0.00     0.020 A 
ATOM     73  C   UNL A   1      43.001  27.706  27.390  1.00  0.00     0.020 A 
ATOM     74  C   UNL A   1      42.354  26.474  27.281  1.00  0.00     0.054 A 
BRANCH  74  75
ATOM     75  S   UNL A   1      42.615  25.423  25.827  1.00  0.00     0.124 S 
ATOM     76  O   UNL A   1      42.203  26.307  24.740  1.00  0.00    -0.237 OA
ATOM     77  O   UNL A   1      44.046  25.135  25.892  1.00  0.00    -0.237 OA
ATOM     78  O   UNL A   1      41.740  24.278  26.063  1.00  0.00    -0.744 OA
ENDBRANCH  74  75
ENDBRANCH  55  69
BRANCH  56  79
ATOM     79  C   UNL A   1      39.889  33.816  37.473  1.00  0.00    -0.014 A 
ATOM     80  C   UNL A   1      39.058  33.308  38.486  1.00  0.00     0.010 A 
ATOM     81  C   UNL A   1      40.424  35.110  37.614  1.00  0.00     0.010 A 
ATOM     82  C   UNL A   1      38.753  34.083  39.610  1.00  0.00     0.020 A 
ATOM     83  C   UNL A   1      40.144  35.878  38.748  1.00  0.00     0.020 A 
ATOM     84  C   UNL A   1      39.300  35.364  39.734  1.00  0.00     0.054 A 
BRANCH  84  85
ATOM     85  S   UNL A   1      38.929  36.332  41.224  1.00  0.00     0.124 S 
ATOM     86  O   UNL A   1      37.785  35.614  41.775  1.00  0.00    -0.237 OA
ATOM     87  O   UNL A   1      40.171  36.226  41.986  1.00  0.00    -0.237 OA
ATOM     88  O   UNL A   1      38.640  37.665  40.701  1.00  0.00    -0.744 OA
ENDBRANCH  84  85
ENDBRANCH  56  79
BRANCH  68  89
ATOM     89  C   UNL A   1      44.952  29.240  35.979  1.00  0.00    -0.014 A 
ATOM     90  C   UNL A   1      46.160  29.953  35.923  1.00  0.00     0.010 A 
ATOM     91  C   UNL A   1      44.850  28.122  36.829  1.00  0.00     0.010 A 
ATOM     92  C   UNL A   1      47.253  29.549  36.696  1.00  0.00     0.020 A 
ATOM     93  C   UNL A   1      45.931  27.730  37.622  1.00  0.00     0.020 A 
ATOM     94  C   UNL A   1      47.128  28.444  37.546  1.00  0.00     0.054 A 
BRANCH  94  95
ATOM     95  S   UNL A   1      48.534  27.987  38.597  1.00  0.00     0.124 S 
ATOM     96  O   UNL A   1      48.062  28.373  39.923  1.00  0.00    -0.237 OA
ATOM     97  O   UNL A   1      48.653  26.550  38.365  1.00  0.00    -0.237 OA
ATOM     98  O   UNL A   1      49.636  28.789  38.070  1.00  0.00    -0.744 OA
ENDBRANCH  94  95
ENDBRANCH  68  89
ENDBRANCH  42  43
ENDBRANCH  34  37
ENDBRANCH  32  33
ENDBRANCH   1  32
TORSDOF 18
ENDMDL
MODEL 3
REMARK VINA RESULT:     -12.0      4.571      5.571
REMARK SMILES O=C(C[C@]1(C(=O)NC2CCCCC2)CC(c2ccc([N+](=O)[O-])cc2)=NO1)NCCCNC(=O)c1ccc(-c2c3nc(c(-c4ccc(S(=O)(=O)[O-])cc4)c4ccc([nH]4)c(-c4ccc(S(=O)(=O)[O-])cc4)c4nc(c(-c5ccc(S(=O)(=O)[O-])cc5)c5ccc2[nH]5)C=C4)C=C3)cc1
REMARK SMILES IDX 29 1 28 2 27 3 1 4 2 5 3 7 4 8 14 9 26 10 15 11 25 12 5 13
REMARK SMILES IDX 6 14 7 15 8 17 9 18 13 19 10 20 12 21 11 22 16 23 17 24
REMARK SMILES IDX 24 25 18 26 23 27 19 28 20 29 21 30 22 31 30 32 31 33 32 34
REMARK SMILES IDX 33 36 34 37 35 38 93 39 36 40 92 41 37 42 38 43 39 44 86 45
REMARK SMILES IDX 40 46 91 47 85 48 87 49 41 50 90 51 84 52 83 53 42 55 72 56
REMARK SMILES IDX 53 57 71 58 54 59 57 60 70 61 88 62 55 63 56 64 69 66 89 67
REMARK SMILES IDX 58 68 43 69 44 70 52 71 45 72 51 73 46 74 47 75 48 76 49 77
REMARK SMILES IDX 50 78 73 79 74 80 82 81 75 82 81 83 76 84 77 85 78 86 79 87
REMARK SMILES IDX 80 88 59 89 60 90 68 91 61 92 67 93 62 94 63 95 64 96 65 97
REMARK SMILES IDX 66 98
REMARK H PARENT 27 6 7 16 31 35 87 54 57 65
REMARK Flexibility Score: inf
ROOT
ATOM      1  C   UNL A   1      33.579  28.108  26.955  1.00  0.00     0.042 C 
ENDROOT
BRANCH   1   2
ATOM      2  C   UNL A   1      32.120  28.524  26.809  1.00  0.00     0.117 C 
BRANCH   2   3
ATOM      3  N   UNL A   1      31.458  27.916  25.671  1.00  0.00    -0.356 N 
ATOM      4  O   UNL A   1      30.881  26.005  26.780  1.00  0.00    -0.275 OA
ATOM      5  C   UNL A   1      30.846  26.692  25.763  1.00  0.00     0.224 C 
ATOM      6  H   UNL A   1      31.449  28.393  24.810  1.00  0.00     0.163 HD
BRANCH   5   7
ATOM      7  C   UNL A   1      30.148  26.220  24.503  1.00  0.00     0.162 C 
BRANCH   7   8
ATOM      8  C   UNL A   1      31.111  25.886  23.358  1.00  0.00     0.229 C 
ATOM      9  C   UNL A   1      31.138  24.442  22.891  1.00  0.00     0.123 C 
ATOM     10  O   UNL A   1      32.441  26.046  23.947  1.00  0.00    -0.378 OA
ATOM     11  C   UNL A   1      32.172  23.903  23.803  1.00  0.00     0.092 C 
ATOM     12  N   UNL A   1      32.885  24.782  24.419  1.00  0.00    -0.089 NA
BRANCH   8  13
ATOM     13  C   UNL A   1      31.050  26.842  22.151  1.00  0.00     0.268 C 
ATOM     14  O   UNL A   1      31.553  26.520  21.065  1.00  0.00    -0.270 OA
ATOM     15  N   UNL A   1      30.487  28.073  22.161  1.00  0.00    -0.350 N 
ATOM     16  H   UNL A   1      30.713  28.547  21.328  1.00  0.00     0.163 HD
BRANCH  15  17
ATOM     17  C   UNL A   1      29.645  28.941  23.011  1.00  0.00     0.082 C 
ATOM     18  C   UNL A   1      30.008  30.420  23.110  1.00  0.00     0.025 C 
ATOM     19  C   UNL A   1      28.192  28.777  22.513  1.00  0.00     0.025 C 
ATOM     20  C   UNL A   1      28.983  31.260  23.866  1.00  0.00     0.002 C 
ATOM     21  C   UNL A   1      27.181  29.656  23.243  1.00  0.00     0.002 C 
ATOM     22  C   UNL A   1      27.606  31.117  23.241  1.00  0.00     0.000 C 
ENDBRANCH  15  17
ENDBRANCH   8  13
BRANCH  11  23
ATOM     23  C   UNL A   1      32.343  22.456  23.919  1.00  0.00    -0.000 A 
ATOM     24  C   UNL A   1      32.672  21.877  25.146  1.00  0.00     0.017 A 
ATOM     25  C   UNL A   1      32.096  21.670  22.789  1.00  0.00     0.017 A 
ATOM     26  C   UNL A   1      32.752  20.483  25.247  1.00  0.00     0.086 A 
ATOM     27  C   UNL A   1      32.182  20.280  22.883  1.00  0.00     0.086 A 
ATOM     28  C   UNL A   1      32.509  19.690  24.113  1.00  0.00     0.269 A 
BRANCH  28  29
ATOM     29  N   UNL A   1      32.588  18.226  24.210  1.00  0.00     0.062 N 
ATOM     30  O   UNL A   1      31.939  17.671  25.108  1.00  0.00    -0.258 OA
ATOM     31  O   UNL A   1      33.290  17.631  23.380  1.00  0.00    -0.258 OA
ENDBRANCH  28  29
ENDBRANCH  11  23
ENDBRANCH   7   8
ENDBRANCH   5   7
ENDBRANCH   2   3
ENDBRANCH   1   2
BRANCH   1  32
ATOM     32  C   UNL A   1      34.577  29.182  26.541  1.00  0.00     0.118 C 
BRANCH  32  33
ATOM     33  N   UNL A   1      34.106  30.536  26.803  1.00  0.00    -0.352 N 
ATOM     34  C   UNL A   1      34.560  31.442  27.729  1.00  0.00     0.251 C 
ATOM     35  H   UNL A   1      33.359  30.843  26.238  1.00  0.00     0.163 HD
ATOM     36  O   UNL A   1      33.969  32.504  27.900  1.00  0.00    -0.269 OA
BRANCH  34  37
ATOM     37  C   UNL A   1      35.748  31.109  28.541  1.00  0.00     0.039 A 
ATOM     38  C   UNL A   1      35.643  30.123  29.523  1.00  0.00     0.014 A 
ATOM     39  C   UNL A   1      36.969  31.742  28.297  1.00  0.00     0.014 A 
ATOM     40  C   UNL A   1      36.786  29.712  30.212  1.00  0.00     0.010 A 
ATOM     41  C   UNL A   1      38.118  31.283  28.934  1.00  0.00     0.010 A 
ATOM     42  C   UNL A   1      38.039  30.260  29.892  1.00  0.00    -0.014 A 
BRANCH  42  43
ATOM     43  C   UNL A   1      39.289  29.783  30.534  1.00  0.00     0.031 A 
ATOM     44  C   UNL A   1      39.841  30.515  31.726  1.00  0.00     0.074 A 
ATOM     45  C   UNL A   1      39.977  28.762  29.986  1.00  0.00     0.049 A 
ATOM     46  N   UNL A   1      40.986  30.354  32.335  1.00  0.00    -0.248 NA
ATOM     47  C   UNL A   1      39.004  31.588  32.288  1.00  0.00     0.031 C 
ATOM     48  C   UNL A   1      39.560  27.989  28.813  1.00  0.00     0.029 A 
ATOM     49  N   UNL A   1      41.185  28.209  30.332  1.00  0.00    -0.354 N 
ATOM     50  C   UNL A   1      41.022  31.323  33.331  1.00  0.00     0.074 A 
ATOM     51  C   UNL A   1      39.802  32.092  33.219  1.00  0.00     0.031 C 
ATOM     52  C   UNL A   1      40.490  27.056  28.546  1.00  0.00     0.029 A 
ATOM     53  C   UNL A   1      41.590  27.196  29.495  1.00  0.00     0.049 A 
ATOM     54  H   UNL A   1      41.713  28.510  31.107  1.00  0.00     0.167 HD
ATOM     55  C   UNL A   1      41.980  31.544  34.262  1.00  0.00     0.031 A 
ATOM     56  C   UNL A   1      42.727  26.472  29.479  1.00  0.00     0.031 A 
ATOM     57  C   UNL A   1      43.184  30.766  34.377  1.00  0.00     0.049 A 
ATOM     58  C   UNL A   1      43.781  26.742  30.518  1.00  0.00     0.074 A 
ATOM     59  C   UNL A   1      44.194  30.879  35.316  1.00  0.00     0.029 A 
ATOM     60  N   UNL A   1      43.540  29.729  33.528  1.00  0.00    -0.354 N 
ATOM     61  N   UNL A   1      43.778  27.633  31.480  1.00  0.00    -0.248 NA
ATOM     62  C   UNL A   1      44.988  25.904  30.477  1.00  0.00     0.031 C 
ATOM     63  C   UNL A   1      45.182  29.940  35.008  1.00  0.00     0.029 A 
ATOM     64  C   UNL A   1      44.760  29.203  33.912  1.00  0.00     0.049 A 
ATOM     65  H   UNL A   1      43.003  29.414  32.764  1.00  0.00     0.167 HD
ATOM     66  C   UNL A   1      44.963  27.437  32.182  1.00  0.00     0.074 A 
ATOM     67  C   UNL A   1      45.657  26.344  31.534  1.00  0.00     0.031 C 
ATOM     68  C   UNL A   1      45.429  28.100  33.268  1.00  0.00     0.031 A 
BRANCH  55  69
ATOM     69  C   UNL A   1      41.765  32.682  35.225  1.00  0.00    -0.014 A 
ATOM     70  C   UNL A   1      42.238  33.976  34.940  1.00  0.00     0.010 A 
ATOM     71  C   UNL A   1      41.049  32.464  36.416  1.00  0.00     0.010 A 
ATOM     72  C   UNL A   1      42.039  35.019  35.847  1.00  0.00     0.020 A 
ATOM     73  C   UNL A   1      40.822  33.511  37.314  1.00  0.00     0.020 A 
ATOM     74  C   UNL A   1      41.335  34.779  37.032  1.00  0.00     0.054 A 
BRANCH  74  75
ATOM     75  S   UNL A   1      41.075  36.155  38.184  1.00  0.00     0.124 S 
ATOM     76  O   UNL A   1      40.985  35.460  39.465  1.00  0.00    -0.237 OA
ATOM     77  O   UNL A   1      42.276  36.964  37.992  1.00  0.00    -0.237 OA
ATOM     78  O   UNL A   1      39.834  36.767  37.719  1.00  0.00    -0.744 OA
ENDBRANCH  74  75
ENDBRANCH  55  69
BRANCH  56  79
ATOM     79  C   UNL A   1      42.921  25.415  28.449  1.00  0.00    -0.014 A 
ATOM     80  C   UNL A   1      43.568  25.712  27.237  1.00  0.00     0.010 A 
ATOM     81  C   UNL A   1      42.474  24.100  28.679  1.00  0.00     0.010 A 
ATOM     82  C   UNL A   1      43.749  24.721  26.267  1.00  0.00     0.020 A 
ATOM     83  C   UNL A   1      42.677  23.100  27.724  1.00  0.00     0.020 A 
ATOM     84  C   UNL A   1      43.303  23.420  26.518  1.00  0.00     0.054 A 
BRANCH  84  85
ATOM     85  S   UNL A   1      43.593  22.140  25.264  1.00  0.00     0.124 S 
ATOM     86  O   UNL A   1      44.948  21.703  25.585  1.00  0.00    -0.237 OA
ATOM     87  O   UNL A   1      42.533  21.176  25.547  1.00  0.00    -0.237 OA
ATOM     88  O   UNL A   1      43.449  22.860  24.001  1.00  0.00    -0.744 OA
ENDBRANCH  84  85
ENDBRANCH  56  79
BRANCH  68  89
ATOM     89  C   UNL A   1      46.724  27.631  33.874  1.00  0.00    -0.014 A 
ATOM     90  C   UNL A   1      46.754  26.612  34.840  1.00  0.00     0.010 A 
ATOM     91  C   UNL A   1      47.936  28.160  33.392  1.00  0.00     0.010 A 
ATOM     92  C   UNL A   1      47.976  26.135  35.323  1.00  0.00     0.020 A 
ATOM     93  C   UNL A   1      49.160  27.670  33.855  1.00  0.00     0.020 A 
ATOM     94  C   UNL A   1      49.171  26.664  34.823  1.00  0.00     0.054 A 
BRANCH  94  95
ATOM     95  S   UNL A   1      50.744  25.975  35.409  1.00  0.00     0.124 S 
ATOM     96  O   UNL A   1      50.982  26.749  36.623  1.00  0.00    -0.237 OA
ATOM     97  O   UNL A   1      50.419  24.566  35.615  1.00  0.00    -0.237 OA
ATOM     98  O   UNL A   1      51.669  26.239  34.309  1.00  0.00    -0.744 OA
ENDBRANCH  94  95
ENDBRANCH  68  89
ENDBRANCH  42  43
ENDBRANCH  34  37
ENDBRANCH  32  33
ENDBRANCH   1  32
TORSDOF 18
ENDMDL
