MODEL 1
REMARK VINA RESULT:     -11.3      0.000      0.000
REMARK SMILES CC[C@@H]1CCCC[N@H+]1Cc1c(C(=O)NCCCNC(=O)c2ccc(-c3c4nc(c(-c5ccc(S(=O)(=O)[O-])cc5)c5ccc([nH]5)c(-c5ccc(S(=O)(=O)[O-])cc5)c5nc(c(-c6ccc(S(=O)(=O)[O-])cc6)c6ccc3[nH]6)C=C5)C=C4)cc2)oc2ccccc12
REMARK SMILES IDX 16 1 15 2 14 3 12 4 13 5 11 7 10 8 87 9 81 10 82 11 86 12
REMARK SMILES IDX 83 13 85 14 84 15 9 16 8 17 3 18 4 19 5 20 7 21 6 23 2 24
REMARK SMILES IDX 1 25 17 26 18 27 19 28 20 30 21 31 22 32 80 33 23 34 79 35
REMARK SMILES IDX 24 36 25 37 26 38 73 39 27 40 78 41 72 42 74 43 28 44 77 45
REMARK SMILES IDX 71 46 70 47 29 49 59 50 40 51 58 52 41 53 44 54 57 55 75 56
REMARK SMILES IDX 42 57 43 58 56 60 76 61 45 62 30 63 31 64 39 65 32 66 38 67
REMARK SMILES IDX 33 68 34 69 35 70 36 71 37 72 60 73 61 74 69 75 62 76 68 77
REMARK SMILES IDX 63 78 64 79 65 80 66 81 67 82 46 83 47 84 55 85 48 86 54 87
REMARK SMILES IDX 49 88 50 89 51 90 52 91 53 92
REMARK H PARENT 14 6 8 22 18 29 74 48 44 59
REMARK Flexibility Score: inf
ROOT
ATOM      1  C   UNL A   1      33.771  28.367  25.543  1.00  0.00     0.042 C 
ENDROOT
BRANCH   1   2
ATOM      2  C   UNL A   1      33.868  26.903  25.134  1.00  0.00     0.118 C 
BRANCH   2   3
ATOM      3  N   UNL A   1      34.107  26.768  23.708  1.00  0.00    -0.349 N 
ATOM      4  C   UNL A   1      33.273  26.851  22.619  1.00  0.00     0.287 C 
ATOM      5  O   UNL A   1      33.806  26.593  21.538  1.00  0.00    -0.266 OA
ATOM      6  H   UNL A   1      35.046  26.581  23.477  1.00  0.00     0.163 HD
BRANCH   4   7
ATOM      7  C   UNL A   1      31.874  27.230  22.751  1.00  0.00     0.201 A 
ATOM      8  C   UNL A   1      30.727  26.461  22.999  1.00  0.00     0.066 A 
ATOM      9  C   UNL A   1      29.640  27.420  23.094  1.00  0.00     0.030 A 
ATOM     10  O   UNL A   1      31.527  28.539  22.625  1.00  0.00    -0.450 OA
ATOM     11  C   UNL A   1      30.195  28.653  22.789  1.00  0.00     0.135 A 
ATOM     12  C   UNL A   1      28.256  27.423  23.378  1.00  0.00     0.012 A 
ATOM     13  C   UNL A   1      29.491  29.852  22.672  1.00  0.00     0.048 A 
ATOM     14  C   UNL A   1      27.504  28.602  23.246  1.00  0.00     0.001 A 
ATOM     15  C   UNL A   1      28.114  29.797  22.884  1.00  0.00     0.004 A 
BRANCH   8  16
ATOM     16  C   UNL A   1      30.732  24.957  23.172  1.00  0.00     0.304 C 
BRANCH  16  17
ATOM     17  N   UNL A   1      31.501  24.417  24.318  1.00  0.00    -0.329 N 
ATOM     18  C   UNL A   1      30.726  24.028  25.507  1.00  0.00     0.184 C 
ATOM     19  C   UNL A   1      31.604  23.341  26.590  1.00  0.00     0.065 C 
ATOM     20  C   UNL A   1      32.463  22.221  26.032  1.00  0.00     0.012 C 
ATOM     21  C   UNL A   1      32.444  23.387  23.833  1.00  0.00     0.262 C 
ATOM     22  H   UNL A   1      32.033  25.196  24.703  1.00  0.00     0.348 HD
ATOM     23  C   UNL A   1      33.326  22.784  24.922  1.00  0.00     0.062 C 
BRANCH  18  24
ATOM     24  C   UNL A   1      29.974  25.165  26.272  1.00  0.00     0.061 C 
ATOM     25  C   UNL A   1      30.646  26.495  26.581  1.00  0.00     0.010 C 
ENDBRANCH  18  24
ENDBRANCH  16  17
ENDBRANCH   8  16
ENDBRANCH   4   7
ENDBRANCH   2   3
ENDBRANCH   1   2
BRANCH   1  26
ATOM     26  C   UNL A   1      33.608  28.555  27.051  1.00  0.00     0.118 C 
BRANCH  26  27
ATOM     27  N   UNL A   1      33.601  29.963  27.433  1.00  0.00    -0.352 N 
ATOM     28  C   UNL A   1      34.522  30.691  28.144  1.00  0.00     0.251 C 
ATOM     29  H   UNL A   1      32.813  30.472  27.134  1.00  0.00     0.163 HD
ATOM     30  O   UNL A   1      34.218  31.794  28.585  1.00  0.00    -0.269 OA
BRANCH  28  31
ATOM     31  C   UNL A   1      35.870  30.138  28.380  1.00  0.00     0.039 A 
ATOM     32  C   UNL A   1      36.815  30.181  27.353  1.00  0.00     0.014 A 
ATOM     33  C   UNL A   1      36.196  29.570  29.614  1.00  0.00     0.014 A 
ATOM     34  C   UNL A   1      38.111  29.723  27.591  1.00  0.00     0.010 A 
ATOM     35  C   UNL A   1      37.506  29.188  29.874  1.00  0.00     0.010 A 
ATOM     36  C   UNL A   1      38.479  29.265  28.866  1.00  0.00    -0.014 A 
BRANCH  36  37
ATOM     37  C   UNL A   1      39.878  28.877  29.180  1.00  0.00     0.031 A 
ATOM     38  C   UNL A   1      40.813  29.874  29.809  1.00  0.00     0.074 A 
ATOM     39  C   UNL A   1      40.320  27.652  28.834  1.00  0.00     0.049 A 
ATOM     40  N   UNL A   1      42.091  29.756  30.063  1.00  0.00    -0.248 NA
ATOM     41  C   UNL A   1      40.244  31.180  30.184  1.00  0.00     0.031 C 
ATOM     42  C   UNL A   1      39.514  26.606  28.197  1.00  0.00     0.029 A 
ATOM     43  N   UNL A   1      41.560  27.078  28.961  1.00  0.00    -0.354 N 
ATOM     44  C   UNL A   1      42.477  30.967  30.625  1.00  0.00     0.074 A 
ATOM     45  C   UNL A   1      41.316  31.828  30.618  1.00  0.00     0.031 C 
ATOM     46  C   UNL A   1      40.273  25.514  28.014  1.00  0.00     0.029 A 
ATOM     47  C   UNL A   1      41.631  25.796  28.468  1.00  0.00     0.049 A 
ATOM     48  H   UNL A   1      42.328  27.541  29.367  1.00  0.00     0.167 HD
ATOM     49  C   UNL A   1      43.685  31.321  31.126  1.00  0.00     0.031 A 
ATOM     50  C   UNL A   1      42.674  24.948  28.375  1.00  0.00     0.031 A 
ATOM     51  C   UNL A   1      44.839  30.461  31.129  1.00  0.00     0.049 A 
ATOM     52  C   UNL A   1      44.023  25.397  28.875  1.00  0.00     0.074 A 
ATOM     53  C   UNL A   1      46.102  30.720  31.631  1.00  0.00     0.029 A 
ATOM     54  N   UNL A   1      44.871  29.177  30.607  1.00  0.00    -0.354 N 
ATOM     55  N   UNL A   1      44.356  26.529  29.448  1.00  0.00    -0.248 NA
ATOM     56  C   UNL A   1      45.137  24.451  28.718  1.00  0.00     0.031 C 
ATOM     57  C   UNL A   1      46.912  29.613  31.368  1.00  0.00     0.029 A 
ATOM     58  C   UNL A   1      46.138  28.639  30.758  1.00  0.00     0.049 A 
ATOM     59  H   UNL A   1      44.107  28.716  30.193  1.00  0.00     0.167 HD
ATOM     60  C   UNL A   1      45.709  26.416  29.750  1.00  0.00     0.074 A 
ATOM     61  C   UNL A   1      46.127  25.100  29.313  1.00  0.00     0.031 C 
ATOM     62  C   UNL A   1      46.532  27.320  30.333  1.00  0.00     0.031 A 
BRANCH  49  63
ATOM     63  C   UNL A   1      43.818  32.694  31.729  1.00  0.00    -0.014 A 
ATOM     64  C   UNL A   1      43.582  32.900  33.101  1.00  0.00     0.010 A 
ATOM     65  C   UNL A   1      44.247  33.776  30.939  1.00  0.00     0.010 A 
ATOM     66  C   UNL A   1      43.746  34.166  33.666  1.00  0.00     0.020 A 
ATOM     67  C   UNL A   1      44.443  35.039  31.508  1.00  0.00     0.020 A 
ATOM     68  C   UNL A   1      44.180  35.227  32.866  1.00  0.00     0.054 A 
BRANCH  68  69
ATOM     69  S   UNL A   1      44.430  36.848  33.642  1.00  0.00     0.124 S 
ATOM     70  O   UNL A   1      43.234  36.973  34.473  1.00  0.00    -0.237 OA
ATOM     71  O   UNL A   1      45.682  36.663  34.369  1.00  0.00    -0.237 OA
ATOM     72  O   UNL A   1      44.500  37.768  32.510  1.00  0.00    -0.744 OA
ENDBRANCH  68  69
ENDBRANCH  49  63
BRANCH  50  73
ATOM     73  C   UNL A   1      42.502  23.596  27.775  1.00  0.00    -0.014 A 
ATOM     74  C   UNL A   1      42.163  22.495  28.581  1.00  0.00     0.010 A 
ATOM     75  C   UNL A   1      42.716  23.392  26.399  1.00  0.00     0.010 A 
ATOM     76  C   UNL A   1      42.088  21.210  28.034  1.00  0.00     0.020 A 
ATOM     77  C   UNL A   1      42.606  22.115  25.842  1.00  0.00     0.020 A 
ATOM     78  C   UNL A   1      42.315  21.028  26.668  1.00  0.00     0.054 A 
BRANCH  78  79
ATOM     79  S   UNL A   1      42.214  19.353  25.979  1.00  0.00     0.124 S 
ATOM     80  O   UNL A   1      42.732  18.543  27.078  1.00  0.00    -0.237 OA
ATOM     81  O   UNL A   1      40.787  19.211  25.705  1.00  0.00    -0.237 OA
ATOM     82  O   UNL A   1      43.066  19.419  24.794  1.00  0.00    -0.744 OA
ENDBRANCH  78  79
ENDBRANCH  50  73
BRANCH  62  83
ATOM     83  C   UNL A   1      47.960  26.908  30.576  1.00  0.00    -0.014 A 
ATOM     84  C   UNL A   1      48.974  27.210  29.649  1.00  0.00     0.010 A 
ATOM     85  C   UNL A   1      48.302  26.275  31.785  1.00  0.00     0.010 A 
ATOM     86  C   UNL A   1      50.301  26.870  29.920  1.00  0.00     0.020 A 
ATOM     87  C   UNL A   1      49.632  25.961  32.073  1.00  0.00     0.020 A 
ATOM     88  C   UNL A   1      50.623  26.253  31.133  1.00  0.00     0.054 A 
BRANCH  88  89
ATOM     89  S   UNL A   1      52.363  25.887  31.487  1.00  0.00     0.124 S 
ATOM     90  O   UNL A   1      52.289  24.523  32.005  1.00  0.00    -0.237 OA
ATOM     91  O   UNL A   1      52.992  26.028  30.175  1.00  0.00    -0.237 OA
ATOM     92  O   UNL A   1      52.742  26.904  32.465  1.00  0.00    -0.744 OA
ENDBRANCH  88  89
ENDBRANCH  62  83
ENDBRANCH  36  37
ENDBRANCH  28  31
ENDBRANCH  26  27
ENDBRANCH   1  26
TORSDOF 16
ENDMDL
MODEL 2
REMARK VINA RESULT:     -11.3      1.340      3.321
REMARK SMILES CC[C@@H]1CCCC[N@H+]1Cc1c(C(=O)NCCCNC(=O)c2ccc(-c3c4nc(c(-c5ccc(S(=O)(=O)[O-])cc5)c5ccc([nH]5)c(-c5ccc(S(=O)(=O)[O-])cc5)c5nc(c(-c6ccc(S(=O)(=O)[O-])cc6)c6ccc3[nH]6)C=C5)C=C4)cc2)oc2ccccc12
REMARK SMILES IDX 16 1 15 2 14 3 12 4 13 5 11 7 10 8 87 9 81 10 82 11 86 12
REMARK SMILES IDX 83 13 85 14 84 15 9 16 8 17 3 18 4 19 5 20 7 21 6 23 2 24
REMARK SMILES IDX 1 25 17 26 18 27 19 28 20 30 21 31 22 32 80 33 23 34 79 35
REMARK SMILES IDX 24 36 25 37 26 38 73 39 27 40 78 41 72 42 74 43 28 44 77 45
REMARK SMILES IDX 71 46 70 47 29 49 59 50 40 51 58 52 41 53 44 54 57 55 75 56
REMARK SMILES IDX 42 57 43 58 56 60 76 61 45 62 30 63 31 64 39 65 32 66 38 67
REMARK SMILES IDX 33 68 34 69 35 70 36 71 37 72 60 73 61 74 69 75 62 76 68 77
REMARK SMILES IDX 63 78 64 79 65 80 66 81 67 82 46 83 47 84 55 85 48 86 54 87
REMARK SMILES IDX 49 88 50 89 51 90 52 91 53 92
REMARK H PARENT 14 6 8 22 18 29 74 48 44 59
REMARK Flexibility Score: inf
ROOT
ATOM      1  C   UNL A   1      33.203  27.789  26.152  1.00  0.00     0.042 C 
ENDROOT
BRANCH   1   2
ATOM      2  C   UNL A   1      32.925  26.292  26.188  1.00  0.00     0.118 C 
BRANCH   2   3
ATOM      3  N   UNL A   1      31.567  26.016  26.620  1.00  0.00    -0.349 N 
ATOM      4  C   UNL A   1      30.674  25.025  26.289  1.00  0.00     0.287 C 
ATOM      5  O   UNL A   1      29.555  25.149  26.790  1.00  0.00    -0.266 OA
ATOM      6  H   UNL A   1      31.217  26.665  27.274  1.00  0.00     0.163 HD
BRANCH   4   7
ATOM      7  C   UNL A   1      31.047  23.915  25.424  1.00  0.00     0.201 A 
ATOM      8  C   UNL A   1      30.979  23.765  24.030  1.00  0.00     0.066 A 
ATOM      9  C   UNL A   1      31.567  22.465  23.759  1.00  0.00     0.030 A 
ATOM     10  O   UNL A   1      31.557  22.784  25.980  1.00  0.00    -0.450 OA
ATOM     11  C   UNL A   1      31.831  21.904  24.998  1.00  0.00     0.135 A 
ATOM     12  C   UNL A   1      31.900  21.669  22.640  1.00  0.00     0.012 A 
ATOM     13  C   UNL A   1      32.320  20.614  25.215  1.00  0.00     0.048 A 
ATOM     14  C   UNL A   1      32.368  20.357  22.814  1.00  0.00     0.001 A 
ATOM     15  C   UNL A   1      32.562  19.834  24.086  1.00  0.00     0.004 A 
BRANCH   8  16
ATOM     16  C   UNL A   1      30.440  24.820  23.087  1.00  0.00     0.304 C 
BRANCH  16  17
ATOM     17  N   UNL A   1      30.994  26.188  23.224  1.00  0.00    -0.329 N 
ATOM     18  C   UNL A   1      31.846  26.667  22.125  1.00  0.00     0.184 C 
ATOM     19  C   UNL A   1      32.253  28.157  22.295  1.00  0.00     0.065 C 
ATOM     20  C   UNL A   1      31.072  29.064  22.586  1.00  0.00     0.012 C 
ATOM     21  C   UNL A   1      29.913  27.117  23.615  1.00  0.00     0.262 C 
ATOM     22  H   UNL A   1      31.682  26.148  23.975  1.00  0.00     0.348 HD
ATOM     23  C   UNL A   1      30.371  28.555  23.829  1.00  0.00     0.062 C 
BRANCH  18  24
ATOM     24  C   UNL A   1      33.195  25.914  21.887  1.00  0.00     0.061 C 
ATOM     25  C   UNL A   1      33.944  25.245  23.030  1.00  0.00     0.010 C 
ENDBRANCH  18  24
ENDBRANCH  16  17
ENDBRANCH   8  16
ENDBRANCH   4   7
ENDBRANCH   2   3
ENDBRANCH   1   2
BRANCH   1  26
ATOM     26  C   UNL A   1      33.172  28.434  27.537  1.00  0.00     0.118 C 
BRANCH  26  27
ATOM     27  N   UNL A   1      33.271  29.888  27.470  1.00  0.00    -0.352 N 
ATOM     28  C   UNL A   1      34.278  30.726  27.880  1.00  0.00     0.251 C 
ATOM     29  H   UNL A   1      32.494  30.340  27.068  1.00  0.00     0.163 HD
ATOM     30  O   UNL A   1      34.067  31.930  27.977  1.00  0.00    -0.269 OA
BRANCH  28  31
ATOM     31  C   UNL A   1      35.605  30.172  28.209  1.00  0.00     0.039 A 
ATOM     32  C   UNL A   1      36.593  30.136  27.223  1.00  0.00     0.014 A 
ATOM     33  C   UNL A   1      35.869  29.679  29.489  1.00  0.00     0.014 A 
ATOM     34  C   UNL A   1      37.871  29.677  27.545  1.00  0.00     0.010 A 
ATOM     35  C   UNL A   1      37.161  29.297  29.829  1.00  0.00     0.010 A 
ATOM     36  C   UNL A   1      38.177  29.297  28.862  1.00  0.00    -0.014 A 
BRANCH  36  37
ATOM     37  C   UNL A   1      39.554  28.911  29.260  1.00  0.00     0.031 A 
ATOM     38  C   UNL A   1      40.436  29.896  29.978  1.00  0.00     0.074 A 
ATOM     39  C   UNL A   1      40.031  27.699  28.912  1.00  0.00     0.049 A 
ATOM     40  N   UNL A   1      41.694  29.782  30.316  1.00  0.00    -0.248 NA
ATOM     41  C   UNL A   1      39.830  31.187  30.349  1.00  0.00     0.031 C 
ATOM     42  C   UNL A   1      39.280  26.665  28.193  1.00  0.00     0.029 A 
ATOM     43  N   UNL A   1      41.265  27.132  29.108  1.00  0.00    -0.354 N 
ATOM     44  C   UNL A   1      42.030  30.979  30.936  1.00  0.00     0.074 A 
ATOM     45  C   UNL A   1      40.864  31.831  30.873  1.00  0.00     0.031 C 
ATOM     46  C   UNL A   1      40.061  25.584  28.032  1.00  0.00     0.029 A 
ATOM     47  C   UNL A   1      41.381  25.864  28.586  1.00  0.00     0.049 A 
ATOM     48  H   UNL A   1      41.999  27.589  29.578  1.00  0.00     0.167 HD
ATOM     49  C   UNL A   1      43.197  31.329  31.528  1.00  0.00     0.031 A 
ATOM     50  C   UNL A   1      42.437  25.028  28.541  1.00  0.00     0.031 A 
ATOM     51  C   UNL A   1      44.356  30.478  31.586  1.00  0.00     0.049 A 
ATOM     52  C   UNL A   1      43.744  25.472  29.145  1.00  0.00     0.074 A 
ATOM     53  C   UNL A   1      45.579  30.733  32.181  1.00  0.00     0.029 A 
ATOM     54  N   UNL A   1      44.435  29.209  31.034  1.00  0.00    -0.354 N 
ATOM     55  N   UNL A   1      44.026  26.590  29.770  1.00  0.00    -0.248 NA
ATOM     56  C   UNL A   1      44.875  24.539  29.039  1.00  0.00     0.031 C 
ATOM     57  C   UNL A   1      46.416  29.639  31.944  1.00  0.00     0.029 A 
ATOM     58  C   UNL A   1      45.695  28.677  31.256  1.00  0.00     0.049 A 
ATOM     59  H   UNL A   1      43.706  28.754  30.556  1.00  0.00     0.167 HD
ATOM     60  C   UNL A   1      45.356  26.479  30.161  1.00  0.00     0.074 A 
ATOM     61  C   UNL A   1      45.816  25.179  29.718  1.00  0.00     0.031 C 
ATOM     62  C   UNL A   1      46.129  27.373  30.823  1.00  0.00     0.031 A 
BRANCH  49  63
ATOM     63  C   UNL A   1      43.275  32.685  32.176  1.00  0.00    -0.014 A 
ATOM     64  C   UNL A   1      43.414  33.847  31.393  1.00  0.00     0.010 A 
ATOM     65  C   UNL A   1      43.139  32.813  33.570  1.00  0.00     0.010 A 
ATOM     66  C   UNL A   1      43.445  35.106  31.994  1.00  0.00     0.020 A 
ATOM     67  C   UNL A   1      43.138  34.075  34.173  1.00  0.00     0.020 A 
ATOM     68  C   UNL A   1      43.302  35.213  33.381  1.00  0.00     0.054 A 
BRANCH  68  69
ATOM     69  S   UNL A   1      43.297  36.868  34.124  1.00  0.00     0.124 S 
ATOM     70  O   UNL A   1      41.982  36.908  34.761  1.00  0.00    -0.237 OA
ATOM     71  O   UNL A   1      44.435  36.810  35.037  1.00  0.00    -0.237 OA
ATOM     72  O   UNL A   1      43.463  37.763  32.982  1.00  0.00    -0.744 OA
ENDBRANCH  68  69
ENDBRANCH  49  63
BRANCH  50  73
ATOM     73  C   UNL A   1      42.319  23.691  27.895  1.00  0.00    -0.014 A 
ATOM     74  C   UNL A   1      41.874  22.578  28.630  1.00  0.00     0.010 A 
ATOM     75  C   UNL A   1      42.690  23.513  26.549  1.00  0.00     0.010 A 
ATOM     76  C   UNL A   1      41.847  21.307  28.049  1.00  0.00     0.020 A 
ATOM     77  C   UNL A   1      42.631  22.250  25.953  1.00  0.00     0.020 A 
ATOM     78  C   UNL A   1      42.231  21.151  26.715  1.00  0.00     0.054 A 
BRANCH  78  79
ATOM     79  S   UNL A   1      42.190  19.493  25.981  1.00  0.00     0.124 S 
ATOM     80  O   UNL A   1      43.088  19.644  24.840  1.00  0.00    -0.237 OA
ATOM     81  O   UNL A   1      42.684  18.654  27.070  1.00  0.00    -0.237 OA
ATOM     82  O   UNL A   1      40.780  19.301  25.647  1.00  0.00    -0.744 OA
ENDBRANCH  78  79
ENDBRANCH  50  73
BRANCH  62  83
ATOM     83  C   UNL A   1      47.541  26.966  31.152  1.00  0.00    -0.014 A 
ATOM     84  C   UNL A   1      47.841  26.270  32.337  1.00  0.00     0.010 A 
ATOM     85  C   UNL A   1      48.569  27.217  30.225  1.00  0.00     0.010 A 
ATOM     86  C   UNL A   1      49.149  25.850  32.597  1.00  0.00     0.020 A 
ATOM     87  C   UNL A   1      49.871  26.773  30.467  1.00  0.00     0.020 A 
ATOM     88  C   UNL A   1      50.154  26.099  31.657  1.00  0.00     0.054 A 
BRANCH  88  89
ATOM     89  S   UNL A   1      51.826  25.481  31.988  1.00  0.00     0.124 S 
ATOM     90  O   UNL A   1      52.546  25.887  30.784  1.00  0.00    -0.237 OA
ATOM     91  O   UNL A   1      52.192  26.194  33.210  1.00  0.00    -0.237 OA
ATOM     92  O   UNL A   1      51.640  24.040  32.147  1.00  0.00    -0.744 OA
ENDBRANCH  88  89
ENDBRANCH  62  83
ENDBRANCH  36  37
ENDBRANCH  28  31
ENDBRANCH  26  27
ENDBRANCH   1  26
TORSDOF 16
ENDMDL
MODEL 3
REMARK VINA RESULT:     -11.1      2.576      9.067
REMARK SMILES CC[C@@H]1CCCC[N@H+]1Cc1c(C(=O)NCCCNC(=O)c2ccc(-c3c4nc(c(-c5ccc(S(=O)(=O)[O-])cc5)c5ccc([nH]5)c(-c5ccc(S(=O)(=O)[O-])cc5)c5nc(c(-c6ccc(S(=O)(=O)[O-])cc6)c6ccc3[nH]6)C=C5)C=C4)cc2)oc2ccccc12
REMARK SMILES IDX 16 1 15 2 14 3 12 4 13 5 11 7 10 8 87 9 81 10 82 11 86 12
REMARK SMILES IDX 83 13 85 14 84 15 9 16 8 17 3 18 4 19 5 20 7 21 6 23 2 24
REMARK SMILES IDX 1 25 17 26 18 27 19 28 20 30 21 31 22 32 80 33 23 34 79 35
REMARK SMILES IDX 24 36 25 37 26 38 73 39 27 40 78 41 72 42 74 43 28 44 77 45
REMARK SMILES IDX 71 46 70 47 29 49 59 50 40 51 58 52 41 53 44 54 57 55 75 56
REMARK SMILES IDX 42 57 43 58 56 60 76 61 45 62 30 63 31 64 39 65 32 66 38 67
REMARK SMILES IDX 33 68 34 69 35 70 36 71 37 72 60 73 61 74 69 75 62 76 68 77
REMARK SMILES IDX 63 78 64 79 65 80 66 81 67 82 46 83 47 84 55 85 48 86 54 87
REMARK SMILES IDX 49 88 50 89 51 90 52 91 53 92
REMARK H PARENT 14 6 8 22 18 29 74 48 44 59
REMARK Flexibility Score: inf
ROOT
ATOM      1  C   UNL A   1      35.463  23.079  25.393  1.00  0.00     0.042 C 
ENDROOT
BRANCH   1   2
ATOM      2  C   UNL A   1      34.459  24.209  25.204  1.00  0.00     0.118 C 
BRANCH   2   3
ATOM      3  N   UNL A   1      34.379  24.617  23.812  1.00  0.00    -0.349 N 
ATOM      4  C   UNL A   1      33.912  25.760  23.209  1.00  0.00     0.287 C 
ATOM      5  O   UNL A   1      33.916  25.733  21.977  1.00  0.00    -0.266 OA
ATOM      6  H   UNL A   1      34.725  23.946  23.180  1.00  0.00     0.163 HD
BRANCH   4   7
ATOM      7  C   UNL A   1      33.465  26.908  23.984  1.00  0.00     0.201 A 
ATOM      8  C   UNL A   1      32.576  27.948  23.669  1.00  0.00     0.066 A 
ATOM      9  C   UNL A   1      32.483  28.747  24.878  1.00  0.00     0.030 A 
ATOM     10  O   UNL A   1      33.942  27.083  25.246  1.00  0.00    -0.450 OA
ATOM     11  C   UNL A   1      33.392  28.196  25.767  1.00  0.00     0.135 A 
ATOM     12  C   UNL A   1      31.770  29.873  25.347  1.00  0.00     0.012 A 
ATOM     13  C   UNL A   1      33.700  28.705  27.030  1.00  0.00     0.048 A 
ATOM     14  C   UNL A   1      32.067  30.433  26.600  1.00  0.00     0.001 A 
ATOM     15  C   UNL A   1      33.030  29.862  27.423  1.00  0.00     0.004 A 
BRANCH   8  16
ATOM     16  C   UNL A   1      31.870  28.088  22.337  1.00  0.00     0.304 C 
BRANCH  16  17
ATOM     17  N   UNL A   1      30.388  28.073  22.359  1.00  0.00    -0.329 N 
ATOM     18  C   UNL A   1      29.753  27.385  23.494  1.00  0.00     0.184 C 
ATOM     19  C   UNL A   1      28.208  27.552  23.500  1.00  0.00     0.065 C 
ATOM     20  C   UNL A   1      27.768  28.996  23.343  1.00  0.00     0.012 C 
ATOM     21  C   UNL A   1      29.881  29.437  22.104  1.00  0.00     0.262 C 
ATOM     22  H   UNL A   1      30.094  27.464  21.597  1.00  0.00     0.348 HD
ATOM     23  C   UNL A   1      28.360  29.541  22.059  1.00  0.00     0.062 C 
BRANCH  18  24
ATOM     24  C   UNL A   1      29.983  25.844  23.614  1.00  0.00     0.061 C 
ATOM     25  C   UNL A   1      30.372  25.198  24.935  1.00  0.00     0.010 C 
ENDBRANCH  18  24
ENDBRANCH  16  17
ENDBRANCH   8  16
ENDBRANCH   4   7
ENDBRANCH   2   3
ENDBRANCH   1   2
BRANCH   1  26
ATOM     26  C   UNL A   1      36.897  23.496  25.069  1.00  0.00     0.118 C 
BRANCH  26  27
ATOM     27  N   UNL A   1      37.877  22.548  25.589  1.00  0.00    -0.352 N 
ATOM     28  C   UNL A   1      39.057  22.771  26.254  1.00  0.00     0.251 C 
ATOM     29  H   UNL A   1      37.658  21.600  25.439  1.00  0.00     0.163 HD
ATOM     30  O   UNL A   1      39.867  21.859  26.380  1.00  0.00    -0.269 OA
BRANCH  28  31
ATOM     31  C   UNL A   1      39.346  24.108  26.807  1.00  0.00     0.039 A 
ATOM     32  C   UNL A   1      38.937  24.412  28.107  1.00  0.00     0.014 A 
ATOM     33  C   UNL A   1      40.013  25.064  26.036  1.00  0.00     0.014 A 
ATOM     34  C   UNL A   1      39.267  25.650  28.660  1.00  0.00     0.010 A 
ATOM     35  C   UNL A   1      40.410  26.263  26.615  1.00  0.00     0.010 A 
ATOM     36  C   UNL A   1      40.045  26.567  27.935  1.00  0.00    -0.014 A 
BRANCH  36  37
ATOM     37  C   UNL A   1      40.506  27.844  28.537  1.00  0.00     0.031 A 
ATOM     38  C   UNL A   1      41.908  27.962  29.071  1.00  0.00     0.074 A 
ATOM     39  C   UNL A   1      39.640  28.869  28.663  1.00  0.00     0.049 A 
ATOM     40  N   UNL A   1      42.460  28.954  29.720  1.00  0.00    -0.248 NA
ATOM     41  C   UNL A   1      42.800  26.808  28.867  1.00  0.00     0.031 C 
ATOM     42  C   UNL A   1      38.248  28.867  28.205  1.00  0.00     0.029 A 
ATOM     43  N   UNL A   1      39.800  30.112  29.223  1.00  0.00    -0.354 N 
ATOM     44  C   UNL A   1      43.758  28.546  30.002  1.00  0.00     0.074 A 
ATOM     45  C   UNL A   1      43.894  27.194  29.509  1.00  0.00     0.031 C 
ATOM     46  C   UNL A   1      37.691  30.057  28.479  1.00  0.00     0.029 A 
ATOM     47  C   UNL A   1      38.665  30.888  29.179  1.00  0.00     0.049 A 
ATOM     48  H   UNL A   1      40.647  30.419  29.619  1.00  0.00     0.167 HD
ATOM     49  C   UNL A   1      44.756  29.244  30.593  1.00  0.00     0.031 A 
ATOM     50  C   UNL A   1      38.428  32.123  29.664  1.00  0.00     0.031 A 
ATOM     51  C   UNL A   1      44.616  30.590  31.084  1.00  0.00     0.049 A 
ATOM     52  C   UNL A   1      39.536  32.848  30.382  1.00  0.00     0.074 A 
ATOM     53  C   UNL A   1      45.574  31.391  31.681  1.00  0.00     0.029 A 
ATOM     54  N   UNL A   1      43.447  31.334  31.033  1.00  0.00    -0.354 N 
ATOM     55  N   UNL A   1      40.772  32.463  30.594  1.00  0.00    -0.248 NA
ATOM     56  C   UNL A   1      39.218  34.177  30.924  1.00  0.00     0.031 C 
ATOM     57  C   UNL A   1      44.971  32.600  32.038  1.00  0.00     0.029 A 
ATOM     58  C   UNL A   1      43.654  32.577  31.607  1.00  0.00     0.049 A 
ATOM     59  H   UNL A   1      42.597  31.025  30.646  1.00  0.00     0.167 HD
ATOM     60  C   UNL A   1      41.387  33.516  31.263  1.00  0.00     0.074 A 
ATOM     61  C   UNL A   1      40.393  34.560  31.404  1.00  0.00     0.031 C 
ATOM     62  C   UNL A   1      42.657  33.611  31.723  1.00  0.00     0.031 A 
BRANCH  49  63
ATOM     63  C   UNL A   1      46.097  28.572  30.730  1.00  0.00    -0.014 A 
ATOM     64  C   UNL A   1      46.413  27.833  31.885  1.00  0.00     0.010 A 
ATOM     65  C   UNL A   1      47.022  28.618  29.672  1.00  0.00     0.010 A 
ATOM     66  C   UNL A   1      47.641  27.176  31.990  1.00  0.00     0.020 A 
ATOM     67  C   UNL A   1      48.241  27.936  29.762  1.00  0.00     0.020 A 
ATOM     68  C   UNL A   1      48.545  27.229  30.926  1.00  0.00     0.054 A 
BRANCH  68  69
ATOM     69  S   UNL A   1      50.110  26.324  31.077  1.00  0.00     0.124 S 
ATOM     70  O   UNL A   1      49.648  24.950  31.266  1.00  0.00    -0.237 OA
ATOM     71  O   UNL A   1      50.760  26.596  29.797  1.00  0.00    -0.237 OA
ATOM     72  O   UNL A   1      50.752  26.930  32.240  1.00  0.00    -0.744 OA
ENDBRANCH  68  69
ENDBRANCH  49  63
BRANCH  50  73
ATOM     73  C   UNL A   1      37.089  32.757  29.506  1.00  0.00    -0.014 A 
ATOM     74  C   UNL A   1      36.756  33.436  28.321  1.00  0.00     0.010 A 
ATOM     75  C   UNL A   1      36.153  32.720  30.555  1.00  0.00     0.010 A 
ATOM     76  C   UNL A   1      35.534  34.105  28.205  1.00  0.00     0.020 A 
ATOM     77  C   UNL A   1      34.915  33.358  30.430  1.00  0.00     0.020 A 
ATOM     78  C   UNL A   1      34.623  34.066  29.264  1.00  0.00     0.054 A 
BRANCH  78  79
ATOM     79  S   UNL A   1      33.045  34.943  29.094  1.00  0.00     0.124 S 
ATOM     80  O   UNL A   1      32.342  34.115  28.118  1.00  0.00    -0.237 OA
ATOM     81  O   UNL A   1      32.515  34.907  30.455  1.00  0.00    -0.237 OA
ATOM     82  O   UNL A   1      33.439  36.268  28.622  1.00  0.00    -0.744 OA
ENDBRANCH  78  79
ENDBRANCH  50  73
BRANCH  62  83
ATOM     83  C   UNL A   1      43.066  34.900  32.384  1.00  0.00    -0.014 A 
ATOM     84  C   UNL A   1      43.628  35.954  31.641  1.00  0.00     0.010 A 
ATOM     85  C   UNL A   1      42.813  35.087  33.755  1.00  0.00     0.010 A 
ATOM     86  C   UNL A   1      43.948  37.163  32.262  1.00  0.00     0.020 A 
ATOM     87  C   UNL A   1      43.102  36.305  34.373  1.00  0.00     0.020 A 
ATOM     88  C   UNL A   1      43.677  37.334  33.623  1.00  0.00     0.054 A 
BRANCH  88  89
ATOM     89  S   UNL A   1      44.037  38.939  34.388  1.00  0.00     0.124 S 
ATOM     90  O   UNL A   1      43.911  38.634  35.810  1.00  0.00    -0.237 OA
ATOM     91  O   UNL A   1      45.394  39.215  33.922  1.00  0.00    -0.237 OA
ATOM     92  O   UNL A   1      43.006  39.822  33.846  1.00  0.00    -0.744 OA
ENDBRANCH  88  89
ENDBRANCH  62  83
ENDBRANCH  36  37
ENDBRANCH  28  31
ENDBRANCH  26  27
ENDBRANCH   1  26
TORSDOF 16
ENDMDL
