MODEL 1
REMARK VINA RESULT:     -12.2      0.000      0.000
REMARK SMILES Cc1ccc(C(=O)N2CCC(CC(=O)NCCCNC(=O)c3ccc(-c4c5nc(c(-c6ccc(S(=O)(=O)[O-])cc6)c6ccc([nH]6)c(-c6ccc(S(=O)(=O)[O-])cc6)c6nc(c(-c7ccc(S(=O)(=O)[O-])cc7)c7ccc4[nH]7)C=C6)C=C5)cc3)CC2)cn1
REMARK SMILES IDX 17 1 16 2 15 3 13 4 14 5 12 7 11 8 6 9 7 10 8 11 9 12 83 13
REMARK SMILES IDX 10 14 82 15 5 16 1 17 2 18 3 19 85 20 4 21 84 22 18 23 19 24
REMARK SMILES IDX 20 25 21 27 22 28 23 29 81 30 24 31 80 32 25 33 26 34 27 35
REMARK SMILES IDX 74 36 28 37 79 38 73 39 75 40 29 41 78 42 72 43 71 44 30 46
REMARK SMILES IDX 60 47 41 48 59 49 42 50 45 51 58 52 76 53 43 54 44 55 57 57
REMARK SMILES IDX 77 58 46 59 31 60 32 61 40 62 33 63 39 64 34 65 35 66 36 67
REMARK SMILES IDX 37 68 38 69 61 70 62 71 70 72 63 73 69 74 64 75 65 76 66 77
REMARK SMILES IDX 67 78 68 79 47 80 48 81 56 82 49 83 55 84 50 85 51 86 52 87
REMARK SMILES IDX 53 88 54 89
REMARK H PARENT 15 6 19 26 75 45 45 56
REMARK Flexibility Score: inf
ROOT
ATOM      1  C   UNL A   1      37.294  23.616  25.309  1.00  0.00     0.042 C 
ENDROOT
BRANCH   1   2
ATOM      2  C   UNL A   1      36.862  22.153  25.394  1.00  0.00     0.117 C 
BRANCH   2   3
ATOM      3  N   UNL A   1      35.969  21.891  26.516  1.00  0.00    -0.356 N 
ATOM      4  C   UNL A   1      34.637  21.608  26.551  1.00  0.00     0.220 C 
ATOM      5  O   UNL A   1      34.105  21.430  27.649  1.00  0.00    -0.275 OA
ATOM      6  H   UNL A   1      36.404  21.923  27.399  1.00  0.00     0.163 HD
BRANCH   4   7
ATOM      7  C   UNL A   1      33.825  21.532  25.276  1.00  0.00     0.103 C 
BRANCH   7   8
ATOM      8  C   UNL A   1      32.676  22.553  25.230  1.00  0.00     0.002 C 
ATOM      9  C   UNL A   1      32.177  26.070  23.503  1.00  0.00     0.255 C 
ATOM     10  O   UNL A   1      33.178  25.877  22.822  1.00  0.00    -0.269 OA
ATOM     11  N   UNL A   1      31.599  25.080  24.285  1.00  0.00    -0.339 N 
ATOM     12  C   UNL A   1      31.994  24.972  25.679  1.00  0.00     0.120 C 
ATOM     13  C   UNL A   1      31.178  23.848  23.648  1.00  0.00     0.120 C 
ATOM     14  C   UNL A   1      33.070  23.902  25.851  1.00  0.00     0.026 C 
ATOM     15  C   UNL A   1      32.232  22.755  23.770  1.00  0.00     0.026 C 
BRANCH   9  16
ATOM     16  C   UNL A   1      31.439  27.358  23.454  1.00  0.00     0.058 A 
ATOM     17  C   UNL A   1      29.035  30.866  23.218  1.00  0.00     0.066 C 
ATOM     18  C   UNL A   1      29.881  29.631  23.331  1.00  0.00     0.037 A 
ATOM     19  C   UNL A   1      30.823  29.512  24.349  1.00  0.00     0.024 A 
ATOM     20  N   UNL A   1      29.702  28.667  22.394  1.00  0.00    -0.261 NA
ATOM     21  C   UNL A   1      31.604  28.359  24.414  1.00  0.00     0.017 A 
ATOM     22  C   UNL A   1      30.485  27.562  22.470  1.00  0.00     0.125 A 
ENDBRANCH   9  16
ENDBRANCH   7   8
ENDBRANCH   4   7
ENDBRANCH   2   3
ENDBRANCH   1   2
BRANCH   1  23
ATOM     23  C   UNL A   1      38.176  24.076  26.464  1.00  0.00     0.118 C 
BRANCH  23  24
ATOM     24  N   UNL A   1      39.587  23.977  26.136  1.00  0.00    -0.352 N 
ATOM     25  C   UNL A   1      40.632  24.804  26.472  1.00  0.00     0.251 C 
ATOM     26  H   UNL A   1      39.833  23.197  25.586  1.00  0.00     0.163 HD
ATOM     27  O   UNL A   1      41.699  24.680  25.875  1.00  0.00    -0.269 OA
BRANCH  25  28
ATOM     28  C   UNL A   1      40.499  25.839  27.530  1.00  0.00     0.039 A 
ATOM     29  C   UNL A   1      41.347  26.952  27.487  1.00  0.00     0.014 A 
ATOM     30  C   UNL A   1      39.624  25.687  28.609  1.00  0.00     0.014 A 
ATOM     31  C   UNL A   1      41.295  27.919  28.499  1.00  0.00     0.010 A 
ATOM     32  C   UNL A   1      39.525  26.686  29.583  1.00  0.00     0.010 A 
ATOM     33  C   UNL A   1      40.374  27.803  29.551  1.00  0.00    -0.014 A 
BRANCH  33  34
ATOM     34  C   UNL A   1      40.317  28.812  30.643  1.00  0.00     0.031 A 
ATOM     35  C   UNL A   1      41.233  28.693  31.835  1.00  0.00     0.074 A 
ATOM     36  C   UNL A   1      39.414  29.813  30.597  1.00  0.00     0.049 A 
ATOM     37  N   UNL A   1      41.279  29.427  32.919  1.00  0.00    -0.248 NA
ATOM     38  C   UNL A   1      42.210  27.594  31.815  1.00  0.00     0.031 C 
ATOM     39  C   UNL A   1      38.445  30.033  29.522  1.00  0.00     0.029 A 
ATOM     40  N   UNL A   1      39.159  30.829  31.486  1.00  0.00    -0.354 N 
ATOM     41  C   UNL A   1      42.264  28.862  33.720  1.00  0.00     0.074 A 
ATOM     42  C   UNL A   1      42.772  27.706  33.011  1.00  0.00     0.031 C 
ATOM     43  C   UNL A   1      37.711  31.122  29.808  1.00  0.00     0.029 A 
ATOM     44  C   UNL A   1      38.134  31.660  31.097  1.00  0.00     0.049 A 
ATOM     45  H   UNL A   1      39.663  30.951  32.322  1.00  0.00     0.167 HD
ATOM     46  C   UNL A   1      42.719  29.271  34.930  1.00  0.00     0.031 A 
ATOM     47  C   UNL A   1      37.588  32.727  31.711  1.00  0.00     0.031 A 
ATOM     48  C   UNL A   1      42.246  30.438  35.625  1.00  0.00     0.049 A 
ATOM     49  C   UNL A   1      38.127  33.179  33.040  1.00  0.00     0.074 A 
ATOM     50  C   UNL A   1      42.691  30.960  36.828  1.00  0.00     0.029 A 
ATOM     51  N   UNL A   1      41.232  31.269  35.178  1.00  0.00    -0.354 N 
ATOM     52  N   UNL A   1      39.090  32.653  33.758  1.00  0.00    -0.248 NA
ATOM     53  C   UNL A   1      37.511  34.373  33.636  1.00  0.00     0.031 C 
ATOM     54  C   UNL A   1      41.923  32.093  37.123  1.00  0.00     0.029 A 
ATOM     55  C   UNL A   1      41.027  32.293  36.086  1.00  0.00     0.049 A 
ATOM     56  H   UNL A   1      40.731  31.147  34.339  1.00  0.00     0.167 HD
ATOM     57  C   UNL A   1      39.207  33.464  34.883  1.00  0.00     0.074 A 
ATOM     58  C   UNL A   1      38.228  34.521  34.744  1.00  0.00     0.031 C 
ATOM     59  C   UNL A   1      40.051  33.341  35.935  1.00  0.00     0.031 A 
BRANCH  46  60
ATOM     60  C   UNL A   1      43.789  28.440  35.584  1.00  0.00    -0.014 A 
ATOM     61  C   UNL A   1      45.152  28.699  35.351  1.00  0.00     0.010 A 
ATOM     62  C   UNL A   1      43.428  27.414  36.476  1.00  0.00     0.010 A 
ATOM     63  C   UNL A   1      46.134  27.919  35.966  1.00  0.00     0.020 A 
ATOM     64  C   UNL A   1      44.409  26.646  37.110  1.00  0.00     0.020 A 
ATOM     65  C   UNL A   1      45.756  26.893  36.837  1.00  0.00     0.054 A 
BRANCH  65  66
ATOM     66  S   UNL A   1      47.049  25.904  37.637  1.00  0.00     0.124 S 
ATOM     67  O   UNL A   1      48.257  26.645  37.280  1.00  0.00    -0.237 OA
ATOM     68  O   UNL A   1      46.674  25.959  39.048  1.00  0.00    -0.237 OA
ATOM     69  O   UNL A   1      46.916  24.590  37.012  1.00  0.00    -0.744 OA
ENDBRANCH  65  66
ENDBRANCH  46  60
BRANCH  47  70
ATOM     70  C   UNL A   1      36.458  33.451  31.070  1.00  0.00    -0.014 A 
ATOM     71  C   UNL A   1      35.273  33.700  31.785  1.00  0.00     0.010 A 
ATOM     72  C   UNL A   1      36.567  33.899  29.743  1.00  0.00     0.010 A 
ATOM     73  C   UNL A   1      34.208  34.370  31.175  1.00  0.00     0.020 A 
ATOM     74  C   UNL A   1      35.512  34.587  29.136  1.00  0.00     0.020 A 
ATOM     75  C   UNL A   1      34.334  34.806  29.852  1.00  0.00     0.054 A 
BRANCH  75  76
ATOM     76  S   UNL A   1      32.961  35.713  29.085  1.00  0.00     0.124 S 
ATOM     77  O   UNL A   1      32.372  34.694  28.221  1.00  0.00    -0.237 OA
ATOM     78  O   UNL A   1      32.154  36.109  30.237  1.00  0.00    -0.237 OA
ATOM     79  O   UNL A   1      33.628  36.814  28.392  1.00  0.00    -0.744 OA
ENDBRANCH  75  76
ENDBRANCH  47  70
BRANCH  59  80
ATOM     80  C   UNL A   1      39.974  34.389  37.011  1.00  0.00    -0.014 A 
ATOM     81  C   UNL A   1      40.713  35.580  36.915  1.00  0.00     0.010 A 
ATOM     82  C   UNL A   1      39.106  34.203  38.103  1.00  0.00     0.010 A 
ATOM     83  C   UNL A   1      40.605  36.559  37.907  1.00  0.00     0.020 A 
ATOM     84  C   UNL A   1      38.982  35.187  39.086  1.00  0.00     0.020 A 
ATOM     85  C   UNL A   1      39.742  36.355  38.988  1.00  0.00     0.054 A 
BRANCH  85  86
ATOM     86  S   UNL A   1      39.579  37.657  40.240  1.00  0.00     0.124 S 
ATOM     87  O   UNL A   1      40.663  38.565  39.877  1.00  0.00    -0.237 OA
ATOM     88  O   UNL A   1      38.229  38.166  40.006  1.00  0.00    -0.237 OA
ATOM     89  O   UNL A   1      39.758  36.945  41.504  1.00  0.00    -0.744 OA
ENDBRANCH  85  86
ENDBRANCH  59  80
ENDBRANCH  33  34
ENDBRANCH  25  28
ENDBRANCH  23  24
ENDBRANCH   1  23
TORSDOF 15
ENDMDL
MODEL 2
REMARK VINA RESULT:     -12.0      4.554     10.630
REMARK SMILES Cc1ccc(C(=O)N2CCC(CC(=O)NCCCNC(=O)c3ccc(-c4c5nc(c(-c6ccc(S(=O)(=O)[O-])cc6)c6ccc([nH]6)c(-c6ccc(S(=O)(=O)[O-])cc6)c6nc(c(-c7ccc(S(=O)(=O)[O-])cc7)c7ccc4[nH]7)C=C6)C=C5)cc3)CC2)cn1
REMARK SMILES IDX 17 1 16 2 15 3 13 4 14 5 12 7 11 8 6 9 7 10 8 11 9 12 83 13
REMARK SMILES IDX 10 14 82 15 5 16 1 17 2 18 3 19 85 20 4 21 84 22 18 23 19 24
REMARK SMILES IDX 20 25 21 27 22 28 23 29 81 30 24 31 80 32 25 33 26 34 27 35
REMARK SMILES IDX 74 36 28 37 79 38 73 39 75 40 29 41 78 42 72 43 71 44 30 46
REMARK SMILES IDX 60 47 41 48 59 49 42 50 45 51 58 52 76 53 43 54 44 55 57 57
REMARK SMILES IDX 77 58 46 59 31 60 32 61 40 62 33 63 39 64 34 65 35 66 36 67
REMARK SMILES IDX 37 68 38 69 61 70 62 71 70 72 63 73 69 74 64 75 65 76 66 77
REMARK SMILES IDX 67 78 68 79 47 80 48 81 56 82 49 83 55 84 50 85 51 86 52 87
REMARK SMILES IDX 53 88 54 89
REMARK H PARENT 15 6 19 26 75 45 45 56
REMARK Flexibility Score: inf
ROOT
ATOM      1  C   UNL A   1      32.036  27.687  26.838  1.00  0.00     0.042 C 
ENDROOT
BRANCH   1   2
ATOM      2  C   UNL A   1      31.460  28.395  25.613  1.00  0.00     0.117 C 
BRANCH   2   3
ATOM      3  N   UNL A   1      31.077  27.470  24.553  1.00  0.00    -0.356 N 
ATOM      4  C   UNL A   1      31.826  26.622  23.794  1.00  0.00     0.220 C 
ATOM      5  O   UNL A   1      31.253  25.938  22.944  1.00  0.00    -0.275 OA
ATOM      6  H   UNL A   1      30.113  27.456  24.353  1.00  0.00     0.163 HD
BRANCH   4   7
ATOM      7  C   UNL A   1      33.326  26.535  23.976  1.00  0.00     0.103 C 
BRANCH   7   8
ATOM      8  C   UNL A   1      33.799  25.143  24.427  1.00  0.00     0.002 C 
ATOM      9  C   UNL A   1      32.687  21.445  23.598  1.00  0.00     0.255 C 
ATOM     10  O   UNL A   1      32.020  21.857  22.655  1.00  0.00    -0.269 OA
ATOM     11  N   UNL A   1      33.574  22.250  24.298  1.00  0.00    -0.339 N 
ATOM     12  C   UNL A   1      33.105  22.930  25.493  1.00  0.00     0.120 C 
ATOM     13  C   UNL A   1      34.639  22.911  23.569  1.00  0.00     0.120 C 
ATOM     14  C   UNL A   1      32.702  24.367  25.171  1.00  0.00     0.026 C 
ATOM     15  C   UNL A   1      34.272  24.343  23.200  1.00  0.00     0.026 C 
BRANCH   9  16
ATOM     16  C   UNL A   1      32.676  20.013  23.991  1.00  0.00     0.058 A 
ATOM     17  C   UNL A   1      32.455  16.000  25.401  1.00  0.00     0.066 C 
ATOM     18  C   UNL A   1      32.513  17.408  24.883  1.00  0.00     0.037 A 
ATOM     19  C   UNL A   1      32.429  17.661  23.516  1.00  0.00     0.024 A 
ATOM     20  N   UNL A   1      32.675  18.399  25.794  1.00  0.00    -0.261 NA
ATOM     21  C   UNL A   1      32.503  18.979  23.069  1.00  0.00     0.017 A 
ATOM     22  C   UNL A   1      32.761  19.672  25.332  1.00  0.00     0.125 A 
ENDBRANCH   9  16
ENDBRANCH   7   8
ENDBRANCH   4   7
ENDBRANCH   2   3
ENDBRANCH   1   2
BRANCH   1  23
ATOM     23  C   UNL A   1      33.378  28.239  27.308  1.00  0.00     0.118 C 
BRANCH  23  24
ATOM     24  N   UNL A   1      33.353  29.685  27.424  1.00  0.00    -0.352 N 
ATOM     25  C   UNL A   1      34.291  30.546  27.943  1.00  0.00     0.251 C 
ATOM     26  H   UNL A   1      32.537  30.117  27.080  1.00  0.00     0.163 HD
ATOM     27  O   UNL A   1      33.961  31.705  28.184  1.00  0.00    -0.269 OA
BRANCH  25  28
ATOM     28  C   UNL A   1      35.683  30.106  28.222  1.00  0.00     0.039 A 
ATOM     29  C   UNL A   1      36.015  29.728  29.529  1.00  0.00     0.014 A 
ATOM     30  C   UNL A   1      36.683  30.148  27.247  1.00  0.00     0.014 A 
ATOM     31  C   UNL A   1      37.330  29.365  29.847  1.00  0.00     0.010 A 
ATOM     32  C   UNL A   1      37.981  29.722  27.549  1.00  0.00     0.010 A 
ATOM     33  C   UNL A   1      38.324  29.345  28.857  1.00  0.00    -0.014 A 
BRANCH  33  34
ATOM     34  C   UNL A   1      39.730  28.979  29.180  1.00  0.00     0.031 A 
ATOM     35  C   UNL A   1      40.648  29.988  29.823  1.00  0.00     0.074 A 
ATOM     36  C   UNL A   1      40.205  27.759  28.858  1.00  0.00     0.049 A 
ATOM     37  N   UNL A   1      41.922  29.883  30.109  1.00  0.00    -0.248 NA
ATOM     38  C   UNL A   1      40.064  31.294  30.169  1.00  0.00     0.031 C 
ATOM     39  C   UNL A   1      39.440  26.695  28.206  1.00  0.00     0.029 A 
ATOM     40  N   UNL A   1      41.454  27.212  29.030  1.00  0.00    -0.354 N 
ATOM     41  C   UNL A   1      42.297  31.111  30.639  1.00  0.00     0.074 A 
ATOM     42  C   UNL A   1      41.124  31.959  30.608  1.00  0.00     0.031 C 
ATOM     43  C   UNL A   1      40.231  25.621  28.044  1.00  0.00     0.029 A 
ATOM     44  C   UNL A   1      41.565  25.928  28.552  1.00  0.00     0.049 A 
ATOM     45  H   UNL A   1      42.199  27.695  29.455  1.00  0.00     0.167 HD
ATOM     46  C   UNL A   1      43.503  31.501  31.121  1.00  0.00     0.031 A 
ATOM     47  C   UNL A   1      42.622  25.092  28.516  1.00  0.00     0.031 A 
ATOM     48  C   UNL A   1      44.664  30.655  31.188  1.00  0.00     0.049 A 
ATOM     49  C   UNL A   1      43.942  25.536  29.082  1.00  0.00     0.074 A 
ATOM     50  C   UNL A   1      45.911  30.948  31.715  1.00  0.00     0.029 A 
ATOM     51  N   UNL A   1      44.721  29.351  30.725  1.00  0.00    -0.354 N 
ATOM     52  N   UNL A   1      44.261  26.690  29.618  1.00  0.00    -0.248 NA
ATOM     53  C   UNL A   1      45.043  24.562  29.045  1.00  0.00     0.031 C 
ATOM     54  C   UNL A   1      46.732  29.828  31.543  1.00  0.00     0.029 A 
ATOM     55  C   UNL A   1      45.985  28.829  30.942  1.00  0.00     0.049 A 
ATOM     56  H   UNL A   1      43.974  28.868  30.303  1.00  0.00     0.167 HD
ATOM     57  C   UNL A   1      45.594  26.574  29.998  1.00  0.00     0.074 A 
ATOM     58  C   UNL A   1      46.018  25.235  29.644  1.00  0.00     0.031 C 
ATOM     59  C   UNL A   1      46.393  27.494  30.588  1.00  0.00     0.031 A 
BRANCH  46  60
ATOM     60  C   UNL A   1      43.626  32.917  31.614  1.00  0.00    -0.014 A 
ATOM     61  C   UNL A   1      43.446  33.230  32.973  1.00  0.00     0.010 A 
ATOM     62  C   UNL A   1      43.967  33.942  30.713  1.00  0.00     0.010 A 
ATOM     63  C   UNL A   1      43.565  34.549  33.416  1.00  0.00     0.020 A 
ATOM     64  C   UNL A   1      44.109  35.260  31.157  1.00  0.00     0.020 A 
ATOM     65  C   UNL A   1      43.888  35.557  32.504  1.00  0.00     0.054 A 
BRANCH  65  66
ATOM     66  S   UNL A   1      44.054  37.261  33.105  1.00  0.00     0.124 S 
ATOM     67  O   UNL A   1      45.269  37.177  33.912  1.00  0.00    -0.237 OA
ATOM     68  O   UNL A   1      44.173  38.032  31.870  1.00  0.00    -0.237 OA
ATOM     69  O   UNL A   1      42.821  37.483  33.857  1.00  0.00    -0.744 OA
ENDBRANCH  65  66
ENDBRANCH  46  60
BRANCH  47  70
ATOM     70  C   UNL A   1      42.474  23.738  27.918  1.00  0.00    -0.014 A 
ATOM     71  C   UNL A   1      42.023  22.658  28.698  1.00  0.00     0.010 A 
ATOM     72  C   UNL A   1      42.779  23.527  26.563  1.00  0.00     0.010 A 
ATOM     73  C   UNL A   1      41.898  21.385  28.135  1.00  0.00     0.020 A 
ATOM     74  C   UNL A   1      42.635  22.260  25.991  1.00  0.00     0.020 A 
ATOM     75  C   UNL A   1      42.207  21.194  26.784  1.00  0.00     0.054 A 
BRANCH  75  76
ATOM     76  S   UNL A   1      41.999  19.545  26.054  1.00  0.00     0.124 S 
ATOM     77  O   UNL A   1      42.485  18.678  27.123  1.00  0.00    -0.237 OA
ATOM     78  O   UNL A   1      40.562  19.487  25.797  1.00  0.00    -0.237 OA
ATOM     79  O   UNL A   1      42.837  19.597  24.857  1.00  0.00    -0.744 OA
ENDBRANCH  75  76
ENDBRANCH  47  70
BRANCH  59  80
ATOM     80  C   UNL A   1      47.802  27.082  30.913  1.00  0.00    -0.014 A 
ATOM     81  C   UNL A   1      48.101  26.405  32.108  1.00  0.00     0.010 A 
ATOM     82  C   UNL A   1      48.830  27.324  29.984  1.00  0.00     0.010 A 
ATOM     83  C   UNL A   1      49.409  25.999  32.381  1.00  0.00     0.020 A 
ATOM     84  C   UNL A   1      50.137  26.903  30.245  1.00  0.00     0.020 A 
ATOM     85  C   UNL A   1      50.420  26.253  31.448  1.00  0.00     0.054 A 
BRANCH  85  86
ATOM     86  S   UNL A   1      52.104  25.676  31.798  1.00  0.00     0.124 S 
ATOM     87  O   UNL A   1      52.790  25.959  30.541  1.00  0.00    -0.237 OA
ATOM     88  O   UNL A   1      52.504  26.507  32.932  1.00  0.00    -0.237 OA
ATOM     89  O   UNL A   1      51.925  24.259  32.106  1.00  0.00    -0.744 OA
ENDBRANCH  85  86
ENDBRANCH  59  80
ENDBRANCH  33  34
ENDBRANCH  25  28
ENDBRANCH  23  24
ENDBRANCH   1  23
TORSDOF 15
ENDMDL
MODEL 3
REMARK VINA RESULT:     -12.0      4.498     10.608
REMARK SMILES Cc1ccc(C(=O)N2CCC(CC(=O)NCCCNC(=O)c3ccc(-c4c5nc(c(-c6ccc(S(=O)(=O)[O-])cc6)c6ccc([nH]6)c(-c6ccc(S(=O)(=O)[O-])cc6)c6nc(c(-c7ccc(S(=O)(=O)[O-])cc7)c7ccc4[nH]7)C=C6)C=C5)cc3)CC2)cn1
REMARK SMILES IDX 17 1 16 2 15 3 13 4 14 5 12 7 11 8 6 9 7 10 8 11 9 12 83 13
REMARK SMILES IDX 10 14 82 15 5 16 1 17 2 18 3 19 85 20 4 21 84 22 18 23 19 24
REMARK SMILES IDX 20 25 21 27 22 28 23 29 81 30 24 31 80 32 25 33 26 34 27 35
REMARK SMILES IDX 74 36 28 37 79 38 73 39 75 40 29 41 78 42 72 43 71 44 30 46
REMARK SMILES IDX 60 47 41 48 59 49 42 50 45 51 58 52 76 53 43 54 44 55 57 57
REMARK SMILES IDX 77 58 46 59 31 60 32 61 40 62 33 63 39 64 34 65 35 66 36 67
REMARK SMILES IDX 37 68 38 69 61 70 62 71 70 72 63 73 69 74 64 75 65 76 66 77
REMARK SMILES IDX 67 78 68 79 47 80 48 81 56 82 49 83 55 84 50 85 51 86 52 87
REMARK SMILES IDX 53 88 54 89
REMARK H PARENT 15 6 19 26 75 45 45 56
REMARK Flexibility Score: inf
ROOT
ATOM      1  C   UNL A   1      32.721  28.389  25.502  1.00  0.00     0.042 C 
ENDROOT
BRANCH   1   2
ATOM      2  C   UNL A   1      31.760  29.507  25.100  1.00  0.00     0.117 C 
BRANCH   2   3
ATOM      3  N   UNL A   1      31.355  29.429  23.702  1.00  0.00    -0.356 N 
ATOM      4  C   UNL A   1      30.506  28.574  23.065  1.00  0.00     0.220 C 
ATOM      5  O   UNL A   1      30.334  28.717  21.853  1.00  0.00    -0.275 OA
ATOM      6  H   UNL A   1      31.763  30.110  23.120  1.00  0.00     0.163 HD
BRANCH   4   7
ATOM      7  C   UNL A   1      29.806  27.465  23.821  1.00  0.00     0.103 C 
BRANCH   7   8
ATOM      8  C   UNL A   1      30.478  26.095  23.641  1.00  0.00     0.002 C 
ATOM      9  C   UNL A   1      33.709  24.386  25.141  1.00  0.00     0.255 C 
ATOM     10  O   UNL A   1      33.785  25.271  25.984  1.00  0.00    -0.269 OA
ATOM     11  N   UNL A   1      32.608  24.235  24.308  1.00  0.00    -0.339 N 
ATOM     12  C   UNL A   1      32.628  24.874  23.004  1.00  0.00     0.120 C 
ATOM     13  C   UNL A   1      31.300  24.059  24.908  1.00  0.00     0.120 C 
ATOM     14  C   UNL A   1      31.891  26.211  23.048  1.00  0.00     0.026 C 
ATOM     15  C   UNL A   1      30.535  25.373  25.000  1.00  0.00     0.026 C 
BRANCH   9  16
ATOM     16  C   UNL A   1      34.748  23.331  25.023  1.00  0.00     0.058 A 
ATOM     17  C   UNL A   1      37.474  20.071  24.749  1.00  0.00     0.066 C 
ATOM     18  C   UNL A   1      36.514  21.223  24.816  1.00  0.00     0.037 A 
ATOM     19  C   UNL A   1      36.645  22.302  23.946  1.00  0.00     0.024 A 
ATOM     20  N   UNL A   1      35.547  21.171  25.766  1.00  0.00    -0.261 NA
ATOM     21  C   UNL A   1      35.746  23.363  24.047  1.00  0.00     0.017 A 
ATOM     22  C   UNL A   1      34.695  22.224  25.854  1.00  0.00     0.125 A 
ENDBRANCH   9  16
ENDBRANCH   7   8
ENDBRANCH   4   7
ENDBRANCH   2   3
ENDBRANCH   1   2
BRANCH   1  23
ATOM     23  C   UNL A   1      34.016  28.876  26.141  1.00  0.00     0.118 C 
BRANCH  23  24
ATOM     24  N   UNL A   1      33.811  30.083  26.920  1.00  0.00    -0.352 N 
ATOM     25  C   UNL A   1      34.567  30.619  27.936  1.00  0.00     0.251 C 
ATOM     26  H   UNL A   1      33.004  30.598  26.686  1.00  0.00     0.163 HD
ATOM     27  O   UNL A   1      34.078  31.504  28.634  1.00  0.00    -0.269 OA
BRANCH  25  28
ATOM     28  C   UNL A   1      35.951  30.149  28.209  1.00  0.00     0.039 A 
ATOM     29  C   UNL A   1      36.251  29.659  29.485  1.00  0.00     0.014 A 
ATOM     30  C   UNL A   1      36.974  30.271  27.264  1.00  0.00     0.014 A 
ATOM     31  C   UNL A   1      37.557  29.263  29.801  1.00  0.00     0.010 A 
ATOM     32  C   UNL A   1      38.263  29.814  27.558  1.00  0.00     0.010 A 
ATOM     33  C   UNL A   1      38.574  29.324  28.837  1.00  0.00    -0.014 A 
BRANCH  33  34
ATOM     34  C   UNL A   1      39.971  28.924  29.160  1.00  0.00     0.031 A 
ATOM     35  C   UNL A   1      40.911  29.909  29.809  1.00  0.00     0.074 A 
ATOM     36  C   UNL A   1      40.419  27.696  28.832  1.00  0.00     0.049 A 
ATOM     37  N   UNL A   1      42.182  29.773  30.096  1.00  0.00    -0.248 NA
ATOM     38  C   UNL A   1      40.356  31.226  30.161  1.00  0.00     0.031 C 
ATOM     39  C   UNL A   1      39.631  26.652  28.174  1.00  0.00     0.029 A 
ATOM     40  N   UNL A   1      41.655  27.120  29.003  1.00  0.00    -0.354 N 
ATOM     41  C   UNL A   1      42.583  30.990  30.633  1.00  0.00     0.074 A 
ATOM     42  C   UNL A   1      41.430  31.865  30.605  1.00  0.00     0.031 C 
ATOM     43  C   UNL A   1      40.398  25.561  28.007  1.00  0.00     0.029 A 
ATOM     44  C   UNL A   1      41.738  25.835  28.519  1.00  0.00     0.049 A 
ATOM     45  H   UNL A   1      42.410  27.584  29.431  1.00  0.00     0.167 HD
ATOM     46  C   UNL A   1      43.797  31.350  31.118  1.00  0.00     0.031 A 
ATOM     47  C   UNL A   1      42.775  24.977  28.480  1.00  0.00     0.031 A 
ATOM     48  C   UNL A   1      44.939  30.478  31.183  1.00  0.00     0.049 A 
ATOM     49  C   UNL A   1      44.104  25.388  29.049  1.00  0.00     0.074 A 
ATOM     50  C   UNL A   1      46.191  30.740  31.713  1.00  0.00     0.029 A 
ATOM     51  N   UNL A   1      44.967  29.176  30.713  1.00  0.00    -0.354 N 
ATOM     52  N   UNL A   1      44.448  26.531  29.591  1.00  0.00    -0.248 NA
ATOM     53  C   UNL A   1      45.183  24.389  29.009  1.00  0.00     0.031 C 
ATOM     54  C   UNL A   1      46.987  29.603  31.536  1.00  0.00     0.029 A 
ATOM     55  C   UNL A   1      46.218  28.623  30.929  1.00  0.00     0.049 A 
ATOM     56  H   UNL A   1      44.210  28.712  30.288  1.00  0.00     0.167 HD
ATOM     57  C   UNL A   1      45.778  26.383  29.973  1.00  0.00     0.074 A 
ATOM     58  C   UNL A   1      46.172  25.036  29.613  1.00  0.00     0.031 C 
ATOM     59  C   UNL A   1      46.597  27.282  30.569  1.00  0.00     0.031 A 
BRANCH  46  60
ATOM     60  C   UNL A   1      43.952  32.760  31.619  1.00  0.00    -0.014 A 
ATOM     61  C   UNL A   1      44.356  33.795  30.756  1.00  0.00     0.010 A 
ATOM     62  C   UNL A   1      43.651  33.063  32.959  1.00  0.00     0.010 A 
ATOM     63  C   UNL A   1      44.495  35.100  31.235  1.00  0.00     0.020 A 
ATOM     64  C   UNL A   1      43.768  34.371  33.436  1.00  0.00     0.020 A 
ATOM     65  C   UNL A   1      44.207  35.378  32.575  1.00  0.00     0.054 A 
BRANCH  65  66
ATOM     66  S   UNL A   1      44.379  37.083  33.170  1.00  0.00     0.124 S 
ATOM     67  O   UNL A   1      45.825  37.193  33.353  1.00  0.00    -0.237 OA
ATOM     68  O   UNL A   1      43.824  37.869  32.071  1.00  0.00    -0.237 OA
ATOM     69  O   UNL A   1      43.592  37.099  34.402  1.00  0.00    -0.744 OA
ENDBRANCH  65  66
ENDBRANCH  46  60
BRANCH  47  70
ATOM     70  C   UNL A   1      42.598  23.629  27.875  1.00  0.00    -0.014 A 
ATOM     71  C   UNL A   1      42.946  23.398  26.532  1.00  0.00     0.010 A 
ATOM     72  C   UNL A   1      42.084  22.571  28.644  1.00  0.00     0.010 A 
ATOM     73  C   UNL A   1      42.766  22.133  25.964  1.00  0.00     0.020 A 
ATOM     74  C   UNL A   1      41.923  21.300  28.085  1.00  0.00     0.020 A 
ATOM     75  C   UNL A   1      42.253  21.092  26.745  1.00  0.00     0.054 A 
BRANCH  75  76
ATOM     76  S   UNL A   1      42.065  19.444  26.008  1.00  0.00     0.124 S 
ATOM     77  O   UNL A   1      40.622  19.369  25.800  1.00  0.00    -0.237 OA
ATOM     78  O   UNL A   1      42.875  19.540  24.796  1.00  0.00    -0.237 OA
ATOM     79  O   UNL A   1      42.598  18.551  27.036  1.00  0.00    -0.744 OA
ENDBRANCH  75  76
ENDBRANCH  47  70
BRANCH  59  80
ATOM     80  C   UNL A   1      47.996  26.836  30.894  1.00  0.00    -0.014 A 
ATOM     81  C   UNL A   1      49.052  27.052  29.993  1.00  0.00     0.010 A 
ATOM     82  C   UNL A   1      48.265  26.244  32.142  1.00  0.00     0.010 A 
ATOM     83  C   UNL A   1      50.352  26.662  30.324  1.00  0.00     0.020 A 
ATOM     84  C   UNL A   1      49.567  25.869  32.483  1.00  0.00     0.020 A 
ATOM     85  C   UNL A   1      50.601  26.070  31.566  1.00  0.00     0.054 A 
BRANCH  85  86
ATOM     86  S   UNL A   1      52.303  25.614  31.997  1.00  0.00     0.124 S 
ATOM     87  O   UNL A   1      52.558  26.457  33.162  1.00  0.00    -0.237 OA
ATOM     88  O   UNL A   1      52.197  24.182  32.269  1.00  0.00    -0.237 OA
ATOM     89  O   UNL A   1      53.066  25.957  30.799  1.00  0.00    -0.744 OA
ENDBRANCH  85  86
ENDBRANCH  59  80
ENDBRANCH  33  34
ENDBRANCH  25  28
ENDBRANCH  23  24
ENDBRANCH   1  23
TORSDOF 15
ENDMDL
