MODEL 1
REMARK VINA RESULT:     -13.2      0.000      0.000
REMARK SMILES Cc1cc(C(=O)NCCCNC(=O)c2ccc(-c3c4nc(c(-c5ccc(S(=O)(=O)[O-])cc5)c5ccc([nH]5)c(-c5ccc(S(=O)(=O)[O-])cc5)c5nc(c(-c6ccc(S(=O)(=O)[O-])cc6)c6ccc3[nH]6)C=C5)C=C4)cc2)ccc1-c1ccc(C(=O)N2CCCCC2)cc1
REMARK SMILES IDX 9 1 8 2 7 3 5 4 6 5 4 7 1 8 2 9 3 10 76 11 75 12 74 13 77 14
REMARK SMILES IDX 78 15 90 16 79 17 89 18 80 19 81 20 82 21 83 22 84 23 88 24
REMARK SMILES IDX 85 25 87 26 86 27 10 28 11 29 12 30 13 32 14 33 15 34 73 35
REMARK SMILES IDX 16 36 72 37 17 38 18 39 19 40 66 41 20 42 71 43 65 44 67 45
REMARK SMILES IDX 21 46 70 47 64 48 63 49 22 51 52 52 33 53 51 54 34 55 37 56
REMARK SMILES IDX 50 57 68 58 35 59 36 60 49 62 69 63 38 64 23 65 24 66 32 67
REMARK SMILES IDX 25 68 31 69 26 70 27 71 28 72 29 73 30 74 53 75 54 76 62 77
REMARK SMILES IDX 55 78 61 79 56 80 57 81 58 82 59 83 60 84 39 85 40 86 48 87
REMARK SMILES IDX 41 88 47 89 42 90 43 91 44 92 45 93 46 94
REMARK H PARENT 7 6 11 31 67 50 37 61
REMARK Flexibility Score: inf
ROOT
ATOM      1  C   UNL A   1      37.354  21.554  24.531  1.00  0.00     0.042 C 
ENDROOT
BRANCH   1   2
ATOM      2  C   UNL A   1      36.182  22.652  24.708  1.00  0.00     0.118 C 
BRANCH   2   3
ATOM      3  N   UNL A   1      34.829  22.387  24.161  1.00  0.00    -0.352 N 
ATOM      4  C   UNL A   1      33.728  23.123  23.772  1.00  0.00     0.251 C 
ATOM      5  O   UNL A   1      32.855  22.677  23.028  1.00  0.00    -0.269 OA
ATOM      6  H   UNL A   1      34.673  21.421  24.043  1.00  0.00     0.163 HD
BRANCH   4   7
ATOM      7  C   UNL A   1      33.561  24.492  24.266  1.00  0.00     0.040 A 
ATOM      8  C   UNL A   1      33.791  28.072  23.018  1.00  0.00     0.045 C 
ATOM      9  C   UNL A   1      33.717  26.894  23.954  1.00  0.00    -0.042 A 
ATOM     10  C   UNL A   1      33.707  25.598  23.416  1.00  0.00     0.018 A 
ATOM     11  C   UNL A   1      33.599  27.032  25.354  1.00  0.00    -0.015 A 
ATOM     12  C   UNL A   1      33.299  25.918  26.152  1.00  0.00     0.010 A 
ATOM     13  C   UNL A   1      33.215  24.663  25.596  1.00  0.00     0.014 A 
BRANCH  11  14
ATOM     14  C   UNL A   1      33.742  28.296  26.054  1.00  0.00    -0.018 A 
ATOM     15  C   UNL A   1      34.921  28.562  26.746  1.00  0.00     0.009 A 
ATOM     16  C   UNL A   1      32.737  29.274  25.978  1.00  0.00     0.009 A 
ATOM     17  C   UNL A   1      35.080  29.777  27.389  1.00  0.00     0.014 A 
ATOM     18  C   UNL A   1      32.913  30.511  26.593  1.00  0.00     0.014 A 
ATOM     19  C   UNL A   1      34.090  30.766  27.302  1.00  0.00     0.040 A 
BRANCH  19  20
ATOM     20  C   UNL A   1      34.189  32.013  28.104  1.00  0.00     0.253 C 
ATOM     21  O   UNL A   1      33.263  32.821  28.080  1.00  0.00    -0.269 OA
ATOM     22  N   UNL A   1      35.253  32.129  28.986  1.00  0.00    -0.339 N 
ATOM     23  C   UNL A   1      34.973  32.559  30.342  1.00  0.00     0.120 C 
ATOM     24  C   UNL A   1      36.653  31.903  28.629  1.00  0.00     0.120 C 
ATOM     25  C   UNL A   1      35.786  33.788  30.707  1.00  0.00     0.022 C 
ATOM     26  C   UNL A   1      37.499  33.125  28.981  1.00  0.00     0.022 C 
ATOM     27  C   UNL A   1      37.271  33.554  30.431  1.00  0.00     0.004 C 
ENDBRANCH  19  20
ENDBRANCH  11  14
ENDBRANCH   4   7
ENDBRANCH   2   3
ENDBRANCH   1   2
BRANCH   1  28
ATOM     28  C   UNL A   1      38.438  21.491  25.701  1.00  0.00     0.118 C 
BRANCH  28  29
ATOM     29  N   UNL A   1      39.764  22.303  25.777  1.00  0.00    -0.352 N 
ATOM     30  C   UNL A   1      40.236  23.334  26.696  1.00  0.00     0.251 C 
ATOM     31  H   UNL A   1      40.410  22.075  25.070  1.00  0.00     0.163 HD
ATOM     32  O   UNL A   1      41.087  22.939  27.511  1.00  0.00    -0.269 OA
BRANCH  30  33
ATOM     33  C   UNL A   1      39.941  24.894  26.773  1.00  0.00     0.039 A 
ATOM     34  C   UNL A   1      40.792  25.832  26.099  1.00  0.00     0.014 A 
ATOM     35  C   UNL A   1      38.982  25.518  27.566  1.00  0.00     0.014 A 
ATOM     36  C   UNL A   1      41.000  27.181  26.611  1.00  0.00     0.010 A 
ATOM     37  C   UNL A   1      39.188  26.847  28.078  1.00  0.00     0.010 A 
ATOM     38  C   UNL A   1      40.337  27.602  27.781  1.00  0.00    -0.014 A 
BRANCH  38  39
ATOM     39  C   UNL A   1      40.956  28.528  28.840  1.00  0.00     0.031 A 
ATOM     40  C   UNL A   1      40.131  29.321  29.745  1.00  0.00     0.074 A 
ATOM     41  C   UNL A   1      42.268  28.648  29.219  1.00  0.00     0.049 A 
ATOM     42  N   UNL A   1      40.253  30.595  29.947  1.00  0.00    -0.248 NA
ATOM     43  C   UNL A   1      39.179  28.650  30.611  1.00  0.00     0.031 C 
ATOM     44  C   UNL A   1      42.980  29.390  30.278  1.00  0.00     0.029 A 
ATOM     45  N   UNL A   1      43.351  28.008  28.676  1.00  0.00    -0.354 N 
ATOM     46  C   UNL A   1      39.660  30.818  31.172  1.00  0.00     0.074 A 
ATOM     47  C   UNL A   1      38.824  29.654  31.412  1.00  0.00     0.031 C 
ATOM     48  C   UNL A   1      44.306  29.438  29.994  1.00  0.00     0.029 A 
ATOM     49  C   UNL A   1      44.513  28.768  28.726  1.00  0.00     0.049 A 
ATOM     50  H   UNL A   1      43.311  27.103  28.290  1.00  0.00     0.167 HD
ATOM     51  C   UNL A   1      40.134  31.753  32.055  1.00  0.00     0.031 A 
ATOM     52  C   UNL A   1      45.063  29.219  27.550  1.00  0.00     0.031 A 
ATOM     53  C   UNL A   1      41.451  32.295  31.664  1.00  0.00     0.049 A 
ATOM     54  C   UNL A   1      44.830  30.702  27.427  1.00  0.00     0.074 A 
ATOM     55  C   UNL A   1      42.714  32.212  32.241  1.00  0.00     0.029 A 
ATOM     56  N   UNL A   1      41.668  32.782  30.377  1.00  0.00    -0.354 N 
ATOM     57  N   UNL A   1      44.250  31.395  28.361  1.00  0.00    -0.248 NA
ATOM     58  C   UNL A   1      45.161  31.530  26.275  1.00  0.00     0.031 C 
ATOM     59  C   UNL A   1      43.683  32.624  31.281  1.00  0.00     0.029 A 
ATOM     60  C   UNL A   1      43.017  32.995  30.128  1.00  0.00     0.049 A 
ATOM     61  H   UNL A   1      40.952  32.954  29.724  1.00  0.00     0.167 HD
ATOM     62  C   UNL A   1      44.081  32.689  27.990  1.00  0.00     0.074 A 
ATOM     63  C   UNL A   1      44.689  32.731  26.668  1.00  0.00     0.031 C 
ATOM     64  C   UNL A   1      43.446  33.555  28.837  1.00  0.00     0.031 A 
BRANCH  51  65
ATOM     65  C   UNL A   1      39.534  31.921  33.449  1.00  0.00    -0.014 A 
ATOM     66  C   UNL A   1      40.291  31.681  34.613  1.00  0.00     0.010 A 
ATOM     67  C   UNL A   1      38.214  32.373  33.668  1.00  0.00     0.010 A 
ATOM     68  C   UNL A   1      39.736  31.797  35.903  1.00  0.00     0.020 A 
ATOM     69  C   UNL A   1      37.626  32.425  34.938  1.00  0.00     0.020 A 
ATOM     70  C   UNL A   1      38.397  32.146  36.057  1.00  0.00     0.054 A 
BRANCH  70  71
ATOM     71  S   UNL A   1      37.691  32.317  37.718  1.00  0.00     0.124 S 
ATOM     72  O   UNL A   1      38.806  32.860  38.488  1.00  0.00    -0.237 OA
ATOM     73  O   UNL A   1      36.577  33.232  37.490  1.00  0.00    -0.237 OA
ATOM     74  O   UNL A   1      37.304  30.953  38.075  1.00  0.00    -0.744 OA
ENDBRANCH  70  71
ENDBRANCH  51  65
BRANCH  52  75
ATOM     75  C   UNL A   1      45.065  28.211  26.368  1.00  0.00    -0.014 A 
ATOM     76  C   UNL A   1      46.211  28.298  25.544  1.00  0.00     0.010 A 
ATOM     77  C   UNL A   1      44.754  26.921  26.766  1.00  0.00     0.010 A 
ATOM     78  C   UNL A   1      47.329  27.484  25.807  1.00  0.00     0.020 A 
ATOM     79  C   UNL A   1      45.884  26.127  27.041  1.00  0.00     0.020 A 
ATOM     80  C   UNL A   1      47.183  26.489  26.751  1.00  0.00     0.054 A 
BRANCH  80  81
ATOM     81  S   UNL A   1      48.664  25.870  27.904  1.00  0.00     0.124 S 
ATOM     82  O   UNL A   1      49.651  26.870  27.627  1.00  0.00    -0.237 OA
ATOM     83  O   UNL A   1      48.155  25.949  29.270  1.00  0.00    -0.237 OA
ATOM     84  O   UNL A   1      49.021  24.526  27.472  1.00  0.00    -0.744 OA
ENDBRANCH  80  81
ENDBRANCH  52  75
BRANCH  64  85
ATOM     85  C   UNL A   1      43.160  35.019  28.599  1.00  0.00    -0.014 A 
ATOM     86  C   UNL A   1      43.438  36.056  29.495  1.00  0.00     0.010 A 
ATOM     87  C   UNL A   1      42.535  35.391  27.380  1.00  0.00     0.010 A 
ATOM     88  C   UNL A   1      43.168  37.391  29.168  1.00  0.00     0.020 A 
ATOM     89  C   UNL A   1      42.270  36.714  27.036  1.00  0.00     0.020 A 
ATOM     90  C   UNL A   1      42.597  37.712  27.937  1.00  0.00     0.054 A 
BRANCH  90  91
ATOM     91  S   UNL A   1      42.291  39.444  27.539  1.00  0.00     0.124 S 
ATOM     92  O   UNL A   1      41.338  39.342  26.436  1.00  0.00    -0.237 OA
ATOM     93  O   UNL A   1      41.746  39.958  28.794  1.00  0.00    -0.237 OA
ATOM     94  O   UNL A   1      43.609  39.961  27.177  1.00  0.00    -0.744 OA
ENDBRANCH  90  91
ENDBRANCH  64  85
ENDBRANCH  38  39
ENDBRANCH  30  33
ENDBRANCH  28  29
ENDBRANCH   1  28
TORSDOF 15
ENDMDL
MODEL 2
REMARK VINA RESULT:     -13.2      3.978      9.422
REMARK SMILES Cc1cc(C(=O)NCCCNC(=O)c2ccc(-c3c4nc(c(-c5ccc(S(=O)(=O)[O-])cc5)c5ccc([nH]5)c(-c5ccc(S(=O)(=O)[O-])cc5)c5nc(c(-c6ccc(S(=O)(=O)[O-])cc6)c6ccc3[nH]6)C=C5)C=C4)cc2)ccc1-c1ccc(C(=O)N2CCCCC2)cc1
REMARK SMILES IDX 9 1 8 2 7 3 5 4 6 5 4 7 1 8 2 9 3 10 76 11 75 12 74 13 77 14
REMARK SMILES IDX 78 15 90 16 79 17 89 18 80 19 81 20 82 21 83 22 84 23 88 24
REMARK SMILES IDX 85 25 87 26 86 27 10 28 11 29 12 30 13 32 14 33 15 34 73 35
REMARK SMILES IDX 16 36 72 37 17 38 18 39 19 40 66 41 20 42 71 43 65 44 67 45
REMARK SMILES IDX 21 46 70 47 64 48 63 49 22 51 52 52 33 53 51 54 34 55 37 56
REMARK SMILES IDX 50 57 68 58 35 59 36 60 49 62 69 63 38 64 23 65 24 66 32 67
REMARK SMILES IDX 25 68 31 69 26 70 27 71 28 72 29 73 30 74 53 75 54 76 62 77
REMARK SMILES IDX 55 78 61 79 56 80 57 81 58 82 59 83 60 84 39 85 40 86 48 87
REMARK SMILES IDX 41 88 47 89 42 90 43 91 44 92 45 93 46 94
REMARK H PARENT 7 6 11 31 67 50 37 61
REMARK Flexibility Score: inf
ROOT
ATOM      1  C   UNL A   1      36.530  18.418  25.029  1.00  0.00     0.042 C 
ENDROOT
BRANCH   1   2
ATOM      2  C   UNL A   1      35.312  17.684  24.262  1.00  0.00     0.118 C 
BRANCH   2   3
ATOM      3  N   UNL A   1      33.965  17.640  24.880  1.00  0.00    -0.352 N 
ATOM      4  C   UNL A   1      32.950  18.529  25.171  1.00  0.00     0.251 C 
ATOM      5  O   UNL A   1      31.790  18.174  25.376  1.00  0.00    -0.269 OA
ATOM      6  H   UNL A   1      33.731  16.725  25.162  1.00  0.00     0.163 HD
BRANCH   4   7
ATOM      7  C   UNL A   1      33.246  19.961  25.259  1.00  0.00     0.040 A 
ATOM      8  C   UNL A   1      34.401  22.531  27.805  1.00  0.00     0.045 C 
ATOM      9  C   UNL A   1      33.818  21.934  26.551  1.00  0.00    -0.042 A 
ATOM     10  C   UNL A   1      33.715  20.539  26.448  1.00  0.00     0.018 A 
ATOM     11  C   UNL A   1      33.419  22.713  25.443  1.00  0.00    -0.015 A 
ATOM     12  C   UNL A   1      33.106  22.098  24.222  1.00  0.00     0.010 A 
ATOM     13  C   UNL A   1      33.085  20.727  24.116  1.00  0.00     0.014 A 
BRANCH  11  14
ATOM     14  C   UNL A   1      33.334  24.162  25.466  1.00  0.00    -0.018 A 
ATOM     15  C   UNL A   1      32.302  24.772  26.174  1.00  0.00     0.009 A 
ATOM     16  C   UNL A   1      34.318  24.947  24.843  1.00  0.00     0.009 A 
ATOM     17  C   UNL A   1      32.231  26.154  26.228  1.00  0.00     0.014 A 
ATOM     18  C   UNL A   1      34.268  26.336  24.930  1.00  0.00     0.014 A 
ATOM     19  C   UNL A   1      33.220  26.944  25.627  1.00  0.00     0.040 A 
BRANCH  19  20
ATOM     20  C   UNL A   1      33.075  28.422  25.558  1.00  0.00     0.253 C 
ATOM     21  O   UNL A   1      32.544  28.930  24.573  1.00  0.00    -0.269 OA
ATOM     22  N   UNL A   1      33.391  29.153  26.693  1.00  0.00    -0.339 N 
ATOM     23  C   UNL A   1      32.450  30.162  27.139  1.00  0.00     0.120 C 
ATOM     24  C   UNL A   1      34.639  29.020  27.444  1.00  0.00     0.120 C 
ATOM     25  C   UNL A   1      33.115  31.522  27.248  1.00  0.00     0.022 C 
ATOM     26  C   UNL A   1      35.335  30.373  27.569  1.00  0.00     0.022 C 
ATOM     27  C   UNL A   1      34.378  31.439  28.105  1.00  0.00     0.004 C 
ENDBRANCH  19  20
ENDBRANCH  11  14
ENDBRANCH   4   7
ENDBRANCH   2   3
ENDBRANCH   1   2
BRANCH   1  28
ATOM     28  C   UNL A   1      37.078  19.757  24.356  1.00  0.00     0.118 C 
BRANCH  28  29
ATOM     29  N   UNL A   1      36.667  21.212  24.725  1.00  0.00    -0.352 N 
ATOM     30  C   UNL A   1      37.443  22.429  24.946  1.00  0.00     0.251 C 
ATOM     31  H   UNL A   1      35.696  21.336  24.829  1.00  0.00     0.163 HD
ATOM     32  O   UNL A   1      37.384  23.247  24.012  1.00  0.00    -0.269 OA
BRANCH  30  33
ATOM     33  C   UNL A   1      38.260  22.946  26.208  1.00  0.00     0.039 A 
ATOM     34  C   UNL A   1      37.805  24.081  26.957  1.00  0.00     0.014 A 
ATOM     35  C   UNL A   1      39.507  22.493  26.628  1.00  0.00     0.014 A 
ATOM     36  C   UNL A   1      38.737  24.970  27.640  1.00  0.00     0.010 A 
ATOM     37  C   UNL A   1      40.431  23.370  27.297  1.00  0.00     0.010 A 
ATOM     38  C   UNL A   1      40.121  24.709  27.598  1.00  0.00    -0.014 A 
BRANCH  38  39
ATOM     39  C   UNL A   1      41.204  25.796  27.516  1.00  0.00     0.031 A 
ATOM     40  C   UNL A   1      42.499  25.547  26.892  1.00  0.00     0.074 A 
ATOM     41  C   UNL A   1      41.113  27.129  27.827  1.00  0.00     0.049 A 
ATOM     42  N   UNL A   1      43.650  25.792  27.434  1.00  0.00    -0.248 NA
ATOM     43  C   UNL A   1      42.550  25.123  25.505  1.00  0.00     0.031 C 
ATOM     44  C   UNL A   1      42.012  28.291  27.691  1.00  0.00     0.029 A 
ATOM     45  N   UNL A   1      40.034  27.785  28.359  1.00  0.00    -0.354 N 
ATOM     46  C   UNL A   1      44.529  25.884  26.374  1.00  0.00     0.074 A 
ATOM     47  C   UNL A   1      43.855  25.237  25.260  1.00  0.00     0.031 C 
ATOM     48  C   UNL A   1      41.571  29.308  28.474  1.00  0.00     0.029 A 
ATOM     49  C   UNL A   1      40.395  28.845  29.182  1.00  0.00     0.049 A 
ATOM     50  H   UNL A   1      39.101  27.533  28.177  1.00  0.00     0.167 HD
ATOM     51  C   UNL A   1      45.584  26.759  26.371  1.00  0.00     0.031 A 
ATOM     52  C   UNL A   1      40.131  28.761  30.528  1.00  0.00     0.031 A 
ATOM     53  C   UNL A   1      45.525  27.731  27.483  1.00  0.00     0.049 A 
ATOM     54  C   UNL A   1      41.420  28.543  31.276  1.00  0.00     0.074 A 
ATOM     55  C   UNL A   1      45.357  29.111  27.520  1.00  0.00     0.029 A 
ATOM     56  N   UNL A   1      45.335  27.303  28.795  1.00  0.00    -0.354 N 
ATOM     57  N   UNL A   1      42.575  28.518  30.680  1.00  0.00    -0.248 NA
ATOM     58  C   UNL A   1      41.551  28.291  32.705  1.00  0.00     0.031 C 
ATOM     59  C   UNL A   1      45.038  29.496  28.854  1.00  0.00     0.029 A 
ATOM     60  C   UNL A   1      45.045  28.362  29.644  1.00  0.00     0.049 A 
ATOM     61  H   UNL A   1      45.398  26.364  29.083  1.00  0.00     0.167 HD
ATOM     62  C   UNL A   1      43.577  28.229  31.548  1.00  0.00     0.074 A 
ATOM     63  C   UNL A   1      42.882  28.111  32.821  1.00  0.00     0.031 C 
ATOM     64  C   UNL A   1      44.859  28.119  31.083  1.00  0.00     0.031 A 
BRANCH  51  65
ATOM     65  C   UNL A   1      46.487  26.926  25.153  1.00  0.00    -0.014 A 
ATOM     66  C   UNL A   1      47.562  26.050  24.903  1.00  0.00     0.010 A 
ATOM     67  C   UNL A   1      46.281  27.924  24.174  1.00  0.00     0.010 A 
ATOM     68  C   UNL A   1      48.424  26.218  23.801  1.00  0.00     0.020 A 
ATOM     69  C   UNL A   1      47.168  28.149  23.114  1.00  0.00     0.020 A 
ATOM     70  C   UNL A   1      48.235  27.283  22.925  1.00  0.00     0.054 A 
BRANCH  70  71
ATOM     71  S   UNL A   1      49.332  27.485  21.496  1.00  0.00     0.124 S 
ATOM     72  O   UNL A   1      48.563  26.880  20.411  1.00  0.00    -0.237 OA
ATOM     73  O   UNL A   1      49.489  28.934  21.426  1.00  0.00    -0.237 OA
ATOM     74  O   UNL A   1      50.539  26.752  21.876  1.00  0.00    -0.744 OA
ENDBRANCH  70  71
ENDBRANCH  51  65
BRANCH  52  75
ATOM     75  C   UNL A   1      38.756  28.151  30.916  1.00  0.00    -0.014 A 
ATOM     76  C   UNL A   1      38.501  28.151  32.307  1.00  0.00     0.010 A 
ATOM     77  C   UNL A   1      37.715  28.655  30.153  1.00  0.00     0.010 A 
ATOM     78  C   UNL A   1      37.816  29.231  32.896  1.00  0.00     0.020 A 
ATOM     79  C   UNL A   1      37.052  29.744  30.751  1.00  0.00     0.020 A 
ATOM     80  C   UNL A   1      37.249  30.160  32.051  1.00  0.00     0.054 A 
BRANCH  80  81
ATOM     81  S   UNL A   1      37.067  32.073  32.516  1.00  0.00     0.124 S 
ATOM     82  O   UNL A   1      37.206  32.674  31.223  1.00  0.00    -0.237 OA
ATOM     83  O   UNL A   1      35.720  32.217  33.058  1.00  0.00    -0.237 OA
ATOM     84  O   UNL A   1      38.132  32.397  33.454  1.00  0.00    -0.744 OA
ENDBRANCH  80  81
ENDBRANCH  52  75
BRANCH  64  85
ATOM     85  C   UNL A   1      46.096  27.798  31.887  1.00  0.00    -0.014 A 
ATOM     86  C   UNL A   1      47.035  28.731  32.337  1.00  0.00     0.010 A 
ATOM     87  C   UNL A   1      46.358  26.439  32.204  1.00  0.00     0.010 A 
ATOM     88  C   UNL A   1      48.137  28.340  33.110  1.00  0.00     0.020 A 
ATOM     89  C   UNL A   1      47.441  26.036  32.980  1.00  0.00     0.020 A 
ATOM     90  C   UNL A   1      48.325  26.997  33.437  1.00  0.00     0.054 A 
BRANCH  90  91
ATOM     91  S   UNL A   1      49.737  26.536  34.459  1.00  0.00     0.124 S 
ATOM     92  O   UNL A   1      50.563  25.782  33.518  1.00  0.00    -0.237 OA
ATOM     93  O   UNL A   1      50.268  27.837  34.858  1.00  0.00    -0.237 OA
ATOM     94  O   UNL A   1      49.148  25.748  35.539  1.00  0.00    -0.744 OA
ENDBRANCH  90  91
ENDBRANCH  64  85
ENDBRANCH  38  39
ENDBRANCH  30  33
ENDBRANCH  28  29
ENDBRANCH   1  28
TORSDOF 15
ENDMDL
MODEL 3
REMARK VINA RESULT:     -13.0      4.147     11.107
REMARK SMILES Cc1cc(C(=O)NCCCNC(=O)c2ccc(-c3c4nc(c(-c5ccc(S(=O)(=O)[O-])cc5)c5ccc([nH]5)c(-c5ccc(S(=O)(=O)[O-])cc5)c5nc(c(-c6ccc(S(=O)(=O)[O-])cc6)c6ccc3[nH]6)C=C5)C=C4)cc2)ccc1-c1ccc(C(=O)N2CCCCC2)cc1
REMARK SMILES IDX 9 1 8 2 7 3 5 4 6 5 4 7 1 8 2 9 3 10 76 11 75 12 74 13 77 14
REMARK SMILES IDX 78 15 90 16 79 17 89 18 80 19 81 20 82 21 83 22 84 23 88 24
REMARK SMILES IDX 85 25 87 26 86 27 10 28 11 29 12 30 13 32 14 33 15 34 73 35
REMARK SMILES IDX 16 36 72 37 17 38 18 39 19 40 66 41 20 42 71 43 65 44 67 45
REMARK SMILES IDX 21 46 70 47 64 48 63 49 22 51 52 52 33 53 51 54 34 55 37 56
REMARK SMILES IDX 50 57 68 58 35 59 36 60 49 62 69 63 38 64 23 65 24 66 32 67
REMARK SMILES IDX 25 68 31 69 26 70 27 71 28 72 29 73 30 74 53 75 54 76 62 77
REMARK SMILES IDX 55 78 61 79 56 80 57 81 58 82 59 83 60 84 39 85 40 86 48 87
REMARK SMILES IDX 41 88 47 89 42 90 43 91 44 92 45 93 46 94
REMARK H PARENT 7 6 11 31 67 50 37 61
REMARK Flexibility Score: inf
ROOT
ATOM      1  C   UNL A   1      38.050  34.404  33.035  1.00  0.00     0.042 C 
ENDROOT
BRANCH   1   2
ATOM      2  C   UNL A   1      36.707  34.368  33.934  1.00  0.00     0.118 C 
BRANCH   2   3
ATOM      3  N   UNL A   1      35.529  35.176  33.539  1.00  0.00    -0.352 N 
ATOM      4  C   UNL A   1      34.488  35.082  32.637  1.00  0.00     0.251 C 
ATOM      5  O   UNL A   1      33.446  35.729  32.748  1.00  0.00    -0.269 OA
ATOM      6  H   UNL A   1      35.473  36.009  34.063  1.00  0.00     0.163 HD
BRANCH   4   7
ATOM      7  C   UNL A   1      34.610  34.192  31.480  1.00  0.00     0.040 A 
ATOM      8  C   UNL A   1      34.357  34.308  27.692  1.00  0.00     0.045 C 
ATOM      9  C   UNL A   1      34.420  33.770  29.098  1.00  0.00    -0.042 A 
ATOM     10  C   UNL A   1      34.474  34.673  30.170  1.00  0.00     0.018 A 
ATOM     11  C   UNL A   1      34.485  32.389  29.389  1.00  0.00    -0.015 A 
ATOM     12  C   UNL A   1      34.778  31.954  30.690  1.00  0.00     0.010 A 
ATOM     13  C   UNL A   1      34.906  32.860  31.717  1.00  0.00     0.014 A 
BRANCH  11  14
ATOM     14  C   UNL A   1      34.293  31.347  28.397  1.00  0.00    -0.018 A 
ATOM     15  C   UNL A   1      33.155  31.371  27.596  1.00  0.00     0.009 A 
ATOM     16  C   UNL A   1      35.274  30.363  28.194  1.00  0.00     0.009 A 
ATOM     17  C   UNL A   1      32.979  30.399  26.625  1.00  0.00     0.014 A 
ATOM     18  C   UNL A   1      35.115  29.408  27.193  1.00  0.00     0.014 A 
ATOM     19  C   UNL A   1      33.962  29.426  26.402  1.00  0.00     0.040 A 
BRANCH  19  20
ATOM     20  C   UNL A   1      33.718  28.299  25.465  1.00  0.00     0.253 C 
ATOM     21  O   UNL A   1      34.189  28.345  24.331  1.00  0.00    -0.269 OA
ATOM     22  N   UNL A   1      33.110  27.160  25.972  1.00  0.00    -0.339 N 
ATOM     23  C   UNL A   1      33.702  25.874  25.660  1.00  0.00     0.120 C 
ATOM     24  C   UNL A   1      31.874  27.159  26.754  1.00  0.00     0.120 C 
ATOM     25  C   UNL A   1      32.694  24.951  25.000  1.00  0.00     0.022 C 
ATOM     26  C   UNL A   1      30.836  26.241  26.113  1.00  0.00     0.022 C 
ATOM     27  C   UNL A   1      31.420  24.854  25.839  1.00  0.00     0.004 C 
ENDBRANCH  19  20
ENDBRANCH  11  14
ENDBRANCH   4   7
ENDBRANCH   2   3
ENDBRANCH   1   2
BRANCH   1  28
ATOM     28  C   UNL A   1      38.388  33.070  32.228  1.00  0.00     0.118 C 
BRANCH  28  29
ATOM     29  N   UNL A   1      38.828  32.978  30.737  1.00  0.00    -0.352 N 
ATOM     30  C   UNL A   1      38.295  32.238  29.597  1.00  0.00     0.251 C 
ATOM     31  H   UNL A   1      39.616  33.526  30.521  1.00  0.00     0.163 HD
ATOM     32  O   UNL A   1      37.666  32.936  28.785  1.00  0.00    -0.269 OA
BRANCH  30  33
ATOM     33  C   UNL A   1      38.468  30.722  29.150  1.00  0.00     0.039 A 
ATOM     34  C   UNL A   1      38.492  29.671  30.126  1.00  0.00     0.014 A 
ATOM     35  C   UNL A   1      38.747  30.265  27.865  1.00  0.00     0.014 A 
ATOM     36  C   UNL A   1      39.253  28.446  29.912  1.00  0.00     0.010 A 
ATOM     37  C   UNL A   1      39.505  29.059  27.652  1.00  0.00     0.010 A 
ATOM     38  C   UNL A   1      39.969  28.260  28.712  1.00  0.00    -0.014 A 
BRANCH  38  39
ATOM     39  C   UNL A   1      41.332  27.556  28.618  1.00  0.00     0.031 A 
ATOM     40  C   UNL A   1      41.445  26.140  28.284  1.00  0.00     0.074 A 
ATOM     41  C   UNL A   1      42.588  28.103  28.655  1.00  0.00     0.049 A 
ATOM     42  N   UNL A   1      42.116  25.264  28.962  1.00  0.00    -0.248 NA
ATOM     43  C   UNL A   1      40.895  25.659  27.030  1.00  0.00     0.031 C 
ATOM     44  C   UNL A   1      43.955  27.581  28.462  1.00  0.00     0.029 A 
ATOM     45  N   UNL A   1      42.916  29.418  28.861  1.00  0.00    -0.354 N 
ATOM     46  C   UNL A   1      42.361  24.239  28.071  1.00  0.00     0.074 A 
ATOM     47  C   UNL A   1      41.399  24.426  26.997  1.00  0.00     0.031 C 
ATOM     48  C   UNL A   1      44.860  28.465  28.955  1.00  0.00     0.029 A 
ATOM     49  C   UNL A   1      44.128  29.579  29.522  1.00  0.00     0.049 A 
ATOM     50  H   UNL A   1      42.352  30.170  28.571  1.00  0.00     0.167 HD
ATOM     51  C   UNL A   1      43.525  23.516  28.087  1.00  0.00     0.031 A 
ATOM     52  C   UNL A   1      44.126  30.099  30.795  1.00  0.00     0.031 A 
ATOM     53  C   UNL A   1      44.552  24.105  28.972  1.00  0.00     0.049 A 
ATOM     54  C   UNL A   1      44.434  29.003  31.782  1.00  0.00     0.074 A 
ATOM     55  C   UNL A   1      45.795  24.676  28.722  1.00  0.00     0.029 A 
ATOM     56  N   UNL A   1      44.249  24.447  30.287  1.00  0.00    -0.354 N 
ATOM     57  N   UNL A   1      44.716  27.790  31.409  1.00  0.00    -0.248 NA
ATOM     58  C   UNL A   1      44.415  29.125  33.233  1.00  0.00     0.031 C 
ATOM     59  C   UNL A   1      46.215  25.383  29.886  1.00  0.00     0.029 A 
ATOM     60  C   UNL A   1      45.250  25.217  30.862  1.00  0.00     0.049 A 
ATOM     61  H   UNL A   1      43.425  24.175  30.752  1.00  0.00     0.167 HD
ATOM     62  C   UNL A   1      44.878  26.966  32.475  1.00  0.00     0.074 A 
ATOM     63  C   UNL A   1      44.695  27.860  33.609  1.00  0.00     0.031 C 
ATOM     64  C   UNL A   1      45.137  25.639  32.267  1.00  0.00     0.031 A 
BRANCH  51  65
ATOM     65  C   UNL A   1      43.829  22.455  27.034  1.00  0.00    -0.014 A 
ATOM     66  C   UNL A   1      42.944  21.387  26.784  1.00  0.00     0.010 A 
ATOM     67  C   UNL A   1      44.975  22.496  26.210  1.00  0.00     0.010 A 
ATOM     68  C   UNL A   1      43.233  20.381  25.839  1.00  0.00     0.020 A 
ATOM     69  C   UNL A   1      45.312  21.470  25.317  1.00  0.00     0.020 A 
ATOM     70  C   UNL A   1      44.430  20.417  25.127  1.00  0.00     0.054 A 
BRANCH  70  71
ATOM     71  S   UNL A   1      44.789  19.135  23.897  1.00  0.00     0.124 S 
ATOM     72  O   UNL A   1      43.883  18.056  24.281  1.00  0.00    -0.237 OA
ATOM     73  O   UNL A   1      44.470  19.810  22.642  1.00  0.00    -0.237 OA
ATOM     74  O   UNL A   1      46.208  18.846  24.097  1.00  0.00    -0.744 OA
ENDBRANCH  70  71
ENDBRANCH  51  65
BRANCH  52  75
ATOM     75  C   UNL A   1      43.153  31.282  31.046  1.00  0.00    -0.014 A 
ATOM     76  C   UNL A   1      41.789  30.950  30.871  1.00  0.00     0.010 A 
ATOM     77  C   UNL A   1      43.422  31.954  32.227  1.00  0.00     0.010 A 
ATOM     78  C   UNL A   1      41.025  30.521  31.973  1.00  0.00     0.020 A 
ATOM     79  C   UNL A   1      42.660  31.500  33.321  1.00  0.00     0.020 A 
ATOM     80  C   UNL A   1      41.595  30.629  33.223  1.00  0.00     0.054 A 
BRANCH  80  81
ATOM     81  S   UNL A   1      41.205  29.375  34.700  1.00  0.00     0.124 S 
ATOM     82  O   UNL A   1      39.836  29.700  34.968  1.00  0.00    -0.237 OA
ATOM     83  O   UNL A   1      41.363  28.040  34.132  1.00  0.00    -0.237 OA
ATOM     84  O   UNL A   1      42.126  29.679  35.786  1.00  0.00    -0.744 OA
ENDBRANCH  80  81
ENDBRANCH  52  75
BRANCH  64  85
ATOM     85  C   UNL A   1      45.338  24.574  33.318  1.00  0.00    -0.014 A 
ATOM     86  C   UNL A   1      44.418  23.573  33.645  1.00  0.00     0.010 A 
ATOM     87  C   UNL A   1      46.546  24.585  34.064  1.00  0.00     0.010 A 
ATOM     88  C   UNL A   1      44.710  22.604  34.614  1.00  0.00     0.020 A 
ATOM     89  C   UNL A   1      46.856  23.623  35.022  1.00  0.00     0.020 A 
ATOM     90  C   UNL A   1      45.932  22.629  35.287  1.00  0.00     0.054 A 
BRANCH  90  91
ATOM     91  S   UNL A   1      46.285  21.348  36.505  1.00  0.00     0.124 S 
ATOM     92  O   UNL A   1      47.733  21.198  36.382  1.00  0.00    -0.237 OA
ATOM     93  O   UNL A   1      45.821  21.965  37.746  1.00  0.00    -0.237 OA
ATOM     94  O   UNL A   1      45.499  20.202  36.051  1.00  0.00    -0.744 OA
ENDBRANCH  90  91
ENDBRANCH  64  85
ENDBRANCH  38  39
ENDBRANCH  30  33
ENDBRANCH  28  29
ENDBRANCH   1  28
TORSDOF 15
ENDMDL
