MODEL 1
REMARK VINA RESULT:     -13.4      0.000      0.000
REMARK SMILES O=C(NCCCNC(=O)c1cc(N2C(=O)[C@H]3[C@@H]4C=C[C@@H]([C@@H]5C[C@H]45)[C@@H]3C2=O)ccc1Cl)c1ccc(-c2c3nc(c(-c4ccc(S(=O)(=O)[O-])cc4)c4ccc([nH]4)c(-c4ccc(S(=O)(=O)[O-])cc4)c4nc(c(-c5ccc(S(=O)(=O)[O-])cc5)c5ccc2[nH]5)C=C4)C=C3)cc1
REMARK SMILES IDX 4 1 3 2 1 3 2 4 31 6 32 7 90 8 33 9 89 10 34 11 35 12 36 13
REMARK SMILES IDX 83 14 37 15 88 16 82 17 84 18 38 19 87 20 81 21 80 22 39 24
REMARK SMILES IDX 69 25 50 26 68 27 51 28 54 29 67 30 85 31 52 32 53 33 66 35
REMARK SMILES IDX 86 36 55 37 40 38 41 39 49 40 42 41 48 42 43 43 44 44 45 45
REMARK SMILES IDX 46 46 47 47 70 48 71 49 79 50 72 51 78 52 73 53 74 54 75 55
REMARK SMILES IDX 76 56 77 57 56 58 57 59 65 60 58 61 64 62 59 63 60 64 61 65
REMARK SMILES IDX 62 66 63 67 5 68 6 69 7 70 8 71 9 73 10 74 11 75 29 76 12 77
REMARK SMILES IDX 28 78 30 79 27 80 13 81 14 82 25 83 15 84 16 85 24 86 26 87
REMARK SMILES IDX 17 88 20 89 18 90 23 91 19 92 21 93 22 94
REMARK H PARENT 3 5 84 23 54 34 7 72
REMARK Flexibility Score: inf
ROOT
ATOM      1  C   UNL A   1      38.263  24.090  26.523  1.00  0.00     0.118 C 
ENDROOT
BRANCH   1   2
ATOM      2  N   UNL A   1      39.634  24.117  26.029  1.00  0.00    -0.352 N 
ATOM      3  O   UNL A   1      41.713  24.924  25.699  1.00  0.00    -0.269 OA
ATOM      4  C   UNL A   1      40.672  24.963  26.347  1.00  0.00     0.251 C 
ATOM      5  H   UNL A   1      39.852  23.424  25.365  1.00  0.00     0.163 HD
BRANCH   4   6
ATOM      6  C   UNL A   1      40.515  25.937  27.448  1.00  0.00     0.039 A 
ATOM      7  C   UNL A   1      41.222  27.139  27.433  1.00  0.00     0.014 A 
ATOM      8  C   UNL A   1      39.659  25.643  28.513  1.00  0.00     0.014 A 
ATOM      9  C   UNL A   1      41.232  27.947  28.560  1.00  0.00     0.010 A 
ATOM     10  C   UNL A   1      39.570  26.525  29.594  1.00  0.00     0.010 A 
ATOM     11  C   UNL A   1      40.384  27.668  29.644  1.00  0.00    -0.014 A 
BRANCH  11  12
ATOM     12  C   UNL A   1      40.311  28.637  30.766  1.00  0.00     0.031 A 
ATOM     13  C   UNL A   1      41.248  28.554  31.939  1.00  0.00     0.074 A 
ATOM     14  C   UNL A   1      39.399  29.627  30.694  1.00  0.00     0.049 A 
ATOM     15  N   UNL A   1      41.323  29.338  32.984  1.00  0.00    -0.248 NA
ATOM     16  C   UNL A   1      42.220  27.448  31.949  1.00  0.00     0.031 C 
ATOM     17  C   UNL A   1      38.436  29.808  29.602  1.00  0.00     0.029 A 
ATOM     18  N   UNL A   1      39.142  30.678  31.535  1.00  0.00    -0.354 N 
ATOM     19  C   UNL A   1      42.331  28.814  33.786  1.00  0.00     0.074 A 
ATOM     20  C   UNL A   1      42.821  27.626  33.118  1.00  0.00     0.031 C 
ATOM     21  C   UNL A   1      37.738  30.932  29.810  1.00  0.00     0.029 A 
ATOM     22  C   UNL A   1      38.139  31.505  31.087  1.00  0.00     0.049 A 
ATOM     23  H   UNL A   1      39.629  30.826  32.378  1.00  0.00     0.167 HD
ATOM     24  C   UNL A   1      42.802  29.283  34.968  1.00  0.00     0.031 A 
ATOM     25  C   UNL A   1      37.579  32.591  31.650  1.00  0.00     0.031 A 
ATOM     26  C   UNL A   1      42.298  30.462  35.626  1.00  0.00     0.049 A 
ATOM     27  C   UNL A   1      38.086  33.057  32.982  1.00  0.00     0.074 A 
ATOM     28  C   UNL A   1      42.726  31.034  36.811  1.00  0.00     0.029 A 
ATOM     29  N   UNL A   1      41.248  31.242  35.165  1.00  0.00    -0.354 N 
ATOM     30  N   UNL A   1      39.063  32.566  33.707  1.00  0.00    -0.248 NA
ATOM     31  C   UNL A   1      37.417  34.222  33.572  1.00  0.00     0.031 C 
ATOM     32  C   UNL A   1      41.893  32.120  37.101  1.00  0.00     0.029 A 
ATOM     33  C   UNL A   1      40.993  32.271  36.058  1.00  0.00     0.049 A 
ATOM     34  H   UNL A   1      40.756  31.089  34.326  1.00  0.00     0.167 HD
ATOM     35  C   UNL A   1      39.140  33.377  34.832  1.00  0.00     0.074 A 
ATOM     36  C   UNL A   1      38.126  34.402  34.678  1.00  0.00     0.031 C 
ATOM     37  C   UNL A   1      39.973  33.280  35.897  1.00  0.00     0.031 A 
BRANCH  24  38
ATOM     38  C   UNL A   1      43.898  28.499  35.649  1.00  0.00    -0.014 A 
ATOM     39  C   UNL A   1      45.257  28.775  35.408  1.00  0.00     0.010 A 
ATOM     40  C   UNL A   1      43.563  27.502  36.584  1.00  0.00     0.010 A 
ATOM     41  C   UNL A   1      46.255  28.042  36.057  1.00  0.00     0.020 A 
ATOM     42  C   UNL A   1      44.557  26.787  37.258  1.00  0.00     0.020 A 
ATOM     43  C   UNL A   1      45.899  27.050  36.976  1.00  0.00     0.054 A 
BRANCH  43  44
ATOM     44  S   UNL A   1      47.218  26.126  37.813  1.00  0.00     0.124 S 
ATOM     45  O   UNL A   1      47.256  26.775  39.122  1.00  0.00    -0.237 OA
ATOM     46  O   UNL A   1      46.704  24.759  37.806  1.00  0.00    -0.237 OA
ATOM     47  O   UNL A   1      48.390  26.353  36.971  1.00  0.00    -0.744 OA
ENDBRANCH  43  44
ENDBRANCH  24  38
BRANCH  25  48
ATOM     48  C   UNL A   1      36.459  33.285  30.957  1.00  0.00    -0.014 A 
ATOM     49  C   UNL A   1      35.198  33.399  31.566  1.00  0.00     0.010 A 
ATOM     50  C   UNL A   1      36.664  33.866  29.691  1.00  0.00     0.010 A 
ATOM     51  C   UNL A   1      34.158  34.068  30.913  1.00  0.00     0.020 A 
ATOM     52  C   UNL A   1      35.638  34.565  29.052  1.00  0.00     0.020 A 
ATOM     53  C   UNL A   1      34.386  34.649  29.663  1.00  0.00     0.054 A 
BRANCH  53  54
ATOM     54  S   UNL A   1      33.035  35.555  28.861  1.00  0.00     0.124 S 
ATOM     55  O   UNL A   1      32.239  35.987  30.005  1.00  0.00    -0.237 OA
ATOM     56  O   UNL A   1      33.746  36.613  28.147  1.00  0.00    -0.237 OA
ATOM     57  O   UNL A   1      32.409  34.550  28.006  1.00  0.00    -0.744 OA
ENDBRANCH  53  54
ENDBRANCH  25  48
BRANCH  37  58
ATOM     58  C   UNL A   1      39.844  34.331  36.968  1.00  0.00    -0.014 A 
ATOM     59  C   UNL A   1      40.455  35.591  36.835  1.00  0.00     0.010 A 
ATOM     60  C   UNL A   1      39.065  34.063  38.108  1.00  0.00     0.010 A 
ATOM     61  C   UNL A   1      40.318  36.551  37.840  1.00  0.00     0.020 A 
ATOM     62  C   UNL A   1      38.897  35.033  39.099  1.00  0.00     0.020 A 
ATOM     63  C   UNL A   1      39.537  36.267  38.966  1.00  0.00     0.054 A 
BRANCH  63  64
ATOM     64  S   UNL A   1      39.341  37.547  40.236  1.00  0.00     0.124 S 
ATOM     65  O   UNL A   1      38.309  38.398  39.652  1.00  0.00    -0.237 OA
ATOM     66  O   UNL A   1      38.933  36.773  41.406  1.00  0.00    -0.237 OA
ATOM     67  O   UNL A   1      40.669  38.151  40.327  1.00  0.00    -0.744 OA
ENDBRANCH  63  64
ENDBRANCH  37  58
ENDBRANCH  11  12
ENDBRANCH   4   6
ENDBRANCH   1   2
BRANCH   1  68
ATOM     68  C   UNL A   1      37.250  23.695  25.461  1.00  0.00     0.042 C 
BRANCH  68  69
ATOM     69  C   UNL A   1      36.892  22.220  25.470  1.00  0.00     0.118 C 
BRANCH  69  70
ATOM     70  N   UNL A   1      35.955  21.879  26.529  1.00  0.00    -0.352 N 
ATOM     71  C   UNL A   1      34.595  21.766  26.492  1.00  0.00     0.252 C 
ATOM     72  H   UNL A   1      36.365  21.704  27.407  1.00  0.00     0.163 HD
ATOM     73  O   UNL A   1      33.965  21.551  27.525  1.00  0.00    -0.269 OA
BRANCH  71  74
ATOM     74  C   UNL A   1      33.852  21.944  25.234  1.00  0.00     0.060 A 
ATOM     75  C   UNL A   1      33.507  23.264  24.897  1.00  0.00     0.042 A 
ATOM     76  C   UNL A   1      33.395  20.871  24.456  1.00  0.00     0.053 A 
ATOM     77  C   UNL A   1      32.677  23.500  23.804  1.00  0.00     0.053 A 
ATOM     78  C   UNL A   1      32.664  21.125  23.297  1.00  0.00     0.023 A 
ATOM     79  Cl  UNL A   1      33.608  19.212  24.890  1.00  0.00    -0.083 Cl
ATOM     80  C   UNL A   1      32.285  22.429  22.988  1.00  0.00     0.028 A 
BRANCH  77  81
ATOM     81  N   UNL A   1      32.255  24.798  23.471  1.00  0.00    -0.250 N 
ATOM     82  C   UNL A   1      31.178  25.430  24.114  1.00  0.00     0.238 C 
ATOM     83  C   UNL A   1      33.086  25.712  22.790  1.00  0.00     0.238 C 
ATOM     84  O   UNL A   1      30.382  24.986  24.923  1.00  0.00    -0.274 OA
ATOM     85  C   UNL A   1      31.218  26.826  23.582  1.00  0.00     0.100 C 
ATOM     86  C   UNL A   1      32.735  26.989  23.459  1.00  0.00     0.100 C 
ATOM     87  O   UNL A   1      34.003  25.516  22.018  1.00  0.00    -0.274 OA
ATOM     88  C   UNL A   1      30.622  28.117  24.169  1.00  0.00     0.028 C 
ATOM     89  C   UNL A   1      33.082  28.461  23.311  1.00  0.00     0.028 C 
ATOM     90  C   UNL A   1      30.750  29.053  22.940  1.00  0.00    -0.026 C 
ATOM     91  C   UNL A   1      31.469  28.804  25.257  1.00  0.00     0.001 C 
ATOM     92  C   UNL A   1      32.013  29.176  22.470  1.00  0.00    -0.026 C 
ATOM     93  C   UNL A   1      32.911  29.025  24.770  1.00  0.00     0.001 C 
ATOM     94  C   UNL A   1      32.610  28.225  26.042  1.00  0.00     0.009 C 
ENDBRANCH  77  81
ENDBRANCH  71  74
ENDBRANCH  69  70
ENDBRANCH  68  69
ENDBRANCH   1  68
TORSDOF 14
ENDMDL
MODEL 2
REMARK VINA RESULT:     -13.3      6.509     11.978
REMARK SMILES O=C(NCCCNC(=O)c1cc(N2C(=O)[C@H]3[C@@H]4C=C[C@@H]([C@@H]5C[C@H]45)[C@@H]3C2=O)ccc1Cl)c1ccc(-c2c3nc(c(-c4ccc(S(=O)(=O)[O-])cc4)c4ccc([nH]4)c(-c4ccc(S(=O)(=O)[O-])cc4)c4nc(c(-c5ccc(S(=O)(=O)[O-])cc5)c5ccc2[nH]5)C=C4)C=C3)cc1
REMARK SMILES IDX 4 1 3 2 1 3 2 4 31 6 32 7 90 8 33 9 89 10 34 11 35 12 36 13
REMARK SMILES IDX 83 14 37 15 88 16 82 17 84 18 38 19 87 20 81 21 80 22 39 24
REMARK SMILES IDX 69 25 50 26 68 27 51 28 54 29 67 30 85 31 52 32 53 33 66 35
REMARK SMILES IDX 86 36 55 37 40 38 41 39 49 40 42 41 48 42 43 43 44 44 45 45
REMARK SMILES IDX 46 46 47 47 70 48 71 49 79 50 72 51 78 52 73 53 74 54 75 55
REMARK SMILES IDX 76 56 77 57 56 58 57 59 65 60 58 61 64 62 59 63 60 64 61 65
REMARK SMILES IDX 62 66 63 67 5 68 6 69 7 70 8 71 9 73 10 74 11 75 29 76 12 77
REMARK SMILES IDX 28 78 30 79 27 80 13 81 14 82 25 83 15 84 16 85 24 86 26 87
REMARK SMILES IDX 17 88 20 89 18 90 23 91 19 92 21 93 22 94
REMARK H PARENT 3 5 84 23 54 34 7 72
REMARK Flexibility Score: inf
ROOT
ATOM      1  C   UNL A   1      35.243  29.428  27.483  1.00  0.00     0.118 C 
ENDROOT
BRANCH   1   2
ATOM      2  N   UNL A   1      35.262  29.956  28.842  1.00  0.00    -0.352 N 
ATOM      3  O   UNL A   1      36.055  30.337  30.917  1.00  0.00    -0.269 OA
ATOM      4  C   UNL A   1      36.284  29.994  29.761  1.00  0.00     0.251 C 
ATOM      5  H   UNL A   1      34.411  30.345  29.149  1.00  0.00     0.163 HD
BRANCH   4   6
ATOM      6  C   UNL A   1      37.649  29.591  29.360  1.00  0.00     0.039 A 
ATOM      7  C   UNL A   1      38.539  29.077  30.302  1.00  0.00     0.014 A 
ATOM      8  C   UNL A   1      38.048  29.736  28.029  1.00  0.00     0.014 A 
ATOM      9  C   UNL A   1      39.872  28.898  29.966  1.00  0.00     0.010 A 
ATOM     10  C   UNL A   1      39.363  29.432  27.662  1.00  0.00     0.010 A 
ATOM     11  C   UNL A   1      40.297  29.044  28.636  1.00  0.00    -0.014 A 
BRANCH  11  12
ATOM     12  C   UNL A   1      41.698  28.698  28.288  1.00  0.00     0.031 A 
ATOM     13  C   UNL A   1      42.795  29.726  28.331  1.00  0.00     0.074 A 
ATOM     14  C   UNL A   1      41.976  27.421  27.962  1.00  0.00     0.049 A 
ATOM     15  N   UNL A   1      44.070  29.573  28.077  1.00  0.00    -0.248 NA
ATOM     16  C   UNL A   1      42.418  31.101  28.697  1.00  0.00     0.031 C 
ATOM     17  C   UNL A   1      40.991  26.336  27.888  1.00  0.00     0.029 A 
ATOM     18  N   UNL A   1      43.163  26.807  27.655  1.00  0.00    -0.354 N 
ATOM     19  C   UNL A   1      44.645  30.830  28.230  1.00  0.00     0.074 A 
ATOM     20  C   UNL A   1      43.574  31.741  28.574  1.00  0.00     0.031 C 
ATOM     21  C   UNL A   1      41.620  25.185  27.617  1.00  0.00     0.029 A 
ATOM     22  C   UNL A   1      43.035  25.460  27.412  1.00  0.00     0.049 A 
ATOM     23  H   UNL A   1      44.022  27.285  27.613  1.00  0.00     0.167 HD
ATOM     24  C   UNL A   1      45.947  31.187  28.097  1.00  0.00     0.031 A 
ATOM     25  C   UNL A   1      43.948  24.544  27.039  1.00  0.00     0.031 A 
ATOM     26  C   UNL A   1      47.002  30.270  27.745  1.00  0.00     0.049 A 
ATOM     27  C   UNL A   1      45.370  24.978  26.850  1.00  0.00     0.074 A 
ATOM     28  C   UNL A   1      48.355  30.528  27.612  1.00  0.00     0.029 A 
ATOM     29  N   UNL A   1      46.824  28.925  27.457  1.00  0.00    -0.354 N 
ATOM     30  N   UNL A   1      45.899  26.165  27.033  1.00  0.00    -0.248 NA
ATOM     31  C   UNL A   1      46.320  23.952  26.404  1.00  0.00     0.031 C 
ATOM     32  C   UNL A   1      48.985  29.356  27.180  1.00  0.00     0.029 A 
ATOM     33  C   UNL A   1      48.037  28.347  27.116  1.00  0.00     0.049 A 
ATOM     34  H   UNL A   1      45.963  28.449  27.491  1.00  0.00     0.167 HD
ATOM     35  C   UNL A   1      47.250  26.023  26.745  1.00  0.00     0.074 A 
ATOM     36  C   UNL A   1      47.459  24.631  26.398  1.00  0.00     0.031 C 
ATOM     37  C   UNL A   1      48.229  26.961  26.764  1.00  0.00     0.031 A 
BRANCH  24  38
ATOM     38  C   UNL A   1      46.301  32.640  28.298  1.00  0.00    -0.014 A 
ATOM     39  C   UNL A   1      46.680  33.137  29.559  1.00  0.00     0.010 A 
ATOM     40  C   UNL A   1      46.304  33.514  27.195  1.00  0.00     0.010 A 
ATOM     41  C   UNL A   1      47.013  34.485  29.719  1.00  0.00     0.020 A 
ATOM     42  C   UNL A   1      46.666  34.856  27.344  1.00  0.00     0.020 A 
ATOM     43  C   UNL A   1      47.001  35.338  28.611  1.00  0.00     0.054 A 
BRANCH  43  44
ATOM     44  S   UNL A   1      47.452  37.080  28.848  1.00  0.00     0.124 S 
ATOM     45  O   UNL A   1      48.495  37.260  27.841  1.00  0.00    -0.237 OA
ATOM     46  O   UNL A   1      46.195  37.774  28.582  1.00  0.00    -0.237 OA
ATOM     47  O   UNL A   1      47.910  37.135  30.235  1.00  0.00    -0.744 OA
ENDBRANCH  43  44
ENDBRANCH  24  38
BRANCH  25  48
ATOM     48  C   UNL A   1      43.524  23.138  26.796  1.00  0.00    -0.014 A 
ATOM     49  C   UNL A   1      43.754  22.522  25.555  1.00  0.00     0.010 A 
ATOM     50  C   UNL A   1      42.915  22.397  27.827  1.00  0.00     0.010 A 
ATOM     51  C   UNL A   1      43.367  21.196  25.343  1.00  0.00     0.020 A 
ATOM     52  C   UNL A   1      42.560  21.061  27.631  1.00  0.00     0.020 A 
ATOM     53  C   UNL A   1      42.776  20.473  26.384  1.00  0.00     0.054 A 
BRANCH  53  54
ATOM     54  S   UNL A   1      42.330  18.739  26.100  1.00  0.00     0.124 S 
ATOM     55  O   UNL A   1      43.258  18.357  25.039  1.00  0.00    -0.237 OA
ATOM     56  O   UNL A   1      42.577  18.132  27.406  1.00  0.00    -0.237 OA
ATOM     57  O   UNL A   1      40.924  18.805  25.709  1.00  0.00    -0.744 OA
ENDBRANCH  53  54
ENDBRANCH  25  48
BRANCH  37  58
ATOM     58  C   UNL A   1      49.624  26.504  26.429  1.00  0.00    -0.014 A 
ATOM     59  C   UNL A   1      50.439  25.873  27.386  1.00  0.00     0.010 A 
ATOM     60  C   UNL A   1      50.112  26.677  25.120  1.00  0.00     0.010 A 
ATOM     61  C   UNL A   1      51.728  25.455  27.050  1.00  0.00     0.020 A 
ATOM     62  C   UNL A   1      51.388  26.229  24.772  1.00  0.00     0.020 A 
ATOM     63  C   UNL A   1      52.195  25.633  25.743  1.00  0.00     0.054 A 
BRANCH  63  64
ATOM     64  S   UNL A   1      53.857  25.043  25.323  1.00  0.00     0.124 S 
ATOM     65  O   UNL A   1      54.643  25.513  26.460  1.00  0.00    -0.237 OA
ATOM     66  O   UNL A   1      53.670  23.597  25.241  1.00  0.00    -0.237 OA
ATOM     67  O   UNL A   1      54.147  25.701  24.051  1.00  0.00    -0.744 OA
ENDBRANCH  63  64
ENDBRANCH  37  58
ENDBRANCH  11  12
ENDBRANCH   4   6
ENDBRANCH   1   2
BRANCH   1  68
ATOM     68  C   UNL A   1      33.933  28.745  27.122  1.00  0.00     0.042 C 
BRANCH  68  69
ATOM     69  C   UNL A   1      32.989  29.615  26.312  1.00  0.00     0.118 C 
BRANCH  69  70
ATOM     70  N   UNL A   1      33.360  29.683  24.908  1.00  0.00    -0.352 N 
ATOM     71  C   UNL A   1      32.906  28.954  23.845  1.00  0.00     0.252 C 
ATOM     72  H   UNL A   1      34.042  30.358  24.690  1.00  0.00     0.163 HD
ATOM     73  O   UNL A   1      33.411  29.103  22.735  1.00  0.00    -0.269 OA
BRANCH  71  74
ATOM     74  C   UNL A   1      31.844  27.949  24.012  1.00  0.00     0.060 A 
ATOM     75  C   UNL A   1      32.259  26.665  24.407  1.00  0.00     0.042 A 
ATOM     76  C   UNL A   1      30.502  28.192  23.688  1.00  0.00     0.053 A 
ATOM     77  C   UNL A   1      31.335  25.624  24.440  1.00  0.00     0.053 A 
ATOM     78  C   UNL A   1      29.563  27.173  23.838  1.00  0.00     0.023 A 
ATOM     79  Cl  UNL A   1      29.930  29.679  23.017  1.00  0.00    -0.083 Cl
ATOM     80  C   UNL A   1      29.982  25.891  24.186  1.00  0.00     0.028 A 
BRANCH  77  81
ATOM     81  N   UNL A   1      31.720  24.313  24.765  1.00  0.00    -0.250 N 
ATOM     82  C   UNL A   1      32.304  23.443  23.830  1.00  0.00     0.238 C 
ATOM     83  C   UNL A   1      31.938  23.898  26.096  1.00  0.00     0.238 C 
ATOM     84  O   UNL A   1      32.466  23.581  22.631  1.00  0.00    -0.274 OA
ATOM     85  C   UNL A   1      32.711  22.262  24.651  1.00  0.00     0.100 C 
ATOM     86  C   UNL A   1      33.104  22.994  25.937  1.00  0.00     0.100 C 
ATOM     87  O   UNL A   1      31.465  24.310  27.135  1.00  0.00    -0.274 OA
ATOM     88  C   UNL A   1      33.758  21.176  24.353  1.00  0.00     0.028 C 
ATOM     89  C   UNL A   1      33.931  22.072  26.818  1.00  0.00     0.028 C 
ATOM     90  C   UNL A   1      33.384  20.138  25.443  1.00  0.00    -0.026 C 
ATOM     91  C   UNL A   1      35.217  21.553  24.676  1.00  0.00     0.001 C 
ATOM     92  C   UNL A   1      33.419  20.628  26.705  1.00  0.00    -0.026 C 
ATOM     93  C   UNL A   1      35.342  22.069  26.119  1.00  0.00     0.001 C 
ATOM     94  C   UNL A   1      35.783  22.920  24.924  1.00  0.00     0.009 C 
ENDBRANCH  77  81
ENDBRANCH  71  74
ENDBRANCH  69  70
ENDBRANCH  68  69
ENDBRANCH   1  68
TORSDOF 14
ENDMDL
MODEL 3
REMARK VINA RESULT:     -13.2      6.105      7.945
REMARK SMILES O=C(NCCCNC(=O)c1cc(N2C(=O)[C@H]3[C@@H]4C=C[C@@H]([C@@H]5C[C@H]45)[C@@H]3C2=O)ccc1Cl)c1ccc(-c2c3nc(c(-c4ccc(S(=O)(=O)[O-])cc4)c4ccc([nH]4)c(-c4ccc(S(=O)(=O)[O-])cc4)c4nc(c(-c5ccc(S(=O)(=O)[O-])cc5)c5ccc2[nH]5)C=C4)C=C3)cc1
REMARK SMILES IDX 4 1 3 2 1 3 2 4 31 6 32 7 90 8 33 9 89 10 34 11 35 12 36 13
REMARK SMILES IDX 83 14 37 15 88 16 82 17 84 18 38 19 87 20 81 21 80 22 39 24
REMARK SMILES IDX 69 25 50 26 68 27 51 28 54 29 67 30 85 31 52 32 53 33 66 35
REMARK SMILES IDX 86 36 55 37 40 38 41 39 49 40 42 41 48 42 43 43 44 44 45 45
REMARK SMILES IDX 46 46 47 47 70 48 71 49 79 50 72 51 78 52 73 53 74 54 75 55
REMARK SMILES IDX 76 56 77 57 56 58 57 59 65 60 58 61 64 62 59 63 60 64 61 65
REMARK SMILES IDX 62 66 63 67 5 68 6 69 7 70 8 71 9 73 10 74 11 75 29 76 12 77
REMARK SMILES IDX 28 78 30 79 27 80 13 81 14 82 25 83 15 84 16 85 24 86 26 87
REMARK SMILES IDX 17 88 20 89 18 90 23 91 19 92 21 93 22 94
REMARK H PARENT 3 5 84 23 54 34 7 72
REMARK Flexibility Score: inf
ROOT
ATOM      1  C   UNL A   1      39.145  20.423  26.019  1.00  0.00     0.118 C 
ENDROOT
BRANCH   1   2
ATOM      2  N   UNL A   1      40.271  19.496  26.020  1.00  0.00    -0.352 N 
ATOM      3  O   UNL A   1      42.425  18.836  25.944  1.00  0.00    -0.269 OA
ATOM      4  C   UNL A   1      41.620  19.744  26.127  1.00  0.00     0.251 C 
ATOM      5  H   UNL A   1      40.028  18.546  25.930  1.00  0.00     0.163 HD
BRANCH   4   6
ATOM      6  C   UNL A   1      42.095  21.110  26.432  1.00  0.00     0.039 A 
ATOM      7  C   UNL A   1      42.277  22.038  25.408  1.00  0.00     0.014 A 
ATOM      8  C   UNL A   1      42.369  21.466  27.755  1.00  0.00     0.014 A 
ATOM      9  C   UNL A   1      42.916  23.240  25.672  1.00  0.00     0.010 A 
ATOM     10  C   UNL A   1      42.895  22.731  28.037  1.00  0.00     0.010 A 
ATOM     11  C   UNL A   1      43.207  23.616  26.994  1.00  0.00    -0.014 A 
BRANCH  11  12
ATOM     12  C   UNL A   1      43.752  24.973  27.249  1.00  0.00     0.031 A 
ATOM     13  C   UNL A   1      45.194  25.304  26.979  1.00  0.00     0.074 A 
ATOM     14  C   UNL A   1      42.910  25.923  27.703  1.00  0.00     0.049 A 
ATOM     15  N   UNL A   1      45.813  26.447  27.131  1.00  0.00    -0.248 NA
ATOM     16  C   UNL A   1      46.055  24.218  26.484  1.00  0.00     0.031 C 
ATOM     17  C   UNL A   1      41.488  25.716  28.001  1.00  0.00     0.029 A 
ATOM     18  N   UNL A   1      43.112  27.251  27.971  1.00  0.00    -0.354 N 
ATOM     19  C   UNL A   1      47.137  26.217  26.772  1.00  0.00     0.074 A 
ATOM     20  C   UNL A   1      47.237  24.816  26.420  1.00  0.00     0.031 C 
ATOM     21  C   UNL A   1      40.936  26.885  28.351  1.00  0.00     0.029 A 
ATOM     22  C   UNL A   1      41.976  27.904  28.388  1.00  0.00     0.049 A 
ATOM     23  H   UNL A   1      43.985  27.695  27.874  1.00  0.00     0.167 HD
ATOM     24  C   UNL A   1      48.170  27.095  26.739  1.00  0.00     0.031 A 
ATOM     25  C   UNL A   1      41.789  29.176  28.785  1.00  0.00     0.031 A 
ATOM     26  C   UNL A   1      48.058  28.486  27.102  1.00  0.00     0.049 A 
ATOM     27  C   UNL A   1      42.960  30.111  28.786  1.00  0.00     0.074 A 
ATOM     28  C   UNL A   1      49.038  29.463  27.076  1.00  0.00     0.029 A 
ATOM     29  N   UNL A   1      46.902  29.095  27.567  1.00  0.00    -0.354 N 
ATOM     30  N   UNL A   1      44.196  29.882  28.411  1.00  0.00    -0.248 NA
ATOM     31  C   UNL A   1      42.714  31.477  29.265  1.00  0.00     0.031 C 
ATOM     32  C   UNL A   1      48.493  30.645  27.588  1.00  0.00     0.029 A 
ATOM     33  C   UNL A   1      47.153  30.426  27.863  1.00  0.00     0.049 A 
ATOM     34  H   UNL A   1      46.030  28.649  27.672  1.00  0.00     0.167 HD
ATOM     35  C   UNL A   1      44.871  31.082  28.588  1.00  0.00     0.074 A 
ATOM     36  C   UNL A   1      43.901  32.039  29.082  1.00  0.00     0.031 C 
ATOM     37  C   UNL A   1      46.179  31.366  28.363  1.00  0.00     0.031 A 
BRANCH  24  38
ATOM     38  C   UNL A   1      49.525  26.572  26.330  1.00  0.00    -0.014 A 
ATOM     39  C   UNL A   1      49.982  26.674  25.003  1.00  0.00     0.010 A 
ATOM     40  C   UNL A   1      50.377  26.013  27.300  1.00  0.00     0.010 A 
ATOM     41  C   UNL A   1      51.245  26.190  24.648  1.00  0.00     0.020 A 
ATOM     42  C   UNL A   1      51.653  25.555  26.957  1.00  0.00     0.020 A 
ATOM     43  C   UNL A   1      52.072  25.631  25.627  1.00  0.00     0.054 A 
BRANCH  43  44
ATOM     44  S   UNL A   1      53.712  25.024  25.139  1.00  0.00     0.124 S 
ATOM     45  O   UNL A   1      53.483  23.585  25.040  1.00  0.00    -0.237 OA
ATOM     46  O   UNL A   1      53.942  25.713  23.871  1.00  0.00    -0.237 OA
ATOM     47  O   UNL A   1      54.579  25.442  26.238  1.00  0.00    -0.744 OA
ENDBRANCH  43  44
ENDBRANCH  24  38
BRANCH  25  48
ATOM     48  C   UNL A   1      40.440  29.616  29.236  1.00  0.00    -0.014 A 
ATOM     49  C   UNL A   1      40.160  29.788  30.602  1.00  0.00     0.010 A 
ATOM     50  C   UNL A   1      39.436  29.898  28.291  1.00  0.00     0.010 A 
ATOM     51  C   UNL A   1      38.895  30.217  31.014  1.00  0.00     0.020 A 
ATOM     52  C   UNL A   1      38.184  30.362  28.696  1.00  0.00     0.020 A 
ATOM     53  C   UNL A   1      37.916  30.505  30.058  1.00  0.00     0.054 A 
BRANCH  53  54
ATOM     54  S   UNL A   1      36.301  31.110  30.616  1.00  0.00     0.124 S 
ATOM     55  O   UNL A   1      35.903  30.078  31.568  1.00  0.00    -0.237 OA
ATOM     56  O   UNL A   1      36.635  32.410  31.194  1.00  0.00    -0.237 OA
ATOM     57  O   UNL A   1      35.513  31.168  29.388  1.00  0.00    -0.744 OA
ENDBRANCH  53  54
ENDBRANCH  25  48
BRANCH  37  58
ATOM     58  C   UNL A   1      46.628  32.780  28.621  1.00  0.00    -0.014 A 
ATOM     59  C   UNL A   1      47.154  33.166  29.867  1.00  0.00     0.010 A 
ATOM     60  C   UNL A   1      46.558  33.727  27.583  1.00  0.00     0.010 A 
ATOM     61  C   UNL A   1      47.568  34.483  30.081  1.00  0.00     0.020 A 
ATOM     62  C   UNL A   1      47.003  35.036  27.783  1.00  0.00     0.020 A 
ATOM     63  C   UNL A   1      47.492  35.410  29.036  1.00  0.00     0.054 A 
BRANCH  63  64
ATOM     64  S   UNL A   1      48.076  37.102  29.328  1.00  0.00     0.124 S 
ATOM     65  O   UNL A   1      47.025  37.898  28.702  1.00  0.00    -0.237 OA
ATOM     66  O   UNL A   1      48.135  37.171  30.786  1.00  0.00    -0.237 OA
ATOM     67  O   UNL A   1      49.372  37.142  28.655  1.00  0.00    -0.744 OA
ENDBRANCH  63  64
ENDBRANCH  37  58
ENDBRANCH  11  12
ENDBRANCH   4   6
ENDBRANCH   1   2
BRANCH   1  68
ATOM     68  C   UNL A   1      38.076  20.068  24.998  1.00  0.00     0.042 C 
BRANCH  68  69
ATOM     69  C   UNL A   1      36.954  21.085  24.904  1.00  0.00     0.118 C 
BRANCH  69  70
ATOM     70  N   UNL A   1      36.169  21.164  26.126  1.00  0.00    -0.352 N 
ATOM     71  C   UNL A   1      34.845  21.450  26.300  1.00  0.00     0.252 C 
ATOM     72  H   UNL A   1      36.669  20.983  26.954  1.00  0.00     0.163 HD
ATOM     73  O   UNL A   1      34.380  21.555  27.433  1.00  0.00    -0.269 OA
BRANCH  71  74
ATOM     74  C   UNL A   1      33.961  21.686  25.147  1.00  0.00     0.060 A 
ATOM     75  C   UNL A   1      33.612  23.023  24.893  1.00  0.00     0.042 A 
ATOM     76  C   UNL A   1      33.386  20.649  24.399  1.00  0.00     0.053 A 
ATOM     77  C   UNL A   1      32.663  23.313  23.916  1.00  0.00     0.053 A 
ATOM     78  C   UNL A   1      32.528  20.956  23.345  1.00  0.00     0.023 A 
ATOM     79  Cl  UNL A   1      33.606  18.972  24.755  1.00  0.00    -0.083 Cl
ATOM     80  C   UNL A   1      32.148  22.278  23.123  1.00  0.00     0.028 A 
BRANCH  77  81
ATOM     81  N   UNL A   1      32.238  24.630  23.675  1.00  0.00    -0.250 N 
ATOM     82  C   UNL A   1      31.360  25.309  24.535  1.00  0.00     0.238 C 
ATOM     83  C   UNL A   1      32.940  25.506  22.820  1.00  0.00     0.238 C 
ATOM     84  O   UNL A   1      30.743  24.901  25.503  1.00  0.00    -0.274 OA
ATOM     85  C   UNL A   1      31.346  26.704  23.997  1.00  0.00     0.100 C 
ATOM     86  C   UNL A   1      32.804  26.796  23.541  1.00  0.00     0.100 C 
ATOM     87  O   UNL A   1      33.653  25.270  21.866  1.00  0.00    -0.274 OA
ATOM     88  C   UNL A   1      30.954  28.019  24.691  1.00  0.00     0.028 C 
ATOM     89  C   UNL A   1      33.177  28.251  23.308  1.00  0.00     0.028 C 
ATOM     90  C   UNL A   1      30.850  28.952  23.458  1.00  0.00    -0.026 C 
ATOM     91  C   UNL A   1      32.052  28.663  25.560  1.00  0.00     0.001 C 
ATOM     92  C   UNL A   1      31.983  29.017  22.719  1.00  0.00    -0.026 C 
ATOM     93  C   UNL A   1      33.359  28.818  24.765  1.00  0.00     0.001 C 
ATOM     94  C   UNL A   1      33.309  28.029  26.078  1.00  0.00     0.009 C 
ENDBRANCH  77  81
ENDBRANCH  71  74
ENDBRANCH  69  70
ENDBRANCH  68  69
ENDBRANCH   1  68
TORSDOF 14
ENDMDL
