MODEL 1
REMARK VINA RESULT:     -11.8      0.000      0.000
REMARK SMILES Cn1c(C[NH+]2CCC3(CC2)NC(=O)C[C@@H]3C(=O)NCCCNC(=O)c2ccc(-c3c4nc(c(-c5ccc(S(=O)(=O)[O-])cc5)c5ccc([nH]5)c(-c5ccc(S(=O)(=O)[O-])cc5)c5nc(c(-c6ccc(S(=O)(=O)[O-])cc6)c6ccc3[nH]6)C=C5)C=C4)cc2)nc2ccccc21
REMARK SMILES IDX 20 1 19 2 18 3 16 4 17 5 15 7 5 8 6 9 10 10 7 12 9 13 8 14
REMARK SMILES IDX 11 15 12 16 14 18 13 19 4 20 3 21 1 22 2 23 91 24 85 25
REMARK SMILES IDX 86 26 90 27 87 28 89 29 88 30 21 31 22 32 23 33 24 35 25 36
REMARK SMILES IDX 26 37 84 38 27 39 83 40 28 41 29 42 30 43 77 44 31 45 82 46
REMARK SMILES IDX 76 47 78 48 32 49 81 50 75 51 74 52 33 54 63 55 44 56 62 57
REMARK SMILES IDX 45 58 48 59 61 60 79 61 46 62 47 63 60 65 80 66 49 67 34 68
REMARK SMILES IDX 35 69 43 70 36 71 42 72 37 73 38 74 39 75 40 76 41 77 64 78
REMARK SMILES IDX 65 79 73 80 66 81 72 82 67 83 68 84 69 85 70 86 71 87 50 88
REMARK SMILES IDX 51 89 59 90 52 91 58 92 53 93 54 94 55 95 56 96 57 97
REMARK H PARENT 18 6 5 11 11 17 22 34 78 53 48 64
REMARK Flexibility Score: inf
ROOT
ATOM      1  C   UNL A   1      33.757  28.367  25.411  1.00  0.00     0.042 C 
ENDROOT
BRANCH   1   2
ATOM      2  C   UNL A   1      32.752  29.400  24.888  1.00  0.00     0.117 C 
BRANCH   2   3
ATOM      3  N   UNL A   1      32.398  29.238  23.485  1.00  0.00    -0.356 N 
ATOM      4  C   UNL A   1      31.203  29.047  22.866  1.00  0.00     0.226 C 
ATOM      5  O   UNL A   1      31.191  29.159  21.638  1.00  0.00    -0.275 OA
ATOM      6  H   UNL A   1      33.167  29.275  22.870  1.00  0.00     0.163 HD
BRANCH   4   7
ATOM      7  C   UNL A   1      29.956  28.682  23.647  1.00  0.00     0.114 C 
ATOM      8  N   UNL A   1      31.934  25.204  23.866  1.00  0.00    -0.328 N 
ATOM      9  C   UNL A   1      31.547  25.804  22.597  1.00  0.00     0.265 C 
ATOM     10  C   UNL A   1      31.531  25.984  25.026  1.00  0.00     0.265 C 
ATOM     11  H   UNL A   1      32.951  25.264  23.832  1.00  0.00     0.348 HD
ATOM     12  C   UNL A   1      30.104  26.312  22.525  1.00  0.00     0.091 C 
ATOM     13  C   UNL A   1      30.119  26.546  25.062  1.00  0.00     0.091 C 
ATOM     14  C   UNL A   1      29.648  27.156  23.735  1.00  0.00     0.063 C 
ATOM     15  N   UNL A   1      28.188  27.158  23.754  1.00  0.00    -0.349 N 
ATOM     16  C   UNL A   1      27.611  28.321  23.318  1.00  0.00     0.221 C 
ATOM     17  H   UNL A   1      27.660  26.384  24.057  1.00  0.00     0.164 HD
ATOM     18  C   UNL A   1      28.707  29.280  22.964  1.00  0.00     0.116 C 
ATOM     19  O   UNL A   1      26.416  28.518  23.212  1.00  0.00    -0.275 OA
BRANCH   8  20
ATOM     20  C   UNL A   1      31.758  23.749  24.008  1.00  0.00     0.339 C 
BRANCH  20  21
ATOM     21  C   UNL A   1      33.021  22.962  23.858  1.00  0.00     0.165 A 
ATOM     22  C   UNL A   1      32.259  20.784  24.902  1.00  0.00     0.152 C 
ATOM     23  N   UNL A   1      33.235  21.694  24.355  1.00  0.00    -0.326 N 
ATOM     24  C   UNL A   1      34.599  21.506  24.433  1.00  0.00     0.068 A 
ATOM     25  N   UNL A   1      34.142  23.449  23.357  1.00  0.00    -0.227 NA
ATOM     26  C   UNL A   1      35.132  22.628  23.810  1.00  0.00     0.089 A 
ATOM     27  C   UNL A   1      35.400  20.525  25.025  1.00  0.00     0.028 A 
ATOM     28  C   UNL A   1      36.519  22.829  23.796  1.00  0.00     0.030 A 
ATOM     29  C   UNL A   1      36.782  20.753  25.027  1.00  0.00     0.002 A 
ATOM     30  C   UNL A   1      37.334  21.891  24.434  1.00  0.00     0.002 A 
ENDBRANCH  20  21
ENDBRANCH   8  20
ENDBRANCH   4   7
ENDBRANCH   2   3
ENDBRANCH   1   2
BRANCH   1  31
ATOM     31  C   UNL A   1      34.104  28.474  26.886  1.00  0.00     0.118 C 
BRANCH  31  32
ATOM     32  N   UNL A   1      33.849  29.805  27.398  1.00  0.00    -0.352 N 
ATOM     33  C   UNL A   1      34.617  30.563  28.249  1.00  0.00     0.251 C 
ATOM     34  H   UNL A   1      33.010  30.224  27.095  1.00  0.00     0.163 HD
ATOM     35  O   UNL A   1      34.108  31.528  28.813  1.00  0.00    -0.269 OA
BRANCH  33  36
ATOM     36  C   UNL A   1      36.037  30.215  28.503  1.00  0.00     0.039 A 
ATOM     37  C   UNL A   1      36.392  29.702  29.753  1.00  0.00     0.014 A 
ATOM     38  C   UNL A   1      37.027  30.429  27.540  1.00  0.00     0.014 A 
ATOM     39  C   UNL A   1      37.723  29.363  30.018  1.00  0.00     0.010 A 
ATOM     40  C   UNL A   1      38.334  30.002  27.770  1.00  0.00     0.010 A 
ATOM     41  C   UNL A   1      38.704  29.482  29.018  1.00  0.00    -0.014 A 
BRANCH  41  42
ATOM     42  C   UNL A   1      40.119  29.093  29.272  1.00  0.00     0.031 A 
ATOM     43  C   UNL A   1      41.072  30.071  29.909  1.00  0.00     0.074 A 
ATOM     44  C   UNL A   1      40.558  27.875  28.899  1.00  0.00     0.049 A 
ATOM     45  N   UNL A   1      42.347  29.927  30.175  1.00  0.00    -0.248 NA
ATOM     46  C   UNL A   1      40.533  31.391  30.276  1.00  0.00     0.031 C 
ATOM     47  C   UNL A   1      39.746  26.844  28.247  1.00  0.00     0.029 A 
ATOM     48  N   UNL A   1      41.797  27.294  29.014  1.00  0.00    -0.354 N 
ATOM     49  C   UNL A   1      42.759  31.134  30.729  1.00  0.00     0.074 A 
ATOM     50  C   UNL A   1      41.618  32.021  30.705  1.00  0.00     0.031 C 
ATOM     51  C   UNL A   1      40.495  25.746  28.060  1.00  0.00     0.029 A 
ATOM     52  C   UNL A   1      41.853  26.008  28.527  1.00  0.00     0.049 A 
ATOM     53  H   UNL A   1      42.572  27.754  29.408  1.00  0.00     0.167 HD
ATOM     54  C   UNL A   1      43.971  31.470  31.235  1.00  0.00     0.031 A 
ATOM     55  C   UNL A   1      42.879  25.137  28.460  1.00  0.00     0.031 A 
ATOM     56  C   UNL A   1      45.107  30.586  31.263  1.00  0.00     0.049 A 
ATOM     57  C   UNL A   1      44.225  25.546  28.994  1.00  0.00     0.074 A 
ATOM     58  C   UNL A   1      46.365  30.821  31.788  1.00  0.00     0.029 A 
ATOM     59  N   UNL A   1      45.123  29.300  30.746  1.00  0.00    -0.354 N 
ATOM     60  N   UNL A   1      44.581  26.677  29.557  1.00  0.00    -0.248 NA
ATOM     61  C   UNL A   1      45.307  24.557  28.892  1.00  0.00     0.031 C 
ATOM     62  C   UNL A   1      47.161  29.699  31.534  1.00  0.00     0.029 A 
ATOM     63  C   UNL A   1      46.378  28.737  30.915  1.00  0.00     0.049 A 
ATOM     64  H   UNL A   1      44.358  28.852  30.319  1.00  0.00     0.167 HD
ATOM     65  C   UNL A   1      45.918  26.522  29.907  1.00  0.00     0.074 A 
ATOM     66  C   UNL A   1      46.303  25.184  29.505  1.00  0.00     0.031 C 
ATOM     67  C   UNL A   1      46.751  27.406  30.510  1.00  0.00     0.031 A 
BRANCH  54  68
ATOM     68  C   UNL A   1      44.133  32.859  31.800  1.00  0.00    -0.014 A 
ATOM     69  C   UNL A   1      43.889  33.124  33.161  1.00  0.00     0.010 A 
ATOM     70  C   UNL A   1      44.581  33.906  30.973  1.00  0.00     0.010 A 
ATOM     71  C   UNL A   1      44.052  34.412  33.673  1.00  0.00     0.020 A 
ATOM     72  C   UNL A   1      44.778  35.190  31.490  1.00  0.00     0.020 A 
ATOM     73  C   UNL A   1      44.495  35.439  32.834  1.00  0.00     0.054 A 
BRANCH  73  74
ATOM     74  S   UNL A   1      44.725  37.096  33.536  1.00  0.00     0.124 S 
ATOM     75  O   UNL A   1      45.458  36.802  34.765  1.00  0.00    -0.237 OA
ATOM     76  O   UNL A   1      45.489  37.779  32.497  1.00  0.00    -0.237 OA
ATOM     77  O   UNL A   1      43.362  37.585  33.727  1.00  0.00    -0.744 OA
ENDBRANCH  73  74
ENDBRANCH  54  68
BRANCH  55  78
ATOM     78  C   UNL A   1      42.669  23.782  27.879  1.00  0.00    -0.014 A 
ATOM     79  C   UNL A   1      42.352  22.690  28.708  1.00  0.00     0.010 A 
ATOM     80  C   UNL A   1      42.775  23.575  26.491  1.00  0.00     0.010 A 
ATOM     81  C   UNL A   1      42.163  21.417  28.163  1.00  0.00     0.020 A 
ATOM     82  C   UNL A   1      42.554  22.309  25.940  1.00  0.00     0.020 A 
ATOM     83  C   UNL A   1      42.261  21.236  26.781  1.00  0.00     0.054 A 
BRANCH  83  84
ATOM     84  S   UNL A   1      41.958  19.584  26.094  1.00  0.00     0.124 S 
ATOM     85  O   UNL A   1      42.372  18.717  27.193  1.00  0.00    -0.237 OA
ATOM     86  O   UNL A   1      40.524  19.617  25.819  1.00  0.00    -0.237 OA
ATOM     87  O   UNL A   1      42.813  19.545  24.909  1.00  0.00    -0.744 OA
ENDBRANCH  83  84
ENDBRANCH  55  78
BRANCH  67  88
ATOM     88  C   UNL A   1      48.153  26.947  30.812  1.00  0.00    -0.014 A 
ATOM     89  C   UNL A   1      49.226  27.249  29.954  1.00  0.00     0.010 A 
ATOM     90  C   UNL A   1      48.409  26.247  32.007  1.00  0.00     0.010 A 
ATOM     91  C   UNL A   1      50.522  26.829  30.268  1.00  0.00     0.020 A 
ATOM     92  C   UNL A   1      49.709  25.856  32.340  1.00  0.00     0.020 A 
ATOM     93  C   UNL A   1      50.755  26.138  31.461  1.00  0.00     0.054 A 
BRANCH  93  94
ATOM     94  S   UNL A   1      52.453  25.644  31.865  1.00  0.00     0.124 S 
ATOM     95  O   UNL A   1      53.147  25.876  30.601  1.00  0.00    -0.237 OA
ATOM     96  O   UNL A   1      52.801  26.558  32.950  1.00  0.00    -0.237 OA
ATOM     97  O   UNL A   1      52.323  24.242  32.256  1.00  0.00    -0.744 OA
ENDBRANCH  93  94
ENDBRANCH  67  88
ENDBRANCH  41  42
ENDBRANCH  33  36
ENDBRANCH  31  32
ENDBRANCH   1  31
TORSDOF 15
ENDMDL
MODEL 2
REMARK VINA RESULT:     -11.7      1.391      2.167
REMARK SMILES Cn1c(C[NH+]2CCC3(CC2)NC(=O)C[C@@H]3C(=O)NCCCNC(=O)c2ccc(-c3c4nc(c(-c5ccc(S(=O)(=O)[O-])cc5)c5ccc([nH]5)c(-c5ccc(S(=O)(=O)[O-])cc5)c5nc(c(-c6ccc(S(=O)(=O)[O-])cc6)c6ccc3[nH]6)C=C5)C=C4)cc2)nc2ccccc21
REMARK SMILES IDX 20 1 19 2 18 3 16 4 17 5 15 7 5 8 6 9 10 10 7 12 9 13 8 14
REMARK SMILES IDX 11 15 12 16 14 18 13 19 4 20 3 21 1 22 2 23 91 24 85 25
REMARK SMILES IDX 86 26 90 27 87 28 89 29 88 30 21 31 22 32 23 33 24 35 25 36
REMARK SMILES IDX 26 37 84 38 27 39 83 40 28 41 29 42 30 43 77 44 31 45 82 46
REMARK SMILES IDX 76 47 78 48 32 49 81 50 75 51 74 52 33 54 63 55 44 56 62 57
REMARK SMILES IDX 45 58 48 59 61 60 79 61 46 62 47 63 60 65 80 66 49 67 34 68
REMARK SMILES IDX 35 69 43 70 36 71 42 72 37 73 38 74 39 75 40 76 41 77 64 78
REMARK SMILES IDX 65 79 73 80 66 81 72 82 67 83 68 84 69 85 70 86 71 87 50 88
REMARK SMILES IDX 51 89 59 90 52 91 58 92 53 93 54 94 55 95 56 96 57 97
REMARK H PARENT 18 6 5 11 11 17 22 34 78 53 48 64
REMARK Flexibility Score: inf
ROOT
ATOM      1  C   UNL A   1      33.402  28.229  25.818  1.00  0.00     0.042 C 
ENDROOT
BRANCH   1   2
ATOM      2  C   UNL A   1      33.898  26.897  25.247  1.00  0.00     0.117 C 
BRANCH   2   3
ATOM      3  N   UNL A   1      33.513  26.655  23.863  1.00  0.00    -0.356 N 
ATOM      4  C   UNL A   1      32.319  26.754  23.221  1.00  0.00     0.226 C 
ATOM      5  O   UNL A   1      32.344  26.690  21.990  1.00  0.00    -0.275 OA
ATOM      6  H   UNL A   1      34.256  26.368  23.284  1.00  0.00     0.163 HD
BRANCH   4   7
ATOM      7  C   UNL A   1      31.018  26.903  23.987  1.00  0.00     0.114 C 
ATOM      8  N   UNL A   1      31.850  23.069  24.804  1.00  0.00    -0.328 N 
ATOM      9  C   UNL A   1      31.665  23.555  23.444  1.00  0.00     0.265 C 
ATOM     10  C   UNL A   1      31.701  24.102  25.817  1.00  0.00     0.265 C 
ATOM     11  H   UNL A   1      32.838  22.816  24.810  1.00  0.00     0.348 HD
ATOM     12  C   UNL A   1      30.444  24.454  23.230  1.00  0.00     0.091 C 
ATOM     13  C   UNL A   1      30.525  25.059  25.703  1.00  0.00     0.091 C 
ATOM     14  C   UNL A   1      30.263  25.571  24.281  1.00  0.00     0.063 C 
ATOM     15  N   UNL A   1      28.872  26.013  24.230  1.00  0.00    -0.349 N 
ATOM     16  C   UNL A   1      28.674  27.214  23.602  1.00  0.00     0.221 C 
ATOM     17  H   UNL A   1      28.134  25.488  24.616  1.00  0.00     0.164 HD
ATOM     18  C   UNL A   1      30.011  27.735  23.166  1.00  0.00     0.116 C 
ATOM     19  O   UNL A   1      27.595  27.740  23.411  1.00  0.00    -0.275 OA
BRANCH   8  20
ATOM     20  C   UNL A   1      31.242  21.773  25.147  1.00  0.00     0.339 C 
BRANCH  20  21
ATOM     21  C   UNL A   1      32.124  20.593  24.886  1.00  0.00     0.165 A 
ATOM     22  C   UNL A   1      32.091  20.624  22.354  1.00  0.00     0.152 C 
ATOM     23  N   UNL A   1      32.393  20.056  23.646  1.00  0.00    -0.326 N 
ATOM     24  C   UNL A   1      32.829  18.763  23.842  1.00  0.00     0.068 A 
ATOM     25  N   UNL A   1      32.636  19.829  25.834  1.00  0.00    -0.227 NA
ATOM     26  C   UNL A   1      32.958  18.654  25.220  1.00  0.00     0.089 A 
ATOM     27  C   UNL A   1      33.057  17.686  22.979  1.00  0.00     0.028 A 
ATOM     28  C   UNL A   1      33.289  17.420  25.798  1.00  0.00     0.030 A 
ATOM     29  C   UNL A   1      33.360  16.454  23.572  1.00  0.00     0.002 A 
ATOM     30  C   UNL A   1      33.462  16.317  24.958  1.00  0.00     0.002 A 
ENDBRANCH  20  21
ENDBRANCH   8  20
ENDBRANCH   4   7
ENDBRANCH   2   3
ENDBRANCH   1   2
BRANCH   1  31
ATOM     31  C   UNL A   1      33.806  28.521  27.253  1.00  0.00     0.118 C 
BRANCH  31  32
ATOM     32  N   UNL A   1      33.702  29.933  27.559  1.00  0.00    -0.352 N 
ATOM     33  C   UNL A   1      34.561  30.724  28.285  1.00  0.00     0.251 C 
ATOM     34  H   UNL A   1      32.906  30.389  27.199  1.00  0.00     0.163 HD
ATOM     35  O   UNL A   1      34.166  31.810  28.699  1.00  0.00    -0.269 OA
BRANCH  33  36
ATOM     36  C   UNL A   1      35.940  30.268  28.587  1.00  0.00     0.039 A 
ATOM     37  C   UNL A   1      36.917  30.371  27.593  1.00  0.00     0.014 A 
ATOM     38  C   UNL A   1      36.270  29.700  29.821  1.00  0.00     0.014 A 
ATOM     39  C   UNL A   1      38.226  29.950  27.853  1.00  0.00     0.010 A 
ATOM     40  C   UNL A   1      37.594  29.372  30.112  1.00  0.00     0.010 A 
ATOM     41  C   UNL A   1      38.585  29.473  29.125  1.00  0.00    -0.014 A 
BRANCH  41  42
ATOM     42  C   UNL A   1      39.981  29.055  29.429  1.00  0.00     0.031 A 
ATOM     43  C   UNL A   1      40.924  30.003  30.125  1.00  0.00     0.074 A 
ATOM     44  C   UNL A   1      40.416  27.837  29.047  1.00  0.00     0.049 A 
ATOM     45  N   UNL A   1      42.184  29.831  30.439  1.00  0.00    -0.248 NA
ATOM     46  C   UNL A   1      40.392  31.324  30.498  1.00  0.00     0.031 C 
ATOM     47  C   UNL A   1      39.614  26.834  28.341  1.00  0.00     0.029 A 
ATOM     48  N   UNL A   1      41.640  27.233  29.200  1.00  0.00    -0.354 N 
ATOM     49  C   UNL A   1      42.593  31.019  31.035  1.00  0.00     0.074 A 
ATOM     50  C   UNL A   1      41.468  31.926  30.984  1.00  0.00     0.031 C 
ATOM     51  C   UNL A   1      40.353  25.728  28.160  1.00  0.00     0.029 A 
ATOM     52  C   UNL A   1      41.694  25.956  28.688  1.00  0.00     0.049 A 
ATOM     53  H   UNL A   1      42.405  27.671  29.635  1.00  0.00     0.167 HD
ATOM     54  C   UNL A   1      43.788  31.323  31.598  1.00  0.00     0.031 A 
ATOM     55  C   UNL A   1      42.708  25.070  28.644  1.00  0.00     0.031 A 
ATOM     56  C   UNL A   1      44.907  30.419  31.653  1.00  0.00     0.049 A 
ATOM     57  C   UNL A   1      44.038  25.444  29.241  1.00  0.00     0.074 A 
ATOM     58  C   UNL A   1      46.147  30.621  32.234  1.00  0.00     0.029 A 
ATOM     59  N   UNL A   1      44.924  29.144  31.109  1.00  0.00    -0.354 N 
ATOM     60  N   UNL A   1      44.388  26.557  29.843  1.00  0.00    -0.248 NA
ATOM     61  C   UNL A   1      45.106  24.439  29.162  1.00  0.00     0.031 C 
ATOM     62  C   UNL A   1      46.934  29.492  31.988  1.00  0.00     0.029 A 
ATOM     63  C   UNL A   1      46.161  28.557  31.317  1.00  0.00     0.049 A 
ATOM     64  H   UNL A   1      44.170  28.719  30.642  1.00  0.00     0.167 HD
ATOM     65  C   UNL A   1      45.707  26.371  30.243  1.00  0.00     0.074 A 
ATOM     66  C   UNL A   1      46.086  25.035  29.829  1.00  0.00     0.031 C 
ATOM     67  C   UNL A   1      46.529  27.228  30.899  1.00  0.00     0.031 A 
BRANCH  54  68
ATOM     68  C   UNL A   1      43.949  32.697  32.198  1.00  0.00    -0.014 A 
ATOM     69  C   UNL A   1      44.505  33.756  31.455  1.00  0.00     0.010 A 
ATOM     70  C   UNL A   1      43.495  32.950  33.506  1.00  0.00     0.010 A 
ATOM     71  C   UNL A   1      44.640  35.025  32.020  1.00  0.00     0.020 A 
ATOM     72  C   UNL A   1      43.598  34.228  34.063  1.00  0.00     0.020 A 
ATOM     73  C   UNL A   1      44.186  35.254  33.322  1.00  0.00     0.054 A 
BRANCH  73  74
ATOM     74  S   UNL A   1      44.348  36.922  34.017  1.00  0.00     0.124 S 
ATOM     75  O   UNL A   1      44.684  36.636  35.410  1.00  0.00    -0.237 OA
ATOM     76  O   UNL A   1      45.425  37.497  33.217  1.00  0.00    -0.237 OA
ATOM     77  O   UNL A   1      43.031  37.517  33.805  1.00  0.00    -0.744 OA
ENDBRANCH  73  74
ENDBRANCH  54  68
BRANCH  55  78
ATOM     78  C   UNL A   1      42.500  23.731  28.026  1.00  0.00    -0.014 A 
ATOM     79  C   UNL A   1      42.991  23.454  26.737  1.00  0.00     0.010 A 
ATOM     80  C   UNL A   1      41.817  22.719  28.726  1.00  0.00     0.010 A 
ATOM     81  C   UNL A   1      42.788  22.200  26.154  1.00  0.00     0.020 A 
ATOM     82  C   UNL A   1      41.641  21.453  28.159  1.00  0.00     0.020 A 
ATOM     83  C   UNL A   1      42.118  21.206  26.872  1.00  0.00     0.054 A 
BRANCH  83  84
ATOM     84  S   UNL A   1      41.915  19.570  26.113  1.00  0.00     0.124 S 
ATOM     85  O   UNL A   1      40.471  19.506  25.910  1.00  0.00    -0.237 OA
ATOM     86  O   UNL A   1      42.721  19.684  24.900  1.00  0.00    -0.237 OA
ATOM     87  O   UNL A   1      42.446  18.657  27.123  1.00  0.00    -0.744 OA
ENDBRANCH  83  84
ENDBRANCH  55  78
BRANCH  67  88
ATOM     88  C   UNL A   1      47.910  26.738  31.248  1.00  0.00    -0.014 A 
ATOM     89  C   UNL A   1      48.155  26.012  32.427  1.00  0.00     0.010 A 
ATOM     90  C   UNL A   1      48.970  26.962  30.349  1.00  0.00     0.010 A 
ATOM     91  C   UNL A   1      49.442  25.551  32.718  1.00  0.00     0.020 A 
ATOM     92  C   UNL A   1      50.251  26.473  30.620  1.00  0.00     0.020 A 
ATOM     93  C   UNL A   1      50.481  25.782  31.810  1.00  0.00     0.054 A 
BRANCH  93  94
ATOM     94  S   UNL A   1      52.132  25.133  32.192  1.00  0.00     0.124 S 
ATOM     95  O   UNL A   1      51.892  23.693  32.228  1.00  0.00    -0.237 OA
ATOM     96  O   UNL A   1      52.930  25.608  31.065  1.00  0.00    -0.237 OA
ATOM     97  O   UNL A   1      52.456  25.742  33.479  1.00  0.00    -0.744 OA
ENDBRANCH  93  94
ENDBRANCH  67  88
ENDBRANCH  41  42
ENDBRANCH  33  36
ENDBRANCH  31  32
ENDBRANCH   1  31
TORSDOF 15
ENDMDL
MODEL 3
REMARK VINA RESULT:     -11.6      2.671      9.157
REMARK SMILES Cn1c(C[NH+]2CCC3(CC2)NC(=O)C[C@@H]3C(=O)NCCCNC(=O)c2ccc(-c3c4nc(c(-c5ccc(S(=O)(=O)[O-])cc5)c5ccc([nH]5)c(-c5ccc(S(=O)(=O)[O-])cc5)c5nc(c(-c6ccc(S(=O)(=O)[O-])cc6)c6ccc3[nH]6)C=C5)C=C4)cc2)nc2ccccc21
REMARK SMILES IDX 20 1 19 2 18 3 16 4 17 5 15 7 5 8 6 9 10 10 7 12 9 13 8 14
REMARK SMILES IDX 11 15 12 16 14 18 13 19 4 20 3 21 1 22 2 23 91 24 85 25
REMARK SMILES IDX 86 26 90 27 87 28 89 29 88 30 21 31 22 32 23 33 24 35 25 36
REMARK SMILES IDX 26 37 84 38 27 39 83 40 28 41 29 42 30 43 77 44 31 45 82 46
REMARK SMILES IDX 76 47 78 48 32 49 81 50 75 51 74 52 33 54 63 55 44 56 62 57
REMARK SMILES IDX 45 58 48 59 61 60 79 61 46 62 47 63 60 65 80 66 49 67 34 68
REMARK SMILES IDX 35 69 43 70 36 71 42 72 37 73 38 74 39 75 40 76 41 77 64 78
REMARK SMILES IDX 65 79 73 80 66 81 72 82 67 83 68 84 69 85 70 86 71 87 50 88
REMARK SMILES IDX 51 89 59 90 52 91 58 92 53 93 54 94 55 95 56 96 57 97
REMARK H PARENT 18 6 5 11 11 17 22 34 78 53 48 64
REMARK Flexibility Score: inf
ROOT
ATOM      1  C   UNL A   1      35.011  23.296  26.478  1.00  0.00     0.042 C 
ENDROOT
BRANCH   1   2
ATOM      2  C   UNL A   1      34.297  22.027  26.001  1.00  0.00     0.117 C 
BRANCH   2   3
ATOM      3  N   UNL A   1      34.091  21.957  24.561  1.00  0.00    -0.356 N 
ATOM      4  C   UNL A   1      33.077  22.390  23.766  1.00  0.00     0.226 C 
ATOM      5  O   UNL A   1      33.282  22.379  22.550  1.00  0.00    -0.275 OA
ATOM      6  H   UNL A   1      34.822  21.514  24.072  1.00  0.00     0.163 HD
BRANCH   4   7
ATOM      7  C   UNL A   1      31.749  22.835  24.348  1.00  0.00     0.114 C 
ATOM      8  N   UNL A   1      32.932  26.272  22.660  1.00  0.00    -0.328 N 
ATOM      9  C   UNL A   1      33.708  25.601  23.693  1.00  0.00     0.265 C 
ATOM     10  C   UNL A   1      31.702  25.577  22.313  1.00  0.00     0.265 C 
ATOM     11  H   UNL A   1      33.538  26.185  21.845  1.00  0.00     0.348 HD
ATOM     12  C   UNL A   1      32.909  25.124  24.909  1.00  0.00     0.091 C 
ATOM     13  C   UNL A   1      30.828  25.053  23.440  1.00  0.00     0.091 C 
ATOM     14  C   UNL A   1      31.602  24.370  24.575  1.00  0.00     0.063 C 
ATOM     15  N   UNL A   1      30.751  24.405  25.762  1.00  0.00    -0.349 N 
ATOM     16  C   UNL A   1      30.700  23.231  26.465  1.00  0.00     0.221 C 
ATOM     17  H   UNL A   1      30.253  25.209  26.034  1.00  0.00     0.164 HD
ATOM     18  C   UNL A   1      31.553  22.225  25.752  1.00  0.00     0.116 C 
ATOM     19  O   UNL A   1      30.090  23.057  27.502  1.00  0.00    -0.275 OA
BRANCH   8  20
ATOM     20  C   UNL A   1      32.813  27.736  22.748  1.00  0.00     0.339 C 
BRANCH  20  21
ATOM     21  C   UNL A   1      32.855  28.272  24.144  1.00  0.00     0.165 A 
ATOM     22  C   UNL A   1      30.610  29.443  24.188  1.00  0.00     0.152 C 
ATOM     23  N   UNL A   1      31.912  29.104  24.709  1.00  0.00    -0.326 N 
ATOM     24  C   UNL A   1      32.507  29.735  25.781  1.00  0.00     0.068 A 
ATOM     25  N   UNL A   1      33.883  28.130  24.961  1.00  0.00    -0.227 NA
ATOM     26  C   UNL A   1      33.741  29.109  25.900  1.00  0.00     0.089 A 
ATOM     27  C   UNL A   1      32.126  30.805  26.596  1.00  0.00     0.028 A 
ATOM     28  C   UNL A   1      34.675  29.572  26.837  1.00  0.00     0.030 A 
ATOM     29  C   UNL A   1      33.080  31.274  27.509  1.00  0.00     0.002 A 
ATOM     30  C   UNL A   1      34.338  30.678  27.621  1.00  0.00     0.002 A 
ENDBRANCH  20  21
ENDBRANCH   8  20
ENDBRANCH   4   7
ENDBRANCH   2   3
ENDBRANCH   1   2
BRANCH   1  31
ATOM     31  C   UNL A   1      36.260  23.680  25.702  1.00  0.00     0.118 C 
BRANCH  31  32
ATOM     32  N   UNL A   1      37.295  22.674  25.827  1.00  0.00    -0.352 N 
ATOM     33  C   UNL A   1      38.613  22.833  26.181  1.00  0.00     0.251 C 
ATOM     34  H   UNL A   1      37.015  21.750  25.631  1.00  0.00     0.163 HD
ATOM     35  O   UNL A   1      39.409  21.930  25.940  1.00  0.00    -0.269 OA
BRANCH  33  36
ATOM     36  C   UNL A   1      39.080  24.086  26.827  1.00  0.00     0.039 A 
ATOM     37  C   UNL A   1      38.740  24.324  28.161  1.00  0.00     0.014 A 
ATOM     38  C   UNL A   1      39.809  25.045  26.119  1.00  0.00     0.014 A 
ATOM     39  C   UNL A   1      39.169  25.496  28.793  1.00  0.00     0.010 A 
ATOM     40  C   UNL A   1      40.319  26.165  26.776  1.00  0.00     0.010 A 
ATOM     41  C   UNL A   1      39.989  26.416  28.115  1.00  0.00    -0.014 A 
BRANCH  41  42
ATOM     42  C   UNL A   1      40.483  27.650  28.785  1.00  0.00     0.031 A 
ATOM     43  C   UNL A   1      41.887  27.707  29.332  1.00  0.00     0.074 A 
ATOM     44  C   UNL A   1      39.662  28.708  28.935  1.00  0.00     0.049 A 
ATOM     45  N   UNL A   1      42.482  28.679  29.977  1.00  0.00    -0.248 NA
ATOM     46  C   UNL A   1      42.726  26.511  29.151  1.00  0.00     0.031 C 
ATOM     47  C   UNL A   1      38.271  28.774  28.476  1.00  0.00     0.029 A 
ATOM     48  N   UNL A   1      39.876  29.935  29.514  1.00  0.00    -0.354 N 
ATOM     49  C   UNL A   1      43.754  28.209  30.285  1.00  0.00     0.074 A 
ATOM     50  C   UNL A   1      43.825  26.845  29.811  1.00  0.00     0.031 C 
ATOM     51  C   UNL A   1      37.773  29.989  28.754  1.00  0.00     0.029 A 
ATOM     52  C   UNL A   1      38.785  30.772  29.455  1.00  0.00     0.049 A 
ATOM     53  H   UNL A   1      40.729  30.191  29.932  1.00  0.00     0.167 HD
ATOM     54  C   UNL A   1      44.781  28.859  30.885  1.00  0.00     0.031 A 
ATOM     55  C   UNL A   1      38.615  32.027  29.916  1.00  0.00     0.031 A 
ATOM     56  C   UNL A   1      44.711  30.218  31.354  1.00  0.00     0.049 A 
ATOM     57  C   UNL A   1      39.758  32.715  30.613  1.00  0.00     0.074 A 
ATOM     58  C   UNL A   1      45.709  30.977  31.941  1.00  0.00     0.029 A 
ATOM     59  N   UNL A   1      43.584  31.023  31.289  1.00  0.00    -0.354 N 
ATOM     60  N   UNL A   1      40.968  32.268  30.851  1.00  0.00    -0.248 NA
ATOM     61  C   UNL A   1      39.513  34.081  31.096  1.00  0.00     0.031 C 
ATOM     62  C   UNL A   1      45.168  32.219  32.286  1.00  0.00     0.029 A 
ATOM     63  C   UNL A   1      43.854  32.261  31.849  1.00  0.00     0.049 A 
ATOM     64  H   UNL A   1      42.719  30.754  30.903  1.00  0.00     0.167 HD
ATOM     65  C   UNL A   1      41.640  33.311  31.481  1.00  0.00     0.074 A 
ATOM     66  C   UNL A   1      40.705  34.414  31.573  1.00  0.00     0.031 C 
ATOM     67  C   UNL A   1      42.916  33.352  31.938  1.00  0.00     0.031 A 
BRANCH  54  68
ATOM     68  C   UNL A   1      46.072  28.103  31.074  1.00  0.00    -0.014 A 
ATOM     69  C   UNL A   1      47.103  28.173  30.117  1.00  0.00     0.010 A 
ATOM     70  C   UNL A   1      46.282  27.351  32.245  1.00  0.00     0.010 A 
ATOM     71  C   UNL A   1      48.297  27.476  30.309  1.00  0.00     0.020 A 
ATOM     72  C   UNL A   1      47.490  26.679  32.456  1.00  0.00     0.020 A 
ATOM     73  C   UNL A   1      48.484  26.733  31.478  1.00  0.00     0.054 A 
BRANCH  73  74
ATOM     74  S   UNL A   1      50.058  25.862  31.711  1.00  0.00     0.124 S 
ATOM     75  O   UNL A   1      50.957  26.958  32.067  1.00  0.00    -0.237 OA
ATOM     76  O   UNL A   1      49.749  24.927  32.788  1.00  0.00    -0.237 OA
ATOM     77  O   UNL A   1      50.312  25.249  30.410  1.00  0.00    -0.744 OA
ENDBRANCH  73  74
ENDBRANCH  54  68
BRANCH  55  78
ATOM     78  C   UNL A   1      37.314  32.724  29.716  1.00  0.00    -0.014 A 
ATOM     79  C   UNL A   1      36.353  32.752  30.743  1.00  0.00     0.010 A 
ATOM     80  C   UNL A   1      37.030  33.373  28.500  1.00  0.00     0.010 A 
ATOM     81  C   UNL A   1      35.128  33.398  30.551  1.00  0.00     0.020 A 
ATOM     82  C   UNL A   1      35.820  34.048  28.317  1.00  0.00     0.020 A 
ATOM     83  C   UNL A   1      34.872  34.047  29.341  1.00  0.00     0.054 A 
BRANCH  83  84
ATOM     84  S   UNL A   1      33.296  34.924  29.137  1.00  0.00     0.124 S 
ATOM     85  O   UNL A   1      32.620  34.107  28.135  1.00  0.00    -0.237 OA
ATOM     86  O   UNL A   1      32.732  34.870  30.484  1.00  0.00    -0.237 OA
ATOM     87  O   UNL A   1      33.702  36.256  28.691  1.00  0.00    -0.744 OA
ENDBRANCH  83  84
ENDBRANCH  55  78
BRANCH  67  88
ATOM     88  C   UNL A   1      43.397  34.644  32.545  1.00  0.00    -0.014 A 
ATOM     89  C   UNL A   1      43.958  35.663  31.753  1.00  0.00     0.010 A 
ATOM     90  C   UNL A   1      43.232  34.862  33.925  1.00  0.00     0.010 A 
ATOM     91  C   UNL A   1      44.377  36.861  32.338  1.00  0.00     0.020 A 
ATOM     92  C   UNL A   1      43.619  36.073  34.508  1.00  0.00     0.020 A 
ATOM     93  C   UNL A   1      44.202  37.059  33.711  1.00  0.00     0.054 A 
BRANCH  93  94
ATOM     94  S   UNL A   1      44.714  38.641  34.436  1.00  0.00     0.124 S 
ATOM     95  O   UNL A   1      46.076  38.782  33.928  1.00  0.00    -0.237 OA
ATOM     96  O   UNL A   1      43.738  39.576  33.884  1.00  0.00    -0.237 OA
ATOM     97  O   UNL A   1      44.608  38.414  35.876  1.00  0.00    -0.744 OA
ENDBRANCH  93  94
ENDBRANCH  67  88
ENDBRANCH  41  42
ENDBRANCH  33  36
ENDBRANCH  31  32
ENDBRANCH   1  31
TORSDOF 15
ENDMDL
