MODEL 1
REMARK VINA RESULT:     -10.4      0.000      0.000
REMARK SMILES O=C(CSc1nc2cnccc2n1CCC1CC1)NCCCNC(=O)c1ccc(-c2c3nc(c(-c4ccc(S(=O)(=O)[O-])cc4)c4ccc([nH]4)c(-c4ccc(S(=O)(=O)[O-])cc4)c4nc(c(-c5ccc(S(=O)(=O)[O-])cc5)c5ccc2[nH]5)C=C4)C=C3)cc1
REMARK SMILES IDX 20 1 19 2 1 3 2 4 3 6 4 7 5 8 6 9 13 10 7 11 12 12 8 13
REMARK SMILES IDX 11 14 9 15 10 16 14 17 15 18 16 19 17 20 18 21 21 22 22 23
REMARK SMILES IDX 23 24 24 25 25 27 26 28 27 29 85 30 28 31 84 32 29 33 30 34
REMARK SMILES IDX 31 35 78 36 32 37 83 38 77 39 79 40 33 41 82 42 76 43 75 44
REMARK SMILES IDX 34 46 64 47 45 48 63 49 46 50 49 51 62 52 80 53 47 54 48 55
REMARK SMILES IDX 61 57 81 58 50 59 35 60 36 61 44 62 37 63 43 64 38 65 39 66
REMARK SMILES IDX 40 67 41 68 42 69 65 70 66 71 74 72 67 73 73 74 68 75 69 76
REMARK SMILES IDX 70 77 71 78 72 79 51 80 52 81 60 82 53 83 59 84 54 85 55 86
REMARK SMILES IDX 56 87 57 88 58 89
REMARK H PARENT 19 5 23 26 79 45 49 56
REMARK Flexibility Score: inf
ROOT
ATOM      1  C   UNL A   1      43.203  18.926  25.647  1.00  0.00     0.117 C 
ENDROOT
BRANCH   1   2
ATOM      2  N   UNL A   1      44.242  19.955  25.784  1.00  0.00    -0.355 N 
ATOM      3  O   UNL A   1      44.582  20.127  23.520  1.00  0.00    -0.274 OA
ATOM      4  C   UNL A   1      44.824  20.539  24.652  1.00  0.00     0.230 C 
ATOM      5  H   UNL A   1      44.533  20.239  26.681  1.00  0.00     0.163 HD
BRANCH   4   6
ATOM      6  C   UNL A   1      45.782  21.708  24.896  1.00  0.00     0.178 C 
BRANCH   6   7
ATOM      7  S   UNL A   1      45.285  22.988  26.101  1.00  0.00    -0.078 SA
BRANCH   7   8
ATOM      8  C   UNL A   1      46.146  24.468  25.782  1.00  0.00     0.169 A 
ATOM      9  N   UNL A   1      46.773  24.696  24.646  1.00  0.00    -0.221 NA
ATOM     10  N   UNL A   1      46.521  25.392  26.753  1.00  0.00    -0.319 N 
ATOM     11  C   UNL A   1      47.504  25.848  24.846  1.00  0.00     0.108 A 
ATOM     12  C   UNL A   1      47.274  26.366  26.114  1.00  0.00     0.072 A 
ATOM     13  C   UNL A   1      48.425  26.503  24.020  1.00  0.00     0.141 A 
ATOM     14  C   UNL A   1      47.846  27.566  26.550  1.00  0.00     0.049 A 
ATOM     15  N   UNL A   1      49.042  27.644  24.437  1.00  0.00    -0.262 NA
ATOM     16  C   UNL A   1      48.722  28.152  25.649  1.00  0.00     0.113 A 
BRANCH  10  17
ATOM     17  C   UNL A   1      46.535  25.270  28.211  1.00  0.00     0.125 C 
BRANCH  17  18
ATOM     18  C   UNL A   1      45.179  25.134  28.913  1.00  0.00     0.025 C 
BRANCH  18  19
ATOM     19  C   UNL A   1      45.062  23.992  29.871  1.00  0.00    -0.009 C 
ATOM     20  C   UNL A   1      44.504  24.452  31.160  1.00  0.00     0.004 C 
ATOM     21  C   UNL A   1      43.818  23.337  30.440  1.00  0.00     0.004 C 
ENDBRANCH  18  19
ENDBRANCH  17  18
ENDBRANCH  10  17
ENDBRANCH   7   8
ENDBRANCH   6   7
ENDBRANCH   4   6
ENDBRANCH   1   2
BRANCH   1  22
ATOM     22  C   UNL A   1      41.778  19.307  26.108  1.00  0.00     0.042 C 
BRANCH  22  23
ATOM     23  C   UNL A   1      41.602  20.379  27.198  1.00  0.00     0.118 C 
BRANCH  23  24
ATOM     24  N   UNL A   1      40.293  21.017  27.247  1.00  0.00    -0.352 N 
ATOM     25  C   UNL A   1      39.832  22.068  26.505  1.00  0.00     0.251 C 
ATOM     26  H   UNL A   1      39.658  20.642  27.900  1.00  0.00     0.163 HD
ATOM     27  O   UNL A   1      38.819  21.912  25.826  1.00  0.00    -0.269 OA
BRANCH  25  28
ATOM     28  C   UNL A   1      40.337  23.417  26.806  1.00  0.00     0.039 A 
ATOM     29  C   UNL A   1      41.584  23.638  27.389  1.00  0.00     0.014 A 
ATOM     30  C   UNL A   1      39.409  24.463  26.676  1.00  0.00     0.014 A 
ATOM     31  C   UNL A   1      41.851  24.864  27.966  1.00  0.00     0.010 A 
ATOM     32  C   UNL A   1      39.677  25.691  27.249  1.00  0.00     0.010 A 
ATOM     33  C   UNL A   1      40.870  25.858  27.951  1.00  0.00    -0.014 A 
BRANCH  33  34
ATOM     34  C   UNL A   1      41.171  27.112  28.623  1.00  0.00     0.031 A 
ATOM     35  C   UNL A   1      42.449  27.740  28.189  1.00  0.00     0.074 A 
ATOM     36  C   UNL A   1      40.304  27.691  29.476  1.00  0.00     0.049 A 
ATOM     37  N   UNL A   1      43.475  28.054  28.909  1.00  0.00    -0.248 NA
ATOM     38  C   UNL A   1      42.660  27.908  26.740  1.00  0.00     0.031 C 
ATOM     39  C   UNL A   1      38.924  27.288  29.767  1.00  0.00     0.029 A 
ATOM     40  N   UNL A   1      40.431  28.854  30.170  1.00  0.00    -0.354 N 
ATOM     41  C   UNL A   1      44.389  28.638  28.036  1.00  0.00     0.074 A 
ATOM     42  C   UNL A   1      43.908  28.369  26.705  1.00  0.00     0.031 C 
ATOM     43  C   UNL A   1      38.272  28.321  30.345  1.00  0.00     0.029 A 
ATOM     44  C   UNL A   1      39.219  29.396  30.591  1.00  0.00     0.049 A 
ATOM     45  H   UNL A   1      41.300  29.275  30.359  1.00  0.00     0.167 HD
ATOM     46  C   UNL A   1      45.362  29.488  28.466  1.00  0.00     0.031 A 
ATOM     47  C   UNL A   1      39.003  30.669  31.015  1.00  0.00     0.031 A 
ATOM     48  C   UNL A   1      45.605  29.346  29.876  1.00  0.00     0.049 A 
ATOM     49  C   UNL A   1      40.320  31.231  31.401  1.00  0.00     0.074 A 
ATOM     50  C   UNL A   1      46.046  28.309  30.674  1.00  0.00     0.029 A 
ATOM     51  N   UNL A   1      45.015  30.256  30.721  1.00  0.00    -0.354 N 
ATOM     52  N   UNL A   1      41.017  30.799  32.414  1.00  0.00    -0.248 NA
ATOM     53  C   UNL A   1      41.071  31.961  30.390  1.00  0.00     0.031 C 
ATOM     54  C   UNL A   1      45.273  28.415  31.864  1.00  0.00     0.029 A 
ATOM     55  C   UNL A   1      44.469  29.552  31.763  1.00  0.00     0.049 A 
ATOM     56  H   UNL A   1      44.991  31.233  30.600  1.00  0.00     0.167 HD
ATOM     57  C   UNL A   1      42.330  30.808  31.967  1.00  0.00     0.074 A 
ATOM     58  C   UNL A   1      42.311  31.619  30.750  1.00  0.00     0.031 C 
ATOM     59  C   UNL A   1      43.254  29.930  32.457  1.00  0.00     0.031 A 
BRANCH  46  60
ATOM     60  C   UNL A   1      45.833  30.681  27.671  1.00  0.00    -0.014 A 
ATOM     61  C   UNL A   1      44.954  31.655  27.153  1.00  0.00     0.010 A 
ATOM     62  C   UNL A   1      47.208  30.991  27.645  1.00  0.00     0.010 A 
ATOM     63  C   UNL A   1      45.408  32.869  26.638  1.00  0.00     0.020 A 
ATOM     64  C   UNL A   1      47.673  32.228  27.171  1.00  0.00     0.020 A 
ATOM     65  C   UNL A   1      46.765  33.157  26.667  1.00  0.00     0.054 A 
BRANCH  65  66
ATOM     66  S   UNL A   1      47.294  34.794  26.110  1.00  0.00     0.124 S 
ATOM     67  O   UNL A   1      48.169  34.459  24.989  1.00  0.00    -0.237 OA
ATOM     68  O   UNL A   1      46.027  35.426  25.753  1.00  0.00    -0.237 OA
ATOM     69  O   UNL A   1      47.963  35.354  27.281  1.00  0.00    -0.744 OA
ENDBRANCH  65  66
ENDBRANCH  46  60
BRANCH  47  70
ATOM     70  C   UNL A   1      37.841  31.539  30.687  1.00  0.00    -0.014 A 
ATOM     71  C   UNL A   1      36.528  31.049  30.849  1.00  0.00     0.010 A 
ATOM     72  C   UNL A   1      38.011  32.714  29.927  1.00  0.00     0.010 A 
ATOM     73  C   UNL A   1      35.441  31.652  30.210  1.00  0.00     0.020 A 
ATOM     74  C   UNL A   1      36.921  33.324  29.279  1.00  0.00     0.020 A 
ATOM     75  C   UNL A   1      35.648  32.761  29.394  1.00  0.00     0.054 A 
BRANCH  75  76
ATOM     76  S   UNL A   1      34.251  33.382  28.413  1.00  0.00     0.124 S 
ATOM     77  O   UNL A   1      33.433  34.038  29.436  1.00  0.00    -0.237 OA
ATOM     78  O   UNL A   1      34.910  34.291  27.470  1.00  0.00    -0.237 OA
ATOM     79  O   UNL A   1      33.676  32.187  27.822  1.00  0.00    -0.744 OA
ENDBRANCH  75  76
ENDBRANCH  47  70
BRANCH  59  80
ATOM     80  C   UNL A   1      42.900  29.081  33.663  1.00  0.00    -0.014 A 
ATOM     81  C   UNL A   1      43.463  29.447  34.898  1.00  0.00     0.010 A 
ATOM     82  C   UNL A   1      42.237  27.838  33.573  1.00  0.00     0.010 A 
ATOM     83  C   UNL A   1      43.418  28.586  35.996  1.00  0.00     0.020 A 
ATOM     84  C   UNL A   1      42.163  26.979  34.681  1.00  0.00     0.020 A 
ATOM     85  C   UNL A   1      42.780  27.349  35.879  1.00  0.00     0.054 A 
BRANCH  85  86
ATOM     86  S   UNL A   1      42.813  26.235  37.309  1.00  0.00     0.124 S 
ATOM     87  O   UNL A   1      43.751  26.909  38.204  1.00  0.00    -0.237 OA
ATOM     88  O   UNL A   1      41.421  26.237  37.751  1.00  0.00    -0.237 OA
ATOM     89  O   UNL A   1      43.285  24.965  36.760  1.00  0.00    -0.744 OA
ENDBRANCH  85  86
ENDBRANCH  59  80
ENDBRANCH  33  34
ENDBRANCH  25  28
ENDBRANCH  23  24
ENDBRANCH  22  23
ENDBRANCH   1  22
TORSDOF 18
ENDMDL
MODEL 2
REMARK VINA RESULT:     -10.3      4.177      7.691
REMARK SMILES O=C(CSc1nc2cnccc2n1CCC1CC1)NCCCNC(=O)c1ccc(-c2c3nc(c(-c4ccc(S(=O)(=O)[O-])cc4)c4ccc([nH]4)c(-c4ccc(S(=O)(=O)[O-])cc4)c4nc(c(-c5ccc(S(=O)(=O)[O-])cc5)c5ccc2[nH]5)C=C4)C=C3)cc1
REMARK SMILES IDX 20 1 19 2 1 3 2 4 3 6 4 7 5 8 6 9 13 10 7 11 12 12 8 13
REMARK SMILES IDX 11 14 9 15 10 16 14 17 15 18 16 19 17 20 18 21 21 22 22 23
REMARK SMILES IDX 23 24 24 25 25 27 26 28 27 29 85 30 28 31 84 32 29 33 30 34
REMARK SMILES IDX 31 35 78 36 32 37 83 38 77 39 79 40 33 41 82 42 76 43 75 44
REMARK SMILES IDX 34 46 64 47 45 48 63 49 46 50 49 51 62 52 80 53 47 54 48 55
REMARK SMILES IDX 61 57 81 58 50 59 35 60 36 61 44 62 37 63 43 64 38 65 39 66
REMARK SMILES IDX 40 67 41 68 42 69 65 70 66 71 74 72 67 73 73 74 68 75 69 76
REMARK SMILES IDX 70 77 71 78 72 79 51 80 52 81 60 82 53 83 59 84 54 85 55 86
REMARK SMILES IDX 56 87 57 88 58 89
REMARK H PARENT 19 5 23 26 79 45 49 56
REMARK Flexibility Score: inf
ROOT
ATOM      1  C   UNL A   1      34.727  22.418  24.410  1.00  0.00     0.117 C 
ENDROOT
BRANCH   1   2
ATOM      2  N   UNL A   1      34.541  23.505  23.440  1.00  0.00    -0.355 N 
ATOM      3  O   UNL A   1      32.354  22.952  23.015  1.00  0.00    -0.274 OA
ATOM      4  C   UNL A   1      33.292  23.727  22.846  1.00  0.00     0.230 C 
ATOM      5  H   UNL A   1      35.301  24.085  23.204  1.00  0.00     0.163 HD
BRANCH   4   6
ATOM      6  C   UNL A   1      33.159  24.974  21.970  1.00  0.00     0.178 C 
BRANCH   6   7
ATOM      7  S   UNL A   1      31.753  26.098  22.284  1.00  0.00    -0.078 SA
BRANCH   7   8
ATOM      8  C   UNL A   1      32.193  27.274  23.491  1.00  0.00     0.169 A 
ATOM      9  N   UNL A   1      33.233  27.125  24.284  1.00  0.00    -0.221 NA
ATOM     10  N   UNL A   1      31.358  28.291  23.946  1.00  0.00    -0.319 N 
ATOM     11  C   UNL A   1      33.130  28.124  25.229  1.00  0.00     0.108 A 
ATOM     12  C   UNL A   1      32.033  28.937  24.972  1.00  0.00     0.072 A 
ATOM     13  C   UNL A   1      33.900  28.392  26.366  1.00  0.00     0.141 A 
ATOM     14  C   UNL A   1      31.736  30.064  25.745  1.00  0.00     0.049 A 
ATOM     15  N   UNL A   1      33.605  29.450  27.172  1.00  0.00    -0.262 NA
ATOM     16  C   UNL A   1      32.574  30.258  26.834  1.00  0.00     0.113 A 
BRANCH  10  17
ATOM     17  C   UNL A   1      29.920  28.483  23.758  1.00  0.00     0.125 C 
BRANCH  17  18
ATOM     18  C   UNL A   1      29.485  29.585  22.786  1.00  0.00     0.025 C 
BRANCH  18  19
ATOM     19  C   UNL A   1      29.007  30.852  23.420  1.00  0.00    -0.009 C 
ATOM     20  C   UNL A   1      28.472  31.774  22.397  1.00  0.00     0.004 C 
ATOM     21  C   UNL A   1      27.596  31.393  23.545  1.00  0.00     0.004 C 
ENDBRANCH  18  19
ENDBRANCH  17  18
ENDBRANCH  10  17
ENDBRANCH   7   8
ENDBRANCH   6   7
ENDBRANCH   4   6
ENDBRANCH   1   2
BRANCH   1  22
ATOM     22  C   UNL A   1      36.182  21.992  24.710  1.00  0.00     0.042 C 
BRANCH  22  23
ATOM     23  C   UNL A   1      37.175  23.035  25.253  1.00  0.00     0.118 C 
BRANCH  23  24
ATOM     24  N   UNL A   1      38.546  22.573  25.417  1.00  0.00    -0.352 N 
ATOM     25  C   UNL A   1      39.327  22.609  26.539  1.00  0.00     0.251 C 
ATOM     26  H   UNL A   1      38.966  22.184  24.616  1.00  0.00     0.163 HD
ATOM     27  O   UNL A   1      39.790  21.555  26.970  1.00  0.00    -0.269 OA
BRANCH  25  28
ATOM     28  C   UNL A   1      39.867  23.905  26.977  1.00  0.00     0.039 A 
ATOM     29  C   UNL A   1      41.093  24.025  27.630  1.00  0.00     0.014 A 
ATOM     30  C   UNL A   1      38.985  24.996  26.900  1.00  0.00     0.014 A 
ATOM     31  C   UNL A   1      41.379  25.185  28.322  1.00  0.00     0.010 A 
ATOM     32  C   UNL A   1      39.273  26.159  27.589  1.00  0.00     0.010 A 
ATOM     33  C   UNL A   1      40.438  26.216  28.352  1.00  0.00    -0.014 A 
BRANCH  33  34
ATOM     34  C   UNL A   1      40.755  27.394  29.144  1.00  0.00     0.031 A 
ATOM     35  C   UNL A   1      41.862  28.218  28.586  1.00  0.00     0.074 A 
ATOM     36  C   UNL A   1      40.025  27.749  30.218  1.00  0.00     0.049 A 
ATOM     37  N   UNL A   1      42.978  28.549  29.147  1.00  0.00    -0.248 NA
ATOM     38  C   UNL A   1      41.768  28.602  27.166  1.00  0.00     0.031 C 
ATOM     39  C   UNL A   1      38.770  27.154  30.690  1.00  0.00     0.029 A 
ATOM     40  N   UNL A   1      40.184  28.815  31.049  1.00  0.00    -0.354 N 
ATOM     41  C   UNL A   1      43.648  29.346  28.223  1.00  0.00     0.074 A 
ATOM     42  C   UNL A   1      42.940  29.205  26.977  1.00  0.00     0.031 C 
ATOM     43  C   UNL A   1      38.156  28.019  31.530  1.00  0.00     0.029 A 
ATOM     44  C   UNL A   1      39.036  29.153  31.761  1.00  0.00     0.049 A 
ATOM     45  H   UNL A   1      41.033  29.305  31.139  1.00  0.00     0.167 HD
ATOM     46  C   UNL A   1      44.608  30.236  28.594  1.00  0.00     0.031 A 
ATOM     47  C   UNL A   1      38.797  30.324  32.408  1.00  0.00     0.031 A 
ATOM     48  C   UNL A   1      45.136  29.936  29.898  1.00  0.00     0.049 A 
ATOM     49  C   UNL A   1      40.110  30.976  32.630  1.00  0.00     0.074 A 
ATOM     50  C   UNL A   1      45.814  28.859  30.433  1.00  0.00     0.029 A 
ATOM     51  N   UNL A   1      44.646  30.650  30.965  1.00  0.00    -0.354 N 
ATOM     52  N   UNL A   1      41.027  30.495  33.420  1.00  0.00    -0.248 NA
ATOM     53  C   UNL A   1      40.580  31.917  31.624  1.00  0.00     0.031 C 
ATOM     54  C   UNL A   1      45.284  28.714  31.745  1.00  0.00     0.029 A 
ATOM     55  C   UNL A   1      44.379  29.754  31.968  1.00  0.00     0.049 A 
ATOM     56  H   UNL A   1      44.514  31.624  31.003  1.00  0.00     0.167 HD
ATOM     57  C   UNL A   1      42.221  30.716  32.749  1.00  0.00     0.074 A 
ATOM     58  C   UNL A   1      41.892  31.675  31.695  1.00  0.00     0.031 C 
ATOM     59  C   UNL A   1      43.296  29.892  32.922  1.00  0.00     0.031 A 
BRANCH  46  60
ATOM     60  C   UNL A   1      44.807  31.572  27.921  1.00  0.00    -0.014 A 
ATOM     61  C   UNL A   1      43.937  32.666  28.108  1.00  0.00     0.010 A 
ATOM     62  C   UNL A   1      46.031  31.842  27.275  1.00  0.00     0.010 A 
ATOM     63  C   UNL A   1      44.257  33.955  27.684  1.00  0.00     0.020 A 
ATOM     64  C   UNL A   1      46.385  33.142  26.884  1.00  0.00     0.020 A 
ATOM     65  C   UNL A   1      45.489  34.190  27.090  1.00  0.00     0.054 A 
BRANCH  65  66
ATOM     66  S   UNL A   1      45.916  35.897  26.674  1.00  0.00     0.124 S 
ATOM     67  O   UNL A   1      46.733  36.288  27.820  1.00  0.00    -0.237 OA
ATOM     68  O   UNL A   1      46.634  35.741  25.412  1.00  0.00    -0.237 OA
ATOM     69  O   UNL A   1      44.618  36.559  26.575  1.00  0.00    -0.744 OA
ENDBRANCH  65  66
ENDBRANCH  46  60
BRANCH  47  70
ATOM     70  C   UNL A   1      37.521  31.090  32.435  1.00  0.00    -0.014 A 
ATOM     71  C   UNL A   1      36.871  31.417  31.228  1.00  0.00     0.010 A 
ATOM     72  C   UNL A   1      37.113  31.768  33.602  1.00  0.00     0.010 A 
ATOM     73  C   UNL A   1      35.916  32.436  31.165  1.00  0.00     0.020 A 
ATOM     74  C   UNL A   1      36.154  32.796  33.546  1.00  0.00     0.020 A 
ATOM     75  C   UNL A   1      35.593  33.149  32.317  1.00  0.00     0.054 A 
BRANCH  75  76
ATOM     76  S   UNL A   1      34.514  34.602  32.156  1.00  0.00     0.124 S 
ATOM     77  O   UNL A   1      33.311  34.163  32.866  1.00  0.00    -0.237 OA
ATOM     78  O   UNL A   1      35.289  35.644  32.837  1.00  0.00    -0.237 OA
ATOM     79  O   UNL A   1      34.367  34.776  30.722  1.00  0.00    -0.744 OA
ENDBRANCH  75  76
ENDBRANCH  47  70
BRANCH  59  80
ATOM     80  C   UNL A   1      43.262  28.853  34.027  1.00  0.00    -0.014 A 
ATOM     81  C   UNL A   1      42.562  27.661  33.770  1.00  0.00     0.010 A 
ATOM     82  C   UNL A   1      43.686  29.108  35.348  1.00  0.00     0.010 A 
ATOM     83  C   UNL A   1      42.246  26.774  34.800  1.00  0.00     0.020 A 
ATOM     84  C   UNL A   1      43.398  28.205  36.384  1.00  0.00     0.020 A 
ATOM     85  C   UNL A   1      42.652  27.056  36.106  1.00  0.00     0.054 A 
BRANCH  85  86
ATOM     86  S   UNL A   1      42.154  25.911  37.420  1.00  0.00     0.124 S 
ATOM     87  O   UNL A   1      42.463  24.610  36.830  1.00  0.00    -0.237 OA
ATOM     88  O   UNL A   1      43.011  26.308  38.535  1.00  0.00    -0.237 OA
ATOM     89  O   UNL A   1      40.730  26.184  37.608  1.00  0.00    -0.744 OA
ENDBRANCH  85  86
ENDBRANCH  59  80
ENDBRANCH  33  34
ENDBRANCH  25  28
ENDBRANCH  23  24
ENDBRANCH  22  23
ENDBRANCH   1  22
TORSDOF 18
ENDMDL
MODEL 3
REMARK VINA RESULT:     -10.3      4.096     11.193
REMARK SMILES O=C(CSc1nc2cnccc2n1CCC1CC1)NCCCNC(=O)c1ccc(-c2c3nc(c(-c4ccc(S(=O)(=O)[O-])cc4)c4ccc([nH]4)c(-c4ccc(S(=O)(=O)[O-])cc4)c4nc(c(-c5ccc(S(=O)(=O)[O-])cc5)c5ccc2[nH]5)C=C4)C=C3)cc1
REMARK SMILES IDX 20 1 19 2 1 3 2 4 3 6 4 7 5 8 6 9 13 10 7 11 12 12 8 13
REMARK SMILES IDX 11 14 9 15 10 16 14 17 15 18 16 19 17 20 18 21 21 22 22 23
REMARK SMILES IDX 23 24 24 25 25 27 26 28 27 29 85 30 28 31 84 32 29 33 30 34
REMARK SMILES IDX 31 35 78 36 32 37 83 38 77 39 79 40 33 41 82 42 76 43 75 44
REMARK SMILES IDX 34 46 64 47 45 48 63 49 46 50 49 51 62 52 80 53 47 54 48 55
REMARK SMILES IDX 61 57 81 58 50 59 35 60 36 61 44 62 37 63 43 64 38 65 39 66
REMARK SMILES IDX 40 67 41 68 42 69 65 70 66 71 74 72 67 73 73 74 68 75 69 76
REMARK SMILES IDX 70 77 71 78 72 79 51 80 52 81 60 82 53 83 59 84 54 85 55 86
REMARK SMILES IDX 56 87 57 88 58 89
REMARK H PARENT 19 5 23 26 79 45 49 56
REMARK Flexibility Score: inf
ROOT
ATOM      1  C   UNL A   1      31.611  29.383  25.328  1.00  0.00     0.117 C 
ENDROOT
BRANCH   1   2
ATOM      2  N   UNL A   1      31.836  28.365  24.294  1.00  0.00    -0.355 N 
ATOM      3  O   UNL A   1      29.884  28.844  23.186  1.00  0.00    -0.274 OA
ATOM      4  C   UNL A   1      30.941  28.220  23.227  1.00  0.00     0.230 C 
ATOM      5  H   UNL A   1      32.624  27.777  24.351  1.00  0.00     0.163 HD
BRANCH   4   6
ATOM      6  C   UNL A   1      31.341  27.240  22.121  1.00  0.00     0.178 C 
BRANCH   6   7
ATOM      7  S   UNL A   1      32.818  26.199  22.390  1.00  0.00    -0.078 SA
BRANCH   7   8
ATOM      8  C   UNL A   1      32.537  25.103  23.714  1.00  0.00     0.169 A 
ATOM      9  N   UNL A   1      31.460  25.159  24.468  1.00  0.00    -0.221 NA
ATOM     10  N   UNL A   1      33.512  24.296  24.295  1.00  0.00    -0.319 N 
ATOM     11  C   UNL A   1      31.693  24.299  25.520  1.00  0.00     0.108 A 
ATOM     12  C   UNL A   1      32.918  23.660  25.375  1.00  0.00     0.072 A 
ATOM     13  C   UNL A   1      30.938  24.029  26.668  1.00  0.00     0.141 A 
ATOM     14  C   UNL A   1      33.370  22.690  26.275  1.00  0.00     0.049 A 
ATOM     15  N   UNL A   1      31.377  23.130  27.592  1.00  0.00    -0.262 NA
ATOM     16  C   UNL A   1      32.538  22.475  27.364  1.00  0.00     0.113 A 
BRANCH  10  17
ATOM     17  C   UNL A   1      34.968  24.330  24.153  1.00  0.00     0.125 C 
BRANCH  17  18
ATOM     18  C   UNL A   1      35.608  23.261  23.261  1.00  0.00     0.025 C 
BRANCH  18  19
ATOM     19  C   UNL A   1      36.862  22.646  23.792  1.00  0.00    -0.009 C 
ATOM     20  C   UNL A   1      36.848  22.635  25.271  1.00  0.00     0.004 C 
ATOM     21  C   UNL A   1      37.050  21.343  24.547  1.00  0.00     0.004 C 
ENDBRANCH  18  19
ENDBRANCH  17  18
ENDBRANCH  10  17
ENDBRANCH   7   8
ENDBRANCH   6   7
ENDBRANCH   4   6
ENDBRANCH   1   2
BRANCH   1  22
ATOM     22  C   UNL A   1      32.046  29.026  26.767  1.00  0.00     0.042 C 
BRANCH  22  23
ATOM     23  C   UNL A   1      33.519  29.210  27.175  1.00  0.00     0.118 C 
BRANCH  23  24
ATOM     24  N   UNL A   1      33.823  30.439  27.896  1.00  0.00    -0.352 N 
ATOM     25  C   UNL A   1      34.939  31.223  27.803  1.00  0.00     0.251 C 
ATOM     26  H   UNL A   1      33.136  30.744  28.532  1.00  0.00     0.163 HD
ATOM     27  O   UNL A   1      34.805  32.407  27.497  1.00  0.00    -0.269 OA
BRANCH  25  28
ATOM     28  C   UNL A   1      36.192  30.737  28.401  1.00  0.00     0.039 A 
ATOM     29  C   UNL A   1      37.103  31.585  29.029  1.00  0.00     0.014 A 
ATOM     30  C   UNL A   1      36.531  29.404  28.117  1.00  0.00     0.014 A 
ATOM     31  C   UNL A   1      38.394  31.147  29.248  1.00  0.00     0.010 A 
ATOM     32  C   UNL A   1      37.821  28.963  28.340  1.00  0.00     0.010 A 
ATOM     33  C   UNL A   1      38.761  29.863  28.839  1.00  0.00    -0.014 A 
BRANCH  33  34
ATOM     34  C   UNL A   1      40.146  29.465  29.033  1.00  0.00     0.031 A 
ATOM     35  C   UNL A   1      40.507  29.200  30.453  1.00  0.00     0.074 A 
ATOM     36  C   UNL A   1      40.980  29.252  27.997  1.00  0.00     0.049 A 
ATOM     37  N   UNL A   1      41.425  29.762  31.167  1.00  0.00    -0.248 NA
ATOM     38  C   UNL A   1      39.632  28.287  31.212  1.00  0.00     0.031 C 
ATOM     39  C   UNL A   1      40.651  29.233  26.567  1.00  0.00     0.029 A 
ATOM     40  N   UNL A   1      42.286  28.872  28.010  1.00  0.00    -0.354 N 
ATOM     41  C   UNL A   1      41.375  29.140  32.411  1.00  0.00     0.074 A 
ATOM     42  C   UNL A   1      40.158  28.371  32.432  1.00  0.00     0.031 C 
ATOM     43  C   UNL A   1      41.639  28.604  25.892  1.00  0.00     0.029 A 
ATOM     44  C   UNL A   1      42.722  28.307  26.815  1.00  0.00     0.049 A 
ATOM     45  H   UNL A   1      42.870  28.985  28.794  1.00  0.00     0.167 HD
ATOM     46  C   UNL A   1      42.442  29.124  33.258  1.00  0.00     0.031 A 
ATOM     47  C   UNL A   1      43.846  27.565  26.630  1.00  0.00     0.031 A 
ATOM     48  C   UNL A   1      43.392  30.154  32.933  1.00  0.00     0.049 A 
ATOM     49  C   UNL A   1      44.751  27.852  27.769  1.00  0.00     0.074 A 
ATOM     50  C   UNL A   1      43.338  31.532  32.898  1.00  0.00     0.029 A 
ATOM     51  N   UNL A   1      44.498  29.794  32.199  1.00  0.00    -0.354 N 
ATOM     52  N   UNL A   1      45.308  29.012  27.971  1.00  0.00    -0.248 NA
ATOM     53  C   UNL A   1      44.672  26.985  28.936  1.00  0.00     0.031 C 
ATOM     54  C   UNL A   1      44.107  31.896  31.758  1.00  0.00     0.029 A 
ATOM     55  C   UNL A   1      44.655  30.733  31.212  1.00  0.00     0.049 A 
ATOM     56  H   UNL A   1      45.070  29.009  32.354  1.00  0.00     0.167 HD
ATOM     57  C   UNL A   1      45.247  29.199  29.344  1.00  0.00     0.074 A 
ATOM     58  C   UNL A   1      44.930  27.880  29.892  1.00  0.00     0.031 C 
ATOM     59  C   UNL A   1      45.174  30.449  29.888  1.00  0.00     0.031 A 
BRANCH  46  60
ATOM     60  C   UNL A   1      42.777  27.954  34.149  1.00  0.00    -0.014 A 
ATOM     61  C   UNL A   1      43.151  26.688  33.649  1.00  0.00     0.010 A 
ATOM     62  C   UNL A   1      42.975  28.172  35.527  1.00  0.00     0.010 A 
ATOM     63  C   UNL A   1      43.691  25.695  34.465  1.00  0.00     0.020 A 
ATOM     64  C   UNL A   1      43.560  27.197  36.349  1.00  0.00     0.020 A 
ATOM     65  C   UNL A   1      43.910  25.962  35.809  1.00  0.00     0.054 A 
BRANCH  65  66
ATOM     66  S   UNL A   1      44.733  24.691  36.799  1.00  0.00     0.124 S 
ATOM     67  O   UNL A   1      44.356  23.471  36.091  1.00  0.00    -0.237 OA
ATOM     68  O   UNL A   1      46.138  25.074  36.692  1.00  0.00    -0.237 OA
ATOM     69  O   UNL A   1      44.142  24.855  38.124  1.00  0.00    -0.744 OA
ENDBRANCH  65  66
ENDBRANCH  46  60
BRANCH  47  70
ATOM     70  C   UNL A   1      43.984  26.335  25.804  1.00  0.00    -0.014 A 
ATOM     71  C   UNL A   1      42.902  25.437  25.695  1.00  0.00     0.010 A 
ATOM     72  C   UNL A   1      45.254  25.883  25.391  1.00  0.00     0.010 A 
ATOM     73  C   UNL A   1      43.090  24.117  25.274  1.00  0.00     0.020 A 
ATOM     74  C   UNL A   1      45.450  24.555  24.970  1.00  0.00     0.020 A 
ATOM     75  C   UNL A   1      44.369  23.670  24.954  1.00  0.00     0.054 A 
BRANCH  75  76
ATOM     76  S   UNL A   1      44.606  21.900  24.623  1.00  0.00     0.124 S 
ATOM     77  O   UNL A   1      45.899  21.644  25.262  1.00  0.00    -0.237 OA
ATOM     78  O   UNL A   1      43.452  21.298  25.297  1.00  0.00    -0.237 OA
ATOM     79  O   UNL A   1      44.594  21.807  23.174  1.00  0.00    -0.744 OA
ENDBRANCH  75  76
ENDBRANCH  47  70
BRANCH  59  80
ATOM     80  C   UNL A   1      45.386  31.658  28.997  1.00  0.00    -0.014 A 
ATOM     81  C   UNL A   1      44.324  32.032  28.154  1.00  0.00     0.010 A 
ATOM     82  C   UNL A   1      46.641  32.271  28.803  1.00  0.00     0.010 A 
ATOM     83  C   UNL A   1      44.514  32.947  27.118  1.00  0.00     0.020 A 
ATOM     84  C   UNL A   1      46.832  33.215  27.780  1.00  0.00     0.020 A 
ATOM     85  C   UNL A   1      45.771  33.524  26.926  1.00  0.00     0.054 A 
BRANCH  85  86
ATOM     86  S   UNL A   1      45.986  34.650  25.520  1.00  0.00     0.124 S 
ATOM     87  O   UNL A   1      47.398  34.467  25.192  1.00  0.00    -0.237 OA
ATOM     88  O   UNL A   1      45.045  34.120  24.536  1.00  0.00    -0.237 OA
ATOM     89  O   UNL A   1      45.640  35.963  26.061  1.00  0.00    -0.744 OA
ENDBRANCH  85  86
ENDBRANCH  59  80
ENDBRANCH  33  34
ENDBRANCH  25  28
ENDBRANCH  23  24
ENDBRANCH  22  23
ENDBRANCH   1  22
TORSDOF 18
ENDMDL
