MODEL 1
REMARK VINA RESULT:     -12.3      0.000      0.000
REMARK SMILES Cc1cc(S(=O)(=O)Nc2ccc(Cl)cc2F)ccc1OCC(=O)NCCCNC(=O)c1ccc(-c2c3nc(c(-c4ccc(S(=O)(=O)[O-])cc4)c4ccc([nH]4)c(-c4ccc(S(=O)(=O)[O-])cc4)c4nc(c(-c5ccc(S(=O)(=O)[O-])cc5)c5ccc2[nH]5)C=C4)C=C3)cc1
REMARK SMILES IDX 25 1 24 2 22 3 23 4 21 6 20 7 19 8 1 9 2 10 3 11 4 12 18 13
REMARK SMILES IDX 17 14 5 15 6 16 7 17 8 18 9 20 10 21 15 22 11 23 14 24 16 25
REMARK SMILES IDX 12 26 13 27 26 28 27 29 28 30 29 31 30 33 31 34 32 35 90 36
REMARK SMILES IDX 33 37 89 38 34 39 35 40 36 41 83 42 37 43 88 44 82 45 84 46
REMARK SMILES IDX 38 47 87 48 81 49 80 50 39 52 69 53 50 54 68 55 51 56 54 57
REMARK SMILES IDX 67 58 85 59 52 60 53 61 66 63 86 64 55 65 40 66 41 67 49 68
REMARK SMILES IDX 42 69 48 70 43 71 44 72 45 73 46 74 47 75 70 76 71 77 79 78
REMARK SMILES IDX 72 79 78 80 73 81 74 82 75 83 76 84 77 85 56 86 57 87 65 88
REMARK SMILES IDX 58 89 64 90 59 91 60 92 61 93 62 94 63 95
REMARK H PARENT 24 5 8 19 28 32 84 51 54 62
REMARK Flexibility Score: inf
ROOT
ATOM      1  C   UNL A   1      41.479  22.284  26.953  1.00  0.00     0.117 C 
ENDROOT
BRANCH   1   2
ATOM      2  N   UNL A   1      41.998  20.923  26.942  1.00  0.00    -0.353 N 
ATOM      3  C   UNL A   1      41.428  19.780  26.453  1.00  0.00     0.257 C 
ATOM      4  O   UNL A   1      42.100  18.748  26.415  1.00  0.00    -0.271 OA
ATOM      5  H   UNL A   1      42.888  20.809  27.344  1.00  0.00     0.163 HD
BRANCH   3   6
ATOM      6  C   UNL A   1      39.998  19.810  25.908  1.00  0.00     0.329 C 
BRANCH   6   7
ATOM      7  O   UNL A   1      39.378  21.063  25.717  1.00  0.00    -0.484 OA
BRANCH   7   8
ATOM      8  C   UNL A   1      38.048  21.185  25.438  1.00  0.00     0.123 A 
ATOM      9  C   UNL A   1      37.627  23.699  25.866  1.00  0.00     0.048 C 
ATOM     10  C   UNL A   1      37.200  22.295  25.558  1.00  0.00    -0.008 A 
ATOM     11  C   UNL A   1      35.807  22.098  25.381  1.00  0.00     0.029 A 
ATOM     12  C   UNL A   1      35.270  20.845  25.060  1.00  0.00     0.088 A 
ATOM     13  C   UNL A   1      37.492  19.947  25.072  1.00  0.00     0.048 A 
ATOM     14  C   UNL A   1      36.130  19.787  24.819  1.00  0.00     0.026 A 
BRANCH  12  15
ATOM     15  S   UNL A   1      33.497  20.683  25.129  1.00  0.00     0.262 S 
ATOM     16  O   UNL A   1      32.955  21.276  23.926  1.00  0.00    -0.201 OA
ATOM     17  O   UNL A   1      33.229  19.296  25.449  1.00  0.00    -0.201 OA
BRANCH  15  18
ATOM     18  N   UNL A   1      32.908  21.531  26.453  1.00  0.00    -0.277 N 
ATOM     19  H   UNL A   1      32.970  21.092  27.332  1.00  0.00     0.180 HD
BRANCH  18  20
ATOM     20  C   UNL A   1      32.325  22.830  26.416  1.00  0.00     0.085 A 
ATOM     21  C   UNL A   1      33.228  23.901  26.386  1.00  0.00     0.031 A 
ATOM     22  C   UNL A   1      30.955  23.106  26.318  1.00  0.00     0.148 A 
ATOM     23  C   UNL A   1      32.779  25.200  26.137  1.00  0.00     0.023 A 
ATOM     24  C   UNL A   1      30.502  24.399  26.065  1.00  0.00     0.062 A 
ATOM     25  F   UNL A   1      30.042  22.130  26.372  1.00  0.00    -0.205 F 
ATOM     26  C   UNL A   1      31.420  25.438  25.952  1.00  0.00     0.044 A 
ATOM     27  Cl  UNL A   1      30.879  27.022  25.557  1.00  0.00    -0.084 Cl
ENDBRANCH  18  20
ENDBRANCH  15  18
ENDBRANCH  12  15
ENDBRANCH   7   8
ENDBRANCH   6   7
ENDBRANCH   3   6
ENDBRANCH   1   2
BRANCH   1  28
ATOM     28  C   UNL A   1      41.688  22.987  28.285  1.00  0.00     0.042 C 
BRANCH  28  29
ATOM     29  C   UNL A   1      41.819  24.498  28.155  1.00  0.00     0.118 C 
BRANCH  29  30
ATOM     30  N   UNL A   1      42.059  24.929  26.785  1.00  0.00    -0.352 N 
ATOM     31  C   UNL A   1      41.392  25.922  26.089  1.00  0.00     0.251 C 
ATOM     32  H   UNL A   1      42.776  24.463  26.300  1.00  0.00     0.163 HD
ATOM     33  O   UNL A   1      41.467  26.051  24.881  1.00  0.00    -0.269 OA
BRANCH  31  34
ATOM     34  C   UNL A   1      40.679  26.922  26.908  1.00  0.00     0.039 A 
ATOM     35  C   UNL A   1      41.026  28.263  26.712  1.00  0.00     0.014 A 
ATOM     36  C   UNL A   1      39.925  26.519  28.005  1.00  0.00     0.014 A 
ATOM     37  C   UNL A   1      40.748  29.191  27.711  1.00  0.00     0.010 A 
ATOM     38  C   UNL A   1      39.729  27.422  29.032  1.00  0.00     0.010 A 
ATOM     39  C   UNL A   1      40.177  28.745  28.903  1.00  0.00    -0.014 A 
BRANCH  39  40
ATOM     40  C   UNL A   1      40.080  29.574  30.098  1.00  0.00     0.031 A 
ATOM     41  C   UNL A   1      39.216  30.775  30.098  1.00  0.00     0.074 A 
ATOM     42  C   UNL A   1      40.728  29.217  31.229  1.00  0.00     0.049 A 
ATOM     43  N   UNL A   1      39.393  31.807  30.856  1.00  0.00    -0.248 NA
ATOM     44  C   UNL A   1      38.093  30.919  29.179  1.00  0.00     0.031 C 
ATOM     45  C   UNL A   1      40.518  29.765  32.566  1.00  0.00     0.029 A 
ATOM     46  N   UNL A   1      41.877  28.433  31.359  1.00  0.00    -0.354 N 
ATOM     47  C   UNL A   1      38.255  32.578  30.762  1.00  0.00     0.074 A 
ATOM     48  C   UNL A   1      37.529  32.040  29.634  1.00  0.00     0.031 C 
ATOM     49  C   UNL A   1      41.634  29.568  33.286  1.00  0.00     0.029 A 
ATOM     50  C   UNL A   1      42.634  29.016  32.388  1.00  0.00     0.049 A 
ATOM     51  H   UNL A   1      42.108  27.632  30.835  1.00  0.00     0.167 HD
ATOM     52  C   UNL A   1      37.956  33.478  31.743  1.00  0.00     0.031 A 
ATOM     53  C   UNL A   1      43.901  29.497  32.224  1.00  0.00     0.031 A 
ATOM     54  C   UNL A   1      39.011  33.557  32.751  1.00  0.00     0.049 A 
ATOM     55  C   UNL A   1      44.028  30.959  32.596  1.00  0.00     0.074 A 
ATOM     56  C   UNL A   1      39.138  33.019  34.022  1.00  0.00     0.029 A 
ATOM     57  N   UNL A   1      40.269  34.034  32.398  1.00  0.00    -0.354 N 
ATOM     58  N   UNL A   1      43.012  31.761  32.748  1.00  0.00    -0.248 NA
ATOM     59  C   UNL A   1      45.306  31.646  32.769  1.00  0.00     0.031 C 
ATOM     60  C   UNL A   1      40.502  33.101  34.400  1.00  0.00     0.029 A 
ATOM     61  C   UNL A   1      41.197  33.712  33.371  1.00  0.00     0.049 A 
ATOM     62  H   UNL A   1      40.470  34.530  31.573  1.00  0.00     0.167 HD
ATOM     63  C   UNL A   1      43.459  33.027  33.022  1.00  0.00     0.074 A 
ATOM     64  C   UNL A   1      44.904  32.901  33.036  1.00  0.00     0.031 C 
ATOM     65  C   UNL A   1      42.599  34.072  33.206  1.00  0.00     0.031 A 
BRANCH  52  66
ATOM     66  C   UNL A   1      36.556  34.025  31.953  1.00  0.00    -0.014 A 
ATOM     67  C   UNL A   1      35.529  33.675  31.052  1.00  0.00     0.010 A 
ATOM     68  C   UNL A   1      36.203  34.938  32.964  1.00  0.00     0.010 A 
ATOM     69  C   UNL A   1      34.269  34.294  31.078  1.00  0.00     0.020 A 
ATOM     70  C   UNL A   1      34.964  35.597  32.980  1.00  0.00     0.020 A 
ATOM     71  C   UNL A   1      34.006  35.281  32.023  1.00  0.00     0.054 A 
BRANCH  71  72
ATOM     72  S   UNL A   1      32.416  36.149  31.978  1.00  0.00     0.124 S 
ATOM     73  O   UNL A   1      32.581  37.167  33.012  1.00  0.00    -0.237 OA
ATOM     74  O   UNL A   1      32.369  36.644  30.606  1.00  0.00    -0.237 OA
ATOM     75  O   UNL A   1      31.443  35.104  32.295  1.00  0.00    -0.744 OA
ENDBRANCH  71  72
ENDBRANCH  52  66
BRANCH  53  76
ATOM     76  C   UNL A   1      44.684  28.822  31.152  1.00  0.00    -0.014 A 
ATOM     77  C   UNL A   1      45.673  27.898  31.551  1.00  0.00     0.010 A 
ATOM     78  C   UNL A   1      44.188  28.766  29.838  1.00  0.00     0.010 A 
ATOM     79  C   UNL A   1      46.037  26.841  30.713  1.00  0.00     0.020 A 
ATOM     80  C   UNL A   1      44.556  27.707  28.995  1.00  0.00     0.020 A 
ATOM     81  C   UNL A   1      45.428  26.719  29.463  1.00  0.00     0.054 A 
BRANCH  81  82
ATOM     82  S   UNL A   1      45.651  25.159  28.556  1.00  0.00     0.124 S 
ATOM     83  O   UNL A   1      44.932  24.204  29.393  1.00  0.00    -0.237 OA
ATOM     84  O   UNL A   1      45.023  25.457  27.267  1.00  0.00    -0.237 OA
ATOM     85  O   UNL A   1      47.100  24.997  28.515  1.00  0.00    -0.744 OA
ENDBRANCH  81  82
ENDBRANCH  53  76
BRANCH  65  86
ATOM     86  C   UNL A   1      42.987  35.524  33.338  1.00  0.00    -0.014 A 
ATOM     87  C   UNL A   1      43.662  36.252  32.347  1.00  0.00     0.010 A 
ATOM     88  C   UNL A   1      42.540  36.246  34.471  1.00  0.00     0.010 A 
ATOM     89  C   UNL A   1      43.936  37.619  32.506  1.00  0.00     0.020 A 
ATOM     90  C   UNL A   1      42.770  37.616  34.622  1.00  0.00     0.020 A 
ATOM     91  C   UNL A   1      43.492  38.291  33.645  1.00  0.00     0.054 A 
BRANCH  91  92
ATOM     92  S   UNL A   1      43.793  40.070  33.816  1.00  0.00     0.124 S 
ATOM     93  O   UNL A   1      44.199  40.173  35.215  1.00  0.00    -0.237 OA
ATOM     94  O   UNL A   1      44.849  40.320  32.838  1.00  0.00    -0.237 OA
ATOM     95  O   UNL A   1      42.500  40.668  33.492  1.00  0.00    -0.744 OA
ENDBRANCH  91  92
ENDBRANCH  65  86
ENDBRANCH  39  40
ENDBRANCH  31  34
ENDBRANCH  29  30
ENDBRANCH  28  29
ENDBRANCH   1  28
TORSDOF 18
ENDMDL
MODEL 2
REMARK VINA RESULT:     -12.2      4.378     11.187
REMARK SMILES Cc1cc(S(=O)(=O)Nc2ccc(Cl)cc2F)ccc1OCC(=O)NCCCNC(=O)c1ccc(-c2c3nc(c(-c4ccc(S(=O)(=O)[O-])cc4)c4ccc([nH]4)c(-c4ccc(S(=O)(=O)[O-])cc4)c4nc(c(-c5ccc(S(=O)(=O)[O-])cc5)c5ccc2[nH]5)C=C4)C=C3)cc1
REMARK SMILES IDX 25 1 24 2 22 3 23 4 21 6 20 7 19 8 1 9 2 10 3 11 4 12 18 13
REMARK SMILES IDX 17 14 5 15 6 16 7 17 8 18 9 20 10 21 15 22 11 23 14 24 16 25
REMARK SMILES IDX 12 26 13 27 26 28 27 29 28 30 29 31 30 33 31 34 32 35 90 36
REMARK SMILES IDX 33 37 89 38 34 39 35 40 36 41 83 42 37 43 88 44 82 45 84 46
REMARK SMILES IDX 38 47 87 48 81 49 80 50 39 52 69 53 50 54 68 55 51 56 54 57
REMARK SMILES IDX 67 58 85 59 52 60 53 61 66 63 86 64 55 65 40 66 41 67 49 68
REMARK SMILES IDX 42 69 48 70 43 71 44 72 45 73 46 74 47 75 70 76 71 77 79 78
REMARK SMILES IDX 72 79 78 80 73 81 74 82 75 83 76 84 77 85 56 86 57 87 65 88
REMARK SMILES IDX 58 89 64 90 59 91 60 92 61 93 62 94 63 95
REMARK H PARENT 24 5 8 19 28 32 84 51 54 62
REMARK Flexibility Score: inf
ROOT
ATOM      1  C   UNL A   1      35.599  33.745  30.176  1.00  0.00     0.117 C 
ENDROOT
BRANCH   1   2
ATOM      2  N   UNL A   1      34.564  34.316  29.325  1.00  0.00    -0.353 N 
ATOM      3  C   UNL A   1      33.933  33.772  28.241  1.00  0.00     0.257 C 
ATOM      4  O   UNL A   1      32.979  34.371  27.742  1.00  0.00    -0.271 OA
ATOM      5  H   UNL A   1      34.277  35.226  29.564  1.00  0.00     0.163 HD
BRANCH   3   6
ATOM      6  C   UNL A   1      34.375  32.408  27.703  1.00  0.00     0.329 C 
BRANCH   6   7
ATOM      7  O   UNL A   1      33.662  31.261  28.112  1.00  0.00    -0.484 OA
BRANCH   7   8
ATOM      8  C   UNL A   1      33.183  30.342  27.224  1.00  0.00     0.123 A 
ATOM      9  C   UNL A   1      31.221  31.614  26.123  1.00  0.00     0.048 C 
ATOM     10  C   UNL A   1      32.068  30.402  26.378  1.00  0.00    -0.008 A 
ATOM     11  C   UNL A   1      31.682  29.224  25.690  1.00  0.00     0.029 A 
ATOM     12  C   UNL A   1      32.399  28.027  25.810  1.00  0.00     0.088 A 
ATOM     13  C   UNL A   1      33.914  29.143  27.294  1.00  0.00     0.048 A 
ATOM     14  C   UNL A   1      33.571  28.016  26.548  1.00  0.00     0.026 A 
BRANCH  12  15
ATOM     15  S   UNL A   1      31.658  26.566  25.110  1.00  0.00     0.262 S 
ATOM     16  O   UNL A   1      30.264  26.550  25.500  1.00  0.00    -0.201 OA
ATOM     17  O   UNL A   1      32.029  26.555  23.710  1.00  0.00    -0.201 OA
BRANCH  15  18
ATOM     18  N   UNL A   1      32.403  25.201  25.742  1.00  0.00    -0.277 N 
ATOM     19  H   UNL A   1      32.100  24.893  26.627  1.00  0.00     0.180 HD
BRANCH  18  20
ATOM     20  C   UNL A   1      33.435  24.449  25.111  1.00  0.00     0.085 A 
ATOM     21  C   UNL A   1      34.745  24.868  25.384  1.00  0.00     0.031 A 
ATOM     22  C   UNL A   1      33.247  23.299  24.334  1.00  0.00     0.148 A 
ATOM     23  C   UNL A   1      35.834  24.084  24.996  1.00  0.00     0.023 A 
ATOM     24  C   UNL A   1      34.330  22.511  23.948  1.00  0.00     0.062 A 
ATOM     25  F   UNL A   1      32.022  22.868  24.013  1.00  0.00    -0.205 F 
ATOM     26  C   UNL A   1      35.619  22.896  24.302  1.00  0.00     0.044 A 
ATOM     27  Cl  UNL A   1      36.954  21.889  23.903  1.00  0.00    -0.084 Cl
ENDBRANCH  18  20
ENDBRANCH  15  18
ENDBRANCH  12  15
ENDBRANCH   7   8
ENDBRANCH   6   7
ENDBRANCH   3   6
ENDBRANCH   1   2
BRANCH   1  28
ATOM     28  C   UNL A   1      35.039  33.083  31.426  1.00  0.00     0.042 C 
BRANCH  28  29
ATOM     29  C   UNL A   1      35.658  31.724  31.716  1.00  0.00     0.118 C 
BRANCH  29  30
ATOM     30  N   UNL A   1      35.571  30.810  30.586  1.00  0.00    -0.352 N 
ATOM     31  C   UNL A   1      36.617  30.274  29.857  1.00  0.00     0.251 C 
ATOM     32  H   UNL A   1      34.665  30.542  30.311  1.00  0.00     0.163 HD
ATOM     33  O   UNL A   1      36.466  29.731  28.778  1.00  0.00    -0.269 OA
BRANCH  31  34
ATOM     34  C   UNL A   1      37.936  30.268  30.522  1.00  0.00     0.039 A 
ATOM     35  C   UNL A   1      38.959  30.995  29.904  1.00  0.00     0.014 A 
ATOM     36  C   UNL A   1      38.203  29.357  31.539  1.00  0.00     0.014 A 
ATOM     37  C   UNL A   1      40.284  30.690  30.198  1.00  0.00     0.010 A 
ATOM     38  C   UNL A   1      39.517  28.995  31.765  1.00  0.00     0.010 A 
ATOM     39  C   UNL A   1      40.554  29.631  31.065  1.00  0.00    -0.014 A 
BRANCH  39  40
ATOM     40  C   UNL A   1      41.886  29.066  31.243  1.00  0.00     0.031 A 
ATOM     41  C   UNL A   1      42.258  27.813  30.549  1.00  0.00     0.074 A 
ATOM     42  C   UNL A   1      42.806  29.714  31.991  1.00  0.00     0.049 A 
ATOM     43  N   UNL A   1      43.161  26.986  30.961  1.00  0.00    -0.248 NA
ATOM     44  C   UNL A   1      41.579  27.371  29.337  1.00  0.00     0.031 C 
ATOM     45  C   UNL A   1      44.239  29.441  32.043  1.00  0.00     0.029 A 
ATOM     46  N   UNL A   1      42.594  30.616  33.037  1.00  0.00    -0.354 N 
ATOM     47  C   UNL A   1      43.404  26.105  29.930  1.00  0.00     0.074 A 
ATOM     48  C   UNL A   1      42.327  26.321  28.990  1.00  0.00     0.031 C 
ATOM     49  C   UNL A   1      44.716  29.892  33.214  1.00  0.00     0.029 A 
ATOM     50  C   UNL A   1      43.577  30.338  33.999  1.00  0.00     0.049 A 
ATOM     51  H   UNL A   1      41.895  31.307  33.089  1.00  0.00     0.167 HD
ATOM     52  C   UNL A   1      44.575  25.407  29.889  1.00  0.00     0.031 A 
ATOM     53  C   UNL A   1      43.305  29.959  35.282  1.00  0.00     0.031 A 
ATOM     54  C   UNL A   1      45.394  25.644  31.076  1.00  0.00     0.049 A 
ATOM     55  C   UNL A   1      43.925  28.627  35.647  1.00  0.00     0.074 A 
ATOM     56  C   UNL A   1      46.499  26.447  31.309  1.00  0.00     0.029 A 
ATOM     57  N   UNL A   1      44.939  25.228  32.323  1.00  0.00    -0.354 N 
ATOM     58  N   UNL A   1      44.393  27.780  34.773  1.00  0.00    -0.248 NA
ATOM     59  C   UNL A   1      44.017  28.120  37.013  1.00  0.00     0.031 C 
ATOM     60  C   UNL A   1      46.659  26.579  32.712  1.00  0.00     0.029 A 
ATOM     61  C   UNL A   1      45.667  25.836  33.329  1.00  0.00     0.049 A 
ATOM     62  H   UNL A   1      44.203  24.592  32.469  1.00  0.00     0.167 HD
ATOM     63  C   UNL A   1      44.829  26.649  35.412  1.00  0.00     0.074 A 
ATOM     64  C   UNL A   1      44.583  26.915  36.818  1.00  0.00     0.031 C 
ATOM     65  C   UNL A   1      45.348  25.588  34.728  1.00  0.00     0.031 A 
BRANCH  52  66
ATOM     66  C   UNL A   1      45.112  24.783  28.614  1.00  0.00    -0.014 A 
ATOM     67  C   UNL A   1      45.731  25.599  27.645  1.00  0.00     0.010 A 
ATOM     68  C   UNL A   1      44.974  23.423  28.277  1.00  0.00     0.010 A 
ATOM     69  C   UNL A   1      46.073  25.119  26.370  1.00  0.00     0.020 A 
ATOM     70  C   UNL A   1      45.271  22.936  26.994  1.00  0.00     0.020 A 
ATOM     71  C   UNL A   1      45.806  23.794  26.040  1.00  0.00     0.054 A 
BRANCH  71  72
ATOM     72  S   UNL A   1      46.151  23.214  24.358  1.00  0.00     0.124 S 
ATOM     73  O   UNL A   1      46.638  21.856  24.585  1.00  0.00    -0.237 OA
ATOM     74  O   UNL A   1      44.844  23.317  23.717  1.00  0.00    -0.237 OA
ATOM     75  O   UNL A   1      47.159  24.154  23.869  1.00  0.00    -0.744 OA
ENDBRANCH  71  72
ENDBRANCH  52  66
BRANCH  53  76
ATOM     76  C   UNL A   1      42.010  30.467  35.814  1.00  0.00    -0.014 A 
ATOM     77  C   UNL A   1      41.971  31.802  36.268  1.00  0.00     0.010 A 
ATOM     78  C   UNL A   1      40.805  29.822  35.485  1.00  0.00     0.010 A 
ATOM     79  C   UNL A   1      40.778  32.528  36.236  1.00  0.00     0.020 A 
ATOM     80  C   UNL A   1      39.606  30.550  35.457  1.00  0.00     0.020 A 
ATOM     81  C   UNL A   1      39.615  31.912  35.771  1.00  0.00     0.054 A 
BRANCH  81  82
ATOM     82  S   UNL A   1      38.179  32.968  35.406  1.00  0.00     0.124 S 
ATOM     83  O   UNL A   1      38.598  34.260  35.939  1.00  0.00    -0.237 OA
ATOM     84  O   UNL A   1      38.100  32.889  33.947  1.00  0.00    -0.237 OA
ATOM     85  O   UNL A   1      37.090  32.313  36.122  1.00  0.00    -0.744 OA
ENDBRANCH  81  82
ENDBRANCH  53  76
BRANCH  65  86
ATOM     86  C   UNL A   1      45.692  24.240  35.314  1.00  0.00    -0.014 A 
ATOM     87  C   UNL A   1      44.891  23.556  36.240  1.00  0.00     0.010 A 
ATOM     88  C   UNL A   1      46.826  23.553  34.816  1.00  0.00     0.010 A 
ATOM     89  C   UNL A   1      45.236  22.275  36.696  1.00  0.00     0.020 A 
ATOM     90  C   UNL A   1      47.158  22.261  35.232  1.00  0.00     0.020 A 
ATOM     91  C   UNL A   1      46.371  21.637  36.193  1.00  0.00     0.054 A 
BRANCH  91  92
ATOM     92  S   UNL A   1      46.777  19.959  36.739  1.00  0.00     0.124 S 
ATOM     93  O   UNL A   1      46.075  19.143  35.752  1.00  0.00    -0.237 OA
ATOM     94  O   UNL A   1      48.236  19.928  36.654  1.00  0.00    -0.237 OA
ATOM     95  O   UNL A   1      46.240  19.902  38.096  1.00  0.00    -0.744 OA
ENDBRANCH  91  92
ENDBRANCH  65  86
ENDBRANCH  39  40
ENDBRANCH  31  34
ENDBRANCH  29  30
ENDBRANCH  28  29
ENDBRANCH   1  28
TORSDOF 18
ENDMDL
MODEL 3
REMARK VINA RESULT:     -12.0      5.775      7.902
REMARK SMILES Cc1cc(S(=O)(=O)Nc2ccc(Cl)cc2F)ccc1OCC(=O)NCCCNC(=O)c1ccc(-c2c3nc(c(-c4ccc(S(=O)(=O)[O-])cc4)c4ccc([nH]4)c(-c4ccc(S(=O)(=O)[O-])cc4)c4nc(c(-c5ccc(S(=O)(=O)[O-])cc5)c5ccc2[nH]5)C=C4)C=C3)cc1
REMARK SMILES IDX 25 1 24 2 22 3 23 4 21 6 20 7 19 8 1 9 2 10 3 11 4 12 18 13
REMARK SMILES IDX 17 14 5 15 6 16 7 17 8 18 9 20 10 21 15 22 11 23 14 24 16 25
REMARK SMILES IDX 12 26 13 27 26 28 27 29 28 30 29 31 30 33 31 34 32 35 90 36
REMARK SMILES IDX 33 37 89 38 34 39 35 40 36 41 83 42 37 43 88 44 82 45 84 46
REMARK SMILES IDX 38 47 87 48 81 49 80 50 39 52 69 53 50 54 68 55 51 56 54 57
REMARK SMILES IDX 67 58 85 59 52 60 53 61 66 63 86 64 55 65 40 66 41 67 49 68
REMARK SMILES IDX 42 69 48 70 43 71 44 72 45 73 46 74 47 75 70 76 71 77 79 78
REMARK SMILES IDX 72 79 78 80 73 81 74 82 75 83 76 84 77 85 56 86 57 87 65 88
REMARK SMILES IDX 58 89 64 90 59 91 60 92 61 93 62 94 63 95
REMARK H PARENT 24 5 8 19 28 32 84 51 54 62
REMARK Flexibility Score: inf
ROOT
ATOM      1  C   UNL A   1      43.742  27.587  27.766  1.00  0.00     0.117 C 
ENDROOT
BRANCH   1   2
ATOM      2  N   UNL A   1      43.255  27.149  26.465  1.00  0.00    -0.353 N 
ATOM      3  C   UNL A   1      42.065  26.563  26.135  1.00  0.00     0.257 C 
ATOM      4  O   UNL A   1      41.790  26.398  24.945  1.00  0.00    -0.271 OA
ATOM      5  H   UNL A   1      43.872  27.298  25.713  1.00  0.00     0.163 HD
BRANCH   3   6
ATOM      6  C   UNL A   1      41.071  26.177  27.234  1.00  0.00     0.329 C 
BRANCH   6   7
ATOM      7  O   UNL A   1      41.088  24.853  27.720  1.00  0.00    -0.484 OA
BRANCH   7   8
ATOM      8  C   UNL A   1      40.223  23.898  27.272  1.00  0.00     0.123 A 
ATOM      9  C   UNL A   1      41.555  21.720  27.674  1.00  0.00     0.048 C 
ATOM     10  C   UNL A   1      40.395  22.512  27.149  1.00  0.00    -0.008 A 
ATOM     11  C   UNL A   1      39.396  21.769  26.470  1.00  0.00     0.029 A 
ATOM     12  C   UNL A   1      38.243  22.374  25.955  1.00  0.00     0.088 A 
ATOM     13  C   UNL A   1      39.037  24.477  26.787  1.00  0.00     0.048 A 
ATOM     14  C   UNL A   1      38.026  23.721  26.195  1.00  0.00     0.026 A 
BRANCH  12  15
ATOM     15  S   UNL A   1      37.209  21.378  24.900  1.00  0.00     0.262 S 
ATOM     16  O   UNL A   1      36.807  22.198  23.778  1.00  0.00    -0.201 OA
ATOM     17  O   UNL A   1      37.926  20.138  24.683  1.00  0.00    -0.201 OA
BRANCH  15  18
ATOM     18  N   UNL A   1      35.832  20.914  25.741  1.00  0.00    -0.277 N 
ATOM     19  H   UNL A   1      35.891  20.092  26.281  1.00  0.00     0.180 HD
BRANCH  18  20
ATOM     20  C   UNL A   1      34.586  21.604  25.742  1.00  0.00     0.085 A 
ATOM     21  C   UNL A   1      34.507  22.713  26.596  1.00  0.00     0.031 A 
ATOM     22  C   UNL A   1      33.496  21.320  24.910  1.00  0.00     0.148 A 
ATOM     23  C   UNL A   1      33.418  23.585  26.525  1.00  0.00     0.023 A 
ATOM     24  C   UNL A   1      32.410  22.188  24.831  1.00  0.00     0.062 A 
ATOM     25  F   UNL A   1      33.500  20.257  24.096  1.00  0.00    -0.205 F 
ATOM     26  C   UNL A   1      32.387  23.331  25.624  1.00  0.00     0.044 A 
ATOM     27  Cl  UNL A   1      31.092  24.453  25.475  1.00  0.00    -0.084 Cl
ENDBRANCH  18  20
ENDBRANCH  15  18
ENDBRANCH  12  15
ENDBRANCH   7   8
ENDBRANCH   6   7
ENDBRANCH   3   6
ENDBRANCH   1   2
BRANCH   1  28
ATOM     28  C   UNL A   1      44.821  28.654  27.666  1.00  0.00     0.042 C 
BRANCH  28  29
ATOM     29  C   UNL A   1      46.181  28.184  28.162  1.00  0.00     0.118 C 
BRANCH  29  30
ATOM     30  N   UNL A   1      46.775  27.168  27.304  1.00  0.00    -0.352 N 
ATOM     31  C   UNL A   1      47.253  25.925  27.681  1.00  0.00     0.251 C 
ATOM     32  H   UNL A   1      46.845  27.390  26.348  1.00  0.00     0.163 HD
ATOM     33  O   UNL A   1      47.963  25.242  26.967  1.00  0.00    -0.269 OA
BRANCH  31  34
ATOM     34  C   UNL A   1      46.740  25.394  28.960  1.00  0.00     0.039 A 
ATOM     35  C   UNL A   1      45.498  24.751  28.924  1.00  0.00     0.014 A 
ATOM     36  C   UNL A   1      47.328  25.774  30.162  1.00  0.00     0.014 A 
ATOM     37  C   UNL A   1      44.761  24.627  30.098  1.00  0.00     0.010 A 
ATOM     38  C   UNL A   1      46.559  25.730  31.309  1.00  0.00     0.010 A 
ATOM     39  C   UNL A   1      45.262  25.196  31.270  1.00  0.00    -0.014 A 
BRANCH  39  40
ATOM     40  C   UNL A   1      44.470  25.349  32.483  1.00  0.00     0.031 A 
ATOM     41  C   UNL A   1      44.008  26.691  32.902  1.00  0.00     0.074 A 
ATOM     42  C   UNL A   1      44.102  24.262  33.197  1.00  0.00     0.049 A 
ATOM     43  N   UNL A   1      43.738  27.028  34.120  1.00  0.00    -0.248 NA
ATOM     44  C   UNL A   1      43.865  27.789  31.954  1.00  0.00     0.031 C 
ATOM     45  C   UNL A   1      43.096  24.211  34.254  1.00  0.00     0.029 A 
ATOM     46  N   UNL A   1      44.729  23.016  33.264  1.00  0.00    -0.354 N 
ATOM     47  C   UNL A   1      43.092  28.243  34.071  1.00  0.00     0.074 A 
ATOM     48  C   UNL A   1      43.290  28.719  32.720  1.00  0.00     0.031 C 
ATOM     49  C   UNL A   1      43.365  23.162  35.048  1.00  0.00     0.029 A 
ATOM     50  C   UNL A   1      44.628  22.598  34.601  1.00  0.00     0.049 A 
ATOM     51  H   UNL A   1      45.156  22.528  32.523  1.00  0.00     0.167 HD
ATOM     52  C   UNL A   1      42.314  28.647  35.116  1.00  0.00     0.031 A 
ATOM     53  C   UNL A   1      45.702  22.333  35.401  1.00  0.00     0.031 A 
ATOM     54  C   UNL A   1      42.375  27.710  36.236  1.00  0.00     0.049 A 
ATOM     55  C   UNL A   1      45.719  23.173  36.661  1.00  0.00     0.074 A 
ATOM     56  C   UNL A   1      41.517  26.714  36.674  1.00  0.00     0.029 A 
ATOM     57  N   UNL A   1      43.573  27.527  36.918  1.00  0.00    -0.354 N 
ATOM     58  N   UNL A   1      44.993  24.242  36.831  1.00  0.00    -0.248 NA
ATOM     59  C   UNL A   1      46.593  22.911  37.801  1.00  0.00     0.031 C 
ATOM     60  C   UNL A   1      42.235  25.878  37.567  1.00  0.00     0.029 A 
ATOM     61  C   UNL A   1      43.518  26.382  37.690  1.00  0.00     0.049 A 
ATOM     62  H   UNL A   1      44.351  28.128  36.860  1.00  0.00     0.167 HD
ATOM     63  C   UNL A   1      45.280  24.808  38.045  1.00  0.00     0.074 A 
ATOM     64  C   UNL A   1      46.281  23.930  38.621  1.00  0.00     0.031 C 
ATOM     65  C   UNL A   1      44.673  25.956  38.468  1.00  0.00     0.031 A 
BRANCH  52  66
ATOM     66  C   UNL A   1      41.244  29.713  34.975  1.00  0.00    -0.014 A 
ATOM     67  C   UNL A   1      41.134  30.725  35.950  1.00  0.00     0.010 A 
ATOM     68  C   UNL A   1      40.274  29.735  33.955  1.00  0.00     0.010 A 
ATOM     69  C   UNL A   1      40.054  31.622  35.982  1.00  0.00     0.020 A 
ATOM     70  C   UNL A   1      39.165  30.595  33.993  1.00  0.00     0.020 A 
ATOM     71  C   UNL A   1      39.053  31.526  35.019  1.00  0.00     0.054 A 
BRANCH  71  72
ATOM     72  S   UNL A   1      37.610  32.616  35.131  1.00  0.00     0.124 S 
ATOM     73  O   UNL A   1      38.165  33.916  34.766  1.00  0.00    -0.237 OA
ATOM     74  O   UNL A   1      36.695  32.024  34.160  1.00  0.00    -0.237 OA
ATOM     75  O   UNL A   1      37.194  32.497  36.528  1.00  0.00    -0.744 OA
ENDBRANCH  71  72
ENDBRANCH  52  66
BRANCH  53  76
ATOM     76  C   UNL A   1      46.916  21.870  34.673  1.00  0.00    -0.014 A 
ATOM     77  C   UNL A   1      48.005  22.764  34.588  1.00  0.00     0.010 A 
ATOM     78  C   UNL A   1      47.141  20.498  34.469  1.00  0.00     0.010 A 
ATOM     79  C   UNL A   1      49.310  22.282  34.467  1.00  0.00     0.020 A 
ATOM     80  C   UNL A   1      48.452  20.014  34.343  1.00  0.00     0.020 A 
ATOM     81  C   UNL A   1      49.528  20.905  34.407  1.00  0.00     0.054 A 
BRANCH  81  82
ATOM     82  S   UNL A   1      51.232  20.302  34.609  1.00  0.00     0.124 S 
ATOM     83  O   UNL A   1      51.769  21.214  35.614  1.00  0.00    -0.237 OA
ATOM     84  O   UNL A   1      51.023  18.926  35.061  1.00  0.00    -0.237 OA
ATOM     85  O   UNL A   1      51.797  20.435  33.271  1.00  0.00    -0.744 OA
ENDBRANCH  81  82
ENDBRANCH  53  76
BRANCH  65  86
ATOM     86  C   UNL A   1      45.041  26.750  39.699  1.00  0.00    -0.014 A 
ATOM     87  C   UNL A   1      45.953  27.815  39.706  1.00  0.00     0.010 A 
ATOM     88  C   UNL A   1      44.339  26.498  40.902  1.00  0.00     0.010 A 
ATOM     89  C   UNL A   1      46.202  28.554  40.872  1.00  0.00     0.020 A 
ATOM     90  C   UNL A   1      44.547  27.254  42.059  1.00  0.00     0.020 A 
ATOM     91  C   UNL A   1      45.500  28.265  42.044  1.00  0.00     0.054 A 
BRANCH  91  92
ATOM     92  S   UNL A   1      45.779  29.263  43.529  1.00  0.00     0.124 S 
ATOM     93  O   UNL A   1      47.010  28.680  44.057  1.00  0.00    -0.237 OA
ATOM     94  O   UNL A   1      45.906  30.618  42.997  1.00  0.00    -0.237 OA
ATOM     95  O   UNL A   1      44.580  29.028  44.329  1.00  0.00    -0.744 OA
ENDBRANCH  91  92
ENDBRANCH  65  86
ENDBRANCH  39  40
ENDBRANCH  31  34
ENDBRANCH  29  30
ENDBRANCH  28  29
ENDBRANCH   1  28
TORSDOF 18
ENDMDL
