MODEL 1
REMARK VINA RESULT:     -12.5      0.000      0.000
REMARK SMILES C[C@@H]1[C@@H](C(=O)NCCCNC(=O)c2ccc(-c3c4nc(c(-c5ccc(S(=O)(=O)[O-])cc5)c5ccc([nH]5)c(-c5ccc(S(=O)(=O)[O-])cc5)c5nc(c(-c6ccc(S(=O)(=O)[O-])cc6)c6ccc3[nH]6)C=C5)C=C4)cc2)CCN1C(=O)N1CCC[C@H]2CCC[C@@H]21
REMARK SMILES IDX 8 1 7 2 6 3 4 4 5 5 3 7 1 8 2 9 75 10 73 11 74 12 76 13
REMARK SMILES IDX 77 14 78 15 79 16 86 17 80 18 82 19 85 20 81 21 83 22 84 23
REMARK SMILES IDX 9 24 10 25 11 26 12 28 13 29 14 30 72 31 15 32 71 33 16 34
REMARK SMILES IDX 17 35 18 36 65 37 19 38 70 39 64 40 66 41 20 42 69 43 63 44
REMARK SMILES IDX 62 45 21 47 51 48 32 49 50 50 33 51 36 52 49 53 67 54 34 55
REMARK SMILES IDX 35 56 48 58 68 59 37 60 22 61 23 62 31 63 24 64 30 65 25 66
REMARK SMILES IDX 26 67 27 68 28 69 29 70 52 71 53 72 61 73 54 74 60 75 55 76
REMARK SMILES IDX 56 77 57 78 58 79 59 80 38 81 39 82 47 83 40 84 46 85 41 86
REMARK SMILES IDX 42 87 43 88 44 89 45 90
REMARK H PARENT 6 6 10 27 66 46 36 57
REMARK Flexibility Score: inf
ROOT
ATOM      1  C   UNL A   1      34.544  29.327  27.081  1.00  0.00     0.042 C 
ENDROOT
BRANCH   1   2
ATOM      2  C   UNL A   1      33.286  29.880  26.438  1.00  0.00     0.117 C 
BRANCH   2   3
ATOM      3  N   UNL A   1      33.286  29.804  24.988  1.00  0.00    -0.356 N 
ATOM      4  C   UNL A   1      32.622  28.939  24.168  1.00  0.00     0.225 C 
ATOM      5  O   UNL A   1      32.740  29.100  22.954  1.00  0.00    -0.275 OA
ATOM      6  H   UNL A   1      33.845  30.474  24.531  1.00  0.00     0.163 HD
BRANCH   4   7
ATOM      7  C   UNL A   1      31.866  27.767  24.781  1.00  0.00     0.102 C 
ATOM      8  C   UNL A   1      32.337  25.746  26.160  1.00  0.00     0.032 C 
ATOM      9  C   UNL A   1      32.744  26.496  24.884  1.00  0.00     0.096 C 
ATOM     10  N   UNL A   1      32.443  25.748  23.642  1.00  0.00    -0.321 N 
ATOM     11  C   UNL A   1      30.669  27.268  23.965  1.00  0.00     0.037 C 
ATOM     12  C   UNL A   1      31.285  26.303  22.977  1.00  0.00     0.122 C 
BRANCH  10  13
ATOM     13  C   UNL A   1      33.314  25.017  22.849  1.00  0.00     0.320 C 
ATOM     14  O   UNL A   1      33.985  25.547  21.962  1.00  0.00    -0.248 OA
BRANCH  13  15
ATOM     15  N   UNL A   1      33.485  23.701  23.182  1.00  0.00    -0.321 N 
ATOM     16  C   UNL A   1      32.814  22.636  22.453  1.00  0.00     0.121 C 
ATOM     17  C   UNL A   1      34.651  23.243  23.911  1.00  0.00     0.090 C 
ATOM     18  C   UNL A   1      32.333  21.544  23.413  1.00  0.00     0.022 C 
ATOM     19  C   UNL A   1      34.147  22.282  24.990  1.00  0.00     0.012 C 
ATOM     20  C   UNL A   1      35.481  24.225  24.730  1.00  0.00     0.025 C 
ATOM     21  C   UNL A   1      33.454  21.075  24.360  1.00  0.00     0.007 C 
ATOM     22  C   UNL A   1      35.390  22.015  25.820  1.00  0.00     0.006 C 
ATOM     23  C   UNL A   1      36.155  23.347  25.795  1.00  0.00     0.002 C 
ENDBRANCH  13  15
ENDBRANCH  10  13
ENDBRANCH   4   7
ENDBRANCH   2   3
ENDBRANCH   1   2
BRANCH   1  24
ATOM     24  C   UNL A   1      35.475  30.373  27.671  1.00  0.00     0.118 C 
BRANCH  24  25
ATOM     25  N   UNL A   1      35.442  30.428  29.126  1.00  0.00    -0.352 N 
ATOM     26  C   UNL A   1      36.354  29.989  30.062  1.00  0.00     0.251 C 
ATOM     27  H   UNL A   1      34.636  30.849  29.504  1.00  0.00     0.163 HD
ATOM     28  O   UNL A   1      36.058  30.014  31.249  1.00  0.00    -0.269 OA
BRANCH  26  29
ATOM     29  C   UNL A   1      37.667  29.451  29.634  1.00  0.00     0.039 A 
ATOM     30  C   UNL A   1      38.105  29.695  28.329  1.00  0.00     0.014 A 
ATOM     31  C   UNL A   1      38.471  28.720  30.508  1.00  0.00     0.014 A 
ATOM     32  C   UNL A   1      39.385  29.288  27.939  1.00  0.00     0.010 A 
ATOM     33  C   UNL A   1      39.783  28.418  30.157  1.00  0.00     0.010 A 
ATOM     34  C   UNL A   1      40.256  28.694  28.866  1.00  0.00    -0.014 A 
BRANCH  34  35
ATOM     35  C   UNL A   1      41.659  28.349  28.514  1.00  0.00     0.031 A 
ATOM     36  C   UNL A   1      42.720  29.419  28.492  1.00  0.00     0.074 A 
ATOM     37  C   UNL A   1      41.966  27.090  28.141  1.00  0.00     0.049 A 
ATOM     38  N   UNL A   1      43.975  29.329  28.134  1.00  0.00    -0.248 NA
ATOM     39  C   UNL A   1      42.309  30.774  28.898  1.00  0.00     0.031 C 
ATOM     40  C   UNL A   1      41.025  25.968  28.073  1.00  0.00     0.029 A 
ATOM     41  N   UNL A   1      43.160  26.539  27.740  1.00  0.00    -0.354 N 
ATOM     42  C   UNL A   1      44.495  30.614  28.251  1.00  0.00     0.074 A 
ATOM     43  C   UNL A   1      43.406  31.475  28.654  1.00  0.00     0.031 C 
ATOM     44  C   UNL A   1      41.683  24.861  27.694  1.00  0.00     0.029 A 
ATOM     45  C   UNL A   1      43.080  25.199  27.442  1.00  0.00     0.049 A 
ATOM     46  H   UNL A   1      43.995  27.056  27.673  1.00  0.00     0.167 HD
ATOM     47  C   UNL A   1      45.767  31.037  28.064  1.00  0.00     0.031 A 
ATOM     48  C   UNL A   1      44.021  24.337  27.008  1.00  0.00     0.031 A 
ATOM     49  C   UNL A   1      46.854  30.175  27.679  1.00  0.00     0.049 A 
ATOM     50  C   UNL A   1      45.426  24.832  26.797  1.00  0.00     0.074 A 
ATOM     51  C   UNL A   1      48.190  30.497  27.520  1.00  0.00     0.029 A 
ATOM     52  N   UNL A   1      46.730  28.824  27.398  1.00  0.00    -0.354 N 
ATOM     53  N   UNL A   1      45.909  26.039  26.971  1.00  0.00    -0.248 NA
ATOM     54  C   UNL A   1      46.414  23.846  26.339  1.00  0.00     0.031 C 
ATOM     55  C   UNL A   1      48.865  29.351  27.087  1.00  0.00     0.029 A 
ATOM     56  C   UNL A   1      47.962  28.301  27.040  1.00  0.00     0.049 A 
ATOM     57  H   UNL A   1      45.891  28.311  27.444  1.00  0.00     0.167 HD
ATOM     58  C   UNL A   1      47.265  25.951  26.675  1.00  0.00     0.074 A 
ATOM     59  C   UNL A   1      47.526  24.569  26.323  1.00  0.00     0.031 C 
ATOM     60  C   UNL A   1      48.209  26.924  26.695  1.00  0.00     0.031 A 
BRANCH  47  61
ATOM     61  C   UNL A   1      46.053  32.502  28.275  1.00  0.00    -0.014 A 
ATOM     62  C   UNL A   1      46.440  32.994  29.534  1.00  0.00     0.010 A 
ATOM     63  C   UNL A   1      45.970  33.394  27.190  1.00  0.00     0.010 A 
ATOM     64  C   UNL A   1      46.695  34.355  29.717  1.00  0.00     0.020 A 
ATOM     65  C   UNL A   1      46.256  34.752  27.360  1.00  0.00     0.020 A 
ATOM     66  C   UNL A   1      46.599  35.226  28.628  1.00  0.00     0.054 A 
BRANCH  66  67
ATOM     67  S   UNL A   1      46.959  36.985  28.890  1.00  0.00     0.124 S 
ATOM     68  O   UNL A   1      45.911  37.368  29.834  1.00  0.00    -0.237 OA
ATOM     69  O   UNL A   1      48.314  36.957  29.433  1.00  0.00    -0.237 OA
ATOM     70  O   UNL A   1      46.836  37.567  27.555  1.00  0.00    -0.744 OA
ENDBRANCH  66  67
ENDBRANCH  47  61
BRANCH  48  71
ATOM     71  C   UNL A   1      43.670  22.911  26.763  1.00  0.00    -0.014 A 
ATOM     72  C   UNL A   1      44.109  22.257  25.598  1.00  0.00     0.010 A 
ATOM     73  C   UNL A   1      42.900  22.193  27.698  1.00  0.00     0.010 A 
ATOM     74  C   UNL A   1      43.771  20.921  25.362  1.00  0.00     0.020 A 
ATOM     75  C   UNL A   1      42.585  20.849  27.481  1.00  0.00     0.020 A 
ATOM     76  C   UNL A   1      43.013  20.224  26.308  1.00  0.00     0.054 A 
BRANCH  76  77
ATOM     77  S   UNL A   1      42.628  18.477  26.005  1.00  0.00     0.124 S 
ATOM     78  O   UNL A   1      42.992  17.861  27.277  1.00  0.00    -0.237 OA
ATOM     79  O   UNL A   1      41.200  18.516  25.704  1.00  0.00    -0.237 OA
ATOM     80  O   UNL A   1      43.486  18.131  24.873  1.00  0.00    -0.744 OA
ENDBRANCH  76  77
ENDBRANCH  48  71
BRANCH  60  81
ATOM     81  C   UNL A   1      49.623  26.528  26.364  1.00  0.00    -0.014 A 
ATOM     82  C   UNL A   1      50.464  25.943  27.327  1.00  0.00     0.010 A 
ATOM     83  C   UNL A   1      50.097  26.691  25.048  1.00  0.00     0.010 A 
ATOM     84  C   UNL A   1      51.764  25.559  26.988  1.00  0.00     0.020 A 
ATOM     85  C   UNL A   1      51.384  26.280  24.699  1.00  0.00     0.020 A 
ATOM     86  C   UNL A   1      52.215  25.729  25.676  1.00  0.00     0.054 A 
BRANCH  86  87
ATOM     87  S   UNL A   1      53.891  25.178  25.251  1.00  0.00     0.124 S 
ATOM     88  O   UNL A   1      54.602  25.370  26.512  1.00  0.00    -0.237 OA
ATOM     89  O   UNL A   1      53.679  23.789  24.853  1.00  0.00    -0.237 OA
ATOM     90  O   UNL A   1      54.288  26.077  24.169  1.00  0.00    -0.744 OA
ENDBRANCH  86  87
ENDBRANCH  60  81
ENDBRANCH  34  35
ENDBRANCH  26  29
ENDBRANCH  24  25
ENDBRANCH   1  24
TORSDOF 15
ENDMDL
MODEL 2
REMARK VINA RESULT:     -12.3      3.030      3.707
REMARK SMILES C[C@@H]1[C@@H](C(=O)NCCCNC(=O)c2ccc(-c3c4nc(c(-c5ccc(S(=O)(=O)[O-])cc5)c5ccc([nH]5)c(-c5ccc(S(=O)(=O)[O-])cc5)c5nc(c(-c6ccc(S(=O)(=O)[O-])cc6)c6ccc3[nH]6)C=C5)C=C4)cc2)CCN1C(=O)N1CCC[C@H]2CCC[C@@H]21
REMARK SMILES IDX 8 1 7 2 6 3 4 4 5 5 3 7 1 8 2 9 75 10 73 11 74 12 76 13
REMARK SMILES IDX 77 14 78 15 79 16 86 17 80 18 82 19 85 20 81 21 83 22 84 23
REMARK SMILES IDX 9 24 10 25 11 26 12 28 13 29 14 30 72 31 15 32 71 33 16 34
REMARK SMILES IDX 17 35 18 36 65 37 19 38 70 39 64 40 66 41 20 42 69 43 63 44
REMARK SMILES IDX 62 45 21 47 51 48 32 49 50 50 33 51 36 52 49 53 67 54 34 55
REMARK SMILES IDX 35 56 48 58 68 59 37 60 22 61 23 62 31 63 24 64 30 65 25 66
REMARK SMILES IDX 26 67 27 68 28 69 29 70 52 71 53 72 61 73 54 74 60 75 55 76
REMARK SMILES IDX 56 77 57 78 58 79 59 80 38 81 39 82 47 83 40 84 46 85 41 86
REMARK SMILES IDX 42 87 43 88 44 89 45 90
REMARK H PARENT 6 6 10 27 66 46 36 57
REMARK Flexibility Score: inf
ROOT
ATOM      1  C   UNL A   1      34.019  28.005  26.183  1.00  0.00     0.042 C 
ENDROOT
BRANCH   1   2
ATOM      2  C   UNL A   1      33.647  28.684  24.878  1.00  0.00     0.117 C 
BRANCH   2   3
ATOM      3  N   UNL A   1      33.769  27.825  23.714  1.00  0.00    -0.356 N 
ATOM      4  C   UNL A   1      32.909  26.873  23.248  1.00  0.00     0.225 C 
ATOM      5  O   UNL A   1      33.208  26.298  22.202  1.00  0.00    -0.275 OA
ATOM      6  H   UNL A   1      34.591  27.947  23.184  1.00  0.00     0.163 HD
BRANCH   4   7
ATOM      7  C   UNL A   1      31.695  26.496  24.087  1.00  0.00     0.102 C 
ATOM      8  C   UNL A   1      31.190  25.479  26.305  1.00  0.00     0.032 C 
ATOM      9  C   UNL A   1      31.972  25.277  25.000  1.00  0.00     0.096 C 
ATOM     10  N   UNL A   1      31.504  24.118  24.208  1.00  0.00    -0.321 N 
ATOM     11  C   UNL A   1      30.473  26.030  23.288  1.00  0.00     0.037 C 
ATOM     12  C   UNL A   1      30.729  24.556  23.067  1.00  0.00     0.122 C 
BRANCH  10  13
ATOM     13  C   UNL A   1      32.070  22.856  24.115  1.00  0.00     0.320 C 
ATOM     14  O   UNL A   1      31.855  22.115  23.155  1.00  0.00    -0.248 OA
BRANCH  13  15
ATOM     15  N   UNL A   1      32.979  22.522  25.083  1.00  0.00    -0.321 N 
ATOM     16  C   UNL A   1      32.589  21.787  26.276  1.00  0.00     0.121 C 
ATOM     17  C   UNL A   1      34.398  22.432  24.800  1.00  0.00     0.090 C 
ATOM     18  C   UNL A   1      33.320  22.330  27.508  1.00  0.00     0.022 C 
ATOM     19  C   UNL A   1      35.122  23.134  25.950  1.00  0.00     0.012 C 
ATOM     20  C   UNL A   1      34.986  23.139  23.583  1.00  0.00     0.025 C 
ATOM     21  C   UNL A   1      34.840  22.431  27.277  1.00  0.00     0.007 C 
ATOM     22  C   UNL A   1      36.565  23.170  25.476  1.00  0.00     0.006 C 
ATOM     23  C   UNL A   1      36.459  23.361  23.956  1.00  0.00     0.002 C 
ENDBRANCH  13  15
ENDBRANCH  10  13
ENDBRANCH   4   7
ENDBRANCH   2   3
ENDBRANCH   1   2
BRANCH   1  24
ATOM     24  C   UNL A   1      33.261  28.505  27.402  1.00  0.00     0.118 C 
BRANCH  24  25
ATOM     25  N   UNL A   1      33.333  29.949  27.581  1.00  0.00    -0.352 N 
ATOM     26  C   UNL A   1      34.361  30.748  28.030  1.00  0.00     0.251 C 
ATOM     27  H   UNL A   1      32.510  30.434  27.340  1.00  0.00     0.163 HD
ATOM     28  O   UNL A   1      34.157  31.937  28.231  1.00  0.00    -0.269 OA
BRANCH  26  29
ATOM     29  C   UNL A   1      35.697  30.167  28.307  1.00  0.00     0.039 A 
ATOM     30  C   UNL A   1      36.660  30.174  27.295  1.00  0.00     0.014 A 
ATOM     31  C   UNL A   1      36.007  29.625  29.554  1.00  0.00     0.014 A 
ATOM     32  C   UNL A   1      37.957  29.727  27.568  1.00  0.00     0.010 A 
ATOM     33  C   UNL A   1      37.323  29.290  29.857  1.00  0.00     0.010 A 
ATOM     34  C   UNL A   1      38.315  29.332  28.866  1.00  0.00    -0.014 A 
BRANCH  34  35
ATOM     35  C   UNL A   1      39.711  28.955  29.214  1.00  0.00     0.031 A 
ATOM     36  C   UNL A   1      40.619  29.952  29.886  1.00  0.00     0.074 A 
ATOM     37  C   UNL A   1      40.186  27.743  28.861  1.00  0.00     0.049 A 
ATOM     38  N   UNL A   1      41.886  29.837  30.193  1.00  0.00    -0.248 NA
ATOM     39  C   UNL A   1      40.036  31.260  30.229  1.00  0.00     0.031 C 
ATOM     40  C   UNL A   1      39.426  26.700  28.166  1.00  0.00     0.029 A 
ATOM     41  N   UNL A   1      41.429  27.183  29.033  1.00  0.00    -0.354 N 
ATOM     42  C   UNL A   1      42.254  31.061  30.745  1.00  0.00     0.074 A 
ATOM     43  C   UNL A   1      41.095  31.922  30.674  1.00  0.00     0.031 C 
ATOM     44  C   UNL A   1      40.205  25.618  28.006  1.00  0.00     0.029 A 
ATOM     45  C   UNL A   1      41.533  25.903  28.538  1.00  0.00     0.049 A 
ATOM     46  H   UNL A   1      42.175  27.653  29.470  1.00  0.00     0.167 HD
ATOM     47  C   UNL A   1      43.440  31.428  31.283  1.00  0.00     0.031 A 
ATOM     48  C   UNL A   1      42.580  25.055  28.509  1.00  0.00     0.031 A 
ATOM     49  C   UNL A   1      44.588  30.564  31.369  1.00  0.00     0.049 A 
ATOM     50  C   UNL A   1      43.892  25.489  29.104  1.00  0.00     0.074 A 
ATOM     51  C   UNL A   1      45.818  30.824  31.948  1.00  0.00     0.029 A 
ATOM     52  N   UNL A   1      44.646  29.275  30.865  1.00  0.00    -0.354 N 
ATOM     53  N   UNL A   1      44.200  26.630  29.675  1.00  0.00    -0.248 NA
ATOM     54  C   UNL A   1      44.994  24.519  29.060  1.00  0.00     0.031 C 
ATOM     55  C   UNL A   1      46.639  29.711  31.745  1.00  0.00     0.029 A 
ATOM     56  C   UNL A   1      45.900  28.733  31.097  1.00  0.00     0.049 A 
ATOM     57  H   UNL A   1      43.907  28.811  30.409  1.00  0.00     0.167 HD
ATOM     58  C   UNL A   1      45.523  26.502  30.085  1.00  0.00     0.074 A 
ATOM     59  C   UNL A   1      45.950  25.169  29.710  1.00  0.00     0.031 C 
ATOM     60  C   UNL A   1      46.311  27.405  30.720  1.00  0.00     0.031 A 
BRANCH  47  61
ATOM     61  C   UNL A   1      43.555  32.830  31.825  1.00  0.00    -0.014 A 
ATOM     62  C   UNL A   1      43.338  33.105  33.188  1.00  0.00     0.010 A 
ATOM     63  C   UNL A   1      43.922  33.883  30.967  1.00  0.00     0.010 A 
ATOM     64  C   UNL A   1      43.441  34.409  33.674  1.00  0.00     0.020 A 
ATOM     65  C   UNL A   1      44.058  35.187  31.456  1.00  0.00     0.020 A 
ATOM     66  C   UNL A   1      43.799  35.443  32.804  1.00  0.00     0.054 A 
BRANCH  66  67
ATOM     67  S   UNL A   1      43.948  37.124  33.469  1.00  0.00     0.124 S 
ATOM     68  O   UNL A   1      42.704  37.260  34.223  1.00  0.00    -0.237 OA
ATOM     69  O   UNL A   1      45.163  37.043  34.275  1.00  0.00    -0.237 OA
ATOM     70  O   UNL A   1      44.048  37.962  32.277  1.00  0.00    -0.744 OA
ENDBRANCH  66  67
ENDBRANCH  47  61
BRANCH  48  71
ATOM     71  C   UNL A   1      42.425  23.700  27.911  1.00  0.00    -0.014 A 
ATOM     72  C   UNL A   1      42.658  23.493  26.540  1.00  0.00     0.010 A 
ATOM     73  C   UNL A   1      42.052  22.604  28.713  1.00  0.00     0.010 A 
ATOM     74  C   UNL A   1      42.502  22.223  25.976  1.00  0.00     0.020 A 
ATOM     75  C   UNL A   1      41.925  21.327  28.159  1.00  0.00     0.020 A 
ATOM     76  C   UNL A   1      42.140  21.147  26.791  1.00  0.00     0.054 A 
BRANCH  76  77
ATOM     77  S   UNL A   1      41.993  19.498  26.047  1.00  0.00     0.124 S 
ATOM     78  O   UNL A   1      40.558  19.403  25.800  1.00  0.00    -0.237 OA
ATOM     79  O   UNL A   1      42.835  19.612  24.860  1.00  0.00    -0.237 OA
ATOM     80  O   UNL A   1      42.511  18.609  27.085  1.00  0.00    -0.744 OA
ENDBRANCH  76  77
ENDBRANCH  48  71
BRANCH  60  81
ATOM     81  C   UNL A   1      47.706  26.974  31.085  1.00  0.00    -0.014 A 
ATOM     82  C   UNL A   1      48.005  26.459  32.358  1.00  0.00     0.010 A 
ATOM     83  C   UNL A   1      48.724  27.032  30.113  1.00  0.00     0.010 A 
ATOM     84  C   UNL A   1      49.303  26.040  32.663  1.00  0.00     0.020 A 
ATOM     85  C   UNL A   1      50.014  26.586  30.405  1.00  0.00     0.020 A 
ATOM     86  C   UNL A   1      50.299  26.105  31.685  1.00  0.00     0.054 A 
BRANCH  86  87
ATOM     87  S   UNL A   1      51.964  25.511  32.093  1.00  0.00     0.124 S 
ATOM     88  O   UNL A   1      52.147  26.028  33.446  1.00  0.00    -0.237 OA
ATOM     89  O   UNL A   1      51.820  24.061  31.987  1.00  0.00    -0.237 OA
ATOM     90  O   UNL A   1      52.811  26.123  31.071  1.00  0.00    -0.744 OA
ENDBRANCH  86  87
ENDBRANCH  60  81
ENDBRANCH  34  35
ENDBRANCH  26  29
ENDBRANCH  24  25
ENDBRANCH   1  24
TORSDOF 15
ENDMDL
MODEL 3
REMARK VINA RESULT:     -12.3      1.386      2.053
REMARK SMILES C[C@@H]1[C@@H](C(=O)NCCCNC(=O)c2ccc(-c3c4nc(c(-c5ccc(S(=O)(=O)[O-])cc5)c5ccc([nH]5)c(-c5ccc(S(=O)(=O)[O-])cc5)c5nc(c(-c6ccc(S(=O)(=O)[O-])cc6)c6ccc3[nH]6)C=C5)C=C4)cc2)CCN1C(=O)N1CCC[C@H]2CCC[C@@H]21
REMARK SMILES IDX 8 1 7 2 6 3 4 4 5 5 3 7 1 8 2 9 75 10 73 11 74 12 76 13
REMARK SMILES IDX 77 14 78 15 79 16 86 17 80 18 82 19 85 20 81 21 83 22 84 23
REMARK SMILES IDX 9 24 10 25 11 26 12 28 13 29 14 30 72 31 15 32 71 33 16 34
REMARK SMILES IDX 17 35 18 36 65 37 19 38 70 39 64 40 66 41 20 42 69 43 63 44
REMARK SMILES IDX 62 45 21 47 51 48 32 49 50 50 33 51 36 52 49 53 67 54 34 55
REMARK SMILES IDX 35 56 48 58 68 59 37 60 22 61 23 62 31 63 24 64 30 65 25 66
REMARK SMILES IDX 26 67 27 68 28 69 29 70 52 71 53 72 61 73 54 74 60 75 55 76
REMARK SMILES IDX 56 77 57 78 58 79 59 80 38 81 39 82 47 83 40 84 46 85 41 86
REMARK SMILES IDX 42 87 43 88 44 89 45 90
REMARK H PARENT 6 6 10 27 66 46 36 57
REMARK Flexibility Score: inf
ROOT
ATOM      1  C   UNL A   1      34.354  31.387  27.634  1.00  0.00     0.042 C 
ENDROOT
BRANCH   1   2
ATOM      2  C   UNL A   1      33.500  30.446  26.805  1.00  0.00     0.117 C 
BRANCH   2   3
ATOM      3  N   UNL A   1      32.601  29.621  27.593  1.00  0.00    -0.356 N 
ATOM      4  C   UNL A   1      32.032  28.421  27.280  1.00  0.00     0.225 C 
ATOM      5  O   UNL A   1      31.333  27.881  28.137  1.00  0.00    -0.275 OA
ATOM      6  H   UNL A   1      32.368  29.981  28.479  1.00  0.00     0.163 HD
BRANCH   4   7
ATOM      7  C   UNL A   1      32.198  27.866  25.871  1.00  0.00     0.102 C 
ATOM      8  C   UNL A   1      30.788  26.896  24.060  1.00  0.00     0.032 C 
ATOM      9  C   UNL A   1      31.148  26.775  25.547  1.00  0.00     0.096 C 
ATOM     10  N   UNL A   1      31.830  25.505  25.885  1.00  0.00    -0.321 N 
ATOM     11  C   UNL A   1      33.517  27.131  25.614  1.00  0.00     0.037 C 
ATOM     12  C   UNL A   1      33.245  25.723  26.094  1.00  0.00     0.122 C 
BRANCH  10  13
ATOM     13  C   UNL A   1      31.291  24.372  26.473  1.00  0.00     0.320 C 
ATOM     14  O   UNL A   1      30.132  24.345  26.892  1.00  0.00    -0.248 OA
BRANCH  13  15
ATOM     15  N   UNL A   1      32.068  23.245  26.452  1.00  0.00    -0.321 N 
ATOM     16  C   UNL A   1      32.584  22.651  27.675  1.00  0.00     0.121 C 
ATOM     17  C   UNL A   1      32.036  22.316  25.340  1.00  0.00     0.090 C 
ATOM     18  C   UNL A   1      34.020  22.158  27.472  1.00  0.00     0.022 C 
ATOM     19  C   UNL A   1      33.489  21.959  25.022  1.00  0.00     0.012 C 
ATOM     20  C   UNL A   1      31.520  22.765  23.977  1.00  0.00     0.025 C 
ATOM     21  C   UNL A   1      34.152  21.275  26.217  1.00  0.00     0.007 C 
ATOM     22  C   UNL A   1      33.373  21.157  23.738  1.00  0.00     0.006 C 
ATOM     23  C   UNL A   1      32.206  21.814  22.986  1.00  0.00     0.002 C 
ENDBRANCH  13  15
ENDBRANCH  10  13
ENDBRANCH   4   7
ENDBRANCH   2   3
ENDBRANCH   1   2
BRANCH   1  24
ATOM     24  C   UNL A   1      35.627  30.773  28.192  1.00  0.00     0.118 C 
BRANCH  24  25
ATOM     25  N   UNL A   1      35.529  30.407  29.599  1.00  0.00    -0.352 N 
ATOM     26  C   UNL A   1      36.470  29.884  30.458  1.00  0.00     0.251 C 
ATOM     27  H   UNL A   1      34.644  30.560  30.002  1.00  0.00     0.163 HD
ATOM     28  O   UNL A   1      36.130  29.522  31.576  1.00  0.00    -0.269 OA
BRANCH  26  29
ATOM     29  C   UNL A   1      37.877  29.722  30.021  1.00  0.00     0.039 A 
ATOM     30  C   UNL A   1      38.880  29.630  30.990  1.00  0.00     0.014 A 
ATOM     31  C   UNL A   1      38.214  29.652  28.669  1.00  0.00     0.014 A 
ATOM     32  C   UNL A   1      40.199  29.371  30.602  1.00  0.00     0.010 A 
ATOM     33  C   UNL A   1      39.500  29.282  28.292  1.00  0.00     0.010 A 
ATOM     34  C   UNL A   1      40.512  29.140  29.253  1.00  0.00    -0.014 A 
BRANCH  34  35
ATOM     35  C   UNL A   1      41.881  28.757  28.821  1.00  0.00     0.031 A 
ATOM     36  C   UNL A   1      42.973  29.794  28.757  1.00  0.00     0.074 A 
ATOM     37  C   UNL A   1      42.128  27.494  28.416  1.00  0.00     0.049 A 
ATOM     38  N   UNL A   1      44.204  29.670  28.331  1.00  0.00    -0.248 NA
ATOM     39  C   UNL A   1      42.628  31.155  29.202  1.00  0.00     0.031 C 
ATOM     40  C   UNL A   1      41.149  26.404  28.385  1.00  0.00     0.029 A 
ATOM     41  N   UNL A   1      43.281  26.913  27.945  1.00  0.00    -0.354 N 
ATOM     42  C   UNL A   1      44.770  30.937  28.436  1.00  0.00     0.074 A 
ATOM     43  C   UNL A   1      43.733  31.825  28.908  1.00  0.00     0.031 C 
ATOM     44  C   UNL A   1      41.751  25.282  27.957  1.00  0.00     0.029 A 
ATOM     45  C   UNL A   1      43.142  25.580  27.634  1.00  0.00     0.049 A 
ATOM     46  H   UNL A   1      44.127  27.405  27.840  1.00  0.00     0.167 HD
ATOM     47  C   UNL A   1      46.044  31.322  28.186  1.00  0.00     0.031 A 
ATOM     48  C   UNL A   1      44.031  24.697  27.139  1.00  0.00     0.031 A 
ATOM     49  C   UNL A   1      47.081  30.433  27.733  1.00  0.00     0.049 A 
ATOM     50  C   UNL A   1      45.438  25.150  26.859  1.00  0.00     0.074 A 
ATOM     51  C   UNL A   1      48.416  30.715  27.506  1.00  0.00     0.029 A 
ATOM     52  N   UNL A   1      46.899  29.091  27.441  1.00  0.00    -0.354 N 
ATOM     53  N   UNL A   1      45.967  26.339  27.023  1.00  0.00    -0.248 NA
ATOM     54  C   UNL A   1      46.369  24.141  26.336  1.00  0.00     0.031 C 
ATOM     55  C   UNL A   1      49.030  29.556  27.023  1.00  0.00     0.029 A 
ATOM     56  C   UNL A   1      48.093  28.535  27.011  1.00  0.00     0.049 A 
ATOM     57  H   UNL A   1      46.048  28.603  27.526  1.00  0.00     0.167 HD
ATOM     58  C   UNL A   1      47.302  26.213  26.653  1.00  0.00     0.074 A 
ATOM     59  C   UNL A   1      47.501  24.829  26.270  1.00  0.00     0.031 C 
ATOM     60  C   UNL A   1      48.277  27.156  26.635  1.00  0.00     0.031 A 
BRANCH  47  61
ATOM     61  C   UNL A   1      46.387  32.775  28.401  1.00  0.00    -0.014 A 
ATOM     62  C   UNL A   1      46.938  33.221  29.616  1.00  0.00     0.010 A 
ATOM     63  C   UNL A   1      46.191  33.700  27.360  1.00  0.00     0.010 A 
ATOM     64  C   UNL A   1      47.244  34.570  29.803  1.00  0.00     0.020 A 
ATOM     65  C   UNL A   1      46.526  35.047  27.531  1.00  0.00     0.020 A 
ATOM     66  C   UNL A   1      47.034  35.476  28.759  1.00  0.00     0.054 A 
BRANCH  66  67
ATOM     67  S   UNL A   1      47.464  37.219  29.023  1.00  0.00     0.124 S 
ATOM     68  O   UNL A   1      47.568  37.284  30.479  1.00  0.00    -0.237 OA
ATOM     69  O   UNL A   1      48.724  37.351  28.297  1.00  0.00    -0.237 OA
ATOM     70  O   UNL A   1      46.335  37.945  28.447  1.00  0.00    -0.744 OA
ENDBRANCH  66  67
ENDBRANCH  47  61
BRANCH  48  71
ATOM     71  C   UNL A   1      43.622  23.285  26.894  1.00  0.00    -0.014 A 
ATOM     72  C   UNL A   1      43.816  22.694  25.634  1.00  0.00     0.010 A 
ATOM     73  C   UNL A   1      43.044  22.520  27.925  1.00  0.00     0.010 A 
ATOM     74  C   UNL A   1      43.422  21.373  25.400  1.00  0.00     0.020 A 
ATOM     75  C   UNL A   1      42.677  21.189  27.705  1.00  0.00     0.020 A 
ATOM     76  C   UNL A   1      42.858  20.628  26.439  1.00  0.00     0.054 A 
BRANCH  76  77
ATOM     77  S   UNL A   1      42.401  18.899  26.128  1.00  0.00     0.124 S 
ATOM     78  O   UNL A   1      41.000  19.020  25.739  1.00  0.00    -0.237 OA
ATOM     79  O   UNL A   1      43.325  18.517  25.064  1.00  0.00    -0.237 OA
ATOM     80  O   UNL A   1      42.641  18.247  27.414  1.00  0.00    -0.744 OA
ENDBRANCH  76  77
ENDBRANCH  48  71
BRANCH  60  81
ATOM     81  C   UNL A   1      49.658  26.721  26.224  1.00  0.00    -0.014 A 
ATOM     82  C   UNL A   1      50.516  26.061  27.122  1.00  0.00     0.010 A 
ATOM     83  C   UNL A   1      50.080  26.926  24.896  1.00  0.00     0.010 A 
ATOM     84  C   UNL A   1      51.783  25.643  26.707  1.00  0.00     0.020 A 
ATOM     85  C   UNL A   1      51.334  26.481  24.471  1.00  0.00     0.020 A 
ATOM     86  C   UNL A   1      52.183  25.854  25.385  1.00  0.00     0.054 A 
BRANCH  86  87
ATOM     87  S   UNL A   1      53.815  25.259  24.861  1.00  0.00     0.124 S 
ATOM     88  O   UNL A   1      53.984  25.930  23.575  1.00  0.00    -0.237 OA
ATOM     89  O   UNL A   1      54.686  25.729  25.935  1.00  0.00    -0.237 OA
ATOM     90  O   UNL A   1      53.650  23.809  24.791  1.00  0.00    -0.744 OA
ENDBRANCH  86  87
ENDBRANCH  60  81
ENDBRANCH  34  35
ENDBRANCH  26  29
ENDBRANCH  24  25
ENDBRANCH   1  24
TORSDOF 15
ENDMDL
