MODEL 1
REMARK VINA RESULT:     -10.3      0.000      0.000
REMARK SMILES O=C(CCCOc1ccc(Cl)cc1Cl)Nc1cccc(C(=O)NCCCNC(=O)c2ccc(-c3c4nc(c(-c5ccc(S(=O)(=O)[O-])cc5)c5ccc([nH]5)c(-c5ccc(S(=O)(=O)[O-])cc5)c5nc(c(-c6ccc(S(=O)(=O)[O-])cc6)c6ccc3[nH]6)C=C5)C=C4)cc2)c1
REMARK SMILES IDX 21 1 22 2 23 3 20 5 16 6 17 7 90 8 18 9 19 10 15 11 1 12
REMARK SMILES IDX 2 13 3 15 4 16 5 17 6 18 7 19 8 20 13 21 9 22 12 23 14 24
REMARK SMILES IDX 10 25 11 26 24 27 25 28 26 29 27 30 28 31 29 33 30 34 31 35
REMARK SMILES IDX 89 36 32 37 88 38 33 39 34 40 35 41 82 42 36 43 87 44 81 45
REMARK SMILES IDX 83 46 37 47 86 48 80 49 79 50 38 52 68 53 49 54 67 55 50 56
REMARK SMILES IDX 53 57 66 58 84 59 51 60 52 61 65 63 85 64 54 65 39 66 40 67
REMARK SMILES IDX 48 68 41 69 47 70 42 71 43 72 44 73 45 74 46 75 69 76 70 77
REMARK SMILES IDX 78 78 71 79 77 80 72 81 73 82 74 83 75 84 76 85 55 86 56 87
REMARK SMILES IDX 64 88 57 89 63 90 58 91 59 92 60 93 61 94 62 95
REMARK H PARENT 23 4 15 14 27 32 83 51 53 62
REMARK Flexibility Score: inf
ROOT
ATOM      1  C   UNL A   1      34.566  29.732  27.240  1.00  0.00     0.251 C 
ATOM      2  O   UNL A   1      35.527  28.963  27.280  1.00  0.00    -0.269 OA
ATOM      3  N   UNL A   1      34.701  30.982  27.803  1.00  0.00    -0.352 N 
ATOM      4  H   UNL A   1      35.591  31.147  28.189  1.00  0.00     0.163 HD
ENDROOT
BRANCH   1   5
ATOM      5  C   UNL A   1      33.283  29.246  26.666  1.00  0.00     0.041 A 
ATOM      6  C   UNL A   1      31.596  27.529  26.488  1.00  0.00     0.041 A 
ATOM      7  C   UNL A   1      31.191  28.059  25.260  1.00  0.00     0.026 A 
ATOM      8  C   UNL A   1      32.552  28.206  27.240  1.00  0.00     0.040 A 
ATOM      9  C   UNL A   1      31.764  29.238  24.780  1.00  0.00     0.003 A 
ATOM     10  C   UNL A   1      32.836  29.810  25.465  1.00  0.00     0.014 A 
BRANCH   6  11
ATOM     11  N   UNL A   1      31.148  26.237  26.833  1.00  0.00    -0.326 N 
ATOM     12  O   UNL A   1      32.915  24.916  26.156  1.00  0.00    -0.275 OA
ATOM     13  C   UNL A   1      31.731  25.044  26.466  1.00  0.00     0.224 C 
ATOM     14  H   UNL A   1      30.340  26.182  27.392  1.00  0.00     0.169 HD
BRANCH  13  15
ATOM     15  C   UNL A   1      30.781  23.866  26.306  1.00  0.00     0.104 C 
BRANCH  15  16
ATOM     16  C   UNL A   1      31.175  22.694  25.407  1.00  0.00     0.051 C 
BRANCH  16  17
ATOM     17  C   UNL A   1      31.390  22.947  23.907  1.00  0.00     0.230 C 
BRANCH  17  18
ATOM     18  O   UNL A   1      32.205  21.973  23.251  1.00  0.00    -0.492 OA
BRANCH  18  19
ATOM     19  C   UNL A   1      33.470  21.835  23.749  1.00  0.00     0.137 A 
ATOM     20  C   UNL A   1      34.328  22.911  23.506  1.00  0.00     0.049 A 
ATOM     21  C   UNL A   1      33.904  20.770  24.548  1.00  0.00     0.084 A 
ATOM     22  C   UNL A   1      35.643  22.884  23.968  1.00  0.00     0.024 A 
ATOM     23  C   UNL A   1      35.213  20.758  25.042  1.00  0.00     0.045 A 
ATOM     24  Cl  UNL A   1      32.865  19.459  24.974  1.00  0.00    -0.080 Cl
ATOM     25  C   UNL A   1      36.079  21.808  24.737  1.00  0.00     0.042 A 
ATOM     26  Cl  UNL A   1      37.698  21.786  25.318  1.00  0.00    -0.084 Cl
ENDBRANCH  18  19
ENDBRANCH  17  18
ENDBRANCH  16  17
ENDBRANCH  15  16
ENDBRANCH  13  15
ENDBRANCH   6  11
ENDBRANCH   1   5
BRANCH   3  27
ATOM     27  C   UNL A   1      33.784  32.110  27.941  1.00  0.00     0.118 C 
BRANCH  27  28
ATOM     28  C   UNL A   1      34.031  32.973  29.169  1.00  0.00     0.042 C 
BRANCH  28  29
ATOM     29  C   UNL A   1      33.779  34.457  28.970  1.00  0.00     0.118 C 
BRANCH  29  30
ATOM     30  N   UNL A   1      32.971  35.044  30.032  1.00  0.00    -0.352 N 
ATOM     31  C   UNL A   1      33.107  35.002  31.401  1.00  0.00     0.251 C 
ATOM     32  H   UNL A   1      32.193  35.558  29.717  1.00  0.00     0.163 HD
ATOM     33  O   UNL A   1      32.191  35.413  32.107  1.00  0.00    -0.269 OA
BRANCH  31  34
ATOM     34  C   UNL A   1      34.328  34.449  32.031  1.00  0.00     0.039 A 
ATOM     35  C   UNL A   1      34.274  33.179  32.614  1.00  0.00     0.014 A 
ATOM     36  C   UNL A   1      35.518  35.177  32.074  1.00  0.00     0.014 A 
ATOM     37  C   UNL A   1      35.432  32.609  33.153  1.00  0.00     0.010 A 
ATOM     38  C   UNL A   1      36.689  34.572  32.518  1.00  0.00     0.010 A 
ATOM     39  C   UNL A   1      36.662  33.281  33.062  1.00  0.00    -0.014 A 
BRANCH  39  40
ATOM     40  C   UNL A   1      37.932  32.650  33.506  1.00  0.00     0.031 A 
ATOM     41  C   UNL A   1      38.481  32.933  34.880  1.00  0.00     0.074 A 
ATOM     42  C   UNL A   1      38.636  31.893  32.640  1.00  0.00     0.049 A 
ATOM     43  N   UNL A   1      39.617  32.554  35.408  1.00  0.00    -0.248 NA
ATOM     44  C   UNL A   1      37.660  33.774  35.768  1.00  0.00     0.031 C 
ATOM     45  C   UNL A   1      38.237  31.585  31.264  1.00  0.00     0.029 A 
ATOM     46  N   UNL A   1      39.845  31.256  32.780  1.00  0.00    -0.354 N 
ATOM     47  C   UNL A   1      39.659  33.131  36.673  1.00  0.00     0.074 A 
ATOM     48  C   UNL A   1      38.455  33.919  36.817  1.00  0.00     0.031 C 
ATOM     49  C   UNL A   1      39.168  30.802  30.698  1.00  0.00     0.029 A 
ATOM     50  C   UNL A   1      40.258  30.596  31.646  1.00  0.00     0.049 A 
ATOM     51  H   UNL A   1      40.367  31.272  33.615  1.00  0.00     0.167 HD
ATOM     52  C   UNL A   1      40.607  33.004  37.631  1.00  0.00     0.031 A 
ATOM     53  C   UNL A   1      41.393  29.917  31.388  1.00  0.00     0.031 A 
ATOM     54  C   UNL A   1      41.796  32.206  37.485  1.00  0.00     0.049 A 
ATOM     55  C   UNL A   1      42.435  29.799  32.467  1.00  0.00     0.074 A 
ATOM     56  C   UNL A   1      42.780  31.954  38.425  1.00  0.00     0.029 A 
ATOM     57  N   UNL A   1      42.166  31.538  36.328  1.00  0.00    -0.354 N 
ATOM     58  N   UNL A   1      42.416  30.283  33.686  1.00  0.00    -0.248 NA
ATOM     59  C   UNL A   1      43.649  29.039  32.139  1.00  0.00     0.031 C 
ATOM     60  C   UNL A   1      43.778  31.189  37.815  1.00  0.00     0.029 A 
ATOM     61  C   UNL A   1      43.382  30.904  36.518  1.00  0.00     0.049 A 
ATOM     62  H   UNL A   1      41.641  31.517  35.495  1.00  0.00     0.167 HD
ATOM     63  C   UNL A   1      43.604  29.866  34.277  1.00  0.00     0.074 A 
ATOM     64  C   UNL A   1      44.307  29.074  33.289  1.00  0.00     0.031 C 
ATOM     65  C   UNL A   1      44.071  30.119  35.525  1.00  0.00     0.031 A 
BRANCH  52  66
ATOM     66  C   UNL A   1      40.407  33.752  38.925  1.00  0.00    -0.014 A 
ATOM     67  C   UNL A   1      40.816  35.090  39.066  1.00  0.00     0.010 A 
ATOM     68  C   UNL A   1      39.739  33.126  39.993  1.00  0.00     0.010 A 
ATOM     69  C   UNL A   1      40.593  35.777  40.263  1.00  0.00     0.020 A 
ATOM     70  C   UNL A   1      39.487  33.818  41.182  1.00  0.00     0.020 A 
ATOM     71  C   UNL A   1      39.928  35.137  41.314  1.00  0.00     0.054 A 
BRANCH  71  72
ATOM     72  S   UNL A   1      39.618  36.067  42.839  1.00  0.00     0.124 S 
ATOM     73  O   UNL A   1      38.302  35.571  43.231  1.00  0.00    -0.237 OA
ATOM     74  O   UNL A   1      40.726  35.653  43.695  1.00  0.00    -0.237 OA
ATOM     75  O   UNL A   1      39.654  37.462  42.408  1.00  0.00    -0.744 OA
ENDBRANCH  71  72
ENDBRANCH  52  66
BRANCH  53  76
ATOM     76  C   UNL A   1      41.607  29.306  30.046  1.00  0.00    -0.014 A 
ATOM     77  C   UNL A   1      42.296  30.007  29.041  1.00  0.00     0.010 A 
ATOM     78  C   UNL A   1      41.129  28.012  29.770  1.00  0.00     0.010 A 
ATOM     79  C   UNL A   1      42.484  29.435  27.778  1.00  0.00     0.020 A 
ATOM     80  C   UNL A   1      41.342  27.424  28.519  1.00  0.00     0.020 A 
ATOM     81  C   UNL A   1      42.007  28.145  27.527  1.00  0.00     0.054 A 
BRANCH  81  82
ATOM     82  S   UNL A   1      42.304  27.406  25.898  1.00  0.00     0.124 S 
ATOM     83  O   UNL A   1      41.067  26.665  25.670  1.00  0.00    -0.237 OA
ATOM     84  O   UNL A   1      42.504  28.579  25.051  1.00  0.00    -0.237 OA
ATOM     85  O   UNL A   1      43.496  26.587  26.105  1.00  0.00    -0.744 OA
ENDBRANCH  81  82
ENDBRANCH  53  76
BRANCH  65  86
ATOM     86  C   UNL A   1      45.394  29.512  35.910  1.00  0.00    -0.014 A 
ATOM     87  C   UNL A   1      45.469  28.221  36.463  1.00  0.00     0.010 A 
ATOM     88  C   UNL A   1      46.583  30.216  35.648  1.00  0.00     0.010 A 
ATOM     89  C   UNL A   1      46.711  27.655  36.766  1.00  0.00     0.020 A 
ATOM     90  C   UNL A   1      47.827  29.641  35.921  1.00  0.00     0.020 A 
ATOM     91  C   UNL A   1      47.882  28.368  36.489  1.00  0.00     0.054 A 
BRANCH  91  92
ATOM     92  S   UNL A   1      49.481  27.584  36.837  1.00  0.00     0.124 S 
ATOM     93  O   UNL A   1      49.782  28.090  38.172  1.00  0.00    -0.237 OA
ATOM     94  O   UNL A   1      49.162  26.161  36.760  1.00  0.00    -0.237 OA
ATOM     95  O   UNL A   1      50.350  28.082  35.772  1.00  0.00    -0.744 OA
ENDBRANCH  91  92
ENDBRANCH  65  86
ENDBRANCH  39  40
ENDBRANCH  31  34
ENDBRANCH  29  30
ENDBRANCH  28  29
ENDBRANCH  27  28
ENDBRANCH   3  27
TORSDOF 19
ENDMDL
MODEL 2
REMARK VINA RESULT:     -10.0      6.037      7.770
REMARK SMILES O=C(CCCOc1ccc(Cl)cc1Cl)Nc1cccc(C(=O)NCCCNC(=O)c2ccc(-c3c4nc(c(-c5ccc(S(=O)(=O)[O-])cc5)c5ccc([nH]5)c(-c5ccc(S(=O)(=O)[O-])cc5)c5nc(c(-c6ccc(S(=O)(=O)[O-])cc6)c6ccc3[nH]6)C=C5)C=C4)cc2)c1
REMARK SMILES IDX 21 1 22 2 23 3 20 5 16 6 17 7 90 8 18 9 19 10 15 11 1 12
REMARK SMILES IDX 2 13 3 15 4 16 5 17 6 18 7 19 8 20 13 21 9 22 12 23 14 24
REMARK SMILES IDX 10 25 11 26 24 27 25 28 26 29 27 30 28 31 29 33 30 34 31 35
REMARK SMILES IDX 89 36 32 37 88 38 33 39 34 40 35 41 82 42 36 43 87 44 81 45
REMARK SMILES IDX 83 46 37 47 86 48 80 49 79 50 38 52 68 53 49 54 67 55 50 56
REMARK SMILES IDX 53 57 66 58 84 59 51 60 52 61 65 63 85 64 54 65 39 66 40 67
REMARK SMILES IDX 48 68 41 69 47 70 42 71 43 72 44 73 45 74 46 75 69 76 70 77
REMARK SMILES IDX 78 78 71 79 77 80 72 81 73 82 74 83 75 84 76 85 55 86 56 87
REMARK SMILES IDX 64 88 57 89 63 90 58 91 59 92 60 93 61 94 62 95
REMARK H PARENT 23 4 15 14 27 32 83 51 53 62
REMARK Flexibility Score: inf
ROOT
ATOM      1  C   UNL A   1      31.825  28.197  27.011  1.00  0.00     0.251 C 
ATOM      2  O   UNL A   1      31.183  27.423  27.723  1.00  0.00    -0.269 OA
ATOM      3  N   UNL A   1      32.655  29.113  27.621  1.00  0.00    -0.352 N 
ATOM      4  H   UNL A   1      32.660  29.049  28.603  1.00  0.00     0.163 HD
ENDROOT
BRANCH   1   5
ATOM      5  C   UNL A   1      31.610  28.165  25.541  1.00  0.00     0.041 A 
ATOM      6  C   UNL A   1      32.158  27.258  23.372  1.00  0.00     0.041 A 
ATOM      7  C   UNL A   1      31.647  28.409  22.766  1.00  0.00     0.026 A 
ATOM      8  C   UNL A   1      32.016  27.092  24.748  1.00  0.00     0.040 A 
ATOM      9  C   UNL A   1      31.029  29.394  23.537  1.00  0.00     0.003 A 
ATOM     10  C   UNL A   1      31.046  29.290  24.927  1.00  0.00     0.014 A 
BRANCH   6  11
ATOM     11  N   UNL A   1      32.954  26.393  22.592  1.00  0.00    -0.326 N 
ATOM     12  O   UNL A   1      31.581  25.967  20.788  1.00  0.00    -0.275 OA
ATOM     13  C   UNL A   1      32.543  25.669  21.495  1.00  0.00     0.224 C 
ATOM     14  H   UNL A   1      33.897  26.298  22.859  1.00  0.00     0.169 HD
BRANCH  13  15
ATOM     15  C   UNL A   1      33.263  24.348  21.268  1.00  0.00     0.104 C 
BRANCH  15  16
ATOM     16  C   UNL A   1      32.758  23.084  21.966  1.00  0.00     0.051 C 
BRANCH  16  17
ATOM     17  C   UNL A   1      32.644  23.076  23.498  1.00  0.00     0.230 C 
BRANCH  17  18
ATOM     18  O   UNL A   1      33.418  22.064  24.145  1.00  0.00    -0.492 OA
BRANCH  18  19
ATOM     19  C   UNL A   1      34.562  22.498  24.753  1.00  0.00     0.137 A 
ATOM     20  C   UNL A   1      35.494  23.106  23.907  1.00  0.00     0.049 A 
ATOM     21  C   UNL A   1      34.796  22.467  26.133  1.00  0.00     0.084 A 
ATOM     22  C   UNL A   1      36.698  23.590  24.415  1.00  0.00     0.024 A 
ATOM     23  C   UNL A   1      35.989  22.985  26.649  1.00  0.00     0.045 A 
ATOM     24  Cl  UNL A   1      33.643  21.826  27.246  1.00  0.00    -0.080 Cl
ATOM     25  C   UNL A   1      36.939  23.530  25.785  1.00  0.00     0.042 A 
ATOM     26  Cl  UNL A   1      38.421  24.142  26.409  1.00  0.00    -0.084 Cl
ENDBRANCH  18  19
ENDBRANCH  17  18
ENDBRANCH  16  17
ENDBRANCH  15  16
ENDBRANCH  13  15
ENDBRANCH   6  11
ENDBRANCH   1   5
BRANCH   3  27
ATOM     27  C   UNL A   1      33.528  30.159  27.098  1.00  0.00     0.118 C 
BRANCH  27  28
ATOM     28  C   UNL A   1      34.791  30.389  27.913  1.00  0.00     0.042 C 
BRANCH  28  29
ATOM     29  C   UNL A   1      34.989  31.814  28.400  1.00  0.00     0.118 C 
BRANCH  29  30
ATOM     30  N   UNL A   1      34.848  31.945  29.845  1.00  0.00    -0.352 N 
ATOM     31  C   UNL A   1      35.732  31.692  30.869  1.00  0.00     0.251 C 
ATOM     32  H   UNL A   1      33.967  32.271  30.141  1.00  0.00     0.163 HD
ATOM     33  O   UNL A   1      35.326  31.693  32.027  1.00  0.00    -0.269 OA
BRANCH  31  34
ATOM     34  C   UNL A   1      37.156  31.394  30.590  1.00  0.00     0.039 A 
ATOM     35  C   UNL A   1      37.910  30.723  31.557  1.00  0.00     0.014 A 
ATOM     36  C   UNL A   1      37.762  31.792  29.397  1.00  0.00     0.014 A 
ATOM     37  C   UNL A   1      39.237  30.372  31.288  1.00  0.00     0.010 A 
ATOM     38  C   UNL A   1      39.047  31.356  29.090  1.00  0.00     0.010 A 
ATOM     39  C   UNL A   1      39.801  30.640  30.030  1.00  0.00    -0.014 A 
BRANCH  39  40
ATOM     40  C   UNL A   1      41.161  30.166  29.665  1.00  0.00     0.031 A 
ATOM     41  C   UNL A   1      42.323  31.125  29.660  1.00  0.00     0.074 A 
ATOM     42  C   UNL A   1      41.333  28.893  29.254  1.00  0.00     0.049 A 
ATOM     43  N   UNL A   1      43.558  30.920  29.279  1.00  0.00    -0.248 NA
ATOM     44  C   UNL A   1      42.058  32.500  30.116  1.00  0.00     0.031 C 
ATOM     45  C   UNL A   1      40.277  27.880  29.166  1.00  0.00     0.029 A 
ATOM     46  N   UNL A   1      42.455  28.235  28.815  1.00  0.00    -0.354 N 
ATOM     47  C   UNL A   1      44.207  32.142  29.422  1.00  0.00     0.074 A 
ATOM     48  C   UNL A   1      43.219  33.092  29.884  1.00  0.00     0.031 C 
ATOM     49  C   UNL A   1      40.806  26.728  28.727  1.00  0.00     0.029 A 
ATOM     50  C   UNL A   1      42.224  26.929  28.448  1.00  0.00     0.049 A 
ATOM     51  H   UNL A   1      43.343  28.658  28.767  1.00  0.00     0.167 HD
ATOM     52  C   UNL A   1      45.509  32.441  29.202  1.00  0.00     0.031 A 
ATOM     53  C   UNL A   1      43.051  26.002  27.926  1.00  0.00     0.031 A 
ATOM     54  C   UNL A   1      46.489  31.486  28.757  1.00  0.00     0.049 A 
ATOM     55  C   UNL A   1      44.492  26.363  27.682  1.00  0.00     0.074 A 
ATOM     56  C   UNL A   1      47.848  31.673  28.575  1.00  0.00     0.029 A 
ATOM     57  N   UNL A   1      46.217  30.170  28.415  1.00  0.00    -0.354 N 
ATOM     58  N   UNL A   1      45.103  27.502  27.905  1.00  0.00    -0.248 NA
ATOM     59  C   UNL A   1      45.355  25.313  27.124  1.00  0.00     0.031 C 
ATOM     60  C   UNL A   1      48.386  30.489  28.061  1.00  0.00     0.029 A 
ATOM     61  C   UNL A   1      47.376  29.543  27.989  1.00  0.00     0.049 A 
ATOM     62  H   UNL A   1      45.331  29.744  28.469  1.00  0.00     0.167 HD
ATOM     63  C   UNL A   1      46.429  27.298  27.534  1.00  0.00     0.074 A 
ATOM     64  C   UNL A   1      46.532  25.922  27.094  1.00  0.00     0.031 C 
ATOM     65  C   UNL A   1      47.464  28.173  27.554  1.00  0.00     0.031 A 
BRANCH  52  66
ATOM     66  C   UNL A   1      45.954  33.863  29.431  1.00  0.00    -0.014 A 
ATOM     67  C   UNL A   1      46.455  34.281  30.677  1.00  0.00     0.010 A 
ATOM     68  C   UNL A   1      45.931  34.779  28.363  1.00  0.00     0.010 A 
ATOM     69  C   UNL A   1      46.892  35.595  30.861  1.00  0.00     0.020 A 
ATOM     70  C   UNL A   1      46.395  36.087  28.534  1.00  0.00     0.020 A 
ATOM     71  C   UNL A   1      46.861  36.491  29.786  1.00  0.00     0.054 A 
BRANCH  71  72
ATOM     72  S   UNL A   1      47.473  38.178  30.045  1.00  0.00     0.124 S 
ATOM     73  O   UNL A   1      46.676  38.938  29.086  1.00  0.00    -0.237 OA
ATOM     74  O   UNL A   1      47.160  38.418  31.451  1.00  0.00    -0.237 OA
ATOM     75  O   UNL A   1      48.896  38.083  29.733  1.00  0.00    -0.744 OA
ENDBRANCH  71  72
ENDBRANCH  52  66
BRANCH  53  76
ATOM     76  C   UNL A   1      42.534  24.646  27.590  1.00  0.00    -0.014 A 
ATOM     77  C   UNL A   1      42.349  23.680  28.594  1.00  0.00     0.010 A 
ATOM     78  C   UNL A   1      42.215  24.317  26.260  1.00  0.00     0.010 A 
ATOM     79  C   UNL A   1      41.875  22.404  28.271  1.00  0.00     0.020 A 
ATOM     80  C   UNL A   1      41.711  23.054  25.938  1.00  0.00     0.020 A 
ATOM     81  C   UNL A   1      41.557  22.100  26.945  1.00  0.00     0.054 A 
BRANCH  81  82
ATOM     82  S   UNL A   1      40.900  20.455  26.558  1.00  0.00     0.124 S 
ATOM     83  O   UNL A   1      41.945  19.903  25.702  1.00  0.00    -0.237 OA
ATOM     84  O   UNL A   1      40.777  19.846  27.880  1.00  0.00    -0.237 OA
ATOM     85  O   UNL A   1      39.631  20.740  25.893  1.00  0.00    -0.744 OA
ENDBRANCH  81  82
ENDBRANCH  53  76
BRANCH  65  86
ATOM     86  C   UNL A   1      48.813  27.666  27.114  1.00  0.00    -0.014 A 
ATOM     87  C   UNL A   1      49.705  27.081  28.030  1.00  0.00     0.010 A 
ATOM     88  C   UNL A   1      49.160  27.712  25.752  1.00  0.00     0.010 A 
ATOM     89  C   UNL A   1      50.931  26.571  27.594  1.00  0.00     0.020 A 
ATOM     90  C   UNL A   1      50.371  27.174  25.307  1.00  0.00     0.020 A 
ATOM     91  C   UNL A   1      51.254  26.617  26.233  1.00  0.00     0.054 A 
BRANCH  91  92
ATOM     92  S   UNL A   1      52.824  25.892  25.687  1.00  0.00     0.124 S 
ATOM     93  O   UNL A   1      52.932  26.395  24.321  1.00  0.00    -0.237 OA
ATOM     94  O   UNL A   1      53.781  26.448  26.640  1.00  0.00    -0.237 OA
ATOM     95  O   UNL A   1      52.601  24.452  25.804  1.00  0.00    -0.744 OA
ENDBRANCH  91  92
ENDBRANCH  65  86
ENDBRANCH  39  40
ENDBRANCH  31  34
ENDBRANCH  29  30
ENDBRANCH  28  29
ENDBRANCH  27  28
ENDBRANCH   3  27
TORSDOF 19
ENDMDL
MODEL 3
REMARK VINA RESULT:     -10.0      3.223      9.968
REMARK SMILES O=C(CCCOc1ccc(Cl)cc1Cl)Nc1cccc(C(=O)NCCCNC(=O)c2ccc(-c3c4nc(c(-c5ccc(S(=O)(=O)[O-])cc5)c5ccc([nH]5)c(-c5ccc(S(=O)(=O)[O-])cc5)c5nc(c(-c6ccc(S(=O)(=O)[O-])cc6)c6ccc3[nH]6)C=C5)C=C4)cc2)c1
REMARK SMILES IDX 21 1 22 2 23 3 20 5 16 6 17 7 90 8 18 9 19 10 15 11 1 12
REMARK SMILES IDX 2 13 3 15 4 16 5 17 6 18 7 19 8 20 13 21 9 22 12 23 14 24
REMARK SMILES IDX 10 25 11 26 24 27 25 28 26 29 27 30 28 31 29 33 30 34 31 35
REMARK SMILES IDX 89 36 32 37 88 38 33 39 34 40 35 41 82 42 36 43 87 44 81 45
REMARK SMILES IDX 83 46 37 47 86 48 80 49 79 50 38 52 68 53 49 54 67 55 50 56
REMARK SMILES IDX 53 57 66 58 84 59 51 60 52 61 65 63 85 64 54 65 39 66 40 67
REMARK SMILES IDX 48 68 41 69 47 70 42 71 43 72 44 73 45 74 46 75 69 76 70 77
REMARK SMILES IDX 78 78 71 79 77 80 72 81 73 82 74 83 75 84 76 85 55 86 56 87
REMARK SMILES IDX 64 88 57 89 63 90 58 91 59 92 60 93 61 94 62 95
REMARK H PARENT 23 4 15 14 27 32 83 51 53 62
REMARK Flexibility Score: inf
ROOT
ATOM      1  C   UNL A   1      39.641  25.277  27.753  1.00  0.00     0.251 C 
ATOM      2  O   UNL A   1      39.202  25.313  28.903  1.00  0.00    -0.269 OA
ATOM      3  N   UNL A   1      40.388  26.344  27.302  1.00  0.00    -0.352 N 
ATOM      4  H   UNL A   1      40.509  27.054  27.973  1.00  0.00     0.163 HD
ENDROOT
BRANCH   1   5
ATOM      5  C   UNL A   1      39.275  24.130  26.881  1.00  0.00     0.041 A 
ATOM      6  C   UNL A   1      37.643  22.980  25.525  1.00  0.00     0.041 A 
ATOM      7  C   UNL A   1      38.355  21.788  25.686  1.00  0.00     0.026 A 
ATOM      8  C   UNL A   1      38.181  24.166  26.017  1.00  0.00     0.040 A 
ATOM      9  C   UNL A   1      39.576  21.784  26.361  1.00  0.00     0.003 A 
ATOM     10  C   UNL A   1      40.017  22.948  26.991  1.00  0.00     0.014 A 
BRANCH   6  11
ATOM     11  N   UNL A   1      36.325  22.905  25.027  1.00  0.00    -0.326 N 
ATOM     12  O   UNL A   1      36.650  23.163  22.757  1.00  0.00    -0.275 OA
ATOM     13  C   UNL A   1      35.917  23.200  23.745  1.00  0.00     0.224 C 
ATOM     14  H   UNL A   1      35.629  22.613  25.658  1.00  0.00     0.169 HD
BRANCH  13  15
ATOM     15  C   UNL A   1      34.501  23.740  23.611  1.00  0.00     0.104 C 
BRANCH  15  16
ATOM     16  C   UNL A   1      33.739  24.178  24.862  1.00  0.00     0.051 C 
BRANCH  16  17
ATOM     17  C   UNL A   1      33.755  25.663  25.260  1.00  0.00     0.230 C 
BRANCH  17  18
ATOM     18  O   UNL A   1      33.863  26.570  24.161  1.00  0.00    -0.492 OA
BRANCH  18  19
ATOM     19  C   UNL A   1      32.770  27.362  23.945  1.00  0.00     0.137 A 
ATOM     20  C   UNL A   1      32.640  28.450  24.812  1.00  0.00     0.049 A 
ATOM     21  C   UNL A   1      31.872  27.212  22.881  1.00  0.00     0.084 A 
ATOM     22  C   UNL A   1      31.565  29.328  24.685  1.00  0.00     0.024 A 
ATOM     23  C   UNL A   1      30.812  28.114  22.732  1.00  0.00     0.045 A 
ATOM     24  Cl  UNL A   1      32.034  25.952  21.712  1.00  0.00    -0.080 Cl
ATOM     25  C   UNL A   1      30.657  29.158  23.644  1.00  0.00     0.042 A 
ATOM     26  Cl  UNL A   1      29.341  30.253  23.483  1.00  0.00    -0.084 Cl
ENDBRANCH  18  19
ENDBRANCH  17  18
ENDBRANCH  16  17
ENDBRANCH  15  16
ENDBRANCH  13  15
ENDBRANCH   6  11
ENDBRANCH   1   5
BRANCH   3  27
ATOM     27  C   UNL A   1      41.034  26.631  26.024  1.00  0.00     0.118 C 
BRANCH  27  28
ATOM     28  C   UNL A   1      42.011  25.561  25.561  1.00  0.00     0.042 C 
BRANCH  28  29
ATOM     29  C   UNL A   1      43.403  26.067  25.225  1.00  0.00     0.118 C 
BRANCH  29  30
ATOM     30  N   UNL A   1      44.455  25.344  25.928  1.00  0.00    -0.352 N 
ATOM     31  C   UNL A   1      45.000  25.528  27.179  1.00  0.00     0.251 C 
ATOM     32  H   UNL A   1      44.845  24.595  25.422  1.00  0.00     0.163 HD
ATOM     33  O   UNL A   1      46.016  24.912  27.487  1.00  0.00    -0.269 OA
BRANCH  31  34
ATOM     34  C   UNL A   1      44.393  26.473  28.145  1.00  0.00     0.039 A 
ATOM     35  C   UNL A   1      43.519  25.979  29.119  1.00  0.00     0.014 A 
ATOM     36  C   UNL A   1      44.655  27.843  28.085  1.00  0.00     0.014 A 
ATOM     37  C   UNL A   1      42.989  26.843  30.082  1.00  0.00     0.010 A 
ATOM     38  C   UNL A   1      44.209  28.682  29.100  1.00  0.00     0.010 A 
ATOM     39  C   UNL A   1      43.371  28.194  30.112  1.00  0.00    -0.014 A 
BRANCH  39  40
ATOM     40  C   UNL A   1      42.929  29.108  31.197  1.00  0.00     0.031 A 
ATOM     41  C   UNL A   1      41.642  29.879  31.063  1.00  0.00     0.074 A 
ATOM     42  C   UNL A   1      43.731  29.310  32.262  1.00  0.00     0.049 A 
ATOM     43  N   UNL A   1      41.142  30.791  31.857  1.00  0.00    -0.248 NA
ATOM     44  C   UNL A   1      40.822  29.610  29.870  1.00  0.00     0.031 C 
ATOM     45  C   UNL A   1      45.026  28.662  32.484  1.00  0.00     0.029 A 
ATOM     46  N   UNL A   1      43.585  30.132  33.353  1.00  0.00    -0.354 N 
ATOM     47  C   UNL A   1      39.970  31.224  31.247  1.00  0.00     0.074 A 
ATOM     48  C   UNL A   1      39.854  30.505  29.997  1.00  0.00     0.031 C 
ATOM     49  C   UNL A   1      45.542  29.092  33.646  1.00  0.00     0.029 A 
ATOM     50  C   UNL A   1      44.646  30.086  34.227  1.00  0.00     0.049 A 
ATOM     51  H   UNL A   1      42.795  30.702  33.495  1.00  0.00     0.167 HD
ATOM     52  C   UNL A   1      39.065  32.127  31.693  1.00  0.00     0.031 A 
ATOM     53  C   UNL A   1      44.885  30.778  35.359  1.00  0.00     0.031 A 
ATOM     54  C   UNL A   1      39.180  32.828  32.945  1.00  0.00     0.049 A 
ATOM     55  C   UNL A   1      43.868  31.783  35.828  1.00  0.00     0.074 A 
ATOM     56  C   UNL A   1      38.280  33.707  33.521  1.00  0.00     0.029 A 
ATOM     57  N   UNL A   1      40.260  32.737  33.809  1.00  0.00    -0.354 N 
ATOM     58  N   UNL A   1      42.724  32.114  35.278  1.00  0.00    -0.248 NA
ATOM     59  C   UNL A   1      44.170  32.502  37.074  1.00  0.00     0.031 C 
ATOM     60  C   UNL A   1      38.846  34.199  34.701  1.00  0.00     0.029 A 
ATOM     61  C   UNL A   1      40.066  33.572  34.897  1.00  0.00     0.049 A 
ATOM     62  H   UNL A   1      41.048  32.163  33.671  1.00  0.00     0.167 HD
ATOM     63  C   UNL A   1      42.160  33.065  36.123  1.00  0.00     0.074 A 
ATOM     64  C   UNL A   1      43.078  33.238  37.230  1.00  0.00     0.031 C 
ATOM     65  C   UNL A   1      40.989  33.735  35.991  1.00  0.00     0.031 A 
BRANCH  52  66
ATOM     66  C   UNL A   1      37.871  32.420  30.821  1.00  0.00    -0.014 A 
ATOM     67  C   UNL A   1      36.642  31.767  31.021  1.00  0.00     0.010 A 
ATOM     68  C   UNL A   1      37.963  33.412  29.827  1.00  0.00     0.010 A 
ATOM     69  C   UNL A   1      35.538  32.075  30.222  1.00  0.00     0.020 A 
ATOM     70  C   UNL A   1      36.853  33.745  29.045  1.00  0.00     0.020 A 
ATOM     71  C   UNL A   1      35.649  33.064  29.239  1.00  0.00     0.054 A 
BRANCH  71  72
ATOM     72  S   UNL A   1      34.187  33.469  28.246  1.00  0.00     0.124 S 
ATOM     73  O   UNL A   1      33.855  32.175  27.656  1.00  0.00    -0.237 OA
ATOM     74  O   UNL A   1      33.248  33.962  29.249  1.00  0.00    -0.237 OA
ATOM     75  O   UNL A   1      34.675  34.474  27.304  1.00  0.00    -0.744 OA
ENDBRANCH  71  72
ENDBRANCH  52  66
BRANCH  53  76
ATOM     76  C   UNL A   1      46.145  30.551  36.120  1.00  0.00    -0.014 A 
ATOM     77  C   UNL A   1      47.299  31.303  35.836  1.00  0.00     0.010 A 
ATOM     78  C   UNL A   1      46.195  29.584  37.140  1.00  0.00     0.010 A 
ATOM     79  C   UNL A   1      48.484  31.078  36.544  1.00  0.00     0.020 A 
ATOM     80  C   UNL A   1      47.369  29.378  37.872  1.00  0.00     0.020 A 
ATOM     81  C   UNL A   1      48.510  30.118  37.560  1.00  0.00     0.054 A 
BRANCH  81  82
ATOM     82  S   UNL A   1      50.045  29.876  38.496  1.00  0.00     0.124 S 
ATOM     83  O   UNL A   1      49.874  30.808  39.606  1.00  0.00    -0.237 OA
ATOM     84  O   UNL A   1      49.982  28.459  38.843  1.00  0.00    -0.237 OA
ATOM     85  O   UNL A   1      51.089  30.228  37.537  1.00  0.00    -0.744 OA
ENDBRANCH  81  82
ENDBRANCH  53  76
BRANCH  65  86
ATOM     86  C   UNL A   1      40.612  34.700  37.084  1.00  0.00    -0.014 A 
ATOM     87  C   UNL A   1      41.102  36.018  37.094  1.00  0.00     0.010 A 
ATOM     88  C   UNL A   1      39.695  34.302  38.075  1.00  0.00     0.010 A 
ATOM     89  C   UNL A   1      40.699  36.913  38.089  1.00  0.00     0.020 A 
ATOM     90  C   UNL A   1      39.266  35.203  39.052  1.00  0.00     0.020 A 
ATOM     91  C   UNL A   1      39.780  36.501  39.059  1.00  0.00     0.054 A 
BRANCH  91  92
ATOM     92  S   UNL A   1      39.228  37.702  40.302  1.00  0.00     0.124 S 
ATOM     93  O   UNL A   1      38.806  36.834  41.397  1.00  0.00    -0.237 OA
ATOM     94  O   UNL A   1      40.437  38.483  40.548  1.00  0.00    -0.237 OA
ATOM     95  O   UNL A   1      38.150  38.426  39.630  1.00  0.00    -0.744 OA
ENDBRANCH  91  92
ENDBRANCH  65  86
ENDBRANCH  39  40
ENDBRANCH  31  34
ENDBRANCH  29  30
ENDBRANCH  28  29
ENDBRANCH  27  28
ENDBRANCH   3  27
TORSDOF 19
ENDMDL
