MODEL 1
REMARK VINA RESULT:     -12.8      0.000      0.000
REMARK SMILES C[C@H](C(=O)NCCCNC(=O)c1ccc(-c2c3nc(c(-c4ccc(S(=O)(=O)[O-])cc4)c4ccc([nH]4)c(-c4ccc(S(=O)(=O)[O-])cc4)c4nc(c(-c5ccc(S(=O)(=O)[O-])cc5)c5ccc2[nH]5)C=C4)C=C3)cc1)n1ccc2c(cnc3nc(C4CCCCC4)nn32)c1=O
REMARK SMILES IDX 7 1 6 2 5 3 3 4 4 5 2 7 1 8 72 9 73 10 90 11 74 12 76 13
REMARK SMILES IDX 91 14 75 15 77 16 89 17 78 18 79 19 88 20 80 21 81 22 82 23
REMARK SMILES IDX 83 24 87 25 84 26 86 27 85 28 8 29 9 30 10 31 11 33 12 34
REMARK SMILES IDX 13 35 71 36 14 37 70 38 15 39 16 40 17 41 64 42 18 43 69 44
REMARK SMILES IDX 63 45 65 46 19 47 68 48 62 49 61 50 20 52 50 53 31 54 49 55
REMARK SMILES IDX 32 56 35 57 48 58 66 59 33 60 34 61 47 63 67 64 36 65 21 66
REMARK SMILES IDX 22 67 30 68 23 69 29 70 24 71 25 72 26 73 27 74 28 75 51 76
REMARK SMILES IDX 52 77 60 78 53 79 59 80 54 81 55 82 56 83 57 84 58 85 37 86
REMARK SMILES IDX 38 87 46 88 39 89 45 90 40 91 41 92 42 93 43 94 44 95
REMARK H PARENT 5 6 9 32 65 51 35 62
REMARK Flexibility Score: inf
ROOT
ATOM      1  C   UNL A   1      33.328  28.247  25.376  1.00  0.00     0.042 C 
ENDROOT
BRANCH   1   2
ATOM      2  C   UNL A   1      31.995  28.922  25.064  1.00  0.00     0.117 C 
BRANCH   2   3
ATOM      3  N   UNL A   1      31.551  28.630  23.709  1.00  0.00    -0.354 N 
ATOM      4  C   UNL A   1      30.629  27.734  23.250  1.00  0.00     0.242 C 
ATOM      5  O   UNL A   1      30.545  27.589  22.026  1.00  0.00    -0.273 OA
ATOM      6  H   UNL A   1      31.986  29.167  23.008  1.00  0.00     0.163 HD
BRANCH   4   7
ATOM      7  C   UNL A   1      29.783  26.882  24.221  1.00  0.00     0.176 C 
ATOM      8  C   UNL A   1      28.338  26.835  23.712  1.00  0.00     0.042 C 
BRANCH   7   9
ATOM      9  N   UNL A   1      30.428  25.562  24.387  1.00  0.00    -0.303 N 
ATOM     10  C   UNL A   1      30.488  24.649  23.343  1.00  0.00     0.092 A 
ATOM     11  C   UNL A   1      31.011  25.281  25.626  1.00  0.00     0.262 A 
ATOM     12  C   UNL A   1      31.105  23.470  23.483  1.00  0.00     0.047 A 
ATOM     13  C   UNL A   1      31.841  24.059  25.703  1.00  0.00     0.084 A 
ATOM     14  O   UNL A   1      30.860  25.969  26.634  1.00  0.00    -0.269 OA
ATOM     15  C   UNL A   1      31.827  23.164  24.701  1.00  0.00     0.084 A 
ATOM     16  C   UNL A   1      32.697  23.719  26.871  1.00  0.00     0.131 A 
ATOM     17  N   UNL A   1      32.471  21.942  24.897  1.00  0.00    -0.196 N 
ATOM     18  N   UNL A   1      33.334  22.602  27.053  1.00  0.00    -0.219 NA
ATOM     19  C   UNL A   1      33.150  21.653  26.089  1.00  0.00     0.252 A 
ATOM     20  N   UNL A   1      32.447  20.841  24.111  1.00  0.00    -0.149 NA
ATOM     21  N   UNL A   1      33.440  20.372  26.110  1.00  0.00    -0.194 NA
ATOM     22  C   UNL A   1      32.938  19.905  24.930  1.00  0.00     0.156 A 
BRANCH  22  23
ATOM     23  C   UNL A   1      32.824  18.442  24.640  1.00  0.00     0.060 C 
ATOM     24  C   UNL A   1      34.030  17.944  23.814  1.00  0.00     0.012 C 
ATOM     25  C   UNL A   1      32.637  17.622  25.923  1.00  0.00     0.012 C 
ATOM     26  C   UNL A   1      33.987  16.443  23.561  1.00  0.00     0.001 C 
ATOM     27  C   UNL A   1      32.608  16.122  25.637  1.00  0.00     0.001 C 
ATOM     28  C   UNL A   1      33.845  15.672  24.866  1.00  0.00     0.000 C 
ENDBRANCH  22  23
ENDBRANCH   7   9
ENDBRANCH   4   7
ENDBRANCH   2   3
ENDBRANCH   1   2
BRANCH   1  29
ATOM     29  C   UNL A   1      33.777  28.392  26.822  1.00  0.00     0.118 C 
BRANCH  29  30
ATOM     30  N   UNL A   1      33.613  29.746  27.324  1.00  0.00    -0.352 N 
ATOM     31  C   UNL A   1      34.449  30.512  28.100  1.00  0.00     0.251 C 
ATOM     32  H   UNL A   1      32.768  30.183  27.066  1.00  0.00     0.163 HD
ATOM     33  O   UNL A   1      34.023  31.559  28.577  1.00  0.00    -0.269 OA
BRANCH  31  34
ATOM     34  C   UNL A   1      35.839  30.081  28.380  1.00  0.00     0.039 A 
ATOM     35  C   UNL A   1      36.784  30.166  27.353  1.00  0.00     0.014 A 
ATOM     36  C   UNL A   1      36.212  29.556  29.620  1.00  0.00     0.014 A 
ATOM     37  C   UNL A   1      38.108  29.778  27.589  1.00  0.00     0.010 A 
ATOM     38  C   UNL A   1      37.549  29.258  29.881  1.00  0.00     0.010 A 
ATOM     39  C   UNL A   1      38.510  29.352  28.864  1.00  0.00    -0.014 A 
BRANCH  39  40
ATOM     40  C   UNL A   1      39.924  28.988  29.144  1.00  0.00     0.031 A 
ATOM     41  C   UNL A   1      40.863  29.996  29.759  1.00  0.00     0.074 A 
ATOM     42  C   UNL A   1      40.380  27.765  28.806  1.00  0.00     0.049 A 
ATOM     43  N   UNL A   1      42.135  29.873  30.041  1.00  0.00    -0.248 NA
ATOM     44  C   UNL A   1      40.305  31.321  30.076  1.00  0.00     0.031 C 
ATOM     45  C   UNL A   1      39.586  26.712  28.167  1.00  0.00     0.029 A 
ATOM     46  N   UNL A   1      41.623  27.200  28.948  1.00  0.00    -0.354 N 
ATOM     47  C   UNL A   1      42.531  31.104  30.556  1.00  0.00     0.074 A 
ATOM     48  C   UNL A   1      41.379  31.975  30.493  1.00  0.00     0.031 C 
ATOM     49  C   UNL A   1      40.352  25.622  28.002  1.00  0.00     0.029 A 
ATOM     50  C   UNL A   1      41.701  25.909  28.478  1.00  0.00     0.049 A 
ATOM     51  H   UNL A   1      42.388  27.674  29.348  1.00  0.00     0.167 HD
ATOM     52  C   UNL A   1      43.735  31.469  31.058  1.00  0.00     0.031 A 
ATOM     53  C   UNL A   1      42.741  25.053  28.429  1.00  0.00     0.031 A 
ATOM     54  C   UNL A   1      44.878  30.598  31.124  1.00  0.00     0.049 A 
ATOM     55  C   UNL A   1      44.074  25.488  28.975  1.00  0.00     0.074 A 
ATOM     56  C   UNL A   1      46.130  30.860  31.655  1.00  0.00     0.029 A 
ATOM     57  N   UNL A   1      44.913  29.297  30.643  1.00  0.00    -0.354 N 
ATOM     58  N   UNL A   1      44.408  26.635  29.518  1.00  0.00    -0.248 NA
ATOM     59  C   UNL A   1      45.167  24.508  28.917  1.00  0.00     0.031 C 
ATOM     60  C   UNL A   1      46.938  29.737  31.445  1.00  0.00     0.029 A 
ATOM     61  C   UNL A   1      46.170  28.752  30.844  1.00  0.00     0.049 A 
ATOM     62  H   UNL A   1      44.156  28.831  30.221  1.00  0.00     0.167 HD
ATOM     63  C   UNL A   1      45.742  26.503  29.890  1.00  0.00     0.074 A 
ATOM     64  C   UNL A   1      46.145  25.160  29.529  1.00  0.00     0.031 C 
ATOM     65  C   UNL A   1      46.559  27.412  30.479  1.00  0.00     0.031 A 
BRANCH  52  66
ATOM     66  C   UNL A   1      43.875  32.878  31.577  1.00  0.00    -0.014 A 
ATOM     67  C   UNL A   1      43.599  33.187  32.922  1.00  0.00     0.010 A 
ATOM     68  C   UNL A   1      44.329  33.899  30.722  1.00  0.00     0.010 A 
ATOM     69  C   UNL A   1      43.730  34.497  33.389  1.00  0.00     0.020 A 
ATOM     70  C   UNL A   1      44.491  35.206  31.195  1.00  0.00     0.020 A 
ATOM     71  C   UNL A   1      44.174  35.500  32.522  1.00  0.00     0.054 A 
BRANCH  71  72
ATOM     72  S   UNL A   1      44.354  37.186  33.164  1.00  0.00     0.124 S 
ATOM     73  O   UNL A   1      44.136  37.990  31.963  1.00  0.00    -0.237 OA
ATOM     74  O   UNL A   1      43.297  37.261  34.169  1.00  0.00    -0.237 OA
ATOM     75  O   UNL A   1      45.716  37.214  33.691  1.00  0.00    -0.744 OA
ENDBRANCH  71  72
ENDBRANCH  52  66
BRANCH  53  76
ATOM     76  C   UNL A   1      42.560  23.693  27.849  1.00  0.00    -0.014 A 
ATOM     77  C   UNL A   1      42.644  23.488  26.460  1.00  0.00     0.010 A 
ATOM     78  C   UNL A   1      42.304  22.590  28.685  1.00  0.00     0.010 A 
ATOM     79  C   UNL A   1      42.451  22.214  25.918  1.00  0.00     0.020 A 
ATOM     80  C   UNL A   1      42.143  21.308  28.149  1.00  0.00     0.020 A 
ATOM     81  C   UNL A   1      42.203  21.132  26.765  1.00  0.00     0.054 A 
BRANCH  81  82
ATOM     82  S   UNL A   1      41.996  19.482  26.038  1.00  0.00     0.124 S 
ATOM     83  O   UNL A   1      42.852  19.560  24.858  1.00  0.00    -0.237 OA
ATOM     84  O   UNL A   1      42.469  18.606  27.106  1.00  0.00    -0.237 OA
ATOM     85  O   UNL A   1      40.562  19.404  25.768  1.00  0.00    -0.744 OA
ENDBRANCH  81  82
ENDBRANCH  53  76
BRANCH  65  86
ATOM     86  C   UNL A   1      47.963  26.974  30.807  1.00  0.00    -0.014 A 
ATOM     87  C   UNL A   1      49.023  27.175  29.906  1.00  0.00     0.010 A 
ATOM     88  C   UNL A   1      48.231  26.394  32.061  1.00  0.00     0.010 A 
ATOM     89  C   UNL A   1      50.319  26.770  30.238  1.00  0.00     0.020 A 
ATOM     90  C   UNL A   1      49.530  26.017  32.409  1.00  0.00     0.020 A 
ATOM     91  C   UNL A   1      50.565  26.194  31.489  1.00  0.00     0.054 A 
BRANCH  91  92
ATOM     92  S   UNL A   1      52.261  25.713  31.909  1.00  0.00     0.124 S 
ATOM     93  O   UNL A   1      52.973  25.984  30.663  1.00  0.00    -0.237 OA
ATOM     94  O   UNL A   1      52.580  26.603  33.022  1.00  0.00    -0.237 OA
ATOM     95  O   UNL A   1      52.143  24.300  32.264  1.00  0.00    -0.744 OA
ENDBRANCH  91  92
ENDBRANCH  65  86
ENDBRANCH  39  40
ENDBRANCH  31  34
ENDBRANCH  29  30
ENDBRANCH   1  29
TORSDOF 15
ENDMDL
MODEL 2
REMARK VINA RESULT:     -12.6      2.871      9.818
REMARK SMILES C[C@H](C(=O)NCCCNC(=O)c1ccc(-c2c3nc(c(-c4ccc(S(=O)(=O)[O-])cc4)c4ccc([nH]4)c(-c4ccc(S(=O)(=O)[O-])cc4)c4nc(c(-c5ccc(S(=O)(=O)[O-])cc5)c5ccc2[nH]5)C=C4)C=C3)cc1)n1ccc2c(cnc3nc(C4CCCCC4)nn32)c1=O
REMARK SMILES IDX 7 1 6 2 5 3 3 4 4 5 2 7 1 8 72 9 73 10 90 11 74 12 76 13
REMARK SMILES IDX 91 14 75 15 77 16 89 17 78 18 79 19 88 20 80 21 81 22 82 23
REMARK SMILES IDX 83 24 87 25 84 26 86 27 85 28 8 29 9 30 10 31 11 33 12 34
REMARK SMILES IDX 13 35 71 36 14 37 70 38 15 39 16 40 17 41 64 42 18 43 69 44
REMARK SMILES IDX 63 45 65 46 19 47 68 48 62 49 61 50 20 52 50 53 31 54 49 55
REMARK SMILES IDX 32 56 35 57 48 58 66 59 33 60 34 61 47 63 67 64 36 65 21 66
REMARK SMILES IDX 22 67 30 68 23 69 29 70 24 71 25 72 26 73 27 74 28 75 51 76
REMARK SMILES IDX 52 77 60 78 53 79 59 80 54 81 55 82 56 83 57 84 58 85 37 86
REMARK SMILES IDX 38 87 46 88 39 89 45 90 40 91 41 92 42 93 43 94 44 95
REMARK H PARENT 5 6 9 32 65 51 35 62
REMARK Flexibility Score: inf
ROOT
ATOM      1  C   UNL A   1      35.163  23.078  26.048  1.00  0.00     0.042 C 
ENDROOT
BRANCH   1   2
ATOM      2  C   UNL A   1      35.097  21.673  25.454  1.00  0.00     0.117 C 
BRANCH   2   3
ATOM      3  N   UNL A   1      33.772  21.090  25.604  1.00  0.00    -0.354 N 
ATOM      4  C   UNL A   1      32.706  21.079  24.752  1.00  0.00     0.242 C 
ATOM      5  O   UNL A   1      31.641  20.630  25.189  1.00  0.00    -0.273 OA
ATOM      6  H   UNL A   1      33.621  20.627  26.459  1.00  0.00     0.163 HD
BRANCH   4   7
ATOM      7  C   UNL A   1      32.805  21.674  23.331  1.00  0.00     0.176 C 
ATOM      8  C   UNL A   1      32.047  20.764  22.357  1.00  0.00     0.042 C 
BRANCH   7   9
ATOM      9  N   UNL A   1      32.338  23.076  23.364  1.00  0.00    -0.303 N 
ATOM     10  C   UNL A   1      31.007  23.392  23.600  1.00  0.00     0.092 A 
ATOM     11  C   UNL A   1      33.296  24.079  23.187  1.00  0.00     0.262 A 
ATOM     12  C   UNL A   1      30.592  24.662  23.668  1.00  0.00     0.047 A 
ATOM     13  C   UNL A   1      32.855  25.467  23.446  1.00  0.00     0.084 A 
ATOM     14  O   UNL A   1      34.452  23.874  22.820  1.00  0.00    -0.269 OA
ATOM     15  C   UNL A   1      31.551  25.746  23.607  1.00  0.00     0.084 A 
ATOM     16  C   UNL A   1      33.785  26.626  23.509  1.00  0.00     0.131 A 
ATOM     17  N   UNL A   1      31.163  27.086  23.657  1.00  0.00    -0.196 N 
ATOM     18  N   UNL A   1      33.443  27.876  23.593  1.00  0.00    -0.219 NA
ATOM     19  C   UNL A   1      32.101  28.124  23.580  1.00  0.00     0.252 A 
ATOM     20  N   UNL A   1      29.913  27.601  23.645  1.00  0.00    -0.149 NA
ATOM     21  N   UNL A   1      31.462  29.257  23.398  1.00  0.00    -0.194 NA
ATOM     22  C   UNL A   1      30.148  28.890  23.375  1.00  0.00     0.156 A 
BRANCH  22  23
ATOM     23  C   UNL A   1      29.068  29.832  22.943  1.00  0.00     0.060 C 
ATOM     24  C   UNL A   1      29.103  31.134  23.772  1.00  0.00     0.012 C 
ATOM     25  C   UNL A   1      29.131  30.115  21.437  1.00  0.00     0.012 C 
ATOM     26  C   UNL A   1      28.065  32.149  23.313  1.00  0.00     0.001 C 
ATOM     27  C   UNL A   1      28.084  31.142  21.010  1.00  0.00     0.001 C 
ATOM     28  C   UNL A   1      28.196  32.429  21.822  1.00  0.00     0.000 C 
ENDBRANCH  22  23
ENDBRANCH   7   9
ENDBRANCH   4   7
ENDBRANCH   2   3
ENDBRANCH   1   2
BRANCH   1  29
ATOM     29  C   UNL A   1      36.496  23.781  25.837  1.00  0.00     0.118 C 
BRANCH  29  30
ATOM     30  N   UNL A   1      37.624  22.868  25.894  1.00  0.00    -0.352 N 
ATOM     31  C   UNL A   1      38.922  23.085  26.293  1.00  0.00     0.251 C 
ATOM     32  H   UNL A   1      37.428  21.948  25.601  1.00  0.00     0.163 HD
ATOM     33  O   UNL A   1      39.763  22.220  26.070  1.00  0.00    -0.269 OA
BRANCH  31  34
ATOM     34  C   UNL A   1      39.313  24.346  26.965  1.00  0.00     0.039 A 
ATOM     35  C   UNL A   1      38.906  24.554  28.286  1.00  0.00     0.014 A 
ATOM     36  C   UNL A   1      40.037  25.340  26.301  1.00  0.00     0.014 A 
ATOM     37  C   UNL A   1      39.269  25.728  28.953  1.00  0.00     0.010 A 
ATOM     38  C   UNL A   1      40.477  26.467  26.995  1.00  0.00     0.010 A 
ATOM     39  C   UNL A   1      40.087  26.681  28.324  1.00  0.00    -0.014 A 
BRANCH  39  40
ATOM     40  C   UNL A   1      40.527  27.909  29.038  1.00  0.00     0.031 A 
ATOM     41  C   UNL A   1      41.890  27.970  29.681  1.00  0.00     0.074 A 
ATOM     42  C   UNL A   1      39.685  28.957  29.148  1.00  0.00     0.049 A 
ATOM     43  N   UNL A   1      42.432  28.938  30.375  1.00  0.00    -0.248 NA
ATOM     44  C   UNL A   1      42.745  26.779  29.546  1.00  0.00     0.031 C 
ATOM     45  C   UNL A   1      38.325  29.011  28.607  1.00  0.00     0.029 A 
ATOM     46  N   UNL A   1      39.848  30.178  29.754  1.00  0.00    -0.354 N 
ATOM     47  C   UNL A   1      43.682  28.471  30.768  1.00  0.00     0.074 A 
ATOM     48  C   UNL A   1      43.793  27.112  30.285  1.00  0.00     0.031 C 
ATOM     49  C   UNL A   1      37.790  30.212  28.879  1.00  0.00     0.029 A 
ATOM     50  C   UNL A   1      38.747  30.997  29.650  1.00  0.00     0.049 A 
ATOM     51  H   UNL A   1      40.673  30.443  30.219  1.00  0.00     0.167 HD
ATOM     52  C   UNL A   1      44.659  29.119  31.448  1.00  0.00     0.031 A 
ATOM     53  C   UNL A   1      38.527  32.239  30.128  1.00  0.00     0.031 A 
ATOM     54  C   UNL A   1      44.547  30.472  31.924  1.00  0.00     0.049 A 
ATOM     55  C   UNL A   1      39.620  32.931  30.896  1.00  0.00     0.074 A 
ATOM     56  C   UNL A   1      45.496  31.233  32.584  1.00  0.00     0.029 A 
ATOM     57  N   UNL A   1      43.418  31.268  31.793  1.00  0.00    -0.354 N 
ATOM     58  N   UNL A   1      40.819  32.494  31.200  1.00  0.00    -0.248 NA
ATOM     59  C   UNL A   1      39.335  34.291  31.374  1.00  0.00     0.031 C 
ATOM     60  C   UNL A   1      44.922  32.469  32.901  1.00  0.00     0.029 A 
ATOM     61  C   UNL A   1      43.639  32.503  32.380  1.00  0.00     0.049 A 
ATOM     62  H   UNL A   1      42.583  30.995  31.348  1.00  0.00     0.167 HD
ATOM     63  C   UNL A   1      41.441  33.537  31.880  1.00  0.00     0.074 A 
ATOM     64  C   UNL A   1      40.493  34.630  31.925  1.00  0.00     0.031 C 
ATOM     65  C   UNL A   1      42.686  33.584  32.418  1.00  0.00     0.031 A 
BRANCH  52  66
ATOM     66  C   UNL A   1      45.937  28.366  31.718  1.00  0.00    -0.014 A 
ATOM     67  C   UNL A   1      46.088  27.585  32.879  1.00  0.00     0.010 A 
ATOM     68  C   UNL A   1      46.986  28.406  30.782  1.00  0.00     0.010 A 
ATOM     69  C   UNL A   1      47.278  26.895  33.119  1.00  0.00     0.020 A 
ATOM     70  C   UNL A   1      48.168  27.691  31.004  1.00  0.00     0.020 A 
ATOM     71  C   UNL A   1      48.313  26.954  32.181  1.00  0.00     0.054 A 
BRANCH  71  72
ATOM     72  S   UNL A   1      49.838  26.030  32.511  1.00  0.00     0.124 S 
ATOM     73  O   UNL A   1      50.643  27.023  33.220  1.00  0.00    -0.237 OA
ATOM     74  O   UNL A   1      49.366  24.911  33.322  1.00  0.00    -0.237 OA
ATOM     75  O   UNL A   1      50.324  25.672  31.181  1.00  0.00    -0.744 OA
ENDBRANCH  71  72
ENDBRANCH  52  66
BRANCH  53  76
ATOM     76  C   UNL A   1      37.221  32.911  29.882  1.00  0.00    -0.014 A 
ATOM     77  C   UNL A   1      36.204  32.878  30.854  1.00  0.00     0.010 A 
ATOM     78  C   UNL A   1      36.986  33.593  28.674  1.00  0.00     0.010 A 
ATOM     79  C   UNL A   1      34.971  33.491  30.611  1.00  0.00     0.020 A 
ATOM     80  C   UNL A   1      35.766  34.236  28.441  1.00  0.00     0.020 A 
ATOM     81  C   UNL A   1      34.760  34.168  29.407  1.00  0.00     0.054 A 
BRANCH  81  82
ATOM     82  S   UNL A   1      33.165  34.989  29.134  1.00  0.00     0.124 S 
ATOM     83  O   UNL A   1      32.546  34.897  30.453  1.00  0.00    -0.237 OA
ATOM     84  O   UNL A   1      33.568  36.329  28.716  1.00  0.00    -0.237 OA
ATOM     85  O   UNL A   1      32.538  34.182  28.089  1.00  0.00    -0.744 OA
ENDBRANCH  81  82
ENDBRANCH  53  76
BRANCH  65  86
ATOM     86  C   UNL A   1      43.112  34.874  33.069  1.00  0.00    -0.014 A 
ATOM     87  C   UNL A   1      42.940  35.091  34.447  1.00  0.00     0.010 A 
ATOM     88  C   UNL A   1      43.739  35.867  32.293  1.00  0.00     0.010 A 
ATOM     89  C   UNL A   1      43.354  36.292  35.030  1.00  0.00     0.020 A 
ATOM     90  C   UNL A   1      44.183  37.055  32.877  1.00  0.00     0.020 A 
ATOM     91  C   UNL A   1      43.974  37.266  34.241  1.00  0.00     0.054 A 
BRANCH  91  92
ATOM     92  S   UNL A   1      44.536  38.799  35.030  1.00  0.00     0.124 S 
ATOM     93  O   UNL A   1      44.186  38.569  36.429  1.00  0.00    -0.237 OA
ATOM     94  O   UNL A   1      45.966  38.807  34.732  1.00  0.00    -0.237 OA
ATOM     95  O   UNL A   1      43.761  39.840  34.357  1.00  0.00    -0.744 OA
ENDBRANCH  91  92
ENDBRANCH  65  86
ENDBRANCH  39  40
ENDBRANCH  31  34
ENDBRANCH  29  30
ENDBRANCH   1  29
TORSDOF 15
ENDMDL
MODEL 3
REMARK VINA RESULT:     -12.4      2.413      2.945
REMARK SMILES C[C@H](C(=O)NCCCNC(=O)c1ccc(-c2c3nc(c(-c4ccc(S(=O)(=O)[O-])cc4)c4ccc([nH]4)c(-c4ccc(S(=O)(=O)[O-])cc4)c4nc(c(-c5ccc(S(=O)(=O)[O-])cc5)c5ccc2[nH]5)C=C4)C=C3)cc1)n1ccc2c(cnc3nc(C4CCCCC4)nn32)c1=O
REMARK SMILES IDX 7 1 6 2 5 3 3 4 4 5 2 7 1 8 72 9 73 10 90 11 74 12 76 13
REMARK SMILES IDX 91 14 75 15 77 16 89 17 78 18 79 19 88 20 80 21 81 22 82 23
REMARK SMILES IDX 83 24 87 25 84 26 86 27 85 28 8 29 9 30 10 31 11 33 12 34
REMARK SMILES IDX 13 35 71 36 14 37 70 38 15 39 16 40 17 41 64 42 18 43 69 44
REMARK SMILES IDX 63 45 65 46 19 47 68 48 62 49 61 50 20 52 50 53 31 54 49 55
REMARK SMILES IDX 32 56 35 57 48 58 66 59 33 60 34 61 47 63 67 64 36 65 21 66
REMARK SMILES IDX 22 67 30 68 23 69 29 70 24 71 25 72 26 73 27 74 28 75 51 76
REMARK SMILES IDX 52 77 60 78 53 79 59 80 54 81 55 82 56 83 57 84 58 85 37 86
REMARK SMILES IDX 38 87 46 88 39 89 45 90 40 91 41 92 42 93 43 94 44 95
REMARK H PARENT 5 6 9 32 65 51 35 62
REMARK Flexibility Score: inf
ROOT
ATOM      1  C   UNL A   1      33.515  28.368  25.047  1.00  0.00     0.042 C 
ENDROOT
BRANCH   1   2
ATOM      2  C   UNL A   1      32.114  28.950  24.878  1.00  0.00     0.117 C 
BRANCH   2   3
ATOM      3  N   UNL A   1      31.565  28.650  23.564  1.00  0.00    -0.354 N 
ATOM      4  C   UNL A   1      30.613  27.748  23.185  1.00  0.00     0.242 C 
ATOM      5  O   UNL A   1      30.431  27.597  21.972  1.00  0.00    -0.273 OA
ATOM      6  H   UNL A   1      31.940  29.186  22.828  1.00  0.00     0.163 HD
BRANCH   4   7
ATOM      7  C   UNL A   1      29.851  26.897  24.224  1.00  0.00     0.176 C 
ATOM      8  C   UNL A   1      28.374  26.825  23.822  1.00  0.00     0.042 C 
BRANCH   7   9
ATOM      9  N   UNL A   1      30.525  25.588  24.357  1.00  0.00    -0.303 N 
ATOM     10  C   UNL A   1      30.473  24.640  23.344  1.00  0.00     0.092 A 
ATOM     11  C   UNL A   1      31.250  25.351  25.529  1.00  0.00     0.262 A 
ATOM     12  C   UNL A   1      31.114  23.470  23.449  1.00  0.00     0.047 A 
ATOM     13  C   UNL A   1      32.096  24.138  25.549  1.00  0.00     0.084 A 
ATOM     14  O   UNL A   1      31.209  26.072  26.525  1.00  0.00    -0.269 OA
ATOM     15  C   UNL A   1      31.974  23.210  24.585  1.00  0.00     0.084 A 
ATOM     16  C   UNL A   1      33.084  23.843  26.620  1.00  0.00     0.131 A 
ATOM     17  N   UNL A   1      32.649  21.999  24.745  1.00  0.00    -0.196 N 
ATOM     18  N   UNL A   1      33.749  22.737  26.764  1.00  0.00    -0.219 NA
ATOM     19  C   UNL A   1      33.465  21.755  25.859  1.00  0.00     0.252 A 
ATOM     20  N   UNL A   1      32.546  20.873  24.003  1.00  0.00    -0.149 NA
ATOM     21  N   UNL A   1      33.768  20.477  25.888  1.00  0.00    -0.194 NA
ATOM     22  C   UNL A   1      33.138  19.968  24.790  1.00  0.00     0.156 A 
BRANCH  22  23
ATOM     23  C   UNL A   1      33.006  18.495  24.563  1.00  0.00     0.060 C 
ATOM     24  C   UNL A   1      34.309  17.904  23.983  1.00  0.00     0.012 C 
ATOM     25  C   UNL A   1      32.568  17.762  25.837  1.00  0.00     0.012 C 
ATOM     26  C   UNL A   1      34.239  16.393  23.806  1.00  0.00     0.001 C 
ATOM     27  C   UNL A   1      32.517  16.249  25.630  1.00  0.00     0.001 C 
ATOM     28  C   UNL A   1      33.844  15.707  25.107  1.00  0.00     0.000 C 
ENDBRANCH  22  23
ENDBRANCH   7   9
ENDBRANCH   4   7
ENDBRANCH   2   3
ENDBRANCH   1   2
BRANCH   1  29
ATOM     29  C   UNL A   1      34.242  28.846  26.295  1.00  0.00     0.118 C 
BRANCH  29  30
ATOM     30  N   UNL A   1      33.867  30.197  26.675  1.00  0.00    -0.352 N 
ATOM     31  C   UNL A   1      34.398  31.029  27.631  1.00  0.00     0.251 C 
ATOM     32  H   UNL A   1      33.112  30.576  26.168  1.00  0.00     0.163 HD
ATOM     33  O   UNL A   1      33.797  32.057  27.923  1.00  0.00    -0.269 OA
BRANCH  31  34
ATOM     34  C   UNL A   1      35.667  30.691  28.318  1.00  0.00     0.039 A 
ATOM     35  C   UNL A   1      35.643  29.732  29.334  1.00  0.00     0.014 A 
ATOM     36  C   UNL A   1      36.868  31.334  28.004  1.00  0.00     0.014 A 
ATOM     37  C   UNL A   1      36.826  29.381  29.993  1.00  0.00     0.010 A 
ATOM     38  C   UNL A   1      38.060  30.919  28.597  1.00  0.00     0.010 A 
ATOM     39  C   UNL A   1      38.051  29.948  29.608  1.00  0.00    -0.014 A 
BRANCH  39  40
ATOM     40  C   UNL A   1      39.325  29.546  30.262  1.00  0.00     0.031 A 
ATOM     41  C   UNL A   1      39.825  30.287  31.476  1.00  0.00     0.074 A 
ATOM     42  C   UNL A   1      40.057  28.541  29.740  1.00  0.00     0.049 A 
ATOM     43  N   UNL A   1      40.928  30.105  32.157  1.00  0.00    -0.248 NA
ATOM     44  C   UNL A   1      38.989  31.392  31.976  1.00  0.00     0.031 C 
ATOM     45  C   UNL A   1      39.706  27.770  28.545  1.00  0.00     0.029 A 
ATOM     46  N   UNL A   1      41.250  27.997  30.145  1.00  0.00    -0.354 N 
ATOM     47  C   UNL A   1      40.923  31.075  33.155  1.00  0.00     0.074 A 
ATOM     48  C   UNL A   1      39.739  31.879  32.953  1.00  0.00     0.031 C 
ATOM     49  C   UNL A   1      40.646  26.835  28.332  1.00  0.00     0.029 A 
ATOM     50  C   UNL A   1      41.687  26.967  29.344  1.00  0.00     0.049 A 
ATOM     51  H   UNL A   1      41.748  28.314  30.933  1.00  0.00     0.167 HD
ATOM     52  C   UNL A   1      41.810  31.267  34.161  1.00  0.00     0.031 A 
ATOM     53  C   UNL A   1      42.804  26.215  29.411  1.00  0.00     0.031 A 
ATOM     54  C   UNL A   1      42.986  30.462  34.362  1.00  0.00     0.049 A 
ATOM     55  C   UNL A   1      43.785  26.458  30.527  1.00  0.00     0.074 A 
ATOM     56  C   UNL A   1      43.924  30.547  35.377  1.00  0.00     0.029 A 
ATOM     57  N   UNL A   1      43.389  29.425  33.533  1.00  0.00    -0.354 N 
ATOM     58  N   UNL A   1      43.727  27.339  31.498  1.00  0.00    -0.248 NA
ATOM     59  C   UNL A   1      44.973  25.595  30.565  1.00  0.00     0.031 C 
ATOM     60  C   UNL A   1      44.922  29.599  35.131  1.00  0.00     0.029 A 
ATOM     61  C   UNL A   1      44.572  28.878  34.000  1.00  0.00     0.049 A 
ATOM     62  H   UNL A   1      42.905  29.123  32.731  1.00  0.00     0.167 HD
ATOM     63  C   UNL A   1      44.858  27.117  32.278  1.00  0.00     0.074 A 
ATOM     64  C   UNL A   1      45.568  26.007  31.676  1.00  0.00     0.031 C 
ATOM     65  C   UNL A   1      45.270  27.773  33.392  1.00  0.00     0.031 A 
BRANCH  52  66
ATOM     66  C   UNL A   1      41.540  32.395  35.124  1.00  0.00    -0.014 A 
ATOM     67  C   UNL A   1      40.803  32.182  36.303  1.00  0.00     0.010 A 
ATOM     68  C   UNL A   1      42.062  33.676  34.869  1.00  0.00     0.010 A 
ATOM     69  C   UNL A   1      40.556  33.236  37.186  1.00  0.00     0.020 A 
ATOM     70  C   UNL A   1      41.844  34.727  35.767  1.00  0.00     0.020 A 
ATOM     71  C   UNL A   1      41.077  34.504  36.911  1.00  0.00     0.054 A 
BRANCH  71  72
ATOM     72  S   UNL A   1      40.758  35.848  38.087  1.00  0.00     0.124 S 
ATOM     73  O   UNL A   1      39.812  36.678  37.344  1.00  0.00    -0.237 OA
ATOM     74  O   UNL A   1      40.203  35.141  39.238  1.00  0.00    -0.237 OA
ATOM     75  O   UNL A   1      42.074  36.444  38.299  1.00  0.00    -0.744 OA
ENDBRANCH  71  72
ENDBRANCH  52  66
BRANCH  53  76
ATOM     76  C   UNL A   1      43.050  25.152  28.396  1.00  0.00    -0.014 A 
ATOM     77  C   UNL A   1      42.574  23.844  28.599  1.00  0.00     0.010 A 
ATOM     78  C   UNL A   1      43.760  25.443  27.217  1.00  0.00     0.010 A 
ATOM     79  C   UNL A   1      42.826  22.844  27.656  1.00  0.00     0.020 A 
ATOM     80  C   UNL A   1      43.986  24.453  26.256  1.00  0.00     0.020 A 
ATOM     81  C   UNL A   1      43.529  23.155  26.488  1.00  0.00     0.054 A 
BRANCH  81  82
ATOM     82  S   UNL A   1      43.807  21.847  25.262  1.00  0.00     0.124 S 
ATOM     83  O   UNL A   1      45.151  21.391  25.603  1.00  0.00    -0.237 OA
ATOM     84  O   UNL A   1      42.727  20.907  25.553  1.00  0.00    -0.237 OA
ATOM     85  O   UNL A   1      43.688  22.544  23.983  1.00  0.00    -0.744 OA
ENDBRANCH  81  82
ENDBRANCH  53  76
BRANCH  65  86
ATOM     86  C   UNL A   1      46.529  27.283  34.059  1.00  0.00    -0.014 A 
ATOM     87  C   UNL A   1      47.787  27.821  33.735  1.00  0.00     0.010 A 
ATOM     88  C   UNL A   1      46.443  26.301  35.063  1.00  0.00     0.010 A 
ATOM     89  C   UNL A   1      48.940  27.359  34.377  1.00  0.00     0.020 A 
ATOM     90  C   UNL A   1      47.588  25.858  35.729  1.00  0.00     0.020 A 
ATOM     91  C   UNL A   1      48.833  26.381  35.371  1.00  0.00     0.054 A 
BRANCH  91  92
ATOM     92  S   UNL A   1      50.339  25.826  36.214  1.00  0.00     0.124 S 
ATOM     93  O   UNL A   1      51.099  25.227  35.120  1.00  0.00    -0.237 OA
ATOM     94  O   UNL A   1      50.883  27.070  36.750  1.00  0.00    -0.237 OA
ATOM     95  O   UNL A   1      49.847  24.885  37.219  1.00  0.00    -0.744 OA
ENDBRANCH  91  92
ENDBRANCH  65  86
ENDBRANCH  39  40
ENDBRANCH  31  34
ENDBRANCH  29  30
ENDBRANCH   1  29
TORSDOF 15
ENDMDL
