MODEL 1
REMARK VINA RESULT:     -10.1      0.000      0.000
REMARK SMILES CCC[NH2+][C@@](C)(C[N@H+]1CCC(C)(C)C1)C(=O)NCCCNC(=O)c1ccc(-c2c3nc(c(-c4ccc(S(=O)(=O)[O-])cc4)c4ccc([nH]4)c(-c4ccc(S(=O)(=O)[O-])cc4)c4nc(c(-c5ccc(S(=O)(=O)[O-])cc5)c5ccc2[nH]5)C=C4)C=C3)cc1
REMARK SMILES IDX 19 1 18 2 17 3 15 4 16 5 5 7 6 8 4 9 3 12 2 13 1 14 7 15
REMARK SMILES IDX 8 16 9 17 14 18 10 20 11 21 12 22 13 23 20 24 21 25 22 26
REMARK SMILES IDX 23 28 24 29 25 30 83 31 26 32 82 33 27 34 28 35 29 36 76 37
REMARK SMILES IDX 30 38 81 39 75 40 77 41 31 42 80 43 74 44 73 45 32 47 62 48
REMARK SMILES IDX 43 49 61 50 44 51 47 52 60 53 78 54 45 55 46 56 59 58 79 59
REMARK SMILES IDX 48 60 33 61 34 62 42 63 35 64 41 65 36 66 37 67 38 68 39 69
REMARK SMILES IDX 40 70 63 71 64 72 72 73 65 74 71 75 66 76 67 77 68 78 69 79
REMARK SMILES IDX 70 80 49 81 50 82 58 83 51 84 57 85 52 86 53 87 54 88 55 89
REMARK SMILES IDX 56 90
REMARK H PARENT 17 6 4 10 4 11 8 19 21 27 77 46 47 57
REMARK Flexibility Score: inf
ROOT
ATOM      1  C   UNL A   1      32.048  27.690  27.126  1.00  0.00     0.042 C 
ENDROOT
BRANCH   1   2
ATOM      2  C   UNL A   1      31.969  26.490  26.192  1.00  0.00     0.118 C 
BRANCH   2   3
ATOM      3  N   UNL A   1      31.537  25.287  26.879  1.00  0.00    -0.350 N 
ATOM      4  C   UNL A   1      31.867  23.969  26.756  1.00  0.00     0.287 C 
ATOM      5  O   UNL A   1      31.203  23.212  27.476  1.00  0.00    -0.268 OA
ATOM      6  H   UNL A   1      30.866  25.457  27.579  1.00  0.00     0.163 HD
BRANCH   4   7
ATOM      7  C   UNL A   1      33.022  23.471  25.819  1.00  0.00     0.221 C 
ATOM      8  C   UNL A   1      32.641  23.622  24.329  1.00  0.00     0.097 C 
BRANCH   7   9
ATOM      9  N   UNL A   1      34.280  24.264  26.018  1.00  0.00    -0.329 N 
ATOM     10  H   UNL A   1      34.013  25.247  26.082  1.00  0.00     0.347 HD
ATOM     11  H   UNL A   1      34.705  23.869  26.857  1.00  0.00     0.347 HD
BRANCH   9  12
ATOM     12  C   UNL A   1      35.314  24.160  24.996  1.00  0.00     0.261 C 
BRANCH  12  13
ATOM     13  C   UNL A   1      36.695  24.030  25.655  1.00  0.00     0.058 C 
ATOM     14  C   UNL A   1      37.190  22.593  25.746  1.00  0.00     0.010 C 
ENDBRANCH  12  13
ENDBRANCH   9  12
ENDBRANCH   7   9
BRANCH   7  15
ATOM     15  C   UNL A   1      33.338  21.960  26.143  1.00  0.00     0.341 C 
BRANCH  15  16
ATOM     16  N   UNL A   1      33.263  20.995  25.026  1.00  0.00    -0.329 N 
ATOM     17  C   UNL A   1      34.564  20.403  24.686  1.00  0.00     0.263 C 
ATOM     18  C   UNL A   1      32.321  19.893  25.276  1.00  0.00     0.269 C 
ATOM     19  H   UNL A   1      32.929  21.557  24.243  1.00  0.00     0.348 HD
ATOM     20  C   UNL A   1      34.373  18.890  24.666  1.00  0.00     0.073 C 
ATOM     21  C   UNL A   1      32.869  18.693  24.497  1.00  0.00     0.019 C 
ATOM     22  C   UNL A   1      32.462  18.746  23.017  1.00  0.00     0.017 C 
ATOM     23  C   UNL A   1      32.394  17.372  25.110  1.00  0.00     0.017 C 
ENDBRANCH  15  16
ENDBRANCH   7  15
ENDBRANCH   4   7
ENDBRANCH   2   3
ENDBRANCH   1   2
BRANCH   1  24
ATOM     24  C   UNL A   1      33.434  28.315  27.202  1.00  0.00     0.118 C 
BRANCH  24  25
ATOM     25  N   UNL A   1      33.381  29.752  27.446  1.00  0.00    -0.352 N 
ATOM     26  C   UNL A   1      34.299  30.586  28.030  1.00  0.00     0.251 C 
ATOM     27  H   UNL A   1      32.555  30.194  27.143  1.00  0.00     0.163 HD
ATOM     28  O   UNL A   1      33.962  31.724  28.354  1.00  0.00    -0.269 OA
BRANCH  26  29
ATOM     29  C   UNL A   1      35.679  30.121  28.283  1.00  0.00     0.039 A 
ATOM     30  C   UNL A   1      36.609  30.149  27.241  1.00  0.00     0.014 A 
ATOM     31  C   UNL A   1      36.051  29.637  29.540  1.00  0.00     0.014 A 
ATOM     32  C   UNL A   1      37.928  29.758  27.481  1.00  0.00     0.010 A 
ATOM     33  C   UNL A   1      37.384  29.339  29.802  1.00  0.00     0.010 A 
ATOM     34  C   UNL A   1      38.336  29.387  28.774  1.00  0.00    -0.014 A 
BRANCH  34  35
ATOM     35  C   UNL A   1      39.748  29.039  29.071  1.00  0.00     0.031 A 
ATOM     36  C   UNL A   1      40.671  30.071  29.664  1.00  0.00     0.074 A 
ATOM     37  C   UNL A   1      40.216  27.816  28.747  1.00  0.00     0.049 A 
ATOM     38  N   UNL A   1      41.949  29.978  29.929  1.00  0.00    -0.248 NA
ATOM     39  C   UNL A   1      40.090  31.388  29.976  1.00  0.00     0.031 C 
ATOM     40  C   UNL A   1      39.431  26.744  28.130  1.00  0.00     0.029 A 
ATOM     41  N   UNL A   1      41.467  27.269  28.887  1.00  0.00    -0.354 N 
ATOM     42  C   UNL A   1      42.324  31.223  30.422  1.00  0.00     0.074 A 
ATOM     43  C   UNL A   1      41.155  32.071  30.367  1.00  0.00     0.031 C 
ATOM     44  C   UNL A   1      40.211  25.662  27.973  1.00  0.00     0.029 A 
ATOM     45  C   UNL A   1      41.560  25.975  28.432  1.00  0.00     0.049 A 
ATOM     46  H   UNL A   1      42.228  27.759  29.276  1.00  0.00     0.167 HD
ATOM     47  C   UNL A   1      43.529  31.617  30.899  1.00  0.00     0.031 A 
ATOM     48  C   UNL A   1      42.614  25.137  28.380  1.00  0.00     0.031 A 
ATOM     49  C   UNL A   1      44.687  30.766  30.963  1.00  0.00     0.049 A 
ATOM     50  C   UNL A   1      43.946  25.608  28.899  1.00  0.00     0.074 A 
ATOM     51  C   UNL A   1      45.939  31.056  31.477  1.00  0.00     0.029 A 
ATOM     52  N   UNL A   1      44.735  29.460  30.499  1.00  0.00    -0.354 N 
ATOM     53  N   UNL A   1      44.263  26.768  29.422  1.00  0.00    -0.248 NA
ATOM     54  C   UNL A   1      45.060  24.652  28.830  1.00  0.00     0.031 C 
ATOM     55  C   UNL A   1      46.761  29.944  31.272  1.00  0.00     0.029 A 
ATOM     56  C   UNL A   1      46.003  28.939  30.692  1.00  0.00     0.049 A 
ATOM     57  H   UNL A   1      43.981  28.976  30.094  1.00  0.00     0.167 HD
ATOM     58  C   UNL A   1      45.606  26.670  29.772  1.00  0.00     0.074 A 
ATOM     59  C   UNL A   1      46.033  25.332  29.420  1.00  0.00     0.031 C 
ATOM     60  C   UNL A   1      46.412  27.603  30.337  1.00  0.00     0.031 A 
BRANCH  47  61
ATOM     61  C   UNL A   1      43.656  33.035  31.394  1.00  0.00    -0.014 A 
ATOM     62  C   UNL A   1      43.450  33.353  32.750  1.00  0.00     0.010 A 
ATOM     63  C   UNL A   1      44.043  34.055  30.505  1.00  0.00     0.010 A 
ATOM     64  C   UNL A   1      43.596  34.668  33.199  1.00  0.00     0.020 A 
ATOM     65  C   UNL A   1      44.219  35.366  30.958  1.00  0.00     0.020 A 
ATOM     66  C   UNL A   1      43.981  35.666  32.301  1.00  0.00     0.054 A 
BRANCH  66  67
ATOM     67  S   UNL A   1      44.203  37.355  32.925  1.00  0.00     0.124 S 
ATOM     68  O   UNL A   1      45.533  37.283  33.523  1.00  0.00    -0.237 OA
ATOM     69  O   UNL A   1      44.105  38.158  31.709  1.00  0.00    -0.237 OA
ATOM     70  O   UNL A   1      43.104  37.523  33.871  1.00  0.00    -0.744 OA
ENDBRANCH  66  67
ENDBRANCH  47  61
BRANCH  48  71
ATOM     71  C   UNL A   1      42.454  23.766  27.822  1.00  0.00    -0.014 A 
ATOM     72  C   UNL A   1      42.507  23.547  26.434  1.00  0.00     0.010 A 
ATOM     73  C   UNL A   1      42.237  22.670  28.677  1.00  0.00     0.010 A 
ATOM     74  C   UNL A   1      42.317  22.265  25.910  1.00  0.00     0.020 A 
ATOM     75  C   UNL A   1      42.080  21.381  28.160  1.00  0.00     0.020 A 
ATOM     76  C   UNL A   1      42.105  21.189  26.777  1.00  0.00     0.054 A 
BRANCH  76  77
ATOM     77  S   UNL A   1      41.892  19.529  26.077  1.00  0.00     0.124 S 
ATOM     78  O   UNL A   1      40.454  19.483  25.835  1.00  0.00    -0.237 OA
ATOM     79  O   UNL A   1      42.734  19.580  24.885  1.00  0.00    -0.237 OA
ATOM     80  O   UNL A   1      42.378  18.648  27.136  1.00  0.00    -0.744 OA
ENDBRANCH  76  77
ENDBRANCH  48  71
BRANCH  60  81
ATOM     81  C   UNL A   1      47.829  27.199  30.648  1.00  0.00    -0.014 A 
ATOM     82  C   UNL A   1      48.883  27.495  29.767  1.00  0.00     0.010 A 
ATOM     83  C   UNL A   1      48.115  26.562  31.870  1.00  0.00     0.010 A 
ATOM     84  C   UNL A   1      50.194  27.130  30.086  1.00  0.00     0.020 A 
ATOM     85  C   UNL A   1      49.427  26.225  32.208  1.00  0.00     0.020 A 
ATOM     86  C   UNL A   1      50.457  26.499  31.306  1.00  0.00     0.054 A 
BRANCH  86  87
ATOM     87  S   UNL A   1      52.172  26.076  31.717  1.00  0.00     0.124 S 
ATOM     88  O   UNL A   1      52.028  24.738  32.285  1.00  0.00    -0.237 OA
ATOM     89  O   UNL A   1      52.837  26.140  30.418  1.00  0.00    -0.237 OA
ATOM     90  O   UNL A   1      52.569  27.114  32.666  1.00  0.00    -0.744 OA
ENDBRANCH  86  87
ENDBRANCH  60  81
ENDBRANCH  34  35
ENDBRANCH  26  29
ENDBRANCH  24  25
ENDBRANCH   1  24
TORSDOF 18
ENDMDL
MODEL 2
REMARK VINA RESULT:      -9.9      3.376      5.111
REMARK SMILES CCC[NH2+][C@@](C)(C[N@H+]1CCC(C)(C)C1)C(=O)NCCCNC(=O)c1ccc(-c2c3nc(c(-c4ccc(S(=O)(=O)[O-])cc4)c4ccc([nH]4)c(-c4ccc(S(=O)(=O)[O-])cc4)c4nc(c(-c5ccc(S(=O)(=O)[O-])cc5)c5ccc2[nH]5)C=C4)C=C3)cc1
REMARK SMILES IDX 19 1 18 2 17 3 15 4 16 5 5 7 6 8 4 9 3 12 2 13 1 14 7 15
REMARK SMILES IDX 8 16 9 17 14 18 10 20 11 21 12 22 13 23 20 24 21 25 22 26
REMARK SMILES IDX 23 28 24 29 25 30 83 31 26 32 82 33 27 34 28 35 29 36 76 37
REMARK SMILES IDX 30 38 81 39 75 40 77 41 31 42 80 43 74 44 73 45 32 47 62 48
REMARK SMILES IDX 43 49 61 50 44 51 47 52 60 53 78 54 45 55 46 56 59 58 79 59
REMARK SMILES IDX 48 60 33 61 34 62 42 63 35 64 41 65 36 66 37 67 38 68 39 69
REMARK SMILES IDX 40 70 63 71 64 72 72 73 65 74 71 75 66 76 67 77 68 78 69 79
REMARK SMILES IDX 70 80 49 81 50 82 58 83 51 84 57 85 52 86 53 87 54 88 55 89
REMARK SMILES IDX 56 90
REMARK H PARENT 17 6 4 10 4 11 8 19 21 27 77 46 47 57
REMARK Flexibility Score: inf
ROOT
ATOM      1  C   UNL A   1      34.130  30.495  27.232  1.00  0.00     0.042 C 
ENDROOT
BRANCH   1   2
ATOM      2  C   UNL A   1      33.273  29.530  26.426  1.00  0.00     0.118 C 
BRANCH   2   3
ATOM      3  N   UNL A   1      33.520  29.634  25.000  1.00  0.00    -0.350 N 
ATOM      4  C   UNL A   1      33.211  28.838  23.936  1.00  0.00     0.287 C 
ATOM      5  O   UNL A   1      33.682  29.228  22.859  1.00  0.00    -0.268 OA
ATOM      6  H   UNL A   1      34.013  30.448  24.748  1.00  0.00     0.163 HD
BRANCH   4   7
ATOM      7  C   UNL A   1      32.297  27.570  24.067  1.00  0.00     0.221 C 
ATOM      8  C   UNL A   1      32.286  26.748  22.758  1.00  0.00     0.097 C 
BRANCH   7   9
ATOM      9  N   UNL A   1      32.781  26.645  25.145  1.00  0.00    -0.329 N 
ATOM     10  H   UNL A   1      32.884  27.199  25.996  1.00  0.00     0.347 HD
ATOM     11  H   UNL A   1      32.079  25.906  25.185  1.00  0.00     0.347 HD
BRANCH   9  12
ATOM     12  C   UNL A   1      34.041  25.948  24.923  1.00  0.00     0.261 C 
BRANCH  12  13
ATOM     13  C   UNL A   1      33.895  24.465  25.294  1.00  0.00     0.058 C 
ATOM     14  C   UNL A   1      35.161  23.861  25.887  1.00  0.00     0.010 C 
ENDBRANCH  12  13
ENDBRANCH   9  12
ENDBRANCH   7   9
BRANCH   7  15
ATOM     15  C   UNL A   1      30.830  28.023  24.430  1.00  0.00     0.341 C 
BRANCH  15  16
ATOM     16  N   UNL A   1      30.012  28.608  23.346  1.00  0.00    -0.329 N 
ATOM     17  C   UNL A   1      28.752  27.886  23.121  1.00  0.00     0.263 C 
ATOM     18  C   UNL A   1      29.683  30.024  23.570  1.00  0.00     0.269 C 
ATOM     19  H   UNL A   1      30.606  28.523  22.522  1.00  0.00     0.348 HD
ATOM     20  C   UNL A   1      27.635  28.923  23.143  1.00  0.00     0.073 C 
ATOM     21  C   UNL A   1      28.337  30.253  22.877  1.00  0.00     0.019 C 
ATOM     22  C   UNL A   1      28.511  30.499  21.371  1.00  0.00     0.017 C 
ATOM     23  C   UNL A   1      27.584  31.431  23.503  1.00  0.00     0.017 C 
ENDBRANCH  15  16
ENDBRANCH   7  15
ENDBRANCH   4   7
ENDBRANCH   2   3
ENDBRANCH   1   2
BRANCH   1  24
ATOM     24  C   UNL A   1      35.308  29.831  27.929  1.00  0.00     0.118 C 
BRANCH  24  25
ATOM     25  N   UNL A   1      35.367  30.155  29.351  1.00  0.00    -0.352 N 
ATOM     26  C   UNL A   1      36.348  29.910  30.276  1.00  0.00     0.251 C 
ATOM     27  H   UNL A   1      34.575  30.624  29.701  1.00  0.00     0.163 HD
ATOM     28  O   UNL A   1      36.100  30.053  31.473  1.00  0.00    -0.269 OA
BRANCH  26  29
ATOM     29  C   UNL A   1      37.689  29.464  29.845  1.00  0.00     0.039 A 
ATOM     30  C   UNL A   1      38.103  29.719  28.535  1.00  0.00     0.014 A 
ATOM     31  C   UNL A   1      38.530  28.777  30.723  1.00  0.00     0.014 A 
ATOM     32  C   UNL A   1      39.387  29.346  28.131  1.00  0.00     0.010 A 
ATOM     33  C   UNL A   1      39.840  28.492  30.350  1.00  0.00     0.010 A 
ATOM     34  C   UNL A   1      40.280  28.764  29.047  1.00  0.00    -0.014 A 
BRANCH  34  35
ATOM     35  C   UNL A   1      41.674  28.427  28.663  1.00  0.00     0.031 A 
ATOM     36  C   UNL A   1      42.727  29.503  28.623  1.00  0.00     0.074 A 
ATOM     37  C   UNL A   1      41.976  27.167  28.288  1.00  0.00     0.049 A 
ATOM     38  N   UNL A   1      43.978  29.418  28.249  1.00  0.00    -0.248 NA
ATOM     39  C   UNL A   1      42.316  30.857  29.033  1.00  0.00     0.031 C 
ATOM     40  C   UNL A   1      41.034  26.046  28.245  1.00  0.00     0.029 A 
ATOM     41  N   UNL A   1      43.161  26.618  27.866  1.00  0.00    -0.354 N 
ATOM     42  C   UNL A   1      44.495  30.703  28.363  1.00  0.00     0.074 A 
ATOM     43  C   UNL A   1      43.411  31.560  28.787  1.00  0.00     0.031 C 
ATOM     44  C   UNL A   1      41.684  24.939  27.849  1.00  0.00     0.029 A 
ATOM     45  C   UNL A   1      43.074  25.278  27.566  1.00  0.00     0.049 A 
ATOM     46  H   UNL A   1      43.995  27.135  27.785  1.00  0.00     0.167 HD
ATOM     47  C   UNL A   1      45.764  31.128  28.155  1.00  0.00     0.031 A 
ATOM     48  C   UNL A   1      44.005  24.422  27.103  1.00  0.00     0.031 A 
ATOM     49  C   UNL A   1      46.843  30.268  27.745  1.00  0.00     0.049 A 
ATOM     50  C   UNL A   1      45.403  24.924  26.863  1.00  0.00     0.074 A 
ATOM     51  C   UNL A   1      48.176  30.592  27.558  1.00  0.00     0.029 A 
ATOM     52  N   UNL A   1      46.713  28.918  27.459  1.00  0.00    -0.354 N 
ATOM     53  N   UNL A   1      45.887  26.130  27.039  1.00  0.00    -0.248 NA
ATOM     54  C   UNL A   1      46.384  23.947  26.370  1.00  0.00     0.031 C 
ATOM     55  C   UNL A   1      48.841  29.450  27.104  1.00  0.00     0.029 A 
ATOM     56  C   UNL A   1      47.937  28.399  27.072  1.00  0.00     0.049 A 
ATOM     57  H   UNL A   1      45.876  28.405  27.522  1.00  0.00     0.167 HD
ATOM     58  C   UNL A   1      47.236  26.048  26.708  1.00  0.00     0.074 A 
ATOM     59  C   UNL A   1      47.493  24.672  26.340  1.00  0.00     0.031 C 
ATOM     60  C   UNL A   1      48.177  27.025  26.711  1.00  0.00     0.031 A 
BRANCH  47  61
ATOM     61  C   UNL A   1      46.058  32.590  28.372  1.00  0.00    -0.014 A 
ATOM     62  C   UNL A   1      45.930  33.520  27.323  1.00  0.00     0.010 A 
ATOM     63  C   UNL A   1      46.409  33.052  29.654  1.00  0.00     0.010 A 
ATOM     64  C   UNL A   1      46.182  34.876  27.544  1.00  0.00     0.020 A 
ATOM     65  C   UNL A   1      46.633  34.412  29.886  1.00  0.00     0.020 A 
ATOM     66  C   UNL A   1      46.529  35.314  28.825  1.00  0.00     0.054 A 
BRANCH  66  67
ATOM     67  S   UNL A   1      46.807  37.087  29.089  1.00  0.00     0.124 S 
ATOM     68  O   UNL A   1      45.911  37.370  30.207  1.00  0.00    -0.237 OA
ATOM     69  O   UNL A   1      48.233  37.143  29.398  1.00  0.00    -0.237 OA
ATOM     70  O   UNL A   1      46.423  37.693  27.816  1.00  0.00    -0.744 OA
ENDBRANCH  66  67
ENDBRANCH  47  61
BRANCH  48  71
ATOM     71  C   UNL A   1      43.650  22.999  26.843  1.00  0.00    -0.014 A 
ATOM     72  C   UNL A   1      44.082  22.356  25.669  1.00  0.00     0.010 A 
ATOM     73  C   UNL A   1      42.869  22.279  27.765  1.00  0.00     0.010 A 
ATOM     74  C   UNL A   1      43.715  21.033  25.408  1.00  0.00     0.020 A 
ATOM     75  C   UNL A   1      42.527  20.946  27.524  1.00  0.00     0.020 A 
ATOM     76  C   UNL A   1      42.939  20.335  26.339  1.00  0.00     0.054 A 
BRANCH  76  77
ATOM     77  S   UNL A   1      42.501  18.609  25.994  1.00  0.00     0.124 S 
ATOM     78  O   UNL A   1      41.074  18.711  25.701  1.00  0.00    -0.237 OA
ATOM     79  O   UNL A   1      43.360  18.287  24.858  1.00  0.00    -0.237 OA
ATOM     80  O   UNL A   1      42.838  17.918  27.236  1.00  0.00    -0.744 OA
ENDBRANCH  76  77
ENDBRANCH  48  71
BRANCH  60  81
ATOM     81  C   UNL A   1      49.584  26.633  26.343  1.00  0.00    -0.014 A 
ATOM     82  C   UNL A   1      50.419  25.963  27.255  1.00  0.00     0.010 A 
ATOM     83  C   UNL A   1      50.057  26.893  25.044  1.00  0.00     0.010 A 
ATOM     84  C   UNL A   1      51.713  25.590  26.884  1.00  0.00     0.020 A 
ATOM     85  C   UNL A   1      51.338  26.493  24.658  1.00  0.00     0.020 A 
ATOM     86  C   UNL A   1      52.164  25.857  25.587  1.00  0.00     0.054 A 
BRANCH  86  87
ATOM     87  S   UNL A   1      53.832  25.323  25.116  1.00  0.00     0.124 S 
ATOM     88  O   UNL A   1      54.664  26.045  26.075  1.00  0.00    -0.237 OA
ATOM     89  O   UNL A   1      53.769  23.875  25.304  1.00  0.00    -0.237 OA
ATOM     90  O   UNL A   1      53.959  25.761  23.728  1.00  0.00    -0.744 OA
ENDBRANCH  86  87
ENDBRANCH  60  81
ENDBRANCH  34  35
ENDBRANCH  26  29
ENDBRANCH  24  25
ENDBRANCH   1  24
TORSDOF 18
ENDMDL
MODEL 3
REMARK VINA RESULT:      -9.7      2.987      4.244
REMARK SMILES CCC[NH2+][C@@](C)(C[N@H+]1CCC(C)(C)C1)C(=O)NCCCNC(=O)c1ccc(-c2c3nc(c(-c4ccc(S(=O)(=O)[O-])cc4)c4ccc([nH]4)c(-c4ccc(S(=O)(=O)[O-])cc4)c4nc(c(-c5ccc(S(=O)(=O)[O-])cc5)c5ccc2[nH]5)C=C4)C=C3)cc1
REMARK SMILES IDX 19 1 18 2 17 3 15 4 16 5 5 7 6 8 4 9 3 12 2 13 1 14 7 15
REMARK SMILES IDX 8 16 9 17 14 18 10 20 11 21 12 22 13 23 20 24 21 25 22 26
REMARK SMILES IDX 23 28 24 29 25 30 83 31 26 32 82 33 27 34 28 35 29 36 76 37
REMARK SMILES IDX 30 38 81 39 75 40 77 41 31 42 80 43 74 44 73 45 32 47 62 48
REMARK SMILES IDX 43 49 61 50 44 51 47 52 60 53 78 54 45 55 46 56 59 58 79 59
REMARK SMILES IDX 48 60 33 61 34 62 42 63 35 64 41 65 36 66 37 67 38 68 39 69
REMARK SMILES IDX 40 70 63 71 64 72 72 73 65 74 71 75 66 76 67 77 68 78 69 79
REMARK SMILES IDX 70 80 49 81 50 82 58 83 51 84 57 85 52 86 53 87 54 88 55 89
REMARK SMILES IDX 56 90
REMARK H PARENT 17 6 4 10 4 11 8 19 21 27 77 46 47 57
REMARK Flexibility Score: inf
ROOT
ATOM      1  C   UNL A   1      33.299  28.133  26.882  1.00  0.00     0.042 C 
ENDROOT
BRANCH   1   2
ATOM      2  C   UNL A   1      31.782  28.266  26.864  1.00  0.00     0.118 C 
BRANCH   2   3
ATOM      3  N   UNL A   1      31.118  26.977  26.922  1.00  0.00    -0.350 N 
ATOM      4  C   UNL A   1      30.690  26.101  25.968  1.00  0.00     0.287 C 
ATOM      5  O   UNL A   1      30.072  25.126  26.417  1.00  0.00    -0.268 OA
ATOM      6  H   UNL A   1      30.940  26.671  27.841  1.00  0.00     0.163 HD
BRANCH   4   7
ATOM      7  C   UNL A   1      30.999  26.295  24.442  1.00  0.00     0.221 C 
ATOM      8  C   UNL A   1      30.028  25.475  23.564  1.00  0.00     0.097 C 
BRANCH   7   9
ATOM      9  N   UNL A   1      30.847  27.727  24.023  1.00  0.00    -0.329 N 
ATOM     10  H   UNL A   1      30.719  28.281  24.870  1.00  0.00     0.347 HD
ATOM     11  H   UNL A   1      31.692  27.931  23.489  1.00  0.00     0.347 HD
BRANCH   9  12
ATOM     12  C   UNL A   1      29.751  28.054  23.119  1.00  0.00     0.261 C 
BRANCH  12  13
ATOM     13  C   UNL A   1      29.636  29.576  22.960  1.00  0.00     0.058 C 
ATOM     14  C   UNL A   1      28.543  30.004  21.988  1.00  0.00     0.010 C 
ENDBRANCH  12  13
ENDBRANCH   9  12
ENDBRANCH   7   9
BRANCH   7  15
ATOM     15  C   UNL A   1      32.487  25.855  24.156  1.00  0.00     0.341 C 
BRANCH  15  16
ATOM     16  N   UNL A   1      33.029  24.733  24.952  1.00  0.00    -0.329 N 
ATOM     17  C   UNL A   1      33.121  23.478  24.192  1.00  0.00     0.263 C 
ATOM     18  C   UNL A   1      34.358  25.013  25.516  1.00  0.00     0.269 C 
ATOM     19  H   UNL A   1      32.354  24.625  25.708  1.00  0.00     0.348 HD
ATOM     20  C   UNL A   1      34.542  22.955  24.367  1.00  0.00     0.073 C 
ATOM     21  C   UNL A   1      35.060  23.656  25.621  1.00  0.00     0.019 C 
ATOM     22  C   UNL A   1      34.645  22.903  26.893  1.00  0.00     0.017 C 
ATOM     23  C   UNL A   1      36.583  23.817  25.597  1.00  0.00     0.017 C 
ENDBRANCH  15  16
ENDBRANCH   7  15
ENDBRANCH   4   7
ENDBRANCH   2   3
ENDBRANCH   1   2
BRANCH   1  24
ATOM     24  C   UNL A   1      34.017  29.228  26.107  1.00  0.00     0.118 C 
BRANCH  24  25
ATOM     25  N   UNL A   1      33.756  30.556  26.651  1.00  0.00    -0.352 N 
ATOM     26  C   UNL A   1      34.349  31.219  27.695  1.00  0.00     0.251 C 
ATOM     27  H   UNL A   1      33.040  31.057  26.197  1.00  0.00     0.163 HD
ATOM     28  O   UNL A   1      33.821  32.236  28.144  1.00  0.00    -0.269 OA
BRANCH  26  29
ATOM     29  C   UNL A   1      35.604  30.711  28.288  1.00  0.00     0.039 A 
ATOM     30  C   UNL A   1      36.823  31.238  27.857  1.00  0.00     0.014 A 
ATOM     31  C   UNL A   1      35.580  29.701  29.253  1.00  0.00     0.014 A 
ATOM     32  C   UNL A   1      38.013  30.801  28.445  1.00  0.00     0.010 A 
ATOM     33  C   UNL A   1      36.754  29.336  29.903  1.00  0.00     0.010 A 
ATOM     34  C   UNL A   1      37.984  29.874  29.501  1.00  0.00    -0.014 A 
BRANCH  34  35
ATOM     35  C   UNL A   1      39.227  29.450  30.192  1.00  0.00     0.031 A 
ATOM     36  C   UNL A   1      39.684  30.169  31.434  1.00  0.00     0.074 A 
ATOM     37  C   UNL A   1      39.979  28.461  29.667  1.00  0.00     0.049 A 
ATOM     38  N   UNL A   1      40.773  29.990  32.137  1.00  0.00    -0.248 NA
ATOM     39  C   UNL A   1      38.818  31.249  31.938  1.00  0.00     0.031 C 
ATOM     40  C   UNL A   1      39.664  27.714  28.445  1.00  0.00     0.029 A 
ATOM     41  N   UNL A   1      41.165  27.914  30.089  1.00  0.00    -0.354 N 
ATOM     42  C   UNL A   1      40.729  30.940  33.151  1.00  0.00     0.074 A 
ATOM     43  C   UNL A   1      39.536  31.730  32.941  1.00  0.00     0.031 C 
ATOM     44  C   UNL A   1      40.617  26.791  28.237  1.00  0.00     0.029 A 
ATOM     45  C   UNL A   1      41.632  26.908  29.277  1.00  0.00     0.049 A 
ATOM     46  H   UNL A   1      41.638  28.217  30.899  1.00  0.00     0.167 HD
ATOM     47  C   UNL A   1      41.592  31.124  34.179  1.00  0.00     0.031 A 
ATOM     48  C   UNL A   1      42.756  26.170  29.354  1.00  0.00     0.031 A 
ATOM     49  C   UNL A   1      42.772  30.327  34.390  1.00  0.00     0.049 A 
ATOM     50  C   UNL A   1      43.708  26.407  30.495  1.00  0.00     0.074 A 
ATOM     51  C   UNL A   1      43.683  30.400  35.430  1.00  0.00     0.029 A 
ATOM     52  N   UNL A   1      43.203  29.314  33.548  1.00  0.00    -0.354 N 
ATOM     53  N   UNL A   1      43.614  27.268  31.481  1.00  0.00    -0.248 NA
ATOM     54  C   UNL A   1      44.913  25.567  30.540  1.00  0.00     0.031 C 
ATOM     55  C   UNL A   1      44.696  29.469  35.186  1.00  0.00     0.029 A 
ATOM     56  C   UNL A   1      44.382  28.770  34.031  1.00  0.00     0.049 A 
ATOM     57  H   UNL A   1      42.741  29.024  32.729  1.00  0.00     0.167 HD
ATOM     58  C   UNL A   1      44.732  27.050  32.279  1.00  0.00     0.074 A 
ATOM     59  C   UNL A   1      45.476  25.966  31.672  1.00  0.00     0.031 C 
ATOM     60  C   UNL A   1      45.108  27.689  33.415  1.00  0.00     0.031 A 
BRANCH  47  61
ATOM     61  C   UNL A   1      41.291  32.229  35.157  1.00  0.00    -0.014 A 
ATOM     62  C   UNL A   1      41.810  33.524  34.973  1.00  0.00     0.010 A 
ATOM     63  C   UNL A   1      40.430  31.988  36.244  1.00  0.00     0.010 A 
ATOM     64  C   UNL A   1      41.503  34.546  35.875  1.00  0.00     0.020 A 
ATOM     65  C   UNL A   1      40.097  33.015  37.132  1.00  0.00     0.020 A 
ATOM     66  C   UNL A   1      40.646  34.286  36.947  1.00  0.00     0.054 A 
BRANCH  66  67
ATOM     67  S   UNL A   1      40.232  35.644  38.076  1.00  0.00     0.124 S 
ATOM     68  O   UNL A   1      39.850  36.703  37.146  1.00  0.00    -0.237 OA
ATOM     69  O   UNL A   1      39.141  35.080  38.866  1.00  0.00    -0.237 OA
ATOM     70  O   UNL A   1      41.474  35.878  38.808  1.00  0.00    -0.744 OA
ENDBRANCH  66  67
ENDBRANCH  47  61
BRANCH  48  71
ATOM     71  C   UNL A   1      43.042  25.131  28.326  1.00  0.00    -0.014 A 
ATOM     72  C   UNL A   1      42.578  23.814  28.489  1.00  0.00     0.010 A 
ATOM     73  C   UNL A   1      43.789  25.452  27.178  1.00  0.00     0.010 A 
ATOM     74  C   UNL A   1      42.881  22.832  27.541  1.00  0.00     0.020 A 
ATOM     75  C   UNL A   1      44.067  24.482  26.211  1.00  0.00     0.020 A 
ATOM     76  C   UNL A   1      43.624  23.173  26.407  1.00  0.00     0.054 A 
BRANCH  76  77
ATOM     77  S   UNL A   1      43.978  21.889  25.175  1.00  0.00     0.124 S 
ATOM     78  O   UNL A   1      45.354  21.528  25.501  1.00  0.00    -0.237 OA
ATOM     79  O   UNL A   1      42.969  20.877  25.475  1.00  0.00    -0.237 OA
ATOM     80  O   UNL A   1      43.796  22.580  23.901  1.00  0.00    -0.744 OA
ENDBRANCH  76  77
ENDBRANCH  48  71
BRANCH  60  81
ATOM     81  C   UNL A   1      46.360  27.208  34.100  1.00  0.00    -0.014 A 
ATOM     82  C   UNL A   1      46.320  26.177  35.055  1.00  0.00     0.010 A 
ATOM     83  C   UNL A   1      47.602  27.760  33.739  1.00  0.00     0.010 A 
ATOM     84  C   UNL A   1      47.498  25.731  35.662  1.00  0.00     0.020 A 
ATOM     85  C   UNL A   1      48.785  27.296  34.319  1.00  0.00     0.020 A 
ATOM     86  C   UNL A   1      48.723  26.293  35.288  1.00  0.00     0.054 A 
BRANCH  86  87
ATOM     87  S   UNL A   1      50.241  25.666  36.058  1.00  0.00     0.124 S 
ATOM     88  O   UNL A   1      50.011  25.964  37.470  1.00  0.00    -0.237 OA
ATOM     89  O   UNL A   1      50.217  24.250  35.702  1.00  0.00    -0.237 OA
ATOM     90  O   UNL A   1      51.300  26.445  35.422  1.00  0.00    -0.744 OA
ENDBRANCH  86  87
ENDBRANCH  60  81
ENDBRANCH  34  35
ENDBRANCH  26  29
ENDBRANCH  24  25
ENDBRANCH   1  24
TORSDOF 18
ENDMDL
