MODEL 1
REMARK VINA RESULT:     -12.2      0.000      0.000
REMARK SMILES Cc1nc2n(n1)[C@@H](c1ccc([N+](=O)[O-])o1)CC(C(=O)NCCCNC(=O)c1ccc(-c3c4nc(c(-c5ccc(S(=O)(=O)[O-])cc5)c5ccc([nH]5)c(-c5ccc(S(=O)(=O)[O-])cc5)c5nc(c(-c6ccc(S(=O)(=O)[O-])cc6)c6ccc3[nH]6)C=C5)C=C4)cc1)=N2
REMARK SMILES IDX 22 1 21 2 20 3 18 4 19 5 17 7 1 8 2 9 3 10 6 11 4 12 5 13
REMARK SMILES IDX 87 14 7 15 16 16 8 17 9 18 15 19 10 20 11 21 12 22 13 23
REMARK SMILES IDX 14 24 23 25 24 26 25 27 26 29 27 30 28 31 86 32 29 33 85 34
REMARK SMILES IDX 30 35 31 36 32 37 79 38 33 39 84 40 78 41 80 42 34 43 83 44
REMARK SMILES IDX 77 45 76 46 35 48 65 49 46 50 64 51 47 52 50 53 63 54 81 55
REMARK SMILES IDX 48 56 49 57 62 59 82 60 51 61 36 62 37 63 45 64 38 65 44 66
REMARK SMILES IDX 39 67 40 68 41 69 42 70 43 71 66 72 67 73 75 74 68 75 74 76
REMARK SMILES IDX 69 77 70 78 71 79 72 80 73 81 52 82 53 83 61 84 54 85 60 86
REMARK SMILES IDX 55 87 56 88 57 89 58 90 59 91
REMARK H PARENT 20 6 24 28 80 47 50 58
REMARK Flexibility Score: inf
ROOT
ATOM      1  C   UNL A   1      32.075  31.290  26.583  1.00  0.00     0.042 C 
ENDROOT
BRANCH   1   2
ATOM      2  C   UNL A   1      31.637  29.945  25.972  1.00  0.00     0.118 C 
BRANCH   2   3
ATOM      3  N   UNL A   1      32.542  29.466  24.935  1.00  0.00    -0.351 N 
ATOM      4  C   UNL A   1      33.034  28.255  24.511  1.00  0.00     0.265 C 
ATOM      5  O   UNL A   1      33.719  28.275  23.488  1.00  0.00    -0.268 OA
ATOM      6  H   UNL A   1      32.893  30.209  24.393  1.00  0.00     0.163 HD
BRANCH   4   7
ATOM      7  C   UNL A   1      32.812  26.886  25.191  1.00  0.00     0.112 C 
ATOM      8  C   UNL A   1      29.376  22.664  27.249  1.00  0.00     0.092 C 
ATOM      9  C   UNL A   1      30.423  23.605  26.801  1.00  0.00     0.149 A 
ATOM     10  N   UNL A   1      30.119  24.797  26.197  1.00  0.00    -0.195 NA
ATOM     11  N   UNL A   1      31.733  23.359  26.927  1.00  0.00    -0.154 NA
ATOM     12  C   UNL A   1      31.289  25.325  25.905  1.00  0.00     0.249 A 
ATOM     13  N   UNL A   1      32.250  24.449  26.323  1.00  0.00    -0.219 N 
ATOM     14  N   UNL A   1      31.575  26.494  25.293  1.00  0.00    -0.211 NA
ATOM     15  C   UNL A   1      33.666  24.670  26.158  1.00  0.00     0.184 C 
ATOM     16  C   UNL A   1      33.979  26.117  25.749  1.00  0.00     0.098 C 
BRANCH  15  17
ATOM     17  C   UNL A   1      34.276  23.687  25.195  1.00  0.00     0.136 A 
ATOM     18  C   UNL A   1      34.815  23.750  23.921  1.00  0.00     0.056 A 
ATOM     19  O   UNL A   1      34.301  22.387  25.633  1.00  0.00    -0.404 OA
ATOM     20  C   UNL A   1      35.215  22.433  23.571  1.00  0.00     0.134 A 
ATOM     21  C   UNL A   1      34.890  21.655  24.654  1.00  0.00     0.433 A 
BRANCH  21  22
ATOM     22  N   UNL A   1      35.052  20.262  24.925  1.00  0.00     0.102 N 
ATOM     23  O   UNL A   1      36.216  19.849  25.000  1.00  0.00    -0.256 OA
ATOM     24  O   UNL A   1      34.027  19.583  25.063  1.00  0.00    -0.256 OA
ENDBRANCH  21  22
ENDBRANCH  15  17
ENDBRANCH   4   7
ENDBRANCH   2   3
ENDBRANCH   1   2
BRANCH   1  25
ATOM     25  C   UNL A   1      33.417  31.255  27.352  1.00  0.00     0.118 C 
BRANCH  25  26
ATOM     26  N   UNL A   1      33.780  32.587  27.817  1.00  0.00    -0.352 N 
ATOM     27  C   UNL A   1      34.679  33.068  28.730  1.00  0.00     0.251 C 
ATOM     28  H   UNL A   1      33.264  33.299  27.376  1.00  0.00     0.163 HD
ATOM     29  O   UNL A   1      34.502  34.235  29.093  1.00  0.00    -0.269 OA
BRANCH  27  30
ATOM     30  C   UNL A   1      35.836  32.318  29.287  1.00  0.00     0.039 A 
ATOM     31  C   UNL A   1      35.980  32.328  30.687  1.00  0.00     0.014 A 
ATOM     32  C   UNL A   1      36.861  31.772  28.515  1.00  0.00     0.014 A 
ATOM     33  C   UNL A   1      37.113  31.790  31.308  1.00  0.00     0.010 A 
ATOM     34  C   UNL A   1      38.001  31.231  29.143  1.00  0.00     0.010 A 
ATOM     35  C   UNL A   1      38.138  31.226  30.545  1.00  0.00    -0.014 A 
BRANCH  35  36
ATOM     36  C   UNL A   1      39.232  30.500  31.248  1.00  0.00     0.031 A 
ATOM     37  C   UNL A   1      39.400  29.078  30.830  1.00  0.00     0.074 A 
ATOM     38  C   UNL A   1      40.271  31.084  31.893  1.00  0.00     0.049 A 
ATOM     39  N   UNL A   1      40.064  28.758  29.760  1.00  0.00    -0.248 NA
ATOM     40  C   UNL A   1      38.647  27.970  31.413  1.00  0.00     0.031 C 
ATOM     41  C   UNL A   1      40.785  32.419  31.572  1.00  0.00     0.029 A 
ATOM     42  N   UNL A   1      41.209  30.571  32.769  1.00  0.00    -0.354 N 
ATOM     43  C   UNL A   1      39.795  27.432  29.488  1.00  0.00     0.074 A 
ATOM     44  C   UNL A   1      38.926  26.976  30.552  1.00  0.00     0.031 C 
ATOM     45  C   UNL A   1      42.019  32.551  32.106  1.00  0.00     0.029 A 
ATOM     46  C   UNL A   1      42.333  31.388  32.944  1.00  0.00     0.049 A 
ATOM     47  H   UNL A   1      41.098  29.707  33.230  1.00  0.00     0.167 HD
ATOM     48  C   UNL A   1      40.292  26.802  28.392  1.00  0.00     0.031 A 
ATOM     49  C   UNL A   1      43.614  30.956  33.137  1.00  0.00     0.031 A 
ATOM     50  C   UNL A   1      41.113  27.614  27.539  1.00  0.00     0.049 A 
ATOM     51  C   UNL A   1      43.872  30.149  31.898  1.00  0.00     0.074 A 
ATOM     52  C   UNL A   1      40.954  28.378  26.401  1.00  0.00     0.029 A 
ATOM     53  N   UNL A   1      42.422  27.818  27.903  1.00  0.00    -0.354 N 
ATOM     54  N   UNL A   1      44.179  30.624  30.726  1.00  0.00    -0.248 NA
ATOM     55  C   UNL A   1      43.466  28.744  31.906  1.00  0.00     0.031 C 
ATOM     56  C   UNL A   1      42.015  29.340  26.435  1.00  0.00     0.029 A 
ATOM     57  C   UNL A   1      42.719  29.128  27.619  1.00  0.00     0.049 A 
ATOM     58  H   UNL A   1      43.031  27.152  28.293  1.00  0.00     0.167 HD
ATOM     59  C   UNL A   1      43.727  29.677  29.811  1.00  0.00     0.074 A 
ATOM     60  C   UNL A   1      43.326  28.528  30.605  1.00  0.00     0.031 C 
ATOM     61  C   UNL A   1      43.529  29.956  28.488  1.00  0.00     0.031 A 
BRANCH  48  62
ATOM     62  C   UNL A   1      40.154  25.357  28.112  1.00  0.00    -0.014 A 
ATOM     63  C   UNL A   1      41.220  24.520  28.483  1.00  0.00     0.010 A 
ATOM     64  C   UNL A   1      39.129  24.853  27.299  1.00  0.00     0.010 A 
ATOM     65  C   UNL A   1      41.303  23.218  27.994  1.00  0.00     0.020 A 
ATOM     66  C   UNL A   1      39.202  23.540  26.815  1.00  0.00     0.020 A 
ATOM     67  C   UNL A   1      40.305  22.744  27.142  1.00  0.00     0.054 A 
BRANCH  67  68
ATOM     68  S   UNL A   1      40.521  21.095  26.419  1.00  0.00     0.124 S 
ATOM     69  O   UNL A   1      40.775  20.271  27.598  1.00  0.00    -0.237 OA
ATOM     70  O   UNL A   1      39.236  20.874  25.761  1.00  0.00    -0.237 OA
ATOM     71  O   UNL A   1      41.659  21.260  25.517  1.00  0.00    -0.744 OA
ENDBRANCH  67  68
ENDBRANCH  48  62
BRANCH  49  72
ATOM     72  C   UNL A   1      44.035  30.432  34.482  1.00  0.00    -0.014 A 
ATOM     73  C   UNL A   1      43.058  29.984  35.392  1.00  0.00     0.010 A 
ATOM     74  C   UNL A   1      45.377  30.409  34.916  1.00  0.00     0.010 A 
ATOM     75  C   UNL A   1      43.414  29.410  36.620  1.00  0.00     0.020 A 
ATOM     76  C   UNL A   1      45.747  29.805  36.127  1.00  0.00     0.020 A 
ATOM     77  C   UNL A   1      44.761  29.285  36.962  1.00  0.00     0.054 A 
BRANCH  77  78
ATOM     78  S   UNL A   1      45.211  28.361  38.457  1.00  0.00     0.124 S 
ATOM     79  O   UNL A   1      46.626  28.072  38.230  1.00  0.00    -0.237 OA
ATOM     80  O   UNL A   1      44.931  29.332  39.516  1.00  0.00    -0.237 OA
ATOM     81  O   UNL A   1      44.324  27.207  38.431  1.00  0.00    -0.744 OA
ENDBRANCH  77  78
ENDBRANCH  49  72
BRANCH  61  82
ATOM     82  C   UNL A   1      43.947  31.332  28.048  1.00  0.00    -0.014 A 
ATOM     83  C   UNL A   1      43.334  32.476  28.585  1.00  0.00     0.010 A 
ATOM     84  C   UNL A   1      44.958  31.499  27.082  1.00  0.00     0.010 A 
ATOM     85  C   UNL A   1      43.735  33.755  28.187  1.00  0.00     0.020 A 
ATOM     86  C   UNL A   1      45.381  32.775  26.696  1.00  0.00     0.020 A 
ATOM     87  C   UNL A   1      44.766  33.897  27.252  1.00  0.00     0.054 A 
BRANCH  87  88
ATOM     88  S   UNL A   1      45.317  35.567  26.810  1.00  0.00     0.124 S 
ATOM     89  O   UNL A   1      45.815  35.386  25.450  1.00  0.00    -0.237 OA
ATOM     90  O   UNL A   1      44.089  36.351  26.930  1.00  0.00    -0.237 OA
ATOM     91  O   UNL A   1      46.339  35.873  27.809  1.00  0.00    -0.744 OA
ENDBRANCH  87  88
ENDBRANCH  61  82
ENDBRANCH  35  36
ENDBRANCH  27  30
ENDBRANCH  25  26
ENDBRANCH   1  25
TORSDOF 15
ENDMDL
MODEL 2
REMARK VINA RESULT:     -12.1      7.143     12.814
REMARK SMILES Cc1nc2n(n1)[C@@H](c1ccc([N+](=O)[O-])o1)CC(C(=O)NCCCNC(=O)c1ccc(-c3c4nc(c(-c5ccc(S(=O)(=O)[O-])cc5)c5ccc([nH]5)c(-c5ccc(S(=O)(=O)[O-])cc5)c5nc(c(-c6ccc(S(=O)(=O)[O-])cc6)c6ccc3[nH]6)C=C5)C=C4)cc1)=N2
REMARK SMILES IDX 22 1 21 2 20 3 18 4 19 5 17 7 1 8 2 9 3 10 6 11 4 12 5 13
REMARK SMILES IDX 87 14 7 15 16 16 8 17 9 18 15 19 10 20 11 21 12 22 13 23
REMARK SMILES IDX 14 24 23 25 24 26 25 27 26 29 27 30 28 31 86 32 29 33 85 34
REMARK SMILES IDX 30 35 31 36 32 37 79 38 33 39 84 40 78 41 80 42 34 43 83 44
REMARK SMILES IDX 77 45 76 46 35 48 65 49 46 50 64 51 47 52 50 53 63 54 81 55
REMARK SMILES IDX 48 56 49 57 62 59 82 60 51 61 36 62 37 63 45 64 38 65 44 66
REMARK SMILES IDX 39 67 40 68 41 69 42 70 43 71 66 72 67 73 75 74 68 75 74 76
REMARK SMILES IDX 69 77 70 78 71 79 72 80 73 81 52 82 53 83 61 84 54 85 60 86
REMARK SMILES IDX 55 87 56 88 57 89 58 90 59 91
REMARK H PARENT 20 6 24 28 80 47 50 58
REMARK Flexibility Score: inf
ROOT
ATOM      1  C   UNL A   1      45.839  23.017  38.115  1.00  0.00     0.042 C 
ENDROOT
BRANCH   1   2
ATOM      2  C   UNL A   1      46.049  21.787  37.212  1.00  0.00     0.118 C 
BRANCH   2   3
ATOM      3  N   UNL A   1      47.333  21.133  37.425  1.00  0.00    -0.351 N 
ATOM      4  C   UNL A   1      47.840  20.153  38.244  1.00  0.00     0.265 C 
ATOM      5  O   UNL A   1      48.999  19.804  38.022  1.00  0.00    -0.268 OA
ATOM      6  H   UNL A   1      48.023  21.488  36.818  1.00  0.00     0.163 HD
BRANCH   4   7
ATOM      7  C   UNL A   1      47.097  19.456  39.405  1.00  0.00     0.112 C 
ATOM      8  C   UNL A   1      44.181  19.553  44.440  1.00  0.00     0.092 C 
ATOM      9  C   UNL A   1      44.898  19.299  43.175  1.00  0.00     0.149 A 
ATOM     10  N   UNL A   1      45.428  20.315  42.423  1.00  0.00    -0.195 NA
ATOM     11  N   UNL A   1      45.063  18.075  42.657  1.00  0.00    -0.154 NA
ATOM     12  C   UNL A   1      45.936  19.713  41.368  1.00  0.00     0.249 A 
ATOM     13  N   UNL A   1      45.693  18.376  41.503  1.00  0.00    -0.219 N 
ATOM     14  N   UNL A   1      46.573  20.241  40.302  1.00  0.00    -0.211 NA
ATOM     15  C   UNL A   1      46.085  17.385  40.530  1.00  0.00     0.184 C 
ATOM     16  C   UNL A   1      47.064  17.954  39.492  1.00  0.00     0.098 C 
BRANCH  15  17
ATOM     17  C   UNL A   1      44.892  16.753  39.866  1.00  0.00     0.136 A 
ATOM     18  C   UNL A   1      44.357  16.743  38.588  1.00  0.00     0.056 A 
ATOM     19  O   UNL A   1      44.089  16.016  40.698  1.00  0.00    -0.404 OA
ATOM     20  C   UNL A   1      43.186  15.940  38.632  1.00  0.00     0.134 A 
ATOM     21  C   UNL A   1      43.084  15.517  39.934  1.00  0.00     0.433 A 
BRANCH  21  22
ATOM     22  N   UNL A   1      42.143  14.678  40.605  1.00  0.00     0.102 N 
ATOM     23  O   UNL A   1      41.573  15.169  41.588  1.00  0.00    -0.256 OA
ATOM     24  O   UNL A   1      41.973  13.537  40.158  1.00  0.00    -0.256 OA
ENDBRANCH  21  22
ENDBRANCH  15  17
ENDBRANCH   4   7
ENDBRANCH   2   3
ENDBRANCH   1   2
BRANCH   1  25
ATOM     25  C   UNL A   1      45.276  24.268  37.399  1.00  0.00     0.118 C 
BRANCH  25  26
ATOM     26  N   UNL A   1      43.884  24.064  37.023  1.00  0.00    -0.352 N 
ATOM     27  C   UNL A   1      43.107  24.478  35.974  1.00  0.00     0.251 C 
ATOM     28  H   UNL A   1      43.392  23.505  37.665  1.00  0.00     0.163 HD
ATOM     29  O   UNL A   1      41.888  24.372  36.136  1.00  0.00    -0.269 OA
BRANCH  27  30
ATOM     30  C   UNL A   1      43.609  25.010  34.680  1.00  0.00     0.039 A 
ATOM     31  C   UNL A   1      43.268  26.339  34.369  1.00  0.00     0.014 A 
ATOM     32  C   UNL A   1      44.228  24.234  33.701  1.00  0.00     0.014 A 
ATOM     33  C   UNL A   1      43.551  26.891  33.114  1.00  0.00     0.010 A 
ATOM     34  C   UNL A   1      44.513  24.793  32.438  1.00  0.00     0.010 A 
ATOM     35  C   UNL A   1      44.186  26.128  32.131  1.00  0.00    -0.014 A 
BRANCH  35  36
ATOM     36  C   UNL A   1      44.637  26.805  30.884  1.00  0.00     0.031 A 
ATOM     37  C   UNL A   1      44.784  25.902  29.707  1.00  0.00     0.074 A 
ATOM     38  C   UNL A   1      44.542  28.135  30.639  1.00  0.00     0.049 A 
ATOM     39  N   UNL A   1      43.761  25.555  28.984  1.00  0.00    -0.248 NA
ATOM     40  C   UNL A   1      45.998  25.142  29.419  1.00  0.00     0.031 C 
ATOM     41  C   UNL A   1      43.550  29.013  31.265  1.00  0.00     0.029 A 
ATOM     42  N   UNL A   1      45.113  28.927  29.659  1.00  0.00    -0.354 N 
ATOM     43  C   UNL A   1      44.162  24.509  28.177  1.00  0.00     0.074 A 
ATOM     44  C   UNL A   1      45.565  24.299  28.466  1.00  0.00     0.031 C 
ATOM     45  C   UNL A   1      43.466  30.156  30.549  1.00  0.00     0.029 A 
ATOM     46  C   UNL A   1      44.502  30.179  29.511  1.00  0.00     0.049 A 
ATOM     47  H   UNL A   1      45.881  28.637  29.114  1.00  0.00     0.167 HD
ATOM     48  C   UNL A   1      43.305  23.873  27.337  1.00  0.00     0.031 A 
ATOM     49  C   UNL A   1      44.339  30.855  28.335  1.00  0.00     0.031 A 
ATOM     50  C   UNL A   1      41.956  24.364  27.352  1.00  0.00     0.049 A 
ATOM     51  C   UNL A   1      43.524  29.892  27.520  1.00  0.00     0.074 A 
ATOM     52  C   UNL A   1      40.768  24.056  27.980  1.00  0.00     0.029 A 
ATOM     53  N   UNL A   1      41.674  25.501  26.633  1.00  0.00    -0.354 N 
ATOM     54  N   UNL A   1      42.241  29.699  27.620  1.00  0.00    -0.248 NA
ATOM     55  C   UNL A   1      44.243  28.871  26.758  1.00  0.00     0.031 C 
ATOM     56  C   UNL A   1      40.006  25.270  27.975  1.00  0.00     0.029 A 
ATOM     57  C   UNL A   1      40.806  26.249  27.388  1.00  0.00     0.049 A 
ATOM     58  H   UNL A   1      42.027  25.734  25.745  1.00  0.00     0.167 HD
ATOM     59  C   UNL A   1      42.027  28.392  27.193  1.00  0.00     0.074 A 
ATOM     60  C   UNL A   1      43.297  27.948  26.646  1.00  0.00     0.031 C 
ATOM     61  C   UNL A   1      40.890  27.691  27.484  1.00  0.00     0.031 A 
BRANCH  48  62
ATOM     62  C   UNL A   1      43.695  22.839  26.355  1.00  0.00    -0.014 A 
ATOM     63  C   UNL A   1      43.000  21.618  26.388  1.00  0.00     0.010 A 
ATOM     64  C   UNL A   1      44.856  22.953  25.577  1.00  0.00     0.010 A 
ATOM     65  C   UNL A   1      43.493  20.502  25.716  1.00  0.00     0.020 A 
ATOM     66  C   UNL A   1      45.349  21.837  24.888  1.00  0.00     0.020 A 
ATOM     67  C   UNL A   1      44.679  20.613  24.989  1.00  0.00     0.054 A 
BRANCH  67  68
ATOM     68  S   UNL A   1      45.359  19.107  24.242  1.00  0.00     0.124 S 
ATOM     69  O   UNL A   1      44.647  19.044  22.969  1.00  0.00    -0.237 OA
ATOM     70  O   UNL A   1      46.783  19.421  24.152  1.00  0.00    -0.237 OA
ATOM     71  O   UNL A   1      45.014  18.059  25.201  1.00  0.00    -0.744 OA
ENDBRANCH  67  68
ENDBRANCH  48  62
BRANCH  49  72
ATOM     72  C   UNL A   1      45.504  31.573  27.714  1.00  0.00    -0.014 A 
ATOM     73  C   UNL A   1      45.278  32.731  26.944  1.00  0.00     0.010 A 
ATOM     74  C   UNL A   1      46.836  31.119  27.818  1.00  0.00     0.010 A 
ATOM     75  C   UNL A   1      46.343  33.477  26.421  1.00  0.00     0.020 A 
ATOM     76  C   UNL A   1      47.910  31.876  27.328  1.00  0.00     0.020 A 
ATOM     77  C   UNL A   1      47.656  33.067  26.652  1.00  0.00     0.054 A 
BRANCH  77  78
ATOM     78  S   UNL A   1      49.022  34.148  26.142  1.00  0.00     0.124 S 
ATOM     79  O   UNL A   1      48.502  34.746  24.914  1.00  0.00    -0.237 OA
ATOM     80  O   UNL A   1      49.140  35.057  27.283  1.00  0.00    -0.237 OA
ATOM     81  O   UNL A   1      50.141  33.232  25.968  1.00  0.00    -0.744 OA
ENDBRANCH  77  78
ENDBRANCH  49  72
BRANCH  61  82
ATOM     82  C   UNL A   1      39.819  28.466  28.201  1.00  0.00    -0.014 A 
ATOM     83  C   UNL A   1      39.757  28.478  29.604  1.00  0.00     0.010 A 
ATOM     84  C   UNL A   1      38.852  29.190  27.477  1.00  0.00     0.010 A 
ATOM     85  C   UNL A   1      38.770  29.212  30.270  1.00  0.00     0.020 A 
ATOM     86  C   UNL A   1      37.876  29.945  28.135  1.00  0.00     0.020 A 
ATOM     87  C   UNL A   1      37.842  29.952  29.530  1.00  0.00     0.054 A 
BRANCH  87  88
ATOM     88  S   UNL A   1      36.620  30.954  30.419  1.00  0.00     0.124 S 
ATOM     89  O   UNL A   1      35.701  31.350  29.356  1.00  0.00    -0.237 OA
ATOM     90  O   UNL A   1      36.081  30.009  31.395  1.00  0.00    -0.237 OA
ATOM     91  O   UNL A   1      37.411  32.042  30.992  1.00  0.00    -0.744 OA
ENDBRANCH  87  88
ENDBRANCH  61  82
ENDBRANCH  35  36
ENDBRANCH  27  30
ENDBRANCH  25  26
ENDBRANCH   1  25
TORSDOF 15
ENDMDL
MODEL 3
REMARK VINA RESULT:     -12.1      2.505      8.829
REMARK SMILES Cc1nc2n(n1)[C@@H](c1ccc([N+](=O)[O-])o1)CC(C(=O)NCCCNC(=O)c1ccc(-c3c4nc(c(-c5ccc(S(=O)(=O)[O-])cc5)c5ccc([nH]5)c(-c5ccc(S(=O)(=O)[O-])cc5)c5nc(c(-c6ccc(S(=O)(=O)[O-])cc6)c6ccc3[nH]6)C=C5)C=C4)cc1)=N2
REMARK SMILES IDX 22 1 21 2 20 3 18 4 19 5 17 7 1 8 2 9 3 10 6 11 4 12 5 13
REMARK SMILES IDX 87 14 7 15 16 16 8 17 9 18 15 19 10 20 11 21 12 22 13 23
REMARK SMILES IDX 14 24 23 25 24 26 25 27 26 29 27 30 28 31 86 32 29 33 85 34
REMARK SMILES IDX 30 35 31 36 32 37 79 38 33 39 84 40 78 41 80 42 34 43 83 44
REMARK SMILES IDX 77 45 76 46 35 48 65 49 46 50 64 51 47 52 50 53 63 54 81 55
REMARK SMILES IDX 48 56 49 57 62 59 82 60 51 61 36 62 37 63 45 64 38 65 44 66
REMARK SMILES IDX 39 67 40 68 41 69 42 70 43 71 66 72 67 73 75 74 68 75 74 76
REMARK SMILES IDX 69 77 70 78 71 79 72 80 73 81 52 82 53 83 61 84 54 85 60 86
REMARK SMILES IDX 55 87 56 88 57 89 58 90 59 91
REMARK H PARENT 20 6 24 28 80 47 50 58
REMARK Flexibility Score: inf
ROOT
ATOM      1  C   UNL A   1      36.888  23.141  25.521  1.00  0.00     0.042 C 
ENDROOT
BRANCH   1   2
ATOM      2  C   UNL A   1      35.441  22.661  25.306  1.00  0.00     0.118 C 
BRANCH   2   3
ATOM      3  N   UNL A   1      34.876  23.099  24.036  1.00  0.00    -0.351 N 
ATOM      4  C   UNL A   1      34.066  24.117  23.594  1.00  0.00     0.265 C 
ATOM      5  O   UNL A   1      33.907  24.195  22.376  1.00  0.00    -0.268 OA
ATOM      6  H   UNL A   1      35.147  22.507  23.298  1.00  0.00     0.163 HD
BRANCH   4   7
ATOM      7  C   UNL A   1      33.343  25.161  24.474  1.00  0.00     0.112 C 
ATOM      8  C   UNL A   1      33.254  30.049  27.630  1.00  0.00     0.092 C 
ATOM      9  C   UNL A   1      33.055  28.788  26.887  1.00  0.00     0.149 A 
ATOM     10  N   UNL A   1      34.071  28.182  26.197  1.00  0.00    -0.195 NA
ATOM     11  N   UNL A   1      31.874  28.160  26.812  1.00  0.00    -0.154 NA
ATOM     12  C   UNL A   1      33.509  27.131  25.639  1.00  0.00     0.249 A 
ATOM     13  N   UNL A   1      32.189  27.137  25.991  1.00  0.00    -0.219 N 
ATOM     14  N   UNL A   1      34.053  26.188  24.841  1.00  0.00    -0.211 NA
ATOM     15  C   UNL A   1      31.235  26.146  25.554  1.00  0.00     0.184 C 
ATOM     16  C   UNL A   1      31.922  24.931  24.913  1.00  0.00     0.098 C 
BRANCH  15  17
ATOM     17  C   UNL A   1      30.201  26.737  24.634  1.00  0.00     0.136 A 
ATOM     18  C   UNL A   1      28.968  26.340  24.143  1.00  0.00     0.056 A 
ATOM     19  O   UNL A   1      30.527  27.959  24.104  1.00  0.00    -0.404 OA
ATOM     20  C   UNL A   1      28.503  27.380  23.293  1.00  0.00     0.134 A 
ATOM     21  C   UNL A   1      29.485  28.338  23.322  1.00  0.00     0.433 A 
BRANCH  21  22
ATOM     22  N   UNL A   1      29.604  29.616  22.696  1.00  0.00     0.102 N 
ATOM     23  O   UNL A   1      29.887  29.614  21.491  1.00  0.00    -0.256 OA
ATOM     24  O   UNL A   1      29.418  30.617  23.399  1.00  0.00    -0.256 OA
ENDBRANCH  21  22
ENDBRANCH  15  17
ENDBRANCH   4   7
ENDBRANCH   2   3
ENDBRANCH   1   2
BRANCH   1  25
ATOM     25  C   UNL A   1      37.984  22.159  25.038  1.00  0.00     0.118 C 
BRANCH  25  26
ATOM     26  N   UNL A   1      38.741  21.635  26.167  1.00  0.00    -0.352 N 
ATOM     27  C   UNL A   1      39.716  22.144  26.982  1.00  0.00     0.251 C 
ATOM     28  H   UNL A   1      38.497  20.709  26.394  1.00  0.00     0.163 HD
ATOM     29  O   UNL A   1      40.350  21.314  27.640  1.00  0.00    -0.269 OA
BRANCH  27  30
ATOM     30  C   UNL A   1      40.045  23.584  27.147  1.00  0.00     0.039 A 
ATOM     31  C   UNL A   1      41.311  23.998  26.696  1.00  0.00     0.014 A 
ATOM     32  C   UNL A   1      39.265  24.489  27.867  1.00  0.00     0.014 A 
ATOM     33  C   UNL A   1      41.788  25.291  26.941  1.00  0.00     0.010 A 
ATOM     34  C   UNL A   1      39.746  25.791  28.112  1.00  0.00     0.010 A 
ATOM     35  C   UNL A   1      41.008  26.211  27.647  1.00  0.00    -0.014 A 
BRANCH  35  36
ATOM     36  C   UNL A   1      41.468  27.625  27.722  1.00  0.00     0.031 A 
ATOM     37  C   UNL A   1      40.371  28.628  27.833  1.00  0.00     0.074 A 
ATOM     38  C   UNL A   1      42.713  28.024  28.079  1.00  0.00     0.049 A 
ATOM     39  N   UNL A   1      39.808  28.896  28.973  1.00  0.00    -0.248 NA
ATOM     40  C   UNL A   1      39.673  29.193  26.681  1.00  0.00     0.031 C 
ATOM     41  C   UNL A   1      43.610  27.239  28.932  1.00  0.00     0.029 A 
ATOM     42  N   UNL A   1      43.347  29.249  27.972  1.00  0.00    -0.354 N 
ATOM     43  C   UNL A   1      38.664  29.621  28.708  1.00  0.00     0.074 A 
ATOM     44  C   UNL A   1      38.630  29.800  27.272  1.00  0.00     0.031 C 
ATOM     45  C   UNL A   1      44.583  28.049  29.404  1.00  0.00     0.029 A 
ATOM     46  C   UNL A   1      44.492  29.369  28.771  1.00  0.00     0.049 A 
ATOM     47  H   UNL A   1      43.023  29.971  27.386  1.00  0.00     0.167 HD
ATOM     48  C   UNL A   1      37.809  30.010  29.689  1.00  0.00     0.031 A 
ATOM     49  C   UNL A   1      44.914  30.507  29.397  1.00  0.00     0.031 A 
ATOM     50  C   UNL A   1      38.180  29.612  31.017  1.00  0.00     0.049 A 
ATOM     51  C   UNL A   1      43.748  30.837  30.284  1.00  0.00     0.074 A 
ATOM     52  C   UNL A   1      37.901  28.576  31.884  1.00  0.00     0.029 A 
ATOM     53  N   UNL A   1      39.129  30.356  31.675  1.00  0.00    -0.354 N 
ATOM     54  N   UNL A   1      43.472  30.277  31.425  1.00  0.00    -0.248 NA
ATOM     55  C   UNL A   1      42.662  31.633  29.710  1.00  0.00     0.031 C 
ATOM     56  C   UNL A   1      39.023  28.507  32.772  1.00  0.00     0.029 A 
ATOM     57  C   UNL A   1      39.935  29.474  32.352  1.00  0.00     0.049 A 
ATOM     58  H   UNL A   1      39.216  31.336  31.662  1.00  0.00     0.167 HD
ATOM     59  C   UNL A   1      42.093  30.400  31.577  1.00  0.00     0.074 A 
ATOM     60  C   UNL A   1      41.660  31.273  30.500  1.00  0.00     0.031 C 
ATOM     61  C   UNL A   1      41.370  29.635  32.447  1.00  0.00     0.031 A 
BRANCH  48  62
ATOM     62  C   UNL A   1      36.642  30.896  29.492  1.00  0.00    -0.014 A 
ATOM     63  C   UNL A   1      36.556  31.595  28.275  1.00  0.00     0.010 A 
ATOM     64  C   UNL A   1      35.776  31.229  30.543  1.00  0.00     0.010 A 
ATOM     65  C   UNL A   1      35.670  32.659  28.129  1.00  0.00     0.020 A 
ATOM     66  C   UNL A   1      34.873  32.291  30.396  1.00  0.00     0.020 A 
ATOM     67  C   UNL A   1      34.850  33.017  29.200  1.00  0.00     0.054 A 
BRANCH  67  68
ATOM     68  S   UNL A   1      33.811  34.492  29.017  1.00  0.00     0.124 S 
ATOM     69  O   UNL A   1      33.421  34.769  30.396  1.00  0.00    -0.237 OA
ATOM     70  O   UNL A   1      34.736  35.451  28.418  1.00  0.00    -0.237 OA
ATOM     71  O   UNL A   1      32.729  34.044  28.142  1.00  0.00    -0.744 OA
ENDBRANCH  67  68
ENDBRANCH  48  62
BRANCH  49  72
ATOM     72  C   UNL A   1      45.594  31.591  28.608  1.00  0.00    -0.014 A 
ATOM     73  C   UNL A   1      46.414  31.247  27.516  1.00  0.00     0.010 A 
ATOM     74  C   UNL A   1      45.497  32.960  28.933  1.00  0.00     0.010 A 
ATOM     75  C   UNL A   1      46.997  32.230  26.703  1.00  0.00     0.020 A 
ATOM     76  C   UNL A   1      46.046  33.952  28.107  1.00  0.00     0.020 A 
ATOM     77  C   UNL A   1      46.774  33.579  26.980  1.00  0.00     0.054 A 
BRANCH  77  78
ATOM     78  S   UNL A   1      47.365  34.831  25.807  1.00  0.00     0.124 S 
ATOM     79  O   UNL A   1      48.578  34.210  25.277  1.00  0.00    -0.237 OA
ATOM     80  O   UNL A   1      46.247  34.926  24.867  1.00  0.00    -0.237 OA
ATOM     81  O   UNL A   1      47.575  36.009  26.636  1.00  0.00    -0.744 OA
ENDBRANCH  77  78
ENDBRANCH  49  72
BRANCH  61  82
ATOM     82  C   UNL A   1      42.176  28.723  33.331  1.00  0.00    -0.014 A 
ATOM     83  C   UNL A   1      42.418  29.053  34.675  1.00  0.00     0.010 A 
ATOM     84  C   UNL A   1      42.710  27.523  32.825  1.00  0.00     0.010 A 
ATOM     85  C   UNL A   1      43.153  28.196  35.500  1.00  0.00     0.020 A 
ATOM     86  C   UNL A   1      43.427  26.650  33.649  1.00  0.00     0.020 A 
ATOM     87  C   UNL A   1      43.644  26.992  34.984  1.00  0.00     0.054 A 
BRANCH  87  88
ATOM     88  S   UNL A   1      44.530  25.866  36.095  1.00  0.00     0.124 S 
ATOM     89  O   UNL A   1      43.653  25.816  37.262  1.00  0.00    -0.237 OA
ATOM     90  O   UNL A   1      44.601  24.634  35.310  1.00  0.00    -0.237 OA
ATOM     91  O   UNL A   1      45.815  26.529  36.312  1.00  0.00    -0.744 OA
ENDBRANCH  87  88
ENDBRANCH  61  82
ENDBRANCH  35  36
ENDBRANCH  27  30
ENDBRANCH  25  26
ENDBRANCH   1  25
TORSDOF 15
ENDMDL
