MODEL 1
REMARK VINA RESULT:     -12.3      0.000      0.000
REMARK SMILES CSc1ccc(C=C2C(C)=C(CC(=O)NCCCNC(=O)c3ccc(-c4c5nc(c(-c6ccc(S(=O)(=O)[O-])cc6)c6ccc([nH]6)c(-c6ccc(S(=O)(=O)[O-])cc6)c6nc(c(-c7ccc(S(=O)(=O)[O-])cc7)c7ccc4[nH]7)C=C6)C=C5)cc3)c3cc(F)ccc32)cc1
REMARK SMILES IDX 17 1 16 2 15 3 13 4 14 5 12 7 11 8 7 9 8 10 9 11 88 12 10 13
REMARK SMILES IDX 82 14 87 15 83 16 86 17 84 18 85 19 6 20 3 21 4 22 90 23
REMARK SMILES IDX 5 24 89 25 2 26 1 27 18 28 19 29 20 30 21 32 22 33 23 34
REMARK SMILES IDX 81 35 24 36 80 37 25 38 26 39 27 40 74 41 28 42 79 43 73 44
REMARK SMILES IDX 75 45 29 46 78 47 72 48 71 49 30 51 60 52 41 53 59 54 42 55
REMARK SMILES IDX 45 56 58 57 76 58 43 59 44 60 57 62 77 63 46 64 31 65 32 66
REMARK SMILES IDX 40 67 33 68 39 69 34 70 35 71 36 72 37 73 38 74 61 75 62 76
REMARK SMILES IDX 70 77 63 78 69 79 64 80 65 81 66 82 67 83 68 84 47 85 48 86
REMARK SMILES IDX 56 87 49 88 55 89 50 90 51 91 52 92 53 93 54 94
REMARK H PARENT 15 6 19 31 75 50 45 61
REMARK Flexibility Score: inf
ROOT
ATOM      1  C   UNL A   1      34.451  31.132  27.804  1.00  0.00     0.042 C 
ENDROOT
BRANCH   1   2
ATOM      2  C   UNL A   1      33.491  30.443  26.845  1.00  0.00     0.117 C 
BRANCH   2   3
ATOM      3  N   UNL A   1      32.446  29.726  27.548  1.00  0.00    -0.356 N 
ATOM      4  C   UNL A   1      32.282  28.372  27.514  1.00  0.00     0.224 C 
ATOM      5  O   UNL A   1      31.361  27.839  28.130  1.00  0.00    -0.275 OA
ATOM      6  H   UNL A   1      31.812  30.252  28.088  1.00  0.00     0.163 HD
BRANCH   4   7
ATOM      7  C   UNL A   1      33.249  27.610  26.627  1.00  0.00     0.136 C 
BRANCH   7   8
ATOM      8  C   UNL A   1      32.373  26.818  25.636  1.00  0.00    -0.027 C 
ATOM      9  C   UNL A   1      31.791  29.068  23.649  1.00  0.00     0.017 C 
ATOM     10  C   UNL A   1      32.619  27.921  23.701  1.00  0.00    -0.014 C 
ATOM     11  C   UNL A   1      31.642  27.139  24.522  1.00  0.00    -0.039 C 
ATOM     12  C   UNL A   1      33.544  26.500  23.768  1.00  0.00    -0.010 A 
ATOM     13  C   UNL A   1      30.948  26.253  23.374  1.00  0.00     0.045 C 
ATOM     14  C   UNL A   1      33.276  25.908  25.030  1.00  0.00    -0.011 A 
ATOM     15  C   UNL A   1      33.835  25.489  22.835  1.00  0.00     0.012 A 
ATOM     16  C   UNL A   1      33.376  24.600  25.511  1.00  0.00     0.048 A 
ATOM     17  C   UNL A   1      33.869  24.086  23.243  1.00  0.00     0.040 A 
ATOM     18  C   UNL A   1      33.674  23.667  24.570  1.00  0.00     0.123 A 
ATOM     19  F   UNL A   1      33.610  22.369  24.901  1.00  0.00    -0.207 F 
BRANCH   9  20
ATOM     20  C   UNL A   1      30.201  29.362  23.501  1.00  0.00    -0.025 A 
ATOM     21  C   UNL A   1      28.584  31.303  22.280  1.00  0.00     0.007 A 
ATOM     22  C   UNL A   1      28.925  30.142  21.619  1.00  0.00     0.015 A 
ATOM     23  C   UNL A   1      28.702  31.281  23.666  1.00  0.00     0.015 A 
ATOM     24  C   UNL A   1      29.475  29.080  22.348  1.00  0.00     0.009 A 
ATOM     25  C   UNL A   1      29.548  30.323  24.281  1.00  0.00     0.009 A 
BRANCH  21  26
ATOM     26  S   UNL A   1      28.145  32.780  21.398  1.00  0.00    -0.130 SA
ATOM     27  C   UNL A   1      27.940  32.113  19.729  1.00  0.00     0.091 C 
ENDBRANCH  21  26
ENDBRANCH   9  20
ENDBRANCH   7   8
ENDBRANCH   4   7
ENDBRANCH   2   3
ENDBRANCH   1   2
BRANCH   1  28
ATOM     28  C   UNL A   1      35.465  30.166  28.362  1.00  0.00     0.118 C 
BRANCH  28  29
ATOM     29  N   UNL A   1      35.598  30.342  29.795  1.00  0.00    -0.352 N 
ATOM     30  C   UNL A   1      36.620  29.985  30.621  1.00  0.00     0.251 C 
ATOM     31  H   UNL A   1      34.838  30.785  30.236  1.00  0.00     0.163 HD
ATOM     32  O   UNL A   1      36.412  29.892  31.826  1.00  0.00    -0.269 OA
BRANCH  30  33
ATOM     33  C   UNL A   1      37.956  29.734  30.060  1.00  0.00     0.039 A 
ATOM     34  C   UNL A   1      38.966  29.350  30.935  1.00  0.00     0.014 A 
ATOM     35  C   UNL A   1      38.231  29.930  28.701  1.00  0.00     0.014 A 
ATOM     36  C   UNL A   1      40.252  29.176  30.444  1.00  0.00     0.010 A 
ATOM     37  C   UNL A   1      39.481  29.615  28.190  1.00  0.00     0.010 A 
ATOM     38  C   UNL A   1      40.513  29.263  29.063  1.00  0.00    -0.014 A 
BRANCH  38  39
ATOM     39  C   UNL A   1      41.866  28.942  28.556  1.00  0.00     0.031 A 
ATOM     40  C   UNL A   1      42.953  29.974  28.521  1.00  0.00     0.074 A 
ATOM     41  C   UNL A   1      42.108  27.678  28.155  1.00  0.00     0.049 A 
ATOM     42  N   UNL A   1      44.216  29.809  28.220  1.00  0.00    -0.248 NA
ATOM     43  C   UNL A   1      42.593  31.363  28.851  1.00  0.00     0.031 C 
ATOM     44  C   UNL A   1      41.109  26.606  28.106  1.00  0.00     0.029 A 
ATOM     45  N   UNL A   1      43.267  27.068  27.751  1.00  0.00    -0.354 N 
ATOM     46  C   UNL A   1      44.800  31.063  28.330  1.00  0.00     0.074 A 
ATOM     47  C   UNL A   1      43.744  31.993  28.666  1.00  0.00     0.031 C 
ATOM     48  C   UNL A   1      41.713  25.456  27.784  1.00  0.00     0.029 A 
ATOM     49  C   UNL A   1      43.120  25.721  27.515  1.00  0.00     0.049 A 
ATOM     50  H   UNL A   1      44.119  27.547  27.641  1.00  0.00     0.167 HD
ATOM     51  C   UNL A   1      46.103  31.401  28.180  1.00  0.00     0.031 A 
ATOM     52  C   UNL A   1      44.011  24.797  27.116  1.00  0.00     0.031 A 
ATOM     53  C   UNL A   1      47.139  30.469  27.812  1.00  0.00     0.049 A 
ATOM     54  C   UNL A   1      45.432  25.221  26.891  1.00  0.00     0.074 A 
ATOM     55  C   UNL A   1      48.493  30.711  27.666  1.00  0.00     0.029 A 
ATOM     56  N   UNL A   1      46.940  29.128  27.511  1.00  0.00    -0.354 N 
ATOM     57  N   UNL A   1      45.979  26.399  27.071  1.00  0.00    -0.248 NA
ATOM     58  C   UNL A   1      46.356  24.184  26.421  1.00  0.00     0.031 C 
ATOM     59  C   UNL A   1      49.095  29.548  27.180  1.00  0.00     0.029 A 
ATOM     60  C   UNL A   1      48.141  28.546  27.132  1.00  0.00     0.049 A 
ATOM     61  H   UNL A   1      46.075  28.660  27.559  1.00  0.00     0.167 HD
ATOM     62  C   UNL A   1      47.325  26.235  26.770  1.00  0.00     0.074 A 
ATOM     63  C   UNL A   1      47.507  24.838  26.431  1.00  0.00     0.031 C 
ATOM     64  C   UNL A   1      48.318  27.159  26.775  1.00  0.00     0.031 A 
BRANCH  51  65
ATOM     65  C   UNL A   1      46.479  32.848  28.374  1.00  0.00    -0.014 A 
ATOM     66  C   UNL A   1      46.865  33.349  29.631  1.00  0.00     0.010 A 
ATOM     67  C   UNL A   1      46.503  33.710  27.262  1.00  0.00     0.010 A 
ATOM     68  C   UNL A   1      47.224  34.691  29.780  1.00  0.00     0.020 A 
ATOM     69  C   UNL A   1      46.910  35.039  27.396  1.00  0.00     0.020 A 
ATOM     70  C   UNL A   1      47.254  35.524  28.658  1.00  0.00     0.054 A 
BRANCH  70  71
ATOM     71  S   UNL A   1      47.787  37.242  28.871  1.00  0.00     0.124 S 
ATOM     72  O   UNL A   1      46.530  37.914  29.192  1.00  0.00    -0.237 OA
ATOM     73  O   UNL A   1      48.742  37.139  29.971  1.00  0.00    -0.237 OA
ATOM     74  O   UNL A   1      48.364  37.593  27.576  1.00  0.00    -0.744 OA
ENDBRANCH  70  71
ENDBRANCH  51  65
BRANCH  52  75
ATOM     75  C   UNL A   1      43.580  23.395  26.868  1.00  0.00    -0.014 A 
ATOM     76  C   UNL A   1      43.428  22.897  25.562  1.00  0.00     0.010 A 
ATOM     77  C   UNL A   1      43.293  22.552  27.958  1.00  0.00     0.010 A 
ATOM     78  C   UNL A   1      42.968  21.593  25.353  1.00  0.00     0.020 A 
ATOM     79  C   UNL A   1      42.889  21.234  27.754  1.00  0.00     0.020 A 
ATOM     80  C   UNL A   1      42.717  20.766  26.451  1.00  0.00     0.054 A 
BRANCH  80  81
ATOM     81  S   UNL A   1      42.212  19.052  26.157  1.00  0.00     0.124 S 
ATOM     82  O   UNL A   1      42.421  18.440  27.465  1.00  0.00    -0.237 OA
ATOM     83  O   UNL A   1      40.819  19.210  25.744  1.00  0.00    -0.237 OA
ATOM     84  O   UNL A   1      43.119  18.603  25.103  1.00  0.00    -0.744 OA
ENDBRANCH  80  81
ENDBRANCH  52  75
BRANCH  64  85
ATOM     85  C   UNL A   1      49.708  26.667  26.454  1.00  0.00    -0.014 A 
ATOM     86  C   UNL A   1      50.220  26.691  25.143  1.00  0.00     0.010 A 
ATOM     87  C   UNL A   1      50.510  26.145  27.485  1.00  0.00     0.010 A 
ATOM     88  C   UNL A   1      51.456  26.111  24.855  1.00  0.00     0.020 A 
ATOM     89  C   UNL A   1      51.778  25.627  27.214  1.00  0.00     0.020 A 
ATOM     90  C   UNL A   1      52.228  25.586  25.895  1.00  0.00     0.054 A 
BRANCH  90  91
ATOM     91  S   UNL A   1      53.838  24.860  25.494  1.00  0.00     0.124 S 
ATOM     92  O   UNL A   1      54.561  25.000  26.755  1.00  0.00    -0.237 OA
ATOM     93  O   UNL A   1      53.480  23.493  25.122  1.00  0.00    -0.237 OA
ATOM     94  O   UNL A   1      54.332  25.690  24.398  1.00  0.00    -0.744 OA
ENDBRANCH  90  91
ENDBRANCH  64  85
ENDBRANCH  38  39
ENDBRANCH  30  33
ENDBRANCH  28  29
ENDBRANCH   1  28
TORSDOF 16
ENDMDL
MODEL 2
REMARK VINA RESULT:     -12.2      6.180      8.913
REMARK SMILES CSc1ccc(C=C2C(C)=C(CC(=O)NCCCNC(=O)c3ccc(-c4c5nc(c(-c6ccc(S(=O)(=O)[O-])cc6)c6ccc([nH]6)c(-c6ccc(S(=O)(=O)[O-])cc6)c6nc(c(-c7ccc(S(=O)(=O)[O-])cc7)c7ccc4[nH]7)C=C6)C=C5)cc3)c3cc(F)ccc32)cc1
REMARK SMILES IDX 17 1 16 2 15 3 13 4 14 5 12 7 11 8 7 9 8 10 9 11 88 12 10 13
REMARK SMILES IDX 82 14 87 15 83 16 86 17 84 18 85 19 6 20 3 21 4 22 90 23
REMARK SMILES IDX 5 24 89 25 2 26 1 27 18 28 19 29 20 30 21 32 22 33 23 34
REMARK SMILES IDX 81 35 24 36 80 37 25 38 26 39 27 40 74 41 28 42 79 43 73 44
REMARK SMILES IDX 75 45 29 46 78 47 72 48 71 49 30 51 60 52 41 53 59 54 42 55
REMARK SMILES IDX 45 56 58 57 76 58 43 59 44 60 57 62 77 63 46 64 31 65 32 66
REMARK SMILES IDX 40 67 33 68 39 69 34 70 35 71 36 72 37 73 38 74 61 75 62 76
REMARK SMILES IDX 70 77 63 78 69 79 64 80 65 81 66 82 67 83 68 84 47 85 48 86
REMARK SMILES IDX 56 87 49 88 55 89 50 90 51 91 52 92 53 93 54 94
REMARK H PARENT 15 6 19 31 75 50 45 61
REMARK Flexibility Score: inf
ROOT
ATOM      1  C   UNL A   1      31.809  31.835  26.826  1.00  0.00     0.042 C 
ENDROOT
BRANCH   1   2
ATOM      2  C   UNL A   1      31.808  30.317  26.934  1.00  0.00     0.117 C 
BRANCH   2   3
ATOM      3  N   UNL A   1      33.132  29.759  26.735  1.00  0.00    -0.356 N 
ATOM      4  C   UNL A   1      33.383  28.445  26.465  1.00  0.00     0.224 C 
ATOM      5  O   UNL A   1      34.537  28.048  26.321  1.00  0.00    -0.275 OA
ATOM      6  H   UNL A   1      33.901  30.370  26.797  1.00  0.00     0.163 HD
BRANCH   4   7
ATOM      7  C   UNL A   1      32.170  27.533  26.431  1.00  0.00     0.136 C 
BRANCH   7   8
ATOM      8  C   UNL A   1      32.014  27.101  24.959  1.00  0.00    -0.027 C 
ATOM      9  C   UNL A   1      31.389  24.143  25.419  1.00  0.00     0.017 C 
ATOM     10  C   UNL A   1      30.671  25.311  25.064  1.00  0.00    -0.014 C 
ATOM     11  C   UNL A   1      31.824  25.905  24.318  1.00  0.00    -0.039 C 
ATOM     12  C   UNL A   1      29.855  26.714  24.570  1.00  0.00    -0.010 A 
ATOM     13  C   UNL A   1      31.417  25.523  22.810  1.00  0.00     0.045 C 
ATOM     14  C   UNL A   1      30.826  27.749  24.535  1.00  0.00    -0.011 A 
ATOM     15  C   UNL A   1      28.870  26.971  23.600  1.00  0.00     0.012 A 
ATOM     16  C   UNL A   1      30.901  28.964  23.850  1.00  0.00     0.048 A 
ATOM     17  C   UNL A   1      28.929  28.179  22.780  1.00  0.00     0.040 A 
ATOM     18  C   UNL A   1      29.916  29.167  22.937  1.00  0.00     0.123 A 
ATOM     19  F   UNL A   1      30.008  30.216  22.106  1.00  0.00    -0.207 F 
BRANCH   9  20
ATOM     20  C   UNL A   1      32.470  23.167  24.703  1.00  0.00    -0.025 A 
ATOM     21  C   UNL A   1      33.047  20.421  24.677  1.00  0.00     0.007 A 
ATOM     22  C   UNL A   1      32.205  20.981  23.740  1.00  0.00     0.015 A 
ATOM     23  C   UNL A   1      33.904  21.296  25.336  1.00  0.00     0.015 A 
ATOM     24  C   UNL A   1      32.172  22.373  23.599  1.00  0.00     0.009 A 
ATOM     25  C   UNL A   1      33.593  22.680  25.380  1.00  0.00     0.009 A 
BRANCH  21  26
ATOM     26  S   UNL A   1      32.947  18.701  25.107  1.00  0.00    -0.130 SA
ATOM     27  C   UNL A   1      34.498  18.098  24.400  1.00  0.00     0.091 C 
ENDBRANCH  21  26
ENDBRANCH   9  20
ENDBRANCH   7   8
ENDBRANCH   4   7
ENDBRANCH   2   3
ENDBRANCH   1   2
BRANCH   1  28
ATOM     28  C   UNL A   1      33.069  32.430  27.403  1.00  0.00     0.118 C 
BRANCH  28  29
ATOM     29  N   UNL A   1      32.853  33.816  27.768  1.00  0.00    -0.352 N 
ATOM     30  C   UNL A   1      33.356  34.525  28.816  1.00  0.00     0.251 C 
ATOM     31  H   UNL A   1      32.255  34.320  27.170  1.00  0.00     0.163 HD
ATOM     32  O   UNL A   1      32.798  35.561  29.162  1.00  0.00    -0.269 OA
BRANCH  30  33
ATOM     33  C   UNL A   1      34.565  34.049  29.505  1.00  0.00     0.039 A 
ATOM     34  C   UNL A   1      34.399  33.279  30.652  1.00  0.00     0.014 A 
ATOM     35  C   UNL A   1      35.847  34.402  29.066  1.00  0.00     0.014 A 
ATOM     36  C   UNL A   1      35.522  32.878  31.360  1.00  0.00     0.010 A 
ATOM     37  C   UNL A   1      36.967  33.878  29.693  1.00  0.00     0.010 A 
ATOM     38  C   UNL A   1      36.815  33.134  30.865  1.00  0.00    -0.014 A 
BRANCH  38  39
ATOM     39  C   UNL A   1      37.989  32.577  31.574  1.00  0.00     0.031 A 
ATOM     40  C   UNL A   1      38.429  33.118  32.903  1.00  0.00     0.074 A 
ATOM     41  C   UNL A   1      38.638  31.541  31.008  1.00  0.00     0.049 A 
ATOM     42  N   UNL A   1      39.359  32.653  33.697  1.00  0.00    -0.248 NA
ATOM     43  C   UNL A   1      37.760  34.328  33.408  1.00  0.00     0.031 C 
ATOM     44  C   UNL A   1      38.321  30.967  29.697  1.00  0.00     0.029 A 
ATOM     45  N   UNL A   1      39.667  30.763  31.469  1.00  0.00    -0.354 N 
ATOM     46  C   UNL A   1      39.384  33.505  34.793  1.00  0.00     0.074 A 
ATOM     47  C   UNL A   1      38.418  34.551  34.536  1.00  0.00     0.031 C 
ATOM     48  C   UNL A   1      39.074  29.878  29.499  1.00  0.00     0.029 A 
ATOM     49  C   UNL A   1      39.989  29.727  30.623  1.00  0.00     0.049 A 
ATOM     50  H   UNL A   1      40.131  30.929  32.321  1.00  0.00     0.167 HD
ATOM     51  C   UNL A   1      40.134  33.410  35.916  1.00  0.00     0.031 A 
ATOM     52  C   UNL A   1      40.922  28.765  30.727  1.00  0.00     0.031 A 
ATOM     53  C   UNL A   1      41.117  32.380  36.142  1.00  0.00     0.049 A 
ATOM     54  C   UNL A   1      41.783  28.731  31.954  1.00  0.00     0.074 A 
ATOM     55  C   UNL A   1      41.905  32.183  37.263  1.00  0.00     0.029 A 
ATOM     56  N   UNL A   1      41.465  31.391  35.233  1.00  0.00    -0.354 N 
ATOM     57  N   UNL A   1      41.741  29.505  33.012  1.00  0.00    -0.248 NA
ATOM     58  C   UNL A   1      42.810  27.686  32.002  1.00  0.00     0.031 C 
ATOM     59  C   UNL A   1      42.797  31.143  36.993  1.00  0.00     0.029 A 
ATOM     60  C   UNL A   1      42.491  30.613  35.750  1.00  0.00     0.049 A 
ATOM     61  H   UNL A   1      41.047  31.261  34.351  1.00  0.00     0.167 HD
ATOM     62  C   UNL A   1      42.715  29.013  33.872  1.00  0.00     0.074 A 
ATOM     63  C   UNL A   1      43.300  27.859  33.220  1.00  0.00     0.031 C 
ATOM     64  C   UNL A   1      43.088  29.477  35.091  1.00  0.00     0.031 A 
BRANCH  51  65
ATOM     65  C   UNL A   1      39.952  34.470  36.973  1.00  0.00    -0.014 A 
ATOM     66  C   UNL A   1      40.631  35.701  36.909  1.00  0.00     0.010 A 
ATOM     67  C   UNL A   1      39.038  34.250  38.020  1.00  0.00     0.010 A 
ATOM     68  C   UNL A   1      40.431  36.671  37.894  1.00  0.00     0.020 A 
ATOM     69  C   UNL A   1      38.797  35.237  38.978  1.00  0.00     0.020 A 
ATOM     70  C   UNL A   1      39.507  36.436  38.917  1.00  0.00     0.054 A 
BRANCH  70  71
ATOM     71  S   UNL A   1      39.222  37.740  40.142  1.00  0.00     0.124 S 
ATOM     72  O   UNL A   1      38.883  36.968  41.335  1.00  0.00    -0.237 OA
ATOM     73  O   UNL A   1      40.514  38.421  40.180  1.00  0.00    -0.237 OA
ATOM     74  O   UNL A   1      38.124  38.518  39.574  1.00  0.00    -0.744 OA
ENDBRANCH  70  71
ENDBRANCH  51  65
BRANCH  52  75
ATOM     75  C   UNL A   1      41.115  27.782  29.627  1.00  0.00    -0.014 A 
ATOM     76  C   UNL A   1      40.184  26.753  29.395  1.00  0.00     0.010 A 
ATOM     77  C   UNL A   1      42.261  27.861  28.815  1.00  0.00     0.010 A 
ATOM     78  C   UNL A   1      40.414  25.807  28.392  1.00  0.00     0.020 A 
ATOM     79  C   UNL A   1      42.466  26.952  27.778  1.00  0.00     0.020 A 
ATOM     80  C   UNL A   1      41.545  25.923  27.580  1.00  0.00     0.054 A 
BRANCH  80  81
ATOM     81  S   UNL A   1      41.775  24.742  26.227  1.00  0.00     0.124 S 
ATOM     82  O   UNL A   1      43.097  24.195  26.517  1.00  0.00    -0.237 OA
ATOM     83  O   UNL A   1      40.653  23.828  26.423  1.00  0.00    -0.237 OA
ATOM     84  O   UNL A   1      41.690  25.573  25.028  1.00  0.00    -0.744 OA
ENDBRANCH  80  81
ENDBRANCH  52  75
BRANCH  64  85
ATOM     85  C   UNL A   1      44.150  28.692  35.823  1.00  0.00    -0.014 A 
ATOM     86  C   UNL A   1      43.826  27.617  36.672  1.00  0.00     0.010 A 
ATOM     87  C   UNL A   1      45.501  29.056  35.676  1.00  0.00     0.010 A 
ATOM     88  C   UNL A   1      44.816  26.996  37.435  1.00  0.00     0.020 A 
ATOM     89  C   UNL A   1      46.503  28.390  36.383  1.00  0.00     0.020 A 
ATOM     90  C   UNL A   1      46.148  27.385  37.282  1.00  0.00     0.054 A 
BRANCH  90  91
ATOM     91  S   UNL A   1      47.413  26.543  38.268  1.00  0.00     0.124 S 
ATOM     92  O   UNL A   1      47.589  25.291  37.537  1.00  0.00    -0.237 OA
ATOM     93  O   UNL A   1      48.536  27.476  38.197  1.00  0.00    -0.237 OA
ATOM     94  O   UNL A   1      46.798  26.413  39.587  1.00  0.00    -0.744 OA
ENDBRANCH  90  91
ENDBRANCH  64  85
ENDBRANCH  38  39
ENDBRANCH  30  33
ENDBRANCH  28  29
ENDBRANCH   1  28
TORSDOF 16
ENDMDL
MODEL 3
REMARK VINA RESULT:     -12.2      2.526      8.646
REMARK SMILES CSc1ccc(C=C2C(C)=C(CC(=O)NCCCNC(=O)c3ccc(-c4c5nc(c(-c6ccc(S(=O)(=O)[O-])cc6)c6ccc([nH]6)c(-c6ccc(S(=O)(=O)[O-])cc6)c6nc(c(-c7ccc(S(=O)(=O)[O-])cc7)c7ccc4[nH]7)C=C6)C=C5)cc3)c3cc(F)ccc32)cc1
REMARK SMILES IDX 17 1 16 2 15 3 13 4 14 5 12 7 11 8 7 9 8 10 9 11 88 12 10 13
REMARK SMILES IDX 82 14 87 15 83 16 86 17 84 18 85 19 6 20 3 21 4 22 90 23
REMARK SMILES IDX 5 24 89 25 2 26 1 27 18 28 19 29 20 30 21 32 22 33 23 34
REMARK SMILES IDX 81 35 24 36 80 37 25 38 26 39 27 40 74 41 28 42 79 43 73 44
REMARK SMILES IDX 75 45 29 46 78 47 72 48 71 49 30 51 60 52 41 53 59 54 42 55
REMARK SMILES IDX 45 56 58 57 76 58 43 59 44 60 57 62 77 63 46 64 31 65 32 66
REMARK SMILES IDX 40 67 33 68 39 69 34 70 35 71 36 72 37 73 38 74 61 75 62 76
REMARK SMILES IDX 70 77 63 78 69 79 64 80 65 81 66 82 67 83 68 84 47 85 48 86
REMARK SMILES IDX 56 87 49 88 55 89 50 90 51 91 52 92 53 93 54 94
REMARK H PARENT 15 6 19 31 75 50 45 61
REMARK Flexibility Score: inf
ROOT
ATOM      1  C   UNL A   1      38.294  19.827  25.051  1.00  0.00     0.042 C 
ENDROOT
BRANCH   1   2
ATOM      2  C   UNL A   1      37.394  20.970  24.602  1.00  0.00     0.117 C 
BRANCH   2   3
ATOM      3  N   UNL A   1      37.202  21.951  25.652  1.00  0.00    -0.356 N 
ATOM      4  C   UNL A   1      36.241  22.920  25.637  1.00  0.00     0.224 C 
ATOM      5  O   UNL A   1      36.151  23.723  26.562  1.00  0.00    -0.275 OA
ATOM      6  H   UNL A   1      37.806  21.916  26.429  1.00  0.00     0.163 HD
BRANCH   4   7
ATOM      7  C   UNL A   1      35.369  22.968  24.396  1.00  0.00     0.136 C 
BRANCH   7   8
ATOM      8  C   UNL A   1      33.954  22.570  24.863  1.00  0.00    -0.027 C 
ATOM      9  C   UNL A   1      32.351  24.599  23.230  1.00  0.00     0.017 C 
ATOM     10  C   UNL A   1      32.630  23.212  23.173  1.00  0.00    -0.014 C 
ATOM     11  C   UNL A   1      32.694  23.069  24.662  1.00  0.00    -0.039 C 
ATOM     12  C   UNL A   1      32.925  21.541  23.177  1.00  0.00    -0.010 A 
ATOM     13  C   UNL A   1      31.224  22.487  24.958  1.00  0.00     0.045 C 
ATOM     14  C   UNL A   1      33.755  21.284  24.299  1.00  0.00    -0.011 A 
ATOM     15  C   UNL A   1      32.120  20.415  22.929  1.00  0.00     0.012 A 
ATOM     16  C   UNL A   1      33.995  20.141  25.067  1.00  0.00     0.048 A 
ATOM     17  C   UNL A   1      32.251  19.212  23.748  1.00  0.00     0.040 A 
ATOM     18  C   UNL A   1      33.201  19.080  24.775  1.00  0.00     0.123 A 
ATOM     19  F   UNL A   1      33.233  18.005  25.577  1.00  0.00    -0.207 F 
BRANCH   9  20
ATOM     20  C   UNL A   1      31.462  25.580  24.170  1.00  0.00    -0.025 A 
ATOM     21  C   UNL A   1      30.251  28.100  23.930  1.00  0.00     0.007 A 
ATOM     22  C   UNL A   1      29.556  26.945  23.641  1.00  0.00     0.015 A 
ATOM     23  C   UNL A   1      31.382  27.955  24.725  1.00  0.00     0.015 A 
ATOM     24  C   UNL A   1      30.082  25.713  24.048  1.00  0.00     0.009 A 
ATOM     25  C   UNL A   1      32.017  26.689  24.819  1.00  0.00     0.009 A 
BRANCH  21  26
ATOM     26  S   UNL A   1      29.798  29.661  23.215  1.00  0.00    -0.130 SA
ATOM     27  C   UNL A   1      28.053  29.357  22.850  1.00  0.00     0.091 C 
ENDBRANCH  21  26
ENDBRANCH   9  20
ENDBRANCH   7   8
ENDBRANCH   4   7
ENDBRANCH   2   3
ENDBRANCH   1   2
BRANCH   1  28
ATOM     28  C   UNL A   1      39.294  20.283  26.083  1.00  0.00     0.118 C 
BRANCH  28  29
ATOM     29  N   UNL A   1      40.395  19.343  26.171  1.00  0.00    -0.352 N 
ATOM     30  C   UNL A   1      41.736  19.573  26.120  1.00  0.00     0.251 C 
ATOM     31  H   UNL A   1      40.135  18.401  26.284  1.00  0.00     0.163 HD
ATOM     32  O   UNL A   1      42.493  18.644  25.858  1.00  0.00    -0.269 OA
BRANCH  30  33
ATOM     33  C   UNL A   1      42.256  20.921  26.394  1.00  0.00     0.039 A 
ATOM     34  C   UNL A   1      42.505  21.264  27.719  1.00  0.00     0.014 A 
ATOM     35  C   UNL A   1      42.441  21.859  25.370  1.00  0.00     0.014 A 
ATOM     36  C   UNL A   1      42.927  22.552  28.011  1.00  0.00     0.010 A 
ATOM     37  C   UNL A   1      43.001  23.096  25.652  1.00  0.00     0.010 A 
ATOM     38  C   UNL A   1      43.222  23.465  26.981  1.00  0.00    -0.014 A 
BRANCH  38  39
ATOM     39  C   UNL A   1      43.797  24.786  27.320  1.00  0.00     0.031 A 
ATOM     40  C   UNL A   1      45.252  25.084  27.104  1.00  0.00     0.074 A 
ATOM     41  C   UNL A   1      42.967  25.734  27.798  1.00  0.00     0.049 A 
ATOM     42  N   UNL A   1      45.870  26.229  27.238  1.00  0.00    -0.248 NA
ATOM     43  C   UNL A   1      46.129  23.973  26.701  1.00  0.00     0.031 C 
ATOM     44  C   UNL A   1      41.544  25.536  28.087  1.00  0.00     0.029 A 
ATOM     45  N   UNL A   1      43.183  27.056  28.089  1.00  0.00    -0.354 N 
ATOM     46  C   UNL A   1      47.201  25.980  26.930  1.00  0.00     0.074 A 
ATOM     47  C   UNL A   1      47.315  24.563  26.662  1.00  0.00     0.031 C 
ATOM     48  C   UNL A   1      40.997  26.709  28.426  1.00  0.00     0.029 A 
ATOM     49  C   UNL A   1      42.042  27.723  28.467  1.00  0.00     0.049 A 
ATOM     50  H   UNL A   1      44.067  27.484  28.033  1.00  0.00     0.167 HD
ATOM     51  C   UNL A   1      48.228  26.860  26.863  1.00  0.00     0.031 A 
ATOM     52  C   UNL A   1      41.851  29.006  28.821  1.00  0.00     0.031 A 
ATOM     53  C   UNL A   1      48.107  28.264  27.166  1.00  0.00     0.049 A 
ATOM     54  C   UNL A   1      43.026  29.938  28.803  1.00  0.00     0.074 A 
ATOM     55  C   UNL A   1      49.085  29.240  27.096  1.00  0.00     0.029 A 
ATOM     56  N   UNL A   1      46.952  28.889  27.615  1.00  0.00    -0.354 N 
ATOM     57  N   UNL A   1      44.263  29.697  28.438  1.00  0.00    -0.248 NA
ATOM     58  C   UNL A   1      42.773  31.316  29.232  1.00  0.00     0.031 C 
ATOM     59  C   UNL A   1      48.552  30.429  27.598  1.00  0.00     0.029 A 
ATOM     60  C   UNL A   1      47.210  30.228  27.873  1.00  0.00     0.049 A 
ATOM     61  H   UNL A   1      46.080  28.449  27.734  1.00  0.00     0.167 HD
ATOM     62  C   UNL A   1      44.929  30.909  28.561  1.00  0.00     0.074 A 
ATOM     63  C   UNL A   1      43.947  31.881  28.999  1.00  0.00     0.031 C 
ATOM     64  C   UNL A   1      46.236  31.190  28.329  1.00  0.00     0.031 A 
BRANCH  51  65
ATOM     65  C   UNL A   1      49.586  26.325  26.483  1.00  0.00    -0.014 A 
ATOM     66  C   UNL A   1      50.058  26.380  25.159  1.00  0.00     0.010 A 
ATOM     67  C   UNL A   1      50.430  25.809  27.485  1.00  0.00     0.010 A 
ATOM     68  C   UNL A   1      51.327  25.891  24.838  1.00  0.00     0.020 A 
ATOM     69  C   UNL A   1      51.718  25.367  27.178  1.00  0.00     0.020 A 
ATOM     70  C   UNL A   1      52.152  25.397  25.853  1.00  0.00     0.054 A 
BRANCH  70  71
ATOM     71  S   UNL A   1      53.817  24.832  25.415  1.00  0.00     0.124 S 
ATOM     72  O   UNL A   1      54.549  25.046  26.661  1.00  0.00    -0.237 OA
ATOM     73  O   UNL A   1      53.588  23.436  25.053  1.00  0.00    -0.237 OA
ATOM     74  O   UNL A   1      54.204  25.707  24.311  1.00  0.00    -0.744 OA
ENDBRANCH  70  71
ENDBRANCH  51  65
BRANCH  52  75
ATOM     75  C   UNL A   1      40.507  29.475  29.257  1.00  0.00    -0.014 A 
ATOM     76  C   UNL A   1      39.502  29.781  28.322  1.00  0.00     0.010 A 
ATOM     77  C   UNL A   1      40.238  29.640  30.628  1.00  0.00     0.010 A 
ATOM     78  C   UNL A   1      38.266  30.273  28.752  1.00  0.00     0.020 A 
ATOM     79  C   UNL A   1      38.988  30.077  31.063  1.00  0.00     0.020 A 
ATOM     80  C   UNL A   1      38.012  30.402  30.120  1.00  0.00     0.054 A 
BRANCH  80  81
ATOM     81  S   UNL A   1      36.373  30.953  30.657  1.00  0.00     0.124 S 
ATOM     82  O   UNL A   1      36.075  30.021  31.741  1.00  0.00    -0.237 OA
ATOM     83  O   UNL A   1      36.630  32.333  31.058  1.00  0.00    -0.237 OA
ATOM     84  O   UNL A   1      35.551  30.802  29.459  1.00  0.00    -0.744 OA
ENDBRANCH  80  81
ENDBRANCH  52  75
BRANCH  64  85
ATOM     85  C   UNL A   1      46.664  32.628  28.495  1.00  0.00    -0.014 A 
ATOM     86  C   UNL A   1      47.121  33.130  29.729  1.00  0.00     0.010 A 
ATOM     87  C   UNL A   1      46.582  33.503  27.396  1.00  0.00     0.010 A 
ATOM     88  C   UNL A   1      47.385  34.491  29.884  1.00  0.00     0.020 A 
ATOM     89  C   UNL A   1      46.914  34.852  27.529  1.00  0.00     0.020 A 
ATOM     90  C   UNL A   1      47.282  35.343  28.782  1.00  0.00     0.054 A 
BRANCH  90  91
ATOM     91  S   UNL A   1      47.655  37.100  29.010  1.00  0.00     0.124 S 
ATOM     92  O   UNL A   1      48.208  37.468  27.709  1.00  0.00    -0.237 OA
ATOM     93  O   UNL A   1      46.339  37.660  29.315  1.00  0.00    -0.237 OA
ATOM     94  O   UNL A   1      48.606  37.115  30.118  1.00  0.00    -0.744 OA
ENDBRANCH  90  91
ENDBRANCH  64  85
ENDBRANCH  38  39
ENDBRANCH  30  33
ENDBRANCH  28  29
ENDBRANCH   1  28
TORSDOF 16
ENDMDL
