MODEL 1
REMARK VINA RESULT:     -12.3      0.000      0.000
REMARK SMILES CS(=O)(=O)c1ccc(-c2csc(=O)n2CC(=O)NCCCNC(=O)c2ccc(-c3c4nc(c(-c5ccc(S(=O)(=O)[O-])cc5)c5ccc([nH]5)c(-c5ccc(S(=O)(=O)[O-])cc5)c5nc(c(-c6ccc(S(=O)(=O)[O-])cc6)c6ccc3[nH]6)C=C5)C=C4)cc2)cc1
REMARK SMILES IDX 20 1 19 2 18 3 16 4 17 5 15 7 14 8 9 9 10 10 11 11 12 12
REMARK SMILES IDX 13 13 8 14 5 15 6 16 86 17 7 18 85 19 2 20 1 21 3 22 4 23
REMARK SMILES IDX 21 24 22 25 23 26 24 28 25 29 26 30 84 31 27 32 83 33 28 34
REMARK SMILES IDX 29 35 30 36 77 37 31 38 82 39 76 40 78 41 32 42 81 43 75 44
REMARK SMILES IDX 74 45 33 47 63 48 44 49 62 50 45 51 48 52 61 53 79 54 46 55
REMARK SMILES IDX 47 56 60 58 80 59 49 60 34 61 35 62 43 63 36 64 42 65 37 66
REMARK SMILES IDX 38 67 39 68 40 69 41 70 64 71 65 72 73 73 66 74 72 75 67 76
REMARK SMILES IDX 68 77 69 78 70 79 71 80 50 81 51 82 59 83 52 84 58 85 53 86
REMARK SMILES IDX 54 87 55 88 56 89 57 90
REMARK H PARENT 18 6 22 27 78 46 48 57
REMARK Flexibility Score: inf
ROOT
ATOM      1  C   UNL A   1      32.166  29.671  27.082  1.00  0.00     0.042 C 
ENDROOT
BRANCH   1   2
ATOM      2  C   UNL A   1      32.181  28.943  25.738  1.00  0.00     0.117 C 
BRANCH   2   3
ATOM      3  N   UNL A   1      33.344  28.100  25.559  1.00  0.00    -0.354 N 
ATOM      4  C   UNL A   1      33.432  26.741  25.652  1.00  0.00     0.240 C 
ATOM      5  O   UNL A   1      34.403  26.196  25.121  1.00  0.00    -0.273 OA
ATOM      6  H   UNL A   1      34.181  28.569  25.340  1.00  0.00     0.163 HD
BRANCH   4   7
ATOM      7  C   UNL A   1      32.285  25.909  26.246  1.00  0.00     0.226 C 
BRANCH   7   8
ATOM      8  N   UNL A   1      31.886  24.747  25.466  1.00  0.00    -0.289 N 
ATOM      9  C   UNL A   1      31.106  24.720  24.313  1.00  0.00     0.063 A 
ATOM     10  C   UNL A   1      30.966  23.487  23.798  1.00  0.00     0.097 A 
ATOM     11  S   UNL A   1      31.828  22.291  24.704  1.00  0.00    -0.082 S 
ATOM     12  C   UNL A   1      32.429  23.513  25.834  1.00  0.00     0.308 A 
ATOM     13  O   UNL A   1      33.184  23.269  26.748  1.00  0.00    -0.257 OA
BRANCH   9  14
ATOM     14  C   UNL A   1      30.417  25.880  23.728  1.00  0.00    -0.001 A 
ATOM     15  C   UNL A   1      29.163  28.259  22.939  1.00  0.00     0.067 A 
ATOM     16  C   UNL A   1      30.425  27.937  22.433  1.00  0.00     0.021 A 
ATOM     17  C   UNL A   1      28.493  27.377  23.784  1.00  0.00     0.021 A 
ATOM     18  C   UNL A   1      31.049  26.748  22.829  1.00  0.00     0.011 A 
ATOM     19  C   UNL A   1      29.105  26.175  24.134  1.00  0.00     0.011 A 
BRANCH  15  20
ATOM     20  S   UNL A   1      28.409  29.816  22.540  1.00  0.00     0.175 S 
ATOM     21  C   UNL A   1      29.192  30.982  23.623  1.00  0.00     0.163 C 
ATOM     22  O   UNL A   1      27.013  29.737  22.927  1.00  0.00    -0.224 OA
ATOM     23  O   UNL A   1      28.796  30.126  21.178  1.00  0.00    -0.224 OA
ENDBRANCH  15  20
ENDBRANCH   9  14
ENDBRANCH   7   8
ENDBRANCH   4   7
ENDBRANCH   2   3
ENDBRANCH   1   2
BRANCH   1  24
ATOM     24  C   UNL A   1      33.554  29.954  27.614  1.00  0.00     0.118 C 
BRANCH  24  25
ATOM     25  N   UNL A   1      33.992  31.320  27.300  1.00  0.00    -0.352 N 
ATOM     26  C   UNL A   1      35.156  31.953  27.693  1.00  0.00     0.251 C 
ATOM     27  H   UNL A   1      33.380  31.850  26.740  1.00  0.00     0.163 HD
ATOM     28  O   UNL A   1      35.246  33.174  27.659  1.00  0.00    -0.269 OA
BRANCH  26  29
ATOM     29  C   UNL A   1      36.265  31.117  28.178  1.00  0.00     0.039 A 
ATOM     30  C   UNL A   1      36.501  29.842  27.664  1.00  0.00     0.014 A 
ATOM     31  C   UNL A   1      37.143  31.694  29.087  1.00  0.00     0.014 A 
ATOM     32  C   UNL A   1      37.693  29.201  27.996  1.00  0.00     0.010 A 
ATOM     33  C   UNL A   1      38.394  31.161  29.235  1.00  0.00     0.010 A 
ATOM     34  C   UNL A   1      38.658  29.884  28.755  1.00  0.00    -0.014 A 
BRANCH  34  35
ATOM     35  C   UNL A   1      39.978  29.308  28.994  1.00  0.00     0.031 A 
ATOM     36  C   UNL A   1      40.352  29.115  30.422  1.00  0.00     0.074 A 
ATOM     37  C   UNL A   1      40.750  28.787  28.016  1.00  0.00     0.049 A 
ATOM     38  N   UNL A   1      41.253  29.754  31.092  1.00  0.00    -0.248 NA
ATOM     39  C   UNL A   1      39.557  28.180  31.232  1.00  0.00     0.031 C 
ATOM     40  C   UNL A   1      40.433  28.589  26.594  1.00  0.00     0.029 A 
ATOM     41  N   UNL A   1      41.968  28.196  28.130  1.00  0.00    -0.354 N 
ATOM     42  C   UNL A   1      41.288  29.167  32.353  1.00  0.00     0.074 A 
ATOM     43  C   UNL A   1      40.119  28.327  32.435  1.00  0.00     0.031 C 
ATOM     44  C   UNL A   1      41.302  27.707  26.055  1.00  0.00     0.029 A 
ATOM     45  C   UNL A   1      42.347  27.448  27.023  1.00  0.00     0.049 A 
ATOM     46  H   UNL A   1      42.534  28.291  28.929  1.00  0.00     0.167 HD
ATOM     47  C   UNL A   1      42.388  29.245  33.155  1.00  0.00     0.031 A 
ATOM     48  C   UNL A   1      43.439  26.655  26.913  1.00  0.00     0.031 A 
ATOM     49  C   UNL A   1      43.328  30.229  32.685  1.00  0.00     0.049 A 
ATOM     50  C   UNL A   1      44.409  27.119  27.934  1.00  0.00     0.074 A 
ATOM     51  C   UNL A   1      43.265  31.588  32.442  1.00  0.00     0.029 A 
ATOM     52  N   UNL A   1      44.424  29.776  31.986  1.00  0.00    -0.354 N 
ATOM     53  N   UNL A   1      44.971  28.295  27.904  1.00  0.00    -0.248 NA
ATOM     54  C   UNL A   1      44.412  26.463  29.232  1.00  0.00     0.031 C 
ATOM     55  C   UNL A   1      43.993  31.774  31.228  1.00  0.00     0.029 A 
ATOM     56  C   UNL A   1      44.523  30.538  30.849  1.00  0.00     0.049 A 
ATOM     57  H   UNL A   1      45.024  29.042  32.253  1.00  0.00     0.167 HD
ATOM     58  C   UNL A   1      45.004  28.712  29.228  1.00  0.00     0.074 A 
ATOM     59  C   UNL A   1      44.746  27.501  30.006  1.00  0.00     0.031 C 
ATOM     60  C   UNL A   1      44.964  30.037  29.561  1.00  0.00     0.031 A 
BRANCH  47  61
ATOM     61  C   UNL A   1      42.769  28.185  34.158  1.00  0.00    -0.014 A 
ATOM     62  C   UNL A   1      42.846  28.519  35.525  1.00  0.00     0.010 A 
ATOM     63  C   UNL A   1      43.296  26.935  33.774  1.00  0.00     0.010 A 
ATOM     64  C   UNL A   1      43.455  27.659  36.451  1.00  0.00     0.020 A 
ATOM     65  C   UNL A   1      43.865  26.052  34.693  1.00  0.00     0.020 A 
ATOM     66  C   UNL A   1      43.969  26.433  36.025  1.00  0.00     0.054 A 
BRANCH  66  67
ATOM     67  S   UNL A   1      44.829  25.366  37.206  1.00  0.00     0.124 S 
ATOM     68  O   UNL A   1      44.481  24.035  36.717  1.00  0.00    -0.237 OA
ATOM     69  O   UNL A   1      46.223  25.763  37.026  1.00  0.00    -0.237 OA
ATOM     70  O   UNL A   1      44.243  25.735  38.493  1.00  0.00    -0.744 OA
ENDBRANCH  66  67
ENDBRANCH  47  61
BRANCH  48  71
ATOM     71  C   UNL A   1      43.552  25.365  26.194  1.00  0.00    -0.014 A 
ATOM     72  C   UNL A   1      44.603  25.134  25.289  1.00  0.00     0.010 A 
ATOM     73  C   UNL A   1      42.784  24.256  26.607  1.00  0.00     0.010 A 
ATOM     74  C   UNL A   1      44.918  23.832  24.870  1.00  0.00     0.020 A 
ATOM     75  C   UNL A   1      43.088  22.956  26.187  1.00  0.00     0.020 A 
ATOM     76  C   UNL A   1      44.173  22.747  25.341  1.00  0.00     0.054 A 
BRANCH  76  77
ATOM     77  S   UNL A   1      44.714  21.056  24.949  1.00  0.00     0.124 S 
ATOM     78  O   UNL A   1      43.743  20.243  25.675  1.00  0.00    -0.237 OA
ATOM     79  O   UNL A   1      44.606  21.018  23.493  1.00  0.00    -0.237 OA
ATOM     80  O   UNL A   1      46.080  21.003  25.466  1.00  0.00    -0.744 OA
ENDBRANCH  76  77
ENDBRANCH  48  71
BRANCH  60  81
ATOM     81  C   UNL A   1      45.148  31.069  28.465  1.00  0.00    -0.014 A 
ATOM     82  C   UNL A   1      44.118  31.486  27.598  1.00  0.00     0.010 A 
ATOM     83  C   UNL A   1      46.374  31.758  28.417  1.00  0.00     0.010 A 
ATOM     84  C   UNL A   1      44.318  32.541  26.692  1.00  0.00     0.020 A 
ATOM     85  C   UNL A   1      46.575  32.822  27.532  1.00  0.00     0.020 A 
ATOM     86  C   UNL A   1      45.549  33.203  26.666  1.00  0.00     0.054 A 
BRANCH  86  87
ATOM     87  S   UNL A   1      45.792  34.597  25.527  1.00  0.00     0.124 S 
ATOM     88  O   UNL A   1      47.218  34.516  25.224  1.00  0.00    -0.237 OA
ATOM     89  O   UNL A   1      44.894  34.274  24.420  1.00  0.00    -0.237 OA
ATOM     90  O   UNL A   1      45.392  35.764  26.314  1.00  0.00    -0.744 OA
ENDBRANCH  86  87
ENDBRANCH  60  81
ENDBRANCH  34  35
ENDBRANCH  26  29
ENDBRANCH  24  25
ENDBRANCH   1  24
TORSDOF 16
ENDMDL
MODEL 2
REMARK VINA RESULT:     -12.3      2.764      9.082
REMARK SMILES CS(=O)(=O)c1ccc(-c2csc(=O)n2CC(=O)NCCCNC(=O)c2ccc(-c3c4nc(c(-c5ccc(S(=O)(=O)[O-])cc5)c5ccc([nH]5)c(-c5ccc(S(=O)(=O)[O-])cc5)c5nc(c(-c6ccc(S(=O)(=O)[O-])cc6)c6ccc3[nH]6)C=C5)C=C4)cc2)cc1
REMARK SMILES IDX 20 1 19 2 18 3 16 4 17 5 15 7 14 8 9 9 10 10 11 11 12 12
REMARK SMILES IDX 13 13 8 14 5 15 6 16 86 17 7 18 85 19 2 20 1 21 3 22 4 23
REMARK SMILES IDX 21 24 22 25 23 26 24 28 25 29 26 30 84 31 27 32 83 33 28 34
REMARK SMILES IDX 29 35 30 36 77 37 31 38 82 39 76 40 78 41 32 42 81 43 75 44
REMARK SMILES IDX 74 45 33 47 63 48 44 49 62 50 45 51 48 52 61 53 79 54 46 55
REMARK SMILES IDX 47 56 60 58 80 59 49 60 34 61 35 62 43 63 36 64 42 65 37 66
REMARK SMILES IDX 38 67 39 68 40 69 41 70 64 71 65 72 73 73 66 74 72 75 67 76
REMARK SMILES IDX 68 77 69 78 70 79 71 80 50 81 51 82 59 83 52 84 58 85 53 86
REMARK SMILES IDX 54 87 55 88 56 89 57 90
REMARK H PARENT 18 6 22 27 78 46 48 57
REMARK Flexibility Score: inf
ROOT
ATOM      1  C   UNL A   1      38.802  22.225  26.113  1.00  0.00     0.042 C 
ENDROOT
BRANCH   1   2
ATOM      2  C   UNL A   1      37.886  23.374  25.695  1.00  0.00     0.117 C 
BRANCH   2   3
ATOM      3  N   UNL A   1      37.386  23.242  24.344  1.00  0.00    -0.354 N 
ATOM      4  C   UNL A   1      36.090  23.177  23.918  1.00  0.00     0.240 C 
ATOM      5  O   UNL A   1      35.868  23.426  22.731  1.00  0.00    -0.273 OA
ATOM      6  H   UNL A   1      38.070  23.193  23.638  1.00  0.00     0.163 HD
BRANCH   4   7
ATOM      7  C   UNL A   1      34.937  22.971  24.911  1.00  0.00     0.226 C 
BRANCH   7   8
ATOM      8  N   UNL A   1      34.052  21.853  24.620  1.00  0.00    -0.289 N 
ATOM      9  C   UNL A   1      32.788  21.893  24.038  1.00  0.00     0.063 A 
ATOM     10  C   UNL A   1      32.252  20.676  23.852  1.00  0.00     0.097 A 
ATOM     11  S   UNL A   1      33.309  19.404  24.361  1.00  0.00    -0.082 S 
ATOM     12  C   UNL A   1      34.554  20.567  24.839  1.00  0.00     0.308 A 
ATOM     13  O   UNL A   1      35.639  20.249  25.271  1.00  0.00    -0.257 OA
BRANCH   9  14
ATOM     14  C   UNL A   1      32.041  23.119  23.719  1.00  0.00    -0.001 A 
ATOM     15  C   UNL A   1      30.826  25.620  23.371  1.00  0.00     0.067 A 
ATOM     16  C   UNL A   1      31.715  25.139  22.407  1.00  0.00     0.021 A 
ATOM     17  C   UNL A   1      30.487  24.840  24.474  1.00  0.00     0.021 A 
ATOM     18  C   UNL A   1      32.321  23.889  22.584  1.00  0.00     0.011 A 
ATOM     19  C   UNL A   1      31.061  23.578  24.616  1.00  0.00     0.011 A 
BRANCH  15  20
ATOM     20  S   UNL A   1      30.140  27.251  23.221  1.00  0.00     0.175 S 
ATOM     21  C   UNL A   1      30.960  28.198  24.477  1.00  0.00     0.163 C 
ATOM     22  O   UNL A   1      28.738  27.170  23.588  1.00  0.00    -0.224 OA
ATOM     23  O   UNL A   1      30.551  27.756  21.926  1.00  0.00    -0.224 OA
ENDBRANCH  15  20
ENDBRANCH   9  14
ENDBRANCH   7   8
ENDBRANCH   4   7
ENDBRANCH   2   3
ENDBRANCH   1   2
BRANCH   1  24
ATOM     24  C   UNL A   1      40.034  22.693  26.857  1.00  0.00     0.118 C 
BRANCH  24  25
ATOM     25  N   UNL A   1      41.271  22.300  26.169  1.00  0.00    -0.352 N 
ATOM     26  C   UNL A   1      42.257  23.120  25.654  1.00  0.00     0.251 C 
ATOM     27  H   UNL A   1      41.414  21.332  26.061  1.00  0.00     0.163 HD
ATOM     28  O   UNL A   1      43.048  22.698  24.820  1.00  0.00    -0.269 OA
BRANCH  26  29
ATOM     29  C   UNL A   1      42.306  24.514  26.119  1.00  0.00     0.039 A 
ATOM     30  C   UNL A   1      41.590  25.526  25.479  1.00  0.00     0.014 A 
ATOM     31  C   UNL A   1      43.001  24.767  27.295  1.00  0.00     0.014 A 
ATOM     32  C   UNL A   1      41.495  26.770  26.100  1.00  0.00     0.010 A 
ATOM     33  C   UNL A   1      42.728  25.908  27.998  1.00  0.00     0.010 A 
ATOM     34  C   UNL A   1      42.036  26.945  27.384  1.00  0.00    -0.014 A 
BRANCH  34  35
ATOM     35  C   UNL A   1      41.826  28.181  28.131  1.00  0.00     0.031 A 
ATOM     36  C   UNL A   1      42.877  29.223  27.971  1.00  0.00     0.074 A 
ATOM     37  C   UNL A   1      40.673  28.477  28.771  1.00  0.00     0.049 A 
ATOM     38  N   UNL A   1      43.726  29.626  28.858  1.00  0.00    -0.248 NA
ATOM     39  C   UNL A   1      43.084  29.808  26.637  1.00  0.00     0.031 C 
ATOM     40  C   UNL A   1      39.406  27.731  28.784  1.00  0.00     0.029 A 
ATOM     41  N   UNL A   1      40.356  29.604  29.458  1.00  0.00    -0.354 N 
ATOM     42  C   UNL A   1      44.443  30.661  28.266  1.00  0.00     0.074 A 
ATOM     43  C   UNL A   1      44.125  30.615  26.860  1.00  0.00     0.031 C 
ATOM     44  C   UNL A   1      38.410  28.537  29.210  1.00  0.00     0.029 A 
ATOM     45  C   UNL A   1      38.998  29.769  29.694  1.00  0.00     0.049 A 
ATOM     46  H   UNL A   1      41.034  30.250  29.765  1.00  0.00     0.167 HD
ATOM     47  C   UNL A   1      45.077  31.615  29.005  1.00  0.00     0.031 A 
ATOM     48  C   UNL A   1      38.393  30.852  30.237  1.00  0.00     0.031 A 
ATOM     49  C   UNL A   1      45.170  31.246  30.394  1.00  0.00     0.049 A 
ATOM     50  C   UNL A   1      39.431  31.584  31.002  1.00  0.00     0.074 A 
ATOM     51  C   UNL A   1      45.726  30.182  31.077  1.00  0.00     0.029 A 
ATOM     52  N   UNL A   1      44.264  31.813  31.262  1.00  0.00    -0.354 N 
ATOM     53  N   UNL A   1      40.021  31.093  32.057  1.00  0.00    -0.248 NA
ATOM     54  C   UNL A   1      40.143  32.665  30.339  1.00  0.00     0.031 C 
ATOM     55  C   UNL A   1      44.774  29.862  32.091  1.00  0.00     0.029 A 
ATOM     56  C   UNL A   1      43.738  30.796  32.019  1.00  0.00     0.049 A 
ATOM     57  H   UNL A   1      44.037  32.769  31.327  1.00  0.00     0.167 HD
ATOM     58  C   UNL A   1      41.347  31.486  31.942  1.00  0.00     0.074 A 
ATOM     59  C   UNL A   1      41.338  32.538  30.926  1.00  0.00     0.031 C 
ATOM     60  C   UNL A   1      42.362  30.741  32.476  1.00  0.00     0.031 A 
BRANCH  47  61
ATOM     61  C   UNL A   1      45.295  33.031  28.534  1.00  0.00    -0.014 A 
ATOM     62  C   UNL A   1      46.586  33.592  28.595  1.00  0.00     0.010 A 
ATOM     63  C   UNL A   1      44.226  33.912  28.267  1.00  0.00     0.010 A 
ATOM     64  C   UNL A   1      46.788  34.971  28.436  1.00  0.00     0.020 A 
ATOM     65  C   UNL A   1      44.421  35.279  28.062  1.00  0.00     0.020 A 
ATOM     66  C   UNL A   1      45.701  35.806  28.178  1.00  0.00     0.054 A 
BRANCH  66  67
ATOM     67  S   UNL A   1      45.956  37.594  28.056  1.00  0.00     0.124 S 
ATOM     68  O   UNL A   1      44.806  38.007  27.256  1.00  0.00    -0.237 OA
ATOM     69  O   UNL A   1      45.935  38.006  29.457  1.00  0.00    -0.237 OA
ATOM     70  O   UNL A   1      47.255  37.711  27.397  1.00  0.00    -0.744 OA
ENDBRANCH  66  67
ENDBRANCH  47  61
BRANCH  48  71
ATOM     71  C   UNL A   1      37.073  31.424  29.883  1.00  0.00    -0.014 A 
ATOM     72  C   UNL A   1      36.244  31.988  30.867  1.00  0.00     0.010 A 
ATOM     73  C   UNL A   1      36.748  31.666  28.531  1.00  0.00     0.010 A 
ATOM     74  C   UNL A   1      35.172  32.823  30.514  1.00  0.00     0.020 A 
ATOM     75  C   UNL A   1      35.676  32.492  28.171  1.00  0.00     0.020 A 
ATOM     76  C   UNL A   1      34.909  33.089  29.167  1.00  0.00     0.054 A 
BRANCH  76  77
ATOM     77  S   UNL A   1      33.649  34.325  28.732  1.00  0.00     0.124 S 
ATOM     78  O   UNL A   1      32.817  33.597  27.779  1.00  0.00    -0.237 OA
ATOM     79  O   UNL A   1      33.027  34.611  30.022  1.00  0.00    -0.237 OA
ATOM     80  O   UNL A   1      34.426  35.425  28.166  1.00  0.00    -0.744 OA
ENDBRANCH  76  77
ENDBRANCH  48  71
BRANCH  60  81
ATOM     81  C   UNL A   1      42.014  29.611  33.425  1.00  0.00    -0.014 A 
ATOM     82  C   UNL A   1      41.717  28.298  33.008  1.00  0.00     0.010 A 
ATOM     83  C   UNL A   1      42.147  29.854  34.805  1.00  0.00     0.010 A 
ATOM     84  C   UNL A   1      41.533  27.266  33.945  1.00  0.00     0.020 A 
ATOM     85  C   UNL A   1      41.985  28.829  35.742  1.00  0.00     0.020 A 
ATOM     86  C   UNL A   1      41.668  27.541  35.308  1.00  0.00     0.054 A 
BRANCH  86  87
ATOM     87  S   UNL A   1      41.476  26.197  36.515  1.00  0.00     0.124 S 
ATOM     88  O   UNL A   1      40.819  25.156  35.732  1.00  0.00    -0.237 OA
ATOM     89  O   UNL A   1      42.855  25.913  36.910  1.00  0.00    -0.237 OA
ATOM     90  O   UNL A   1      40.652  26.790  37.569  1.00  0.00    -0.744 OA
ENDBRANCH  86  87
ENDBRANCH  60  81
ENDBRANCH  34  35
ENDBRANCH  26  29
ENDBRANCH  24  25
ENDBRANCH   1  24
TORSDOF 16
ENDMDL
MODEL 3
REMARK VINA RESULT:     -12.3      3.228      9.873
REMARK SMILES CS(=O)(=O)c1ccc(-c2csc(=O)n2CC(=O)NCCCNC(=O)c2ccc(-c3c4nc(c(-c5ccc(S(=O)(=O)[O-])cc5)c5ccc([nH]5)c(-c5ccc(S(=O)(=O)[O-])cc5)c5nc(c(-c6ccc(S(=O)(=O)[O-])cc6)c6ccc3[nH]6)C=C5)C=C4)cc2)cc1
REMARK SMILES IDX 20 1 19 2 18 3 16 4 17 5 15 7 14 8 9 9 10 10 11 11 12 12
REMARK SMILES IDX 13 13 8 14 5 15 6 16 86 17 7 18 85 19 2 20 1 21 3 22 4 23
REMARK SMILES IDX 21 24 22 25 23 26 24 28 25 29 26 30 84 31 27 32 83 33 28 34
REMARK SMILES IDX 29 35 30 36 77 37 31 38 82 39 76 40 78 41 32 42 81 43 75 44
REMARK SMILES IDX 74 45 33 47 63 48 44 49 62 50 45 51 48 52 61 53 79 54 46 55
REMARK SMILES IDX 47 56 60 58 80 59 49 60 34 61 35 62 43 63 36 64 42 65 37 66
REMARK SMILES IDX 38 67 39 68 40 69 41 70 64 71 65 72 73 73 66 74 72 75 67 76
REMARK SMILES IDX 68 77 69 78 70 79 71 80 50 81 51 82 59 83 52 84 58 85 53 86
REMARK SMILES IDX 54 87 55 88 56 89 57 90
REMARK H PARENT 18 6 22 27 78 46 48 57
REMARK Flexibility Score: inf
ROOT
ATOM      1  C   UNL A   1      38.953  20.948  25.450  1.00  0.00     0.042 C 
ENDROOT
BRANCH   1   2
ATOM      2  C   UNL A   1      37.763  21.905  25.511  1.00  0.00     0.117 C 
BRANCH   2   3
ATOM      3  N   UNL A   1      37.113  22.089  24.231  1.00  0.00    -0.354 N 
ATOM      4  C   UNL A   1      35.898  22.654  23.967  1.00  0.00     0.240 C 
ATOM      5  O   UNL A   1      35.688  23.038  22.814  1.00  0.00    -0.273 OA
ATOM      6  H   UNL A   1      37.613  21.766  23.448  1.00  0.00     0.163 HD
BRANCH   4   7
ATOM      7  C   UNL A   1      34.899  22.953  25.095  1.00  0.00     0.226 C 
BRANCH   7   8
ATOM      8  N   UNL A   1      33.542  23.255  24.665  1.00  0.00    -0.289 N 
ATOM      9  C   UNL A   1      32.498  22.362  24.441  1.00  0.00     0.063 A 
ATOM     10  C   UNL A   1      31.347  22.966  24.105  1.00  0.00     0.097 A 
ATOM     11  S   UNL A   1      31.489  24.691  24.081  1.00  0.00    -0.082 S 
ATOM     12  C   UNL A   1      33.189  24.604  24.566  1.00  0.00     0.308 A 
ATOM     13  O   UNL A   1      33.879  25.576  24.769  1.00  0.00    -0.257 OA
BRANCH   9  14
ATOM     14  C   UNL A   1      32.615  20.896  24.475  1.00  0.00    -0.001 A 
ATOM     15  C   UNL A   1      33.159  18.150  24.360  1.00  0.00     0.067 A 
ATOM     16  C   UNL A   1      33.292  18.834  25.570  1.00  0.00     0.021 A 
ATOM     17  C   UNL A   1      32.697  18.806  23.222  1.00  0.00     0.021 A 
ATOM     18  C   UNL A   1      33.020  20.206  25.625  1.00  0.00     0.011 A 
ATOM     19  C   UNL A   1      32.384  20.162  23.300  1.00  0.00     0.011 A 
BRANCH  15  20
ATOM     20  S   UNL A   1      33.613  16.436  24.247  1.00  0.00     0.175 S 
ATOM     21  C   UNL A   1      35.078  16.296  25.236  1.00  0.00     0.163 C 
ATOM     22  O   UNL A   1      33.994  16.176  22.871  1.00  0.00    -0.224 OA
ATOM     23  O   UNL A   1      32.553  15.684  24.889  1.00  0.00    -0.224 OA
ENDBRANCH  15  20
ENDBRANCH   9  14
ENDBRANCH   7   8
ENDBRANCH   4   7
ENDBRANCH   2   3
ENDBRANCH   1   2
BRANCH   1  24
ATOM     24  C   UNL A   1      40.036  21.288  26.450  1.00  0.00     0.118 C 
BRANCH  24  25
ATOM     25  N   UNL A   1      41.347  21.439  25.806  1.00  0.00    -0.352 N 
ATOM     26  C   UNL A   1      42.111  22.584  25.687  1.00  0.00     0.251 C 
ATOM     27  H   UNL A   1      41.729  20.622  25.411  1.00  0.00     0.163 HD
ATOM     28  O   UNL A   1      43.002  22.657  24.850  1.00  0.00    -0.269 OA
BRANCH  26  29
ATOM     29  C   UNL A   1      41.801  23.715  26.575  1.00  0.00     0.039 A 
ATOM     30  C   UNL A   1      42.402  23.852  27.826  1.00  0.00     0.014 A 
ATOM     31  C   UNL A   1      40.972  24.709  26.069  1.00  0.00     0.014 A 
ATOM     32  C   UNL A   1      42.242  25.054  28.513  1.00  0.00     0.010 A 
ATOM     33  C   UNL A   1      40.997  25.952  26.640  1.00  0.00     0.010 A 
ATOM     34  C   UNL A   1      41.567  26.120  27.896  1.00  0.00    -0.014 A 
BRANCH  34  35
ATOM     35  C   UNL A   1      41.512  27.440  28.517  1.00  0.00     0.031 A 
ATOM     36  C   UNL A   1      42.619  28.369  28.164  1.00  0.00     0.074 A 
ATOM     37  C   UNL A   1      40.441  27.893  29.206  1.00  0.00     0.049 A 
ATOM     38  N   UNL A   1      43.567  28.791  28.934  1.00  0.00    -0.248 NA
ATOM     39  C   UNL A   1      42.756  28.794  26.762  1.00  0.00     0.031 C 
ATOM     40  C   UNL A   1      39.129  27.260  29.397  1.00  0.00     0.029 A 
ATOM     41  N   UNL A   1      40.268  29.108  29.787  1.00  0.00    -0.354 N 
ATOM     42  C   UNL A   1      44.306  29.697  28.179  1.00  0.00     0.074 A 
ATOM     43  C   UNL A   1      43.868  29.531  26.815  1.00  0.00     0.031 C 
ATOM     44  C   UNL A   1      38.235  28.185  29.806  1.00  0.00     0.029 A 
ATOM     45  C   UNL A   1      38.950  29.408  30.105  1.00  0.00     0.049 A 
ATOM     46  H   UNL A   1      41.014  29.724  29.969  1.00  0.00     0.167 HD
ATOM     47  C   UNL A   1      45.068  30.667  28.759  1.00  0.00     0.031 A 
ATOM     48  C   UNL A   1      38.474  30.587  30.570  1.00  0.00     0.031 A 
ATOM     49  C   UNL A   1      45.250  30.438  30.169  1.00  0.00     0.049 A 
ATOM     50  C   UNL A   1      39.624  31.306  31.169  1.00  0.00     0.074 A 
ATOM     51  C   UNL A   1      45.783  29.408  30.920  1.00  0.00     0.029 A 
ATOM     52  N   UNL A   1      44.465  31.164  31.036  1.00  0.00    -0.354 N 
ATOM     53  N   UNL A   1      40.263  30.881  32.224  1.00  0.00    -0.248 NA
ATOM     54  C   UNL A   1      40.355  32.251  30.340  1.00  0.00     0.031 C 
ATOM     55  C   UNL A   1      44.898  29.274  32.033  1.00  0.00     0.029 A 
ATOM     56  C   UNL A   1      43.931  30.277  31.938  1.00  0.00     0.049 A 
ATOM     57  H   UNL A   1      44.315  32.137  31.012  1.00  0.00     0.167 HD
ATOM     58  C   UNL A   1      41.600  31.150  31.967  1.00  0.00     0.074 A 
ATOM     59  C   UNL A   1      41.582  32.087  30.845  1.00  0.00     0.031 C 
ATOM     60  C   UNL A   1      42.598  30.383  32.500  1.00  0.00     0.031 A 
BRANCH  47  61
ATOM     61  C   UNL A   1      45.349  32.004  28.120  1.00  0.00    -0.014 A 
ATOM     62  C   UNL A   1      46.682  32.438  27.975  1.00  0.00     0.010 A 
ATOM     63  C   UNL A   1      44.337  32.957  27.885  1.00  0.00     0.010 A 
ATOM     64  C   UNL A   1      46.983  33.768  27.649  1.00  0.00     0.020 A 
ATOM     65  C   UNL A   1      44.623  34.273  27.517  1.00  0.00     0.020 A 
ATOM     66  C   UNL A   1      45.948  34.679  27.430  1.00  0.00     0.054 A 
BRANCH  66  67
ATOM     67  S   UNL A   1      46.341  36.413  27.093  1.00  0.00     0.124 S 
ATOM     68  O   UNL A   1      45.012  37.010  27.002  1.00  0.00    -0.237 OA
ATOM     69  O   UNL A   1      47.126  36.788  28.268  1.00  0.00    -0.237 OA
ATOM     70  O   UNL A   1      47.093  36.358  25.841  1.00  0.00    -0.744 OA
ENDBRANCH  66  67
ENDBRANCH  47  61
BRANCH  48  71
ATOM     71  C   UNL A   1      37.174  31.225  30.257  1.00  0.00    -0.014 A 
ATOM     72  C   UNL A   1      36.477  31.958  31.233  1.00  0.00     0.010 A 
ATOM     73  C   UNL A   1      36.753  31.348  28.915  1.00  0.00     0.010 A 
ATOM     74  C   UNL A   1      35.443  32.836  30.871  1.00  0.00     0.020 A 
ATOM     75  C   UNL A   1      35.719  32.217  28.549  1.00  0.00     0.020 A 
ATOM     76  C   UNL A   1      35.087  32.978  29.527  1.00  0.00     0.054 A 
BRANCH  76  77
ATOM     77  S   UNL A   1      33.888  34.261  29.054  1.00  0.00     0.124 S 
ATOM     78  O   UNL A   1      34.749  35.300  28.497  1.00  0.00    -0.237 OA
ATOM     79  O   UNL A   1      33.040  33.563  28.092  1.00  0.00    -0.237 OA
ATOM     80  O   UNL A   1      33.235  34.605  30.315  1.00  0.00    -0.744 OA
ENDBRANCH  76  77
ENDBRANCH  48  71
BRANCH  60  81
ATOM     81  C   UNL A   1      42.249  29.390  33.592  1.00  0.00    -0.014 A 
ATOM     82  C   UNL A   1      41.787  28.082  33.345  1.00  0.00     0.010 A 
ATOM     83  C   UNL A   1      42.553  29.746  34.920  1.00  0.00     0.010 A 
ATOM     84  C   UNL A   1      41.608  27.168  34.398  1.00  0.00     0.020 A 
ATOM     85  C   UNL A   1      42.396  28.836  35.969  1.00  0.00     0.020 A 
ATOM     86  C   UNL A   1      41.915  27.553  35.705  1.00  0.00     0.054 A 
BRANCH  86  87
ATOM     87  S   UNL A   1      41.728  26.357  37.059  1.00  0.00     0.124 S 
ATOM     88  O   UNL A   1      42.901  26.623  37.884  1.00  0.00    -0.237 OA
ATOM     89  O   UNL A   1      40.444  26.731  37.650  1.00  0.00    -0.237 OA
ATOM     90  O   UNL A   1      41.730  25.060  36.381  1.00  0.00    -0.744 OA
ENDBRANCH  86  87
ENDBRANCH  60  81
ENDBRANCH  34  35
ENDBRANCH  26  29
ENDBRANCH  24  25
ENDBRANCH   1  24
TORSDOF 16
ENDMDL
