MODEL 1
REMARK VINA RESULT:     -10.7      0.000      0.000
REMARK SMILES Cc1nc(C[C@H](C(=O)NCCCNC(=O)c2ccc(-c3c4nc(c(-c5ccc(S(=O)(=O)[O-])cc5)c5ccc([nH]5)c(-c5ccc(S(=O)(=O)[O-])cc5)c5nc(c(-c6ccc(S(=O)(=O)[O-])cc6)c6ccc3[nH]6)C=C5)C=C4)cc2)c2ccccc2Br)cs1
REMARK SMILES IDX 11 1 10 2 9 3 7 4 8 5 6 7 5 8 4 9 1 10 2 11 3 12 84 13 83 14
REMARK SMILES IDX 76 15 77 16 81 17 78 18 80 19 82 20 79 21 12 22 13 23 14 24
REMARK SMILES IDX 15 26 16 27 17 28 75 29 18 30 74 31 19 32 20 33 21 34 68 35
REMARK SMILES IDX 22 36 73 37 67 38 69 39 23 40 72 41 66 42 65 43 24 45 54 46
REMARK SMILES IDX 35 47 53 48 36 49 39 50 52 51 70 52 37 53 38 54 51 56 71 57
REMARK SMILES IDX 40 58 25 59 26 60 34 61 27 62 33 63 28 64 29 65 30 66 31 67
REMARK SMILES IDX 32 68 55 69 56 70 64 71 57 72 63 73 58 74 59 75 60 76 61 77
REMARK SMILES IDX 62 78 41 79 42 80 50 81 43 82 49 83 44 84 45 85 46 86 47 87
REMARK SMILES IDX 48 88
REMARK H PARENT 9 6 13 25 69 44 39 55
REMARK Flexibility Score: inf
ROOT
ATOM      1  C   UNL A   1      32.753  27.399  26.420  1.00  0.00     0.042 C 
ENDROOT
BRANCH   1   2
ATOM      2  C   UNL A   1      32.972  25.956  25.974  1.00  0.00     0.117 C 
BRANCH   2   3
ATOM      3  N   UNL A   1      32.502  25.736  24.622  1.00  0.00    -0.355 N 
ATOM      4  C   UNL A   1      32.459  24.588  23.883  1.00  0.00     0.227 C 
ATOM      5  O   UNL A   1      32.009  24.690  22.738  1.00  0.00    -0.274 OA
ATOM      6  H   UNL A   1      32.160  26.537  24.164  1.00  0.00     0.163 HD
BRANCH   4   7
ATOM      7  C   UNL A   1      32.877  23.231  24.489  1.00  0.00     0.115 C 
BRANCH   7   8
ATOM      8  C   UNL A   1      32.084  22.118  23.768  1.00  0.00     0.075 C 
BRANCH   8   9
ATOM      9  C   UNL A   1      32.317  20.683  24.147  1.00  0.00     0.053 A 
ATOM     10  C   UNL A   1      32.902  17.396  22.648  1.00  0.00     0.079 C 
ATOM     11  C   UNL A   1      32.689  18.576  23.525  1.00  0.00     0.090 A 
ATOM     12  N   UNL A   1      32.441  19.790  23.087  1.00  0.00    -0.247 NA
ATOM     13  S   UNL A   1      32.753  18.411  25.229  1.00  0.00    -0.127 S 
ATOM     14  C   UNL A   1      32.443  20.089  25.388  1.00  0.00     0.090 A 
ENDBRANCH   8   9
ENDBRANCH   7   8
BRANCH   7  15
ATOM     15  C   UNL A   1      34.395  23.047  24.554  1.00  0.00    -0.021 A 
ATOM     16  C   UNL A   1      35.106  23.121  23.329  1.00  0.00     0.006 A 
ATOM     17  C   UNL A   1      35.143  22.777  25.713  1.00  0.00     0.021 A 
ATOM     18  C   UNL A   1      36.483  22.911  23.257  1.00  0.00     0.000 A 
ATOM     19  C   UNL A   1      36.533  22.588  25.637  1.00  0.00     0.016 A 
ATOM     20  Br  UNL A   1      34.388  22.588  27.443  1.00  0.00    -0.051 Br
ATOM     21  C   UNL A   1      37.199  22.645  24.415  1.00  0.00     0.001 A 
ENDBRANCH   7  15
ENDBRANCH   4   7
ENDBRANCH   2   3
ENDBRANCH   1   2
BRANCH   1  22
ATOM     22  C   UNL A   1      34.042  28.204  26.516  1.00  0.00     0.118 C 
BRANCH  22  23
ATOM     23  N   UNL A   1      33.798  29.549  27.013  1.00  0.00    -0.352 N 
ATOM     24  C   UNL A   1      34.552  30.334  27.847  1.00  0.00     0.251 C 
ATOM     25  H   UNL A   1      32.959  29.961  26.701  1.00  0.00     0.163 HD
ATOM     26  O   UNL A   1      34.044  31.349  28.321  1.00  0.00    -0.269 OA
BRANCH  24  27
ATOM     27  C   UNL A   1      35.949  29.977  28.189  1.00  0.00     0.039 A 
ATOM     28  C   UNL A   1      36.936  30.147  27.212  1.00  0.00     0.014 A 
ATOM     29  C   UNL A   1      36.290  29.419  29.425  1.00  0.00     0.014 A 
ATOM     30  C   UNL A   1      38.257  29.783  27.483  1.00  0.00     0.010 A 
ATOM     31  C   UNL A   1      37.622  29.131  29.722  1.00  0.00     0.010 A 
ATOM     32  C   UNL A   1      38.615  29.289  28.747  1.00  0.00    -0.014 A 
BRANCH  32  33
ATOM     33  C   UNL A   1      40.022  28.910  29.043  1.00  0.00     0.031 A 
ATOM     34  C   UNL A   1      40.947  29.885  29.725  1.00  0.00     0.074 A 
ATOM     35  C   UNL A   1      40.472  27.695  28.676  1.00  0.00     0.049 A 
ATOM     36  N   UNL A   1      42.196  29.726  30.080  1.00  0.00    -0.248 NA
ATOM     37  C   UNL A   1      40.406  31.221  30.027  1.00  0.00     0.031 C 
ATOM     38  C   UNL A   1      39.690  26.681  27.963  1.00  0.00     0.029 A 
ATOM     39  N   UNL A   1      41.696  27.101  28.857  1.00  0.00    -0.354 N 
ATOM     40  C   UNL A   1      42.593  30.940  30.630  1.00  0.00     0.074 A 
ATOM     41  C   UNL A   1      41.469  31.842  30.514  1.00  0.00     0.031 C 
ATOM     42  C   UNL A   1      40.440  25.579  27.803  1.00  0.00     0.029 A 
ATOM     43  C   UNL A   1      41.762  25.816  28.372  1.00  0.00     0.049 A 
ATOM     44  H   UNL A   1      42.455  27.553  29.292  1.00  0.00     0.167 HD
ATOM     45  C   UNL A   1      43.778  31.269  31.200  1.00  0.00     0.031 A 
ATOM     46  C   UNL A   1      42.770  24.924  28.394  1.00  0.00     0.031 A 
ATOM     47  C   UNL A   1      44.890  30.364  31.326  1.00  0.00     0.049 A 
ATOM     48  C   UNL A   1      44.065  25.301  29.059  1.00  0.00     0.074 A 
ATOM     49  C   UNL A   1      46.115  30.581  31.933  1.00  0.00     0.029 A 
ATOM     50  N   UNL A   1      44.910  29.065  30.840  1.00  0.00    -0.354 N 
ATOM     51  N   UNL A   1      44.399  26.435  29.629  1.00  0.00    -0.248 NA
ATOM     52  C   UNL A   1      45.110  24.270  29.104  1.00  0.00     0.031 C 
ATOM     53  C   UNL A   1      46.891  29.427  31.776  1.00  0.00     0.029 A 
ATOM     54  C   UNL A   1      46.130  28.472  31.121  1.00  0.00     0.049 A 
ATOM     55  H   UNL A   1      44.166  28.628  30.366  1.00  0.00     0.167 HD
ATOM     56  C   UNL A   1      45.685  26.245  30.123  1.00  0.00     0.074 A 
ATOM     57  C   UNL A   1      46.057  24.880  29.801  1.00  0.00     0.031 C 
ATOM     58  C   UNL A   1      46.486  27.117  30.784  1.00  0.00     0.031 A 
BRANCH  45  59
ATOM     59  C   UNL A   1      43.928  32.672  31.730  1.00  0.00    -0.014 A 
ATOM     60  C   UNL A   1      43.615  32.980  33.068  1.00  0.00     0.010 A 
ATOM     61  C   UNL A   1      44.413  33.692  30.892  1.00  0.00     0.010 A 
ATOM     62  C   UNL A   1      43.740  34.289  33.541  1.00  0.00     0.020 A 
ATOM     63  C   UNL A   1      44.568  34.997  31.371  1.00  0.00     0.020 A 
ATOM     64  C   UNL A   1      44.211  35.291  32.688  1.00  0.00     0.054 A 
BRANCH  64  65
ATOM     65  S   UNL A   1      44.380  36.977  33.335  1.00  0.00     0.124 S 
ATOM     66  O   UNL A   1      42.984  37.380  33.491  1.00  0.00    -0.237 OA
ATOM     67  O   UNL A   1      45.118  36.772  34.579  1.00  0.00    -0.237 OA
ATOM     68  O   UNL A   1      45.117  37.678  32.286  1.00  0.00    -0.744 OA
ENDBRANCH  64  65
ENDBRANCH  45  59
BRANCH  46  69
ATOM     69  C   UNL A   1      42.579  23.573  27.800  1.00  0.00    -0.014 A 
ATOM     70  C   UNL A   1      42.995  23.307  26.483  1.00  0.00     0.010 A 
ATOM     71  C   UNL A   1      42.000  22.538  28.557  1.00  0.00     0.010 A 
ATOM     72  C   UNL A   1      42.817  22.037  25.927  1.00  0.00     0.020 A 
ATOM     73  C   UNL A   1      41.847  21.260  28.013  1.00  0.00     0.020 A 
ATOM     74  C   UNL A   1      42.246  21.020  26.697  1.00  0.00     0.054 A 
BRANCH  74  75
ATOM     75  S   UNL A   1      42.078  19.364  25.976  1.00  0.00     0.124 S 
ATOM     76  O   UNL A   1      42.581  18.513  27.049  1.00  0.00    -0.237 OA
ATOM     77  O   UNL A   1      40.643  19.275  25.716  1.00  0.00    -0.237 OA
ATOM     78  O   UNL A   1      42.916  19.426  24.780  1.00  0.00    -0.744 OA
ENDBRANCH  74  75
ENDBRANCH  46  69
BRANCH  58  79
ATOM     79  C   UNL A   1      47.830  26.607  31.228  1.00  0.00    -0.014 A 
ATOM     80  C   UNL A   1      47.997  25.974  32.473  1.00  0.00     0.010 A 
ATOM     81  C   UNL A   1      48.942  26.757  30.381  1.00  0.00     0.010 A 
ATOM     82  C   UNL A   1      49.263  25.551  32.886  1.00  0.00     0.020 A 
ATOM     83  C   UNL A   1      50.205  26.309  30.777  1.00  0.00     0.020 A 
ATOM     84  C   UNL A   1      50.360  25.730  32.038  1.00  0.00     0.054 A 
BRANCH  84  85
ATOM     85  S   UNL A   1      51.996  25.175  32.593  1.00  0.00     0.124 S 
ATOM     86  O   UNL A   1      52.133  25.871  33.870  1.00  0.00    -0.237 OA
ATOM     87  O   UNL A   1      51.833  23.727  32.680  1.00  0.00    -0.237 OA
ATOM     88  O   UNL A   1      52.893  25.634  31.534  1.00  0.00    -0.744 OA
ENDBRANCH  84  85
ENDBRANCH  58  79
ENDBRANCH  32  33
ENDBRANCH  24  27
ENDBRANCH  22  23
ENDBRANCH   1  22
TORSDOF 16
ENDMDL
MODEL 2
REMARK VINA RESULT:     -10.6      3.578      9.202
REMARK SMILES Cc1nc(C[C@H](C(=O)NCCCNC(=O)c2ccc(-c3c4nc(c(-c5ccc(S(=O)(=O)[O-])cc5)c5ccc([nH]5)c(-c5ccc(S(=O)(=O)[O-])cc5)c5nc(c(-c6ccc(S(=O)(=O)[O-])cc6)c6ccc3[nH]6)C=C5)C=C4)cc2)c2ccccc2Br)cs1
REMARK SMILES IDX 11 1 10 2 9 3 7 4 8 5 6 7 5 8 4 9 1 10 2 11 3 12 84 13 83 14
REMARK SMILES IDX 76 15 77 16 81 17 78 18 80 19 82 20 79 21 12 22 13 23 14 24
REMARK SMILES IDX 15 26 16 27 17 28 75 29 18 30 74 31 19 32 20 33 21 34 68 35
REMARK SMILES IDX 22 36 73 37 67 38 69 39 23 40 72 41 66 42 65 43 24 45 54 46
REMARK SMILES IDX 35 47 53 48 36 49 39 50 52 51 70 52 37 53 38 54 51 56 71 57
REMARK SMILES IDX 40 58 25 59 26 60 34 61 27 62 33 63 28 64 29 65 30 66 31 67
REMARK SMILES IDX 32 68 55 69 56 70 64 71 57 72 63 73 58 74 59 75 60 76 61 77
REMARK SMILES IDX 62 78 41 79 42 80 50 81 43 82 49 83 44 84 45 85 46 86 47 87
REMARK SMILES IDX 48 88
REMARK H PARENT 9 6 13 25 69 44 39 55
REMARK Flexibility Score: inf
ROOT
ATOM      1  C   UNL A   1      38.017  19.830  25.082  1.00  0.00     0.042 C 
ENDROOT
BRANCH   1   2
ATOM      2  C   UNL A   1      36.923  20.812  24.673  1.00  0.00     0.117 C 
BRANCH   2   3
ATOM      3  N   UNL A   1      36.093  21.189  25.797  1.00  0.00    -0.355 N 
ATOM      4  C   UNL A   1      34.741  21.374  25.869  1.00  0.00     0.227 C 
ATOM      5  O   UNL A   1      34.291  21.705  26.969  1.00  0.00    -0.274 OA
ATOM      6  H   UNL A   1      36.577  21.335  26.642  1.00  0.00     0.163 HD
BRANCH   4   7
ATOM      7  C   UNL A   1      33.831  21.099  24.652  1.00  0.00     0.115 C 
BRANCH   7   8
ATOM      8  C   UNL A   1      32.840  19.977  25.036  1.00  0.00     0.075 C 
BRANCH   8   9
ATOM      9  C   UNL A   1      33.266  18.542  24.911  1.00  0.00     0.053 A 
ATOM     10  C   UNL A   1      32.161  15.156  25.752  1.00  0.00     0.079 C 
ATOM     11  C   UNL A   1      32.854  16.385  25.285  1.00  0.00     0.090 A 
ATOM     12  N   UNL A   1      32.416  17.606  25.492  1.00  0.00    -0.247 NA
ATOM     13  S   UNL A   1      34.326  16.272  24.417  1.00  0.00    -0.127 S 
ATOM     14  C   UNL A   1      34.369  17.981  24.298  1.00  0.00     0.090 A 
ENDBRANCH   8   9
ENDBRANCH   7   8
BRANCH   7  15
ATOM     15  C   UNL A   1      33.217  22.372  24.064  1.00  0.00    -0.021 A 
ATOM     16  C   UNL A   1      33.882  22.955  22.956  1.00  0.00     0.006 A 
ATOM     17  C   UNL A   1      32.073  23.033  24.545  1.00  0.00     0.021 A 
ATOM     18  C   UNL A   1      33.449  24.147  22.375  1.00  0.00     0.000 A 
ATOM     19  C   UNL A   1      31.629  24.220  23.941  1.00  0.00     0.016 A 
ATOM     20  Br  UNL A   1      31.063  22.451  26.041  1.00  0.00    -0.051 Br
ATOM     21  C   UNL A   1      32.319  24.781  22.868  1.00  0.00     0.001 A 
ENDBRANCH   7  15
ENDBRANCH   4   7
ENDBRANCH   2   3
ENDBRANCH   1   2
BRANCH   1  22
ATOM     22  C   UNL A   1      39.203  20.496  25.765  1.00  0.00     0.118 C 
BRANCH  22  23
ATOM     23  N   UNL A   1      40.248  19.535  26.081  1.00  0.00    -0.352 N 
ATOM     24  C   UNL A   1      41.584  19.730  26.327  1.00  0.00     0.251 C 
ATOM     25  H   UNL A   1      39.950  18.598  26.127  1.00  0.00     0.163 HD
ATOM     26  O   UNL A   1      42.328  18.751  26.346  1.00  0.00    -0.269 OA
BRANCH  24  27
ATOM     27  C   UNL A   1      42.137  21.085  26.558  1.00  0.00     0.039 A 
ATOM     28  C   UNL A   1      42.363  21.494  27.877  1.00  0.00     0.014 A 
ATOM     29  C   UNL A   1      42.371  21.978  25.508  1.00  0.00     0.014 A 
ATOM     30  C   UNL A   1      42.845  22.779  28.137  1.00  0.00     0.010 A 
ATOM     31  C   UNL A   1      42.928  23.231  25.764  1.00  0.00     0.010 A 
ATOM     32  C   UNL A   1      43.148  23.653  27.081  1.00  0.00    -0.014 A 
BRANCH  32  33
ATOM     33  C   UNL A   1      43.671  25.018  27.353  1.00  0.00     0.031 A 
ATOM     34  C   UNL A   1      45.123  25.340  27.114  1.00  0.00     0.074 A 
ATOM     35  C   UNL A   1      42.840  25.962  27.838  1.00  0.00     0.049 A 
ATOM     36  N   UNL A   1      45.754  26.476  27.276  1.00  0.00    -0.248 NA
ATOM     37  C   UNL A   1      45.987  24.238  26.657  1.00  0.00     0.031 C 
ATOM     38  C   UNL A   1      41.426  25.760  28.160  1.00  0.00     0.029 A 
ATOM     39  N   UNL A   1      43.063  27.282  28.137  1.00  0.00    -0.354 N 
ATOM     40  C   UNL A   1      47.083  26.222  26.956  1.00  0.00     0.074 A 
ATOM     41  C   UNL A   1      47.179  24.814  26.643  1.00  0.00     0.031 C 
ATOM     42  C   UNL A   1      40.898  26.922  28.575  1.00  0.00     0.029 A 
ATOM     43  C   UNL A   1      41.941  27.943  28.578  1.00  0.00     0.049 A 
ATOM     44  H   UNL A   1      43.943  27.714  28.047  1.00  0.00     0.167 HD
ATOM     45  C   UNL A   1      48.126  27.086  26.905  1.00  0.00     0.031 A 
ATOM     46  C   UNL A   1      41.767  29.230  28.932  1.00  0.00     0.031 A 
ATOM     47  C   UNL A   1      48.024  28.490  27.205  1.00  0.00     0.049 A 
ATOM     48  C   UNL A   1      42.931  30.176  28.839  1.00  0.00     0.074 A 
ATOM     49  C   UNL A   1      49.008  29.461  27.135  1.00  0.00     0.029 A 
ATOM     50  N   UNL A   1      46.865  29.125  27.627  1.00  0.00    -0.354 N 
ATOM     51  N   UNL A   1      44.168  29.930  28.475  1.00  0.00    -0.248 NA
ATOM     52  C   UNL A   1      42.671  31.581  29.183  1.00  0.00     0.031 C 
ATOM     53  C   UNL A   1      48.454  30.676  27.555  1.00  0.00     0.029 A 
ATOM     54  C   UNL A   1      47.112  30.472  27.835  1.00  0.00     0.049 A 
ATOM     55  H   UNL A   1      45.996  28.684  27.760  1.00  0.00     0.167 HD
ATOM     56  C   UNL A   1      44.827  31.153  28.522  1.00  0.00     0.074 A 
ATOM     57  C   UNL A   1      43.845  32.139  28.930  1.00  0.00     0.031 C 
ATOM     58  C   UNL A   1      46.125  31.436  28.251  1.00  0.00     0.031 A 
BRANCH  45  59
ATOM     59  C   UNL A   1      49.471  26.530  26.512  1.00  0.00    -0.014 A 
ATOM     60  C   UNL A   1      49.874  26.490  25.164  1.00  0.00     0.010 A 
ATOM     61  C   UNL A   1      50.356  26.065  27.502  1.00  0.00     0.010 A 
ATOM     62  C   UNL A   1      51.115  25.954  24.810  1.00  0.00     0.020 A 
ATOM     63  C   UNL A   1      51.612  25.556  27.154  1.00  0.00     0.020 A 
ATOM     64  C   UNL A   1      51.975  25.485  25.808  1.00  0.00     0.054 A 
BRANCH  64  65
ATOM     65  S   UNL A   1      53.587  24.811  25.322  1.00  0.00     0.124 S 
ATOM     66  O   UNL A   1      53.932  25.653  24.177  1.00  0.00    -0.237 OA
ATOM     67  O   UNL A   1      54.397  25.018  26.520  1.00  0.00    -0.237 OA
ATOM     68  O   UNL A   1      53.297  23.415  25.003  1.00  0.00    -0.744 OA
ENDBRANCH  64  65
ENDBRANCH  45  59
BRANCH  46  69
ATOM     69  C   UNL A   1      40.426  29.705  29.369  1.00  0.00    -0.014 A 
ATOM     70  C   UNL A   1      40.156  29.924  30.732  1.00  0.00     0.010 A 
ATOM     71  C   UNL A   1      39.419  29.964  28.422  1.00  0.00     0.010 A 
ATOM     72  C   UNL A   1      38.897  30.373  31.142  1.00  0.00     0.020 A 
ATOM     73  C   UNL A   1      38.168  30.439  28.826  1.00  0.00     0.020 A 
ATOM     74  C   UNL A   1      37.912  30.630  30.185  1.00  0.00     0.054 A 
BRANCH  74  75
ATOM     75  S   UNL A   1      36.304  31.268  30.733  1.00  0.00     0.124 S 
ATOM     76  O   UNL A   1      35.529  31.242  29.497  1.00  0.00    -0.237 OA
ATOM     77  O   UNL A   1      35.908  30.297  31.751  1.00  0.00    -0.237 OA
ATOM     78  O   UNL A   1      36.622  32.599  31.246  1.00  0.00    -0.744 OA
ENDBRANCH  74  75
ENDBRANCH  46  69
BRANCH  58  79
ATOM     79  C   UNL A   1      46.546  32.878  28.358  1.00  0.00    -0.014 A 
ATOM     80  C   UNL A   1      46.453  33.751  27.260  1.00  0.00     0.010 A 
ATOM     81  C   UNL A   1      47.033  33.367  29.584  1.00  0.00     0.010 A 
ATOM     82  C   UNL A   1      46.894  35.071  27.368  1.00  0.00     0.020 A 
ATOM     83  C   UNL A   1      47.447  34.695  29.705  1.00  0.00     0.020 A 
ATOM     84  C   UNL A   1      47.397  35.533  28.589  1.00  0.00     0.054 A 
BRANCH  84  85
ATOM     85  S   UNL A   1      47.965  37.251  28.710  1.00  0.00     0.124 S 
ATOM     86  O   UNL A   1      48.950  37.319  27.633  1.00  0.00    -0.237 OA
ATOM     87  O   UNL A   1      46.739  38.013  28.489  1.00  0.00    -0.237 OA
ATOM     88  O   UNL A   1      48.513  37.339  30.062  1.00  0.00    -0.744 OA
ENDBRANCH  84  85
ENDBRANCH  58  79
ENDBRANCH  32  33
ENDBRANCH  24  27
ENDBRANCH  22  23
ENDBRANCH   1  22
TORSDOF 16
ENDMDL
MODEL 3
REMARK VINA RESULT:     -10.5      3.776      5.025
REMARK SMILES Cc1nc(C[C@H](C(=O)NCCCNC(=O)c2ccc(-c3c4nc(c(-c5ccc(S(=O)(=O)[O-])cc5)c5ccc([nH]5)c(-c5ccc(S(=O)(=O)[O-])cc5)c5nc(c(-c6ccc(S(=O)(=O)[O-])cc6)c6ccc3[nH]6)C=C5)C=C4)cc2)c2ccccc2Br)cs1
REMARK SMILES IDX 11 1 10 2 9 3 7 4 8 5 6 7 5 8 4 9 1 10 2 11 3 12 84 13 83 14
REMARK SMILES IDX 76 15 77 16 81 17 78 18 80 19 82 20 79 21 12 22 13 23 14 24
REMARK SMILES IDX 15 26 16 27 17 28 75 29 18 30 74 31 19 32 20 33 21 34 68 35
REMARK SMILES IDX 22 36 73 37 67 38 69 39 23 40 72 41 66 42 65 43 24 45 54 46
REMARK SMILES IDX 35 47 53 48 36 49 39 50 52 51 70 52 37 53 38 54 51 56 71 57
REMARK SMILES IDX 40 58 25 59 26 60 34 61 27 62 33 63 28 64 29 65 30 66 31 67
REMARK SMILES IDX 32 68 55 69 56 70 64 71 57 72 63 73 58 74 59 75 60 76 61 77
REMARK SMILES IDX 62 78 41 79 42 80 50 81 43 82 49 83 44 84 45 85 46 86 47 87
REMARK SMILES IDX 48 88
REMARK H PARENT 9 6 13 25 69 44 39 55
REMARK Flexibility Score: inf
ROOT
ATOM      1  C   UNL A   1      33.923  30.112  27.112  1.00  0.00     0.042 C 
ENDROOT
BRANCH   1   2
ATOM      2  C   UNL A   1      33.357  29.049  26.175  1.00  0.00     0.117 C 
BRANCH   2   3
ATOM      3  N   UNL A   1      33.688  29.322  24.792  1.00  0.00    -0.355 N 
ATOM      4  C   UNL A   1      33.240  28.727  23.646  1.00  0.00     0.227 C 
ATOM      5  O   UNL A   1      33.702  29.161  22.588  1.00  0.00    -0.274 OA
ATOM      6  H   UNL A   1      34.338  30.049  24.655  1.00  0.00     0.163 HD
BRANCH   4   7
ATOM      7  C   UNL A   1      32.155  27.631  23.688  1.00  0.00     0.115 C 
BRANCH   7   8
ATOM      8  C   UNL A   1      31.291  27.761  22.413  1.00  0.00     0.075 C 
BRANCH   8   9
ATOM      9  C   UNL A   1      29.981  28.493  22.482  1.00  0.00     0.053 A 
ATOM     10  C   UNL A   1      28.247  31.378  21.045  1.00  0.00     0.079 C 
ATOM     11  C   UNL A   1      28.686  30.167  21.786  1.00  0.00     0.090 A 
ATOM     12  N   UNL A   1      29.882  29.632  21.689  1.00  0.00    -0.247 NA
ATOM     13  S   UNL A   1      27.612  29.371  22.858  1.00  0.00    -0.127 S 
ATOM     14  C   UNL A   1      28.834  28.219  23.201  1.00  0.00     0.090 A 
ENDBRANCH   8   9
ENDBRANCH   7   8
BRANCH   7  15
ATOM     15  C   UNL A   1      32.721  26.239  23.982  1.00  0.00    -0.021 A 
ATOM     16  C   UNL A   1      33.650  25.711  23.050  1.00  0.00     0.006 A 
ATOM     17  C   UNL A   1      32.376  25.424  25.074  1.00  0.00     0.021 A 
ATOM     18  C   UNL A   1      34.187  24.431  23.183  1.00  0.00     0.000 A 
ATOM     19  C   UNL A   1      32.937  24.144  25.214  1.00  0.00     0.016 A 
ATOM     20  Br  UNL A   1      31.120  25.914  26.409  1.00  0.00    -0.051 Br
ATOM     21  C   UNL A   1      33.831  23.645  24.268  1.00  0.00     0.001 A 
ENDBRANCH   7  15
ENDBRANCH   4   7
ENDBRANCH   2   3
ENDBRANCH   1   2
BRANCH   1  22
ATOM     22  C   UNL A   1      35.270  29.733  27.712  1.00  0.00     0.118 C 
BRANCH  22  23
ATOM     23  N   UNL A   1      35.391  30.189  29.088  1.00  0.00    -0.352 N 
ATOM     24  C   UNL A   1      36.447  30.101  29.959  1.00  0.00     0.251 C 
ATOM     25  H   UNL A   1      34.589  30.631  29.450  1.00  0.00     0.163 HD
ATOM     26  O   UNL A   1      36.252  30.347  31.148  1.00  0.00    -0.269 OA
BRANCH  24  27
ATOM     27  C   UNL A   1      37.799  29.712  29.496  1.00  0.00     0.039 A 
ATOM     28  C   UNL A   1      38.744  29.325  30.453  1.00  0.00     0.014 A 
ATOM     29  C   UNL A   1      38.171  29.786  28.150  1.00  0.00     0.014 A 
ATOM     30  C   UNL A   1      40.041  28.990  30.059  1.00  0.00     0.010 A 
ATOM     31  C   UNL A   1      39.442  29.375  27.749  1.00  0.00     0.010 A 
ATOM     32  C   UNL A   1      40.397  28.996  28.701  1.00  0.00    -0.014 A 
BRANCH  32  33
ATOM     33  C   UNL A   1      41.774  28.630  28.276  1.00  0.00     0.031 A 
ATOM     34  C   UNL A   1      42.860  29.674  28.229  1.00  0.00     0.074 A 
ATOM     35  C   UNL A   1      42.039  27.361  27.910  1.00  0.00     0.049 A 
ATOM     36  N   UNL A   1      44.120  29.538  27.903  1.00  0.00    -0.248 NA
ATOM     37  C   UNL A   1      42.477  31.054  28.570  1.00  0.00     0.031 C 
ATOM     38  C   UNL A   1      41.062  26.271  27.863  1.00  0.00     0.029 A 
ATOM     39  N   UNL A   1      43.213  26.771  27.514  1.00  0.00    -0.354 N 
ATOM     40  C   UNL A   1      44.674  30.811  27.984  1.00  0.00     0.074 A 
ATOM     41  C   UNL A   1      43.601  31.714  28.338  1.00  0.00     0.031 C 
ATOM     42  C   UNL A   1      41.683  25.138  27.499  1.00  0.00     0.029 A 
ATOM     43  C   UNL A   1      43.093  25.425  27.258  1.00  0.00     0.049 A 
ATOM     44  H   UNL A   1      44.060  27.263  27.422  1.00  0.00     0.167 HD
ATOM     45  C   UNL A   1      45.961  31.193  27.802  1.00  0.00     0.031 A 
ATOM     46  C   UNL A   1      44.017  24.520  26.884  1.00  0.00     0.031 A 
ATOM     47  C   UNL A   1      47.028  30.289  27.463  1.00  0.00     0.049 A 
ATOM     48  C   UNL A   1      45.445  24.961  26.718  1.00  0.00     0.074 A 
ATOM     49  C   UNL A   1      48.376  30.564  27.307  1.00  0.00     0.029 A 
ATOM     50  N   UNL A   1      46.869  28.930  27.232  1.00  0.00    -0.354 N 
ATOM     51  N   UNL A   1      45.960  26.160  26.860  1.00  0.00    -0.248 NA
ATOM     52  C   UNL A   1      46.421  23.921  26.364  1.00  0.00     0.031 C 
ATOM     53  C   UNL A   1      49.025  29.380  26.940  1.00  0.00     0.029 A 
ATOM     54  C   UNL A   1      48.091  28.356  26.922  1.00  0.00     0.049 A 
ATOM     55  H   UNL A   1      46.015  28.445  27.282  1.00  0.00     0.167 HD
ATOM     56  C   UNL A   1      47.324  26.014  26.636  1.00  0.00     0.074 A 
ATOM     57  C   UNL A   1      47.554  24.607  26.371  1.00  0.00     0.031 C 
ATOM     58  C   UNL A   1      48.299  26.956  26.651  1.00  0.00     0.031 A 
BRANCH  45  59
ATOM     59  C   UNL A   1      46.282  32.656  27.967  1.00  0.00    -0.014 A 
ATOM     60  C   UNL A   1      46.367  33.511  26.851  1.00  0.00     0.010 A 
ATOM     61  C   UNL A   1      46.477  33.193  29.252  1.00  0.00     0.010 A 
ATOM     62  C   UNL A   1      46.684  34.862  27.016  1.00  0.00     0.020 A 
ATOM     63  C   UNL A   1      46.766  34.551  29.423  1.00  0.00     0.020 A 
ATOM     64  C   UNL A   1      46.887  35.373  28.301  1.00  0.00     0.054 A 
BRANCH  64  65
ATOM     65  S   UNL A   1      47.282  37.134  28.486  1.00  0.00     0.124 S 
ATOM     66  O   UNL A   1      46.020  37.765  28.103  1.00  0.00    -0.237 OA
ATOM     67  O   UNL A   1      47.632  37.238  29.900  1.00  0.00    -0.237 OA
ATOM     68  O   UNL A   1      48.390  37.341  27.556  1.00  0.00    -0.744 OA
ENDBRANCH  64  65
ENDBRANCH  45  59
BRANCH  46  69
ATOM     69  C   UNL A   1      43.625  23.099  26.679  1.00  0.00    -0.014 A 
ATOM     70  C   UNL A   1      43.941  22.437  25.480  1.00  0.00     0.010 A 
ATOM     71  C   UNL A   1      42.953  22.393  27.693  1.00  0.00     0.010 A 
ATOM     72  C   UNL A   1      43.575  21.102  25.289  1.00  0.00     0.020 A 
ATOM     73  C   UNL A   1      42.610  21.050  27.518  1.00  0.00     0.020 A 
ATOM     74  C   UNL A   1      42.913  20.415  26.311  1.00  0.00     0.054 A 
BRANCH  74  75
ATOM     75  S   UNL A   1      42.499  18.666  26.067  1.00  0.00     0.124 S 
ATOM     76  O   UNL A   1      41.090  18.737  25.693  1.00  0.00    -0.237 OA
ATOM     77  O   UNL A   1      43.418  18.268  25.002  1.00  0.00    -0.237 OA
ATOM     78  O   UNL A   1      42.773  18.066  27.370  1.00  0.00    -0.744 OA
ENDBRANCH  74  75
ENDBRANCH  46  69
BRANCH  58  79
ATOM     79  C   UNL A   1      49.707  26.485  26.402  1.00  0.00    -0.014 A 
ATOM     80  C   UNL A   1      50.513  26.003  27.449  1.00  0.00     0.010 A 
ATOM     81  C   UNL A   1      50.227  26.518  25.096  1.00  0.00     0.010 A 
ATOM     82  C   UNL A   1      51.832  25.617  27.204  1.00  0.00     0.020 A 
ATOM     83  C   UNL A   1      51.537  26.104  24.841  1.00  0.00     0.020 A 
ATOM     84  C   UNL A   1      52.339  25.678  25.902  1.00  0.00     0.054 A 
BRANCH  84  85
ATOM     85  S   UNL A   1      54.055  25.172  25.604  1.00  0.00     0.124 S 
ATOM     86  O   UNL A   1      54.510  26.190  24.660  1.00  0.00    -0.237 OA
ATOM     87  O   UNL A   1      54.648  25.241  26.936  1.00  0.00    -0.237 OA
ATOM     88  O   UNL A   1      53.927  23.824  25.053  1.00  0.00    -0.744 OA
ENDBRANCH  84  85
ENDBRANCH  58  79
ENDBRANCH  32  33
ENDBRANCH  24  27
ENDBRANCH  22  23
ENDBRANCH   1  22
TORSDOF 16
ENDMDL
