MODEL 1
REMARK VINA RESULT:      -9.8      0.000      0.000
REMARK SMILES [NH3+][C@@H](C(=O)NCCCNC(=O)c1ccc(-c2c3nc(c(-c4ccc(S(=O)(=O)[O-])cc4)c4ccc([nH]4)c(-c4ccc(S(=O)(=O)[O-])cc4)c4nc(c(-c5ccc(S(=O)(=O)[O-])cc5)c5ccc2[nH]5)C=C4)C=C3)cc1)C(C(F)(F)F)C(F)(F)F
REMARK SMILES IDX 7 1 6 2 5 3 3 4 4 5 2 7 1 8 72 12 73 13 74 14 75 15 76 16
REMARK SMILES IDX 77 17 78 18 79 19 80 20 8 21 9 22 10 23 11 25 12 26 13 27
REMARK SMILES IDX 71 28 14 29 70 30 15 31 16 32 17 33 64 34 18 35 69 36 63 37
REMARK SMILES IDX 65 38 19 39 68 40 62 41 61 42 20 44 50 45 31 46 49 47 32 48
REMARK SMILES IDX 35 49 48 50 66 51 33 52 34 53 47 55 67 56 36 57 21 58 22 59
REMARK SMILES IDX 30 60 23 61 29 62 24 63 25 64 26 65 27 66 28 67 51 68 52 69
REMARK SMILES IDX 60 70 53 71 59 72 54 73 55 74 56 75 57 76 58 77 37 78 38 79
REMARK SMILES IDX 46 80 39 81 45 82 40 83 41 84 42 85 43 86 44 87
REMARK H PARENT 5 6 1 9 1 10 1 11 9 24 65 43 35 54
REMARK Flexibility Score: inf
ROOT
ATOM      1  C   UNL A   1      33.541  34.020  28.083  1.00  0.00     0.042 C 
ENDROOT
BRANCH   1   2
ATOM      2  C   UNL A   1      34.508  35.104  28.559  1.00  0.00     0.118 C 
BRANCH   2   3
ATOM      3  N   UNL A   1      33.830  36.109  29.360  1.00  0.00    -0.351 N 
ATOM      4  C   UNL A   1      33.290  36.009  30.608  1.00  0.00     0.279 C 
ATOM      5  O   UNL A   1      32.533  36.899  30.997  1.00  0.00    -0.268 OA
ATOM      6  H   UNL A   1      33.747  36.995  28.938  1.00  0.00     0.163 HD
BRANCH   4   7
ATOM      7  C   UNL A   1      33.568  34.757  31.465  1.00  0.00     0.292 C 
BRANCH   7   8
ATOM      8  N   UNL A   1      32.574  34.753  32.557  1.00  0.00    -0.346 N 
ATOM      9  H   UNL A   1      31.738  34.252  32.254  1.00  0.00     0.345 HD
ATOM     10  H   UNL A   1      32.326  35.713  32.796  1.00  0.00     0.345 HD
ATOM     11  H   UNL A   1      32.969  34.291  33.376  1.00  0.00     0.345 HD
ENDBRANCH   7   8
BRANCH   7  12
ATOM     12  C   UNL A   1      35.007  34.766  32.009  1.00  0.00     0.267 C 
BRANCH  12  13
ATOM     13  C   UNL A   1      35.039  34.989  33.493  1.00  0.00     0.406 C 
ATOM     14  F   UNL A   1      36.299  35.068  33.973  1.00  0.00    -0.170 F 
ATOM     15  F   UNL A   1      34.405  36.132  33.843  1.00  0.00    -0.170 F 
ATOM     16  F   UNL A   1      34.410  34.007  34.176  1.00  0.00    -0.170 F 
ENDBRANCH  12  13
BRANCH  12  17
ATOM     17  C   UNL A   1      35.664  33.426  31.804  1.00  0.00     0.406 C 
ATOM     18  F   UNL A   1      36.566  33.135  32.765  1.00  0.00    -0.170 F 
ATOM     19  F   UNL A   1      34.771  32.414  31.815  1.00  0.00    -0.170 F 
ATOM     20  F   UNL A   1      36.332  33.367  30.630  1.00  0.00    -0.170 F 
ENDBRANCH  12  17
ENDBRANCH   7  12
ENDBRANCH   4   7
ENDBRANCH   2   3
ENDBRANCH   1   2
BRANCH   1  21
ATOM     21  C   UNL A   1      33.855  32.624  28.612  1.00  0.00     0.118 C 
BRANCH  21  22
ATOM     22  N   UNL A   1      33.579  31.584  27.635  1.00  0.00    -0.352 N 
ATOM     23  C   UNL A   1      34.354  30.523  27.239  1.00  0.00     0.251 C 
ATOM     24  H   UNL A   1      32.703  31.650  27.190  1.00  0.00     0.163 HD
ATOM     25  O   UNL A   1      34.005  29.864  26.258  1.00  0.00    -0.269 OA
BRANCH  23  26
ATOM     26  C   UNL A   1      35.600  30.173  27.959  1.00  0.00     0.039 A 
ATOM     27  C   UNL A   1      36.826  30.388  27.322  1.00  0.00     0.014 A 
ATOM     28  C   UNL A   1      35.571  29.584  29.227  1.00  0.00     0.014 A 
ATOM     29  C   UNL A   1      38.018  30.049  27.967  1.00  0.00     0.010 A 
ATOM     30  C   UNL A   1      36.763  29.314  29.898  1.00  0.00     0.010 A 
ATOM     31  C   UNL A   1      37.999  29.523  29.269  1.00  0.00    -0.014 A 
BRANCH  31  32
ATOM     32  C   UNL A   1      39.257  29.149  29.965  1.00  0.00     0.031 A 
ATOM     33  C   UNL A   1      39.680  29.889  31.208  1.00  0.00     0.074 A 
ATOM     34  C   UNL A   1      40.044  28.178  29.460  1.00  0.00     0.049 A 
ATOM     35  N   UNL A   1      40.763  29.743  31.929  1.00  0.00    -0.248 NA
ATOM     36  C   UNL A   1      38.780  30.949  31.690  1.00  0.00     0.031 C 
ATOM     37  C   UNL A   1      39.768  27.408  28.245  1.00  0.00     0.029 A 
ATOM     38  N   UNL A   1      41.241  27.675  29.906  1.00  0.00    -0.354 N 
ATOM     39  C   UNL A   1      40.684  30.704  32.931  1.00  0.00     0.074 A 
ATOM     40  C   UNL A   1      39.473  31.459  32.697  1.00  0.00     0.031 C 
ATOM     41  C   UNL A   1      40.753  26.515  28.058  1.00  0.00     0.029 A 
ATOM     42  C   UNL A   1      41.747  26.669  29.116  1.00  0.00     0.049 A 
ATOM     43  H   UNL A   1      41.695  28.003  30.716  1.00  0.00     0.167 HD
ATOM     44  C   UNL A   1      41.531  30.927  33.965  1.00  0.00     0.031 A 
ATOM     45  C   UNL A   1      42.882  25.952  29.229  1.00  0.00     0.031 A 
ATOM     46  C   UNL A   1      42.725  30.162  34.209  1.00  0.00     0.049 A 
ATOM     47  C   UNL A   1      43.799  26.207  30.395  1.00  0.00     0.074 A 
ATOM     48  C   UNL A   1      43.623  30.277  35.257  1.00  0.00     0.029 A 
ATOM     49  N   UNL A   1      43.186  29.135  33.400  1.00  0.00    -0.354 N 
ATOM     50  N   UNL A   1      43.680  27.086  31.361  1.00  0.00    -0.248 NA
ATOM     51  C   UNL A   1      44.993  25.357  30.496  1.00  0.00     0.031 C 
ATOM     52  C   UNL A   1      44.648  29.347  35.058  1.00  0.00     0.029 A 
ATOM     53  C   UNL A   1      44.359  28.614  33.919  1.00  0.00     0.049 A 
ATOM     54  H   UNL A   1      42.743  28.821  32.578  1.00  0.00     0.167 HD
ATOM     55  C   UNL A   1      44.765  26.869  32.205  1.00  0.00     0.074 A 
ATOM     56  C   UNL A   1      45.522  25.771  31.638  1.00  0.00     0.031 C 
ATOM     57  C   UNL A   1      45.098  27.516  33.349  1.00  0.00     0.031 A 
BRANCH  44  58
ATOM     58  C   UNL A   1      41.194  32.052  34.909  1.00  0.00    -0.014 A 
ATOM     59  C   UNL A   1      40.570  31.803  36.145  1.00  0.00     0.010 A 
ATOM     60  C   UNL A   1      41.532  33.375  34.569  1.00  0.00     0.010 A 
ATOM     61  C   UNL A   1      40.247  32.859  37.001  1.00  0.00     0.020 A 
ATOM     62  C   UNL A   1      41.237  34.431  35.436  1.00  0.00     0.020 A 
ATOM     63  C   UNL A   1      40.578  34.168  36.638  1.00  0.00     0.054 A 
BRANCH  63  64
ATOM     64  S   UNL A   1      40.158  35.518  37.774  1.00  0.00     0.124 S 
ATOM     65  O   UNL A   1      38.907  35.042  38.358  1.00  0.00    -0.237 OA
ATOM     66  O   UNL A   1      41.304  35.546  38.679  1.00  0.00    -0.237 OA
ATOM     67  O   UNL A   1      40.032  36.681  36.898  1.00  0.00    -0.744 OA
ENDBRANCH  63  64
ENDBRANCH  44  58
BRANCH  45  68
ATOM     68  C   UNL A   1      43.199  24.899  28.226  1.00  0.00    -0.014 A 
ATOM     69  C   UNL A   1      42.854  23.557  28.468  1.00  0.00     0.010 A 
ATOM     70  C   UNL A   1      43.837  25.235  27.019  1.00  0.00     0.010 A 
ATOM     71  C   UNL A   1      43.163  22.567  27.531  1.00  0.00     0.020 A 
ATOM     72  C   UNL A   1      44.122  24.252  26.067  1.00  0.00     0.020 A 
ATOM     73  C   UNL A   1      43.794  22.920  26.335  1.00  0.00     0.054 A 
BRANCH  73  74
ATOM     74  S   UNL A   1      44.140  21.627  25.111  1.00  0.00     0.124 S 
ATOM     75  O   UNL A   1      43.072  20.668  25.373  1.00  0.00    -0.237 OA
ATOM     76  O   UNL A   1      44.044  22.354  23.848  1.00  0.00    -0.237 OA
ATOM     77  O   UNL A   1      45.486  21.178  25.460  1.00  0.00    -0.744 OA
ENDBRANCH  73  74
ENDBRANCH  45  68
BRANCH  57  78
ATOM     78  C   UNL A   1      46.304  27.017  34.101  1.00  0.00    -0.014 A 
ATOM     79  C   UNL A   1      46.200  26.001  35.067  1.00  0.00     0.010 A 
ATOM     80  C   UNL A   1      47.570  27.551  33.800  1.00  0.00     0.010 A 
ATOM     81  C   UNL A   1      47.338  25.557  35.748  1.00  0.00     0.020 A 
ATOM     82  C   UNL A   1      48.713  27.091  34.458  1.00  0.00     0.020 A 
ATOM     83  C   UNL A   1      48.586  26.109  35.441  1.00  0.00     0.054 A 
BRANCH  83  84
ATOM     84  S   UNL A   1      50.052  25.497  36.317  1.00  0.00     0.124 S 
ATOM     85  O   UNL A   1      50.507  24.425  35.435  1.00  0.00    -0.237 OA
ATOM     86  O   UNL A   1      50.913  26.677  36.367  1.00  0.00    -0.237 OA
ATOM     87  O   UNL A   1      49.528  25.062  37.610  1.00  0.00    -0.744 OA
ENDBRANCH  83  84
ENDBRANCH  57  78
ENDBRANCH  31  32
ENDBRANCH  23  26
ENDBRANCH  21  22
ENDBRANCH   1  21
TORSDOF 17
ENDMDL
MODEL 2
REMARK VINA RESULT:      -9.5      2.820      3.489
REMARK SMILES [NH3+][C@@H](C(=O)NCCCNC(=O)c1ccc(-c2c3nc(c(-c4ccc(S(=O)(=O)[O-])cc4)c4ccc([nH]4)c(-c4ccc(S(=O)(=O)[O-])cc4)c4nc(c(-c5ccc(S(=O)(=O)[O-])cc5)c5ccc2[nH]5)C=C4)C=C3)cc1)C(C(F)(F)F)C(F)(F)F
REMARK SMILES IDX 7 1 6 2 5 3 3 4 4 5 2 7 1 8 72 12 73 13 74 14 75 15 76 16
REMARK SMILES IDX 77 17 78 18 79 19 80 20 8 21 9 22 10 23 11 25 12 26 13 27
REMARK SMILES IDX 71 28 14 29 70 30 15 31 16 32 17 33 64 34 18 35 69 36 63 37
REMARK SMILES IDX 65 38 19 39 68 40 62 41 61 42 20 44 50 45 31 46 49 47 32 48
REMARK SMILES IDX 35 49 48 50 66 51 33 52 34 53 47 55 67 56 36 57 21 58 22 59
REMARK SMILES IDX 30 60 23 61 29 62 24 63 25 64 26 65 27 66 28 67 51 68 52 69
REMARK SMILES IDX 60 70 53 71 59 72 54 73 55 74 56 75 57 76 58 77 37 78 38 79
REMARK SMILES IDX 46 80 39 81 45 82 40 83 41 84 42 85 43 86 44 87
REMARK H PARENT 5 6 1 9 1 10 1 11 9 24 65 43 35 54
REMARK Flexibility Score: inf
ROOT
ATOM      1  C   UNL A   1      35.350  33.402  28.250  1.00  0.00     0.042 C 
ENDROOT
BRANCH   1   2
ATOM      2  C   UNL A   1      36.662  33.837  28.901  1.00  0.00     0.118 C 
BRANCH   2   3
ATOM      3  N   UNL A   1      37.083  32.902  29.930  1.00  0.00    -0.351 N 
ATOM      4  C   UNL A   1      37.109  33.051  31.285  1.00  0.00     0.279 C 
ATOM      5  O   UNL A   1      37.745  32.238  31.957  1.00  0.00    -0.268 OA
ATOM      6  H   UNL A   1      37.398  32.028  29.599  1.00  0.00     0.163 HD
BRANCH   4   7
ATOM      7  C   UNL A   1      36.418  34.267  31.934  1.00  0.00     0.292 C 
BRANCH   7   8
ATOM      8  N   UNL A   1      37.118  34.531  33.208  1.00  0.00    -0.346 N 
ATOM      9  H   UNL A   1      36.632  35.270  33.716  1.00  0.00     0.345 HD
ATOM     10  H   UNL A   1      38.076  34.824  33.015  1.00  0.00     0.345 HD
ATOM     11  H   UNL A   1      37.131  33.681  33.772  1.00  0.00     0.345 HD
ENDBRANCH   7   8
BRANCH   7  12
ATOM     12  C   UNL A   1      34.919  34.001  32.156  1.00  0.00     0.267 C 
BRANCH  12  13
ATOM     13  C   UNL A   1      34.644  33.487  33.540  1.00  0.00     0.406 C 
ATOM     14  F   UNL A   1      34.778  34.446  34.480  1.00  0.00    -0.170 F 
ATOM     15  F   UNL A   1      33.391  32.988  33.650  1.00  0.00    -0.170 F 
ATOM     16  F   UNL A   1      35.466  32.470  33.884  1.00  0.00    -0.170 F 
ENDBRANCH  12  13
BRANCH  12  17
ATOM     17  C   UNL A   1      34.128  35.278  32.052  1.00  0.00     0.406 C 
ATOM     18  F   UNL A   1      34.783  36.341  32.564  1.00  0.00    -0.170 F 
ATOM     19  F   UNL A   1      33.846  35.599  30.771  1.00  0.00    -0.170 F 
ATOM     20  F   UNL A   1      32.955  35.200  32.720  1.00  0.00    -0.170 F 
ENDBRANCH  12  17
ENDBRANCH   7  12
ENDBRANCH   4   7
ENDBRANCH   2   3
ENDBRANCH   1   2
BRANCH   1  21
ATOM     21  C   UNL A   1      34.501  32.472  29.113  1.00  0.00     0.118 C 
BRANCH  21  22
ATOM     22  N   UNL A   1      33.923  31.378  28.349  1.00  0.00    -0.352 N 
ATOM     23  C   UNL A   1      34.521  30.259  27.827  1.00  0.00     0.251 C 
ATOM     24  H   UNL A   1      32.955  31.452  28.181  1.00  0.00     0.163 HD
ATOM     25  O   UNL A   1      33.879  29.549  27.052  1.00  0.00    -0.269 OA
BRANCH  23  26
ATOM     26  C   UNL A   1      35.918  29.906  28.170  1.00  0.00     0.039 A 
ATOM     27  C   UNL A   1      36.906  30.055  27.192  1.00  0.00     0.014 A 
ATOM     28  C   UNL A   1      36.253  29.378  29.420  1.00  0.00     0.014 A 
ATOM     29  C   UNL A   1      38.229  29.710  27.478  1.00  0.00     0.010 A 
ATOM     30  C   UNL A   1      37.585  29.104  29.728  1.00  0.00     0.010 A 
ATOM     31  C   UNL A   1      38.586  29.247  28.755  1.00  0.00    -0.014 A 
BRANCH  31  32
ATOM     32  C   UNL A   1      39.986  28.868  29.072  1.00  0.00     0.031 A 
ATOM     33  C   UNL A   1      40.905  29.863  29.735  1.00  0.00     0.074 A 
ATOM     34  C   UNL A   1      40.451  27.651  28.727  1.00  0.00     0.049 A 
ATOM     35  N   UNL A   1      42.169  29.738  30.050  1.00  0.00    -0.248 NA
ATOM     36  C   UNL A   1      40.333  31.179  30.066  1.00  0.00     0.031 C 
ATOM     37  C   UNL A   1      39.677  26.608  28.049  1.00  0.00     0.029 A 
ATOM     38  N   UNL A   1      41.691  27.085  28.895  1.00  0.00    -0.354 N 
ATOM     39  C   UNL A   1      42.548  30.962  30.591  1.00  0.00     0.074 A 
ATOM     40  C   UNL A   1      41.394  31.830  30.518  1.00  0.00     0.031 C 
ATOM     41  C   UNL A   1      40.451  25.523  27.884  1.00  0.00     0.029 A 
ATOM     42  C   UNL A   1      41.784  25.803  28.410  1.00  0.00     0.049 A 
ATOM     43  H   UNL A   1      42.443  27.555  29.323  1.00  0.00     0.167 HD
ATOM     44  C   UNL A   1      43.741  31.326  31.120  1.00  0.00     0.031 A 
ATOM     45  C   UNL A   1      42.824  24.946  28.390  1.00  0.00     0.031 A 
ATOM     46  C   UNL A   1      44.883  30.455  31.211  1.00  0.00     0.049 A 
ATOM     47  C   UNL A   1      44.135  25.367  28.997  1.00  0.00     0.074 A 
ATOM     48  C   UNL A   1      46.121  30.713  31.774  1.00  0.00     0.029 A 
ATOM     49  N   UNL A   1      44.926  29.155  30.732  1.00  0.00    -0.354 N 
ATOM     50  N   UNL A   1      44.457  26.511  29.551  1.00  0.00    -0.248 NA
ATOM     51  C   UNL A   1      45.216  24.372  28.995  1.00  0.00     0.031 C 
ATOM     52  C   UNL A   1      46.925  29.583  31.599  1.00  0.00     0.029 A 
ATOM     53  C   UNL A   1      46.171  28.601  30.978  1.00  0.00     0.049 A 
ATOM     54  H   UNL A   1      44.180  28.692  30.284  1.00  0.00     0.167 HD
ATOM     55  C   UNL A   1      45.766  26.360  29.997  1.00  0.00     0.074 A 
ATOM     56  C   UNL A   1      46.170  25.012  29.655  1.00  0.00     0.031 C 
ATOM     57  C   UNL A   1      46.557  27.255  30.639  1.00  0.00     0.031 A 
BRANCH  44  58
ATOM     58  C   UNL A   1      43.871  32.735  31.638  1.00  0.00    -0.014 A 
ATOM     59  C   UNL A   1      43.499  33.064  32.954  1.00  0.00     0.010 A 
ATOM     60  C   UNL A   1      44.399  33.740  30.806  1.00  0.00     0.010 A 
ATOM     61  C   UNL A   1      43.607  34.379  33.413  1.00  0.00     0.020 A 
ATOM     62  C   UNL A   1      44.537  35.051  31.272  1.00  0.00     0.020 A 
ATOM     63  C   UNL A   1      44.121  35.366  32.567  1.00  0.00     0.054 A 
BRANCH  63  64
ATOM     64  S   UNL A   1      44.262  37.062  33.193  1.00  0.00     0.124 S 
ATOM     65  O   UNL A   1      43.876  37.847  32.024  1.00  0.00    -0.237 OA
ATOM     66  O   UNL A   1      43.310  37.076  34.302  1.00  0.00    -0.237 OA
ATOM     67  O   UNL A   1      45.666  37.174  33.581  1.00  0.00    -0.744 OA
ENDBRANCH  63  64
ENDBRANCH  44  58
BRANCH  45  68
ATOM     68  C   UNL A   1      42.658  23.589  27.801  1.00  0.00    -0.014 A 
ATOM     69  C   UNL A   1      43.040  23.337  26.471  1.00  0.00     0.010 A 
ATOM     70  C   UNL A   1      42.127  22.539  28.571  1.00  0.00     0.010 A 
ATOM     71  C   UNL A   1      42.873  22.066  25.915  1.00  0.00     0.020 A 
ATOM     72  C   UNL A   1      41.984  21.260  28.026  1.00  0.00     0.020 A 
ATOM     73  C   UNL A   1      42.347  21.034  26.696  1.00  0.00     0.054 A 
BRANCH  73  74
ATOM     74  S   UNL A   1      42.186  19.380  25.970  1.00  0.00     0.124 S 
ATOM     75  O   UNL A   1      40.747  19.286  25.746  1.00  0.00    -0.237 OA
ATOM     76  O   UNL A   1      43.010  19.480  24.768  1.00  0.00    -0.237 OA
ATOM     77  O   UNL A   1      42.718  18.498  27.007  1.00  0.00    -0.744 OA
ENDBRANCH  73  74
ENDBRANCH  45  68
BRANCH  57  78
ATOM     78  C   UNL A   1      47.924  26.789  31.068  1.00  0.00    -0.014 A 
ATOM     79  C   UNL A   1      49.058  26.994  30.262  1.00  0.00     0.010 A 
ATOM     80  C   UNL A   1      48.077  26.171  32.323  1.00  0.00     0.010 A 
ATOM     81  C   UNL A   1      50.314  26.552  30.687  1.00  0.00     0.020 A 
ATOM     82  C   UNL A   1      49.335  25.753  32.764  1.00  0.00     0.020 A 
ATOM     83  C   UNL A   1      50.443  25.931  31.934  1.00  0.00     0.054 A 
BRANCH  83  84
ATOM     84  S   UNL A   1      52.087  25.392  32.478  1.00  0.00     0.124 S 
ATOM     85  O   UNL A   1      51.841  24.002  32.856  1.00  0.00    -0.237 OA
ATOM     86  O   UNL A   1      52.901  25.582  31.280  1.00  0.00    -0.237 OA
ATOM     87  O   UNL A   1      52.399  26.294  33.584  1.00  0.00    -0.744 OA
ENDBRANCH  83  84
ENDBRANCH  57  78
ENDBRANCH  31  32
ENDBRANCH  23  26
ENDBRANCH  21  22
ENDBRANCH   1  21
TORSDOF 17
ENDMDL
MODEL 3
REMARK VINA RESULT:      -9.4      5.039      6.883
REMARK SMILES [NH3+][C@@H](C(=O)NCCCNC(=O)c1ccc(-c2c3nc(c(-c4ccc(S(=O)(=O)[O-])cc4)c4ccc([nH]4)c(-c4ccc(S(=O)(=O)[O-])cc4)c4nc(c(-c5ccc(S(=O)(=O)[O-])cc5)c5ccc2[nH]5)C=C4)C=C3)cc1)C(C(F)(F)F)C(F)(F)F
REMARK SMILES IDX 7 1 6 2 5 3 3 4 4 5 2 7 1 8 72 12 73 13 74 14 75 15 76 16
REMARK SMILES IDX 77 17 78 18 79 19 80 20 8 21 9 22 10 23 11 25 12 26 13 27
REMARK SMILES IDX 71 28 14 29 70 30 15 31 16 32 17 33 64 34 18 35 69 36 63 37
REMARK SMILES IDX 65 38 19 39 68 40 62 41 61 42 20 44 50 45 31 46 49 47 32 48
REMARK SMILES IDX 35 49 48 50 66 51 33 52 34 53 47 55 67 56 36 57 21 58 22 59
REMARK SMILES IDX 30 60 23 61 29 62 24 63 25 64 26 65 27 66 28 67 51 68 52 69
REMARK SMILES IDX 60 70 53 71 59 72 54 73 55 74 56 75 57 76 58 77 37 78 38 79
REMARK SMILES IDX 46 80 39 81 45 82 40 83 41 84 42 85 43 86 44 87
REMARK H PARENT 5 6 1 9 1 10 1 11 9 24 65 43 35 54
REMARK Flexibility Score: inf
ROOT
ATOM      1  C   UNL A   1      32.868  27.848  25.772  1.00  0.00     0.042 C 
ENDROOT
BRANCH   1   2
ATOM      2  C   UNL A   1      32.892  26.359  25.428  1.00  0.00     0.118 C 
BRANCH   2   3
ATOM      3  N   UNL A   1      32.273  25.561  26.472  1.00  0.00    -0.351 N 
ATOM      4  C   UNL A   1      31.861  24.261  26.447  1.00  0.00     0.279 C 
ATOM      5  O   UNL A   1      31.125  23.857  27.347  1.00  0.00    -0.268 OA
ATOM      6  H   UNL A   1      32.127  26.029  27.327  1.00  0.00     0.163 HD
BRANCH   4   7
ATOM      7  C   UNL A   1      32.253  23.357  25.260  1.00  0.00     0.292 C 
BRANCH   7   8
ATOM      8  N   UNL A   1      31.002  22.984  24.571  1.00  0.00    -0.346 N 
ATOM      9  H   UNL A   1      30.992  23.395  23.637  1.00  0.00     0.345 HD
ATOM     10  H   UNL A   1      30.203  23.331  25.103  1.00  0.00     0.345 HD
ATOM     11  H   UNL A   1      30.943  21.968  24.497  1.00  0.00     0.345 HD
ENDBRANCH   7   8
BRANCH   7  12
ATOM     12  C   UNL A   1      33.027  22.118  25.740  1.00  0.00     0.267 C 
BRANCH  12  13
ATOM     13  C   UNL A   1      33.280  21.151  24.618  1.00  0.00     0.406 C 
ATOM     14  F   UNL A   1      32.244  20.306  24.426  1.00  0.00    -0.170 F 
ATOM     15  F   UNL A   1      33.500  21.790  23.446  1.00  0.00    -0.170 F 
ATOM     16  F   UNL A   1      34.381  20.396  24.827  1.00  0.00    -0.170 F 
ENDBRANCH  12  13
BRANCH  12  17
ATOM     17  C   UNL A   1      34.397  22.501  26.237  1.00  0.00     0.406 C 
ATOM     18  F   UNL A   1      34.352  23.305  27.319  1.00  0.00    -0.170 F 
ATOM     19  F   UNL A   1      35.123  21.424  26.607  1.00  0.00    -0.170 F 
ATOM     20  F   UNL A   1      35.105  23.168  25.299  1.00  0.00    -0.170 F 
ENDBRANCH  12  17
ENDBRANCH   7  12
ENDBRANCH   4   7
ENDBRANCH   2   3
ENDBRANCH   1   2
BRANCH   1  21
ATOM     21  C   UNL A   1      33.796  28.241  26.919  1.00  0.00     0.118 C 
BRANCH  21  22
ATOM     22  N   UNL A   1      33.640  29.634  27.307  1.00  0.00    -0.352 N 
ATOM     23  C   UNL A   1      34.505  30.460  27.978  1.00  0.00     0.251 C 
ATOM     24  H   UNL A   1      32.784  30.046  27.049  1.00  0.00     0.163 HD
ATOM     25  O   UNL A   1      34.099  31.555  28.369  1.00  0.00    -0.269 OA
BRANCH  23  26
ATOM     26  C   UNL A   1      35.903  30.051  28.248  1.00  0.00     0.039 A 
ATOM     27  C   UNL A   1      36.232  29.594  29.528  1.00  0.00     0.014 A 
ATOM     28  C   UNL A   1      36.899  30.164  27.275  1.00  0.00     0.014 A 
ATOM     29  C   UNL A   1      37.546  29.221  29.820  1.00  0.00     0.010 A 
ATOM     30  C   UNL A   1      38.194  29.722  27.546  1.00  0.00     0.010 A 
ATOM     31  C   UNL A   1      38.537  29.265  28.827  1.00  0.00    -0.014 A 
BRANCH  31  32
ATOM     32  C   UNL A   1      39.941  28.879  29.123  1.00  0.00     0.031 A 
ATOM     33  C   UNL A   1      40.875  29.872  29.769  1.00  0.00     0.074 A 
ATOM     34  C   UNL A   1      40.394  27.659  28.774  1.00  0.00     0.049 A 
ATOM     35  N   UNL A   1      42.144  29.740  30.064  1.00  0.00    -0.248 NA
ATOM     36  C   UNL A   1      40.316  31.191  30.106  1.00  0.00     0.031 C 
ATOM     37  C   UNL A   1      39.603  26.619  28.111  1.00  0.00     0.029 A 
ATOM     38  N   UNL A   1      41.633  27.088  28.924  1.00  0.00    -0.354 N 
ATOM     39  C   UNL A   1      42.538  30.963  30.597  1.00  0.00     0.074 A 
ATOM     40  C   UNL A   1      41.387  31.838  30.539  1.00  0.00     0.031 C 
ATOM     41  C   UNL A   1      40.369  25.529  27.936  1.00  0.00     0.029 A 
ATOM     42  C   UNL A   1      41.712  25.803  28.440  1.00  0.00     0.049 A 
ATOM     43  H   UNL A   1      42.394  27.554  29.339  1.00  0.00     0.167 HD
ATOM     44  C   UNL A   1      43.741  31.323  31.105  1.00  0.00     0.031 A 
ATOM     45  C   UNL A   1      42.747  24.941  28.406  1.00  0.00     0.031 A 
ATOM     46  C   UNL A   1      44.879  30.445  31.181  1.00  0.00     0.049 A 
ATOM     47  C   UNL A   1      44.069  25.357  28.991  1.00  0.00     0.074 A 
ATOM     48  C   UNL A   1      46.127  30.699  31.723  1.00  0.00     0.029 A 
ATOM     49  N   UNL A   1      44.908  29.144  30.704  1.00  0.00    -0.354 N 
ATOM     50  N   UNL A   1      44.406  26.500  29.538  1.00  0.00    -0.248 NA
ATOM     51  C   UNL A   1      45.145  24.356  28.975  1.00  0.00     0.031 C 
ATOM     52  C   UNL A   1      46.922  29.563  31.539  1.00  0.00     0.029 A 
ATOM     53  C   UNL A   1      46.153  28.584  30.932  1.00  0.00     0.049 A 
ATOM     54  H   UNL A   1      44.153  28.685  30.269  1.00  0.00     0.167 HD
ATOM     55  C   UNL A   1      45.721  26.343  29.964  1.00  0.00     0.074 A 
ATOM     56  C   UNL A   1      46.113  24.992  29.619  1.00  0.00     0.031 C 
ATOM     57  C   UNL A   1      46.527  27.235  30.591  1.00  0.00     0.031 A 
BRANCH  44  58
ATOM     58  C   UNL A   1      43.886  32.732  31.618  1.00  0.00    -0.014 A 
ATOM     59  C   UNL A   1      44.243  33.786  30.757  1.00  0.00     0.010 A 
ATOM     60  C   UNL A   1      43.632  33.013  32.973  1.00  0.00     0.010 A 
ATOM     61  C   UNL A   1      44.393  35.085  31.253  1.00  0.00     0.020 A 
ATOM     62  C   UNL A   1      43.751  34.316  33.466  1.00  0.00     0.020 A 
ATOM     63  C   UNL A   1      44.150  35.340  32.605  1.00  0.00     0.054 A 
BRANCH  63  64
ATOM     64  S   UNL A   1      44.340  37.037  33.218  1.00  0.00     0.124 S 
ATOM     65  O   UNL A   1      44.725  37.753  32.005  1.00  0.00    -0.237 OA
ATOM     66  O   UNL A   1      43.007  37.343  33.733  1.00  0.00    -0.237 OA
ATOM     67  O   UNL A   1      45.385  36.925  34.232  1.00  0.00    -0.744 OA
ENDBRANCH  63  64
ENDBRANCH  44  58
BRANCH  45  68
ATOM     68  C   UNL A   1      42.564  23.584  27.823  1.00  0.00    -0.014 A 
ATOM     69  C   UNL A   1      42.986  23.309  26.510  1.00  0.00     0.010 A 
ATOM     70  C   UNL A   1      41.978  22.555  28.583  1.00  0.00     0.010 A 
ATOM     71  C   UNL A   1      42.803  22.037  25.959  1.00  0.00     0.020 A 
ATOM     72  C   UNL A   1      41.820  21.275  28.045  1.00  0.00     0.020 A 
ATOM     73  C   UNL A   1      42.222  21.027  26.730  1.00  0.00     0.054 A 
BRANCH  73  74
ATOM     74  S   UNL A   1      42.041  19.371  26.013  1.00  0.00     0.124 S 
ATOM     75  O   UNL A   1      40.602  19.295  25.785  1.00  0.00    -0.237 OA
ATOM     76  O   UNL A   1      42.870  19.454  24.813  1.00  0.00    -0.237 OA
ATOM     77  O   UNL A   1      42.559  18.489  27.056  1.00  0.00    -0.744 OA
ENDBRANCH  73  74
ENDBRANCH  45  68
BRANCH  57  78
ATOM     78  C   UNL A   1      47.898  26.763  30.999  1.00  0.00    -0.014 A 
ATOM     79  C   UNL A   1      48.996  26.847  30.125  1.00  0.00     0.010 A 
ATOM     80  C   UNL A   1      48.094  26.265  32.301  1.00  0.00     0.010 A 
ATOM     81  C   UNL A   1      50.257  26.403  30.533  1.00  0.00     0.020 A 
ATOM     82  C   UNL A   1      49.357  25.846  32.721  1.00  0.00     0.020 A 
ATOM     83  C   UNL A   1      50.428  25.901  31.827  1.00  0.00     0.054 A 
BRANCH  83  84
ATOM     84  S   UNL A   1      52.079  25.357  32.344  1.00  0.00     0.124 S 
ATOM     85  O   UNL A   1      52.928  25.932  31.303  1.00  0.00    -0.237 OA
ATOM     86  O   UNL A   1      52.216  25.957  33.669  1.00  0.00    -0.237 OA
ATOM     87  O   UNL A   1      51.982  23.899  32.336  1.00  0.00    -0.744 OA
ENDBRANCH  83  84
ENDBRANCH  57  78
ENDBRANCH  31  32
ENDBRANCH  23  26
ENDBRANCH  21  22
ENDBRANCH   1  21
TORSDOF 17
ENDMDL
