MODEL 1
REMARK VINA RESULT:      -9.5      0.000      0.000
REMARK SMILES COCC[NH2+][C@]1(C(=O)NCCCNC(=O)c2ccc(-c3c4nc(c(-c5ccc(S(=O)(=O)[O-])cc5)c5ccc([nH]5)c(-c5ccc(S(=O)(=O)[O-])cc5)c5nc(c(-c6ccc(S(=O)(=O)[O-])cc6)c6ccc3[nH]6)C=C5)C=C4)cc2)CCCS[C@H]1C
REMARK SMILES IDX 10 1 9 2 7 3 8 4 6 6 76 7 80 8 77 9 79 10 81 11 78 12 5 13
REMARK SMILES IDX 4 16 3 17 2 18 1 19 11 20 12 21 13 22 14 23 15 25 16 26
REMARK SMILES IDX 17 27 75 28 18 29 74 30 19 31 20 32 21 33 68 34 22 35 73 36
REMARK SMILES IDX 67 37 69 38 23 39 72 40 66 41 65 42 24 44 54 45 35 46 53 47
REMARK SMILES IDX 36 48 39 49 52 50 70 51 37 52 38 53 51 55 71 56 40 57 25 58
REMARK SMILES IDX 26 59 34 60 27 61 33 62 28 63 29 64 30 65 31 66 32 67 55 68
REMARK SMILES IDX 56 69 64 70 57 71 63 72 58 73 59 74 60 75 61 76 62 77 41 78
REMARK SMILES IDX 42 79 50 80 43 81 49 82 44 83 45 84 46 85 47 86 48 87
REMARK H PARENT 9 5 5 14 5 15 13 24 69 43 39 54
REMARK Flexibility Score: inf
ROOT
ATOM      1  C   UNL A   1      33.941  26.629  25.535  1.00  0.00     0.118 C 
ENDROOT
BRANCH   1   2
ATOM      2  N   UNL A   1      33.201  25.540  26.147  1.00  0.00    -0.351 N 
ATOM      3  C   UNL A   1      33.061  24.210  25.897  1.00  0.00     0.282 C 
ATOM      4  O   UNL A   1      32.361  23.625  26.736  1.00  0.00    -0.268 OA
ATOM      5  H   UNL A   1      32.676  25.833  26.928  1.00  0.00     0.163 HD
BRANCH   3   6
ATOM      6  C   UNL A   1      33.543  23.452  24.590  1.00  0.00     0.187 C 
ATOM      7  C   UNL A   1      34.913  23.881  24.019  1.00  0.00     0.081 C 
ATOM      8  C   UNL A   1      33.679  21.891  24.851  1.00  0.00     0.115 C 
ATOM      9  C   UNL A   1      36.047  23.760  25.048  1.00  0.00     0.018 C 
ATOM     10  S   UNL A   1      34.919  21.471  26.141  1.00  0.00    -0.152 SA
ATOM     11  C   UNL A   1      32.390  21.094  25.113  1.00  0.00     0.027 C 
ATOM     12  C   UNL A   1      36.353  22.316  25.428  1.00  0.00     0.070 C 
BRANCH   6  13
ATOM     13  N   UNL A   1      32.410  23.517  23.639  1.00  0.00    -0.331 N 
ATOM     14  H   UNL A   1      32.623  22.844  22.902  1.00  0.00     0.347 HD
ATOM     15  H   UNL A   1      31.614  23.359  24.258  1.00  0.00     0.347 HD
BRANCH  13  16
ATOM     16  C   UNL A   1      32.016  24.735  22.965  1.00  0.00     0.290 C 
BRANCH  16  17
ATOM     17  C   UNL A   1      30.574  25.076  23.419  1.00  0.00     0.221 C 
BRANCH  17  18
ATOM     18  O   UNL A   1      30.525  26.106  24.413  1.00  0.00    -0.379 OA
ATOM     19  C   UNL A   1      30.216  27.408  23.924  1.00  0.00     0.195 C 
ENDBRANCH  17  18
ENDBRANCH  16  17
ENDBRANCH  13  16
ENDBRANCH   6  13
ENDBRANCH   3   6
ENDBRANCH   1   2
BRANCH   1  20
ATOM     20  C   UNL A   1      33.366  28.009  25.829  1.00  0.00     0.042 C 
BRANCH  20  21
ATOM     21  C   UNL A   1      33.278  28.396  27.299  1.00  0.00     0.118 C 
BRANCH  21  22
ATOM     22  N   UNL A   1      33.289  29.834  27.528  1.00  0.00    -0.352 N 
ATOM     23  C   UNL A   1      34.283  30.656  28.013  1.00  0.00     0.251 C 
ATOM     24  H   UNL A   1      32.449  30.294  27.298  1.00  0.00     0.163 HD
ATOM     25  O   UNL A   1      34.026  31.835  28.233  1.00  0.00    -0.269 OA
BRANCH  23  26
ATOM     26  C   UNL A   1      35.640  30.130  28.308  1.00  0.00     0.039 A 
ATOM     27  C   UNL A   1      36.593  30.116  27.283  1.00  0.00     0.014 A 
ATOM     28  C   UNL A   1      35.983  29.639  29.569  1.00  0.00     0.014 A 
ATOM     29  C   UNL A   1      37.900  29.693  27.546  1.00  0.00     0.010 A 
ATOM     30  C   UNL A   1      37.307  29.305  29.854  1.00  0.00     0.010 A 
ATOM     31  C   UNL A   1      38.283  29.328  28.847  1.00  0.00    -0.014 A 
BRANCH  31  32
ATOM     32  C   UNL A   1      39.694  28.982  29.174  1.00  0.00     0.031 A 
ATOM     33  C   UNL A   1      40.606  30.004  29.802  1.00  0.00     0.074 A 
ATOM     34  C   UNL A   1      40.179  27.767  28.845  1.00  0.00     0.049 A 
ATOM     35  N   UNL A   1      41.878  29.906  30.096  1.00  0.00    -0.248 NA
ATOM     36  C   UNL A   1      40.019  31.317  30.120  1.00  0.00     0.031 C 
ATOM     37  C   UNL A   1      39.416  26.697  28.198  1.00  0.00     0.029 A 
ATOM     38  N   UNL A   1      41.433  27.227  29.001  1.00  0.00    -0.354 N 
ATOM     39  C   UNL A   1      42.247  31.142  30.614  1.00  0.00     0.074 A 
ATOM     40  C   UNL A   1      41.077  31.991  30.547  1.00  0.00     0.031 C 
ATOM     41  C   UNL A   1      40.207  25.624  28.040  1.00  0.00     0.029 A 
ATOM     42  C   UNL A   1      41.546  25.940  28.526  1.00  0.00     0.049 A 
ATOM     43  H   UNL A   1      42.181  27.716  29.414  1.00  0.00     0.167 HD
ATOM     44  C   UNL A   1      43.442  31.533  31.117  1.00  0.00     0.031 A 
ATOM     45  C   UNL A   1      42.607  25.110  28.476  1.00  0.00     0.031 A 
ATOM     46  C   UNL A   1      44.604  30.686  31.191  1.00  0.00     0.049 A 
ATOM     47  C   UNL A   1      43.931  25.575  29.020  1.00  0.00     0.074 A 
ATOM     48  C   UNL A   1      45.844  30.974  31.733  1.00  0.00     0.029 A 
ATOM     49  N   UNL A   1      44.674  29.390  30.701  1.00  0.00    -0.354 N 
ATOM     50  N   UNL A   1      44.238  26.726  29.568  1.00  0.00    -0.248 NA
ATOM     51  C   UNL A   1      45.048  24.623  28.949  1.00  0.00     0.031 C 
ATOM     52  C   UNL A   1      46.682  29.875  31.518  1.00  0.00     0.029 A 
ATOM     53  C   UNL A   1      45.944  28.876  30.904  1.00  0.00     0.049 A 
ATOM     54  H   UNL A   1      43.931  28.907  30.274  1.00  0.00     0.167 HD
ATOM     55  C   UNL A   1      45.576  26.626  29.934  1.00  0.00     0.074 A 
ATOM     56  C   UNL A   1      46.014  25.296  29.560  1.00  0.00     0.031 C 
ATOM     57  C   UNL A   1      46.370  27.551  30.528  1.00  0.00     0.031 A 
BRANCH  44  58
ATOM     58  C   UNL A   1      43.559  32.948  31.626  1.00  0.00    -0.014 A 
ATOM     59  C   UNL A   1      43.315  33.260  32.977  1.00  0.00     0.010 A 
ATOM     60  C   UNL A   1      43.964  33.975  30.753  1.00  0.00     0.010 A 
ATOM     61  C   UNL A   1      43.432  34.575  33.433  1.00  0.00     0.020 A 
ATOM     62  C   UNL A   1      44.112  35.286  31.213  1.00  0.00     0.020 A 
ATOM     63  C   UNL A   1      43.828  35.581  32.547  1.00  0.00     0.054 A 
BRANCH  63  64
ATOM     64  S   UNL A   1      43.995  37.274  33.175  1.00  0.00     0.124 S 
ATOM     65  O   UNL A   1      42.825  37.389  34.044  1.00  0.00    -0.237 OA
ATOM     66  O   UNL A   1      45.283  37.236  33.862  1.00  0.00    -0.237 OA
ATOM     67  O   UNL A   1      43.957  38.099  31.970  1.00  0.00    -0.744 OA
ENDBRANCH  63  64
ENDBRANCH  44  58
BRANCH  45  68
ATOM     68  C   UNL A   1      42.459  23.748  27.891  1.00  0.00    -0.014 A 
ATOM     69  C   UNL A   1      42.140  22.649  28.709  1.00  0.00     0.010 A 
ATOM     70  C   UNL A   1      42.630  23.542  26.510  1.00  0.00     0.010 A 
ATOM     71  C   UNL A   1      42.015  21.369  28.160  1.00  0.00     0.020 A 
ATOM     72  C   UNL A   1      42.475  22.270  25.952  1.00  0.00     0.020 A 
ATOM     73  C   UNL A   1      42.180  21.189  26.785  1.00  0.00     0.054 A 
BRANCH  73  74
ATOM     74  S   UNL A   1      41.963  19.527  26.088  1.00  0.00     0.124 S 
ATOM     75  O   UNL A   1      42.820  19.576  24.908  1.00  0.00    -0.237 OA
ATOM     76  O   UNL A   1      42.428  18.668  27.174  1.00  0.00    -0.237 OA
ATOM     77  O   UNL A   1      40.528  19.453  25.817  1.00  0.00    -0.744 OA
ENDBRANCH  73  74
ENDBRANCH  45  68
BRANCH  57  78
ATOM     78  C   UNL A   1      47.787  27.150  30.850  1.00  0.00    -0.014 A 
ATOM     79  C   UNL A   1      48.134  26.631  32.109  1.00  0.00     0.010 A 
ATOM     80  C   UNL A   1      48.775  27.245  29.853  1.00  0.00     0.010 A 
ATOM     81  C   UNL A   1      49.450  26.244  32.376  1.00  0.00     0.020 A 
ATOM     82  C   UNL A   1      50.085  26.829  30.105  1.00  0.00     0.020 A 
ATOM     83  C   UNL A   1      50.418  26.344  31.371  1.00  0.00     0.054 A 
BRANCH  83  84
ATOM     84  S   UNL A   1      52.108  25.795  31.729  1.00  0.00     0.124 S 
ATOM     85  O   UNL A   1      51.933  24.354  31.890  1.00  0.00    -0.237 OA
ATOM     86  O   UNL A   1      52.839  26.209  30.533  1.00  0.00    -0.237 OA
ATOM     87  O   UNL A   1      52.459  26.519  32.948  1.00  0.00    -0.744 OA
ENDBRANCH  83  84
ENDBRANCH  57  78
ENDBRANCH  31  32
ENDBRANCH  23  26
ENDBRANCH  21  22
ENDBRANCH  20  21
ENDBRANCH   1  20
TORSDOF 17
ENDMDL
MODEL 2
REMARK VINA RESULT:      -9.2      1.248      2.126
REMARK SMILES COCC[NH2+][C@]1(C(=O)NCCCNC(=O)c2ccc(-c3c4nc(c(-c5ccc(S(=O)(=O)[O-])cc5)c5ccc([nH]5)c(-c5ccc(S(=O)(=O)[O-])cc5)c5nc(c(-c6ccc(S(=O)(=O)[O-])cc6)c6ccc3[nH]6)C=C5)C=C4)cc2)CCCS[C@H]1C
REMARK SMILES IDX 10 1 9 2 7 3 8 4 6 6 76 7 80 8 77 9 79 10 81 11 78 12 5 13
REMARK SMILES IDX 4 16 3 17 2 18 1 19 11 20 12 21 13 22 14 23 15 25 16 26
REMARK SMILES IDX 17 27 75 28 18 29 74 30 19 31 20 32 21 33 68 34 22 35 73 36
REMARK SMILES IDX 67 37 69 38 23 39 72 40 66 41 65 42 24 44 54 45 35 46 53 47
REMARK SMILES IDX 36 48 39 49 52 50 70 51 37 52 38 53 51 55 71 56 40 57 25 58
REMARK SMILES IDX 26 59 34 60 27 61 33 62 28 63 29 64 30 65 31 66 32 67 55 68
REMARK SMILES IDX 56 69 64 70 57 71 63 72 58 73 59 74 60 75 61 76 62 77 41 78
REMARK SMILES IDX 42 79 50 80 43 81 49 82 44 83 45 84 46 85 47 86 48 87
REMARK H PARENT 9 5 5 14 5 15 13 24 69 43 39 54
REMARK Flexibility Score: inf
ROOT
ATOM      1  C   UNL A   1      31.788  26.605  26.607  1.00  0.00     0.118 C 
ENDROOT
BRANCH   1   2
ATOM      2  N   UNL A   1      32.994  26.097  25.978  1.00  0.00    -0.351 N 
ATOM      3  C   UNL A   1      33.259  25.313  24.899  1.00  0.00     0.282 C 
ATOM      4  O   UNL A   1      34.471  25.178  24.676  1.00  0.00    -0.268 OA
ATOM      5  H   UNL A   1      33.812  26.387  26.442  1.00  0.00     0.163 HD
BRANCH   3   6
ATOM      6  C   UNL A   1      32.198  24.464  24.080  1.00  0.00     0.187 C 
ATOM      7  C   UNL A   1      30.793  25.089  23.932  1.00  0.00     0.081 C 
ATOM      8  C   UNL A   1      32.692  24.213  22.591  1.00  0.00     0.115 C 
ATOM      9  C   UNL A   1      30.830  26.487  23.298  1.00  0.00     0.018 C 
ATOM     10  S   UNL A   1      32.924  25.760  21.627  1.00  0.00    -0.152 SA
ATOM     11  C   UNL A   1      33.916  23.304  22.387  1.00  0.00     0.027 C 
ATOM     12  C   UNL A   1      31.270  26.466  21.839  1.00  0.00     0.070 C 
BRANCH   6  13
ATOM     13  N   UNL A   1      32.230  23.102  24.658  1.00  0.00    -0.331 N 
ATOM     14  H   UNL A   1      32.357  22.465  23.871  1.00  0.00     0.347 HD
ATOM     15  H   UNL A   1      32.964  23.195  25.361  1.00  0.00     0.347 HD
BRANCH  13  16
ATOM     16  C   UNL A   1      31.145  22.554  25.443  1.00  0.00     0.290 C 
BRANCH  16  17
ATOM     17  C   UNL A   1      31.409  22.919  26.926  1.00  0.00     0.221 C 
BRANCH  17  18
ATOM     18  O   UNL A   1      30.222  23.296  27.633  1.00  0.00    -0.379 OA
ATOM     19  C   UNL A   1      29.070  22.506  27.350  1.00  0.00     0.195 C 
ENDBRANCH  17  18
ENDBRANCH  16  17
ENDBRANCH  13  16
ENDBRANCH   6  13
ENDBRANCH   3   6
ENDBRANCH   1   2
BRANCH   1  20
ATOM     20  C   UNL A   1      31.984  27.929  27.336  1.00  0.00     0.042 C 
BRANCH  20  21
ATOM     21  C   UNL A   1      33.386  28.521  27.282  1.00  0.00     0.118 C 
BRANCH  21  22
ATOM     22  N   UNL A   1      33.425  29.957  27.516  1.00  0.00    -0.352 N 
ATOM     23  C   UNL A   1      34.429  30.757  28.018  1.00  0.00     0.251 C 
ATOM     24  H   UNL A   1      32.599  30.436  27.275  1.00  0.00     0.163 HD
ATOM     25  O   UNL A   1      34.194  31.940  28.237  1.00  0.00    -0.269 OA
BRANCH  23  26
ATOM     26  C   UNL A   1      35.770  30.201  28.331  1.00  0.00     0.039 A 
ATOM     27  C   UNL A   1      36.741  30.181  27.324  1.00  0.00     0.014 A 
ATOM     28  C   UNL A   1      36.079  29.687  29.592  1.00  0.00     0.014 A 
ATOM     29  C   UNL A   1      38.035  29.730  27.606  1.00  0.00     0.010 A 
ATOM     30  C   UNL A   1      37.391  29.324  29.897  1.00  0.00     0.010 A 
ATOM     31  C   UNL A   1      38.386  29.341  28.909  1.00  0.00    -0.014 A 
BRANCH  31  32
ATOM     32  C   UNL A   1      39.783  28.964  29.258  1.00  0.00     0.031 A 
ATOM     33  C   UNL A   1      40.702  29.959  29.920  1.00  0.00     0.074 A 
ATOM     34  C   UNL A   1      40.253  27.745  28.918  1.00  0.00     0.049 A 
ATOM     35  N   UNL A   1      41.966  29.832  30.237  1.00  0.00    -0.248 NA
ATOM     36  C   UNL A   1      40.133  31.277  30.248  1.00  0.00     0.031 C 
ATOM     37  C   UNL A   1      39.483  26.700  28.239  1.00  0.00     0.029 A 
ATOM     38  N   UNL A   1      41.493  27.180  29.090  1.00  0.00    -0.354 N 
ATOM     39  C   UNL A   1      42.346  31.053  30.783  1.00  0.00     0.074 A 
ATOM     40  C   UNL A   1      41.194  31.924  30.707  1.00  0.00     0.031 C 
ATOM     41  C   UNL A   1      40.258  25.615  28.079  1.00  0.00     0.029 A 
ATOM     42  C   UNL A   1      41.592  25.899  28.596  1.00  0.00     0.049 A 
ATOM     43  H   UNL A   1      42.242  27.648  29.526  1.00  0.00     0.167 HD
ATOM     44  C   UNL A   1      43.539  31.414  31.315  1.00  0.00     0.031 A 
ATOM     45  C   UNL A   1      42.639  25.050  28.553  1.00  0.00     0.031 A 
ATOM     46  C   UNL A   1      44.683  30.544  31.397  1.00  0.00     0.049 A 
ATOM     47  C   UNL A   1      43.960  25.481  29.130  1.00  0.00     0.074 A 
ATOM     48  C   UNL A   1      45.917  30.800  31.969  1.00  0.00     0.029 A 
ATOM     49  N   UNL A   1      44.739  29.255  30.888  1.00  0.00    -0.354 N 
ATOM     50  N   UNL A   1      44.277  26.618  29.703  1.00  0.00    -0.248 NA
ATOM     51  C   UNL A   1      45.061  24.511  29.065  1.00  0.00     0.031 C 
ATOM     52  C   UNL A   1      46.739  29.689  31.752  1.00  0.00     0.029 A 
ATOM     53  C   UNL A   1      45.995  28.714  31.107  1.00  0.00     0.049 A 
ATOM     54  H   UNL A   1      43.996  28.792  30.438  1.00  0.00     0.167 HD
ATOM     55  C   UNL A   1      45.606  26.487  30.093  1.00  0.00     0.074 A 
ATOM     56  C   UNL A   1      46.026  25.155  29.706  1.00  0.00     0.031 C 
ATOM     57  C   UNL A   1      46.405  27.388  30.718  1.00  0.00     0.031 A 
BRANCH  44  58
ATOM     58  C   UNL A   1      43.671  32.818  31.849  1.00  0.00    -0.014 A 
ATOM     59  C   UNL A   1      43.940  33.901  30.993  1.00  0.00     0.010 A 
ATOM     60  C   UNL A   1      43.476  33.066  33.221  1.00  0.00     0.010 A 
ATOM     61  C   UNL A   1      44.055  35.197  31.502  1.00  0.00     0.020 A 
ATOM     62  C   UNL A   1      43.559  34.365  33.730  1.00  0.00     0.020 A 
ATOM     63  C   UNL A   1      43.865  35.420  32.869  1.00  0.00     0.054 A 
BRANCH  63  64
ATOM     64  S   UNL A   1      43.996  37.117  33.497  1.00  0.00     0.124 S 
ATOM     65  O   UNL A   1      44.267  37.870  32.274  1.00  0.00    -0.237 OA
ATOM     66  O   UNL A   1      42.682  37.341  34.093  1.00  0.00    -0.237 OA
ATOM     67  O   UNL A   1      45.105  37.053  34.446  1.00  0.00    -0.744 OA
ENDBRANCH  63  64
ENDBRANCH  44  58
BRANCH  45  68
ATOM     68  C   UNL A   1      42.478  23.700  27.943  1.00  0.00    -0.014 A 
ATOM     69  C   UNL A   1      41.859  22.661  28.660  1.00  0.00     0.010 A 
ATOM     70  C   UNL A   1      42.938  23.448  26.637  1.00  0.00     0.010 A 
ATOM     71  C   UNL A   1      41.721  21.391  28.091  1.00  0.00     0.020 A 
ATOM     72  C   UNL A   1      42.773  22.189  26.053  1.00  0.00     0.020 A 
ATOM     73  C   UNL A   1      42.175  21.165  26.789  1.00  0.00     0.054 A 
BRANCH  73  74
ATOM     74  S   UNL A   1      41.940  19.523  26.053  1.00  0.00     0.124 S 
ATOM     75  O   UNL A   1      42.776  19.601  24.860  1.00  0.00    -0.237 OA
ATOM     76  O   UNL A   1      42.422  18.634  27.107  1.00  0.00    -0.237 OA
ATOM     77  O   UNL A   1      40.500  19.461  25.807  1.00  0.00    -0.744 OA
ENDBRANCH  73  74
ENDBRANCH  45  68
BRANCH  57  78
ATOM     78  C   UNL A   1      47.807  26.956  31.061  1.00  0.00    -0.014 A 
ATOM     79  C   UNL A   1      48.834  26.970  30.101  1.00  0.00     0.010 A 
ATOM     80  C   UNL A   1      48.112  26.582  32.382  1.00  0.00     0.010 A 
ATOM     81  C   UNL A   1      50.132  26.587  30.449  1.00  0.00     0.020 A 
ATOM     82  C   UNL A   1      49.415  26.229  32.742  1.00  0.00     0.020 A 
ATOM     83  C   UNL A   1      50.415  26.220  31.769  1.00  0.00     0.054 A 
BRANCH  83  84
ATOM     84  S   UNL A   1      52.116  25.769  32.204  1.00  0.00     0.124 S 
ATOM     85  O   UNL A   1      52.125  24.330  31.955  1.00  0.00    -0.237 OA
ATOM     86  O   UNL A   1      52.908  26.573  31.275  1.00  0.00    -0.237 OA
ATOM     87  O   UNL A   1      52.231  26.159  33.608  1.00  0.00    -0.744 OA
ENDBRANCH  83  84
ENDBRANCH  57  78
ENDBRANCH  31  32
ENDBRANCH  23  26
ENDBRANCH  21  22
ENDBRANCH  20  21
ENDBRANCH   1  20
TORSDOF 17
ENDMDL
MODEL 3
REMARK VINA RESULT:      -9.2      3.169      4.097
REMARK SMILES COCC[NH2+][C@]1(C(=O)NCCCNC(=O)c2ccc(-c3c4nc(c(-c5ccc(S(=O)(=O)[O-])cc5)c5ccc([nH]5)c(-c5ccc(S(=O)(=O)[O-])cc5)c5nc(c(-c6ccc(S(=O)(=O)[O-])cc6)c6ccc3[nH]6)C=C5)C=C4)cc2)CCCS[C@H]1C
REMARK SMILES IDX 10 1 9 2 7 3 8 4 6 6 76 7 80 8 77 9 79 10 81 11 78 12 5 13
REMARK SMILES IDX 4 16 3 17 2 18 1 19 11 20 12 21 13 22 14 23 15 25 16 26
REMARK SMILES IDX 17 27 75 28 18 29 74 30 19 31 20 32 21 33 68 34 22 35 73 36
REMARK SMILES IDX 67 37 69 38 23 39 72 40 66 41 65 42 24 44 54 45 35 46 53 47
REMARK SMILES IDX 36 48 39 49 52 50 70 51 37 52 38 53 51 55 71 56 40 57 25 58
REMARK SMILES IDX 26 59 34 60 27 61 33 62 28 63 29 64 30 65 31 66 32 67 55 68
REMARK SMILES IDX 56 69 64 70 57 71 63 72 58 73 59 74 60 75 61 76 62 77 41 78
REMARK SMILES IDX 42 79 50 80 43 81 49 82 44 83 45 84 46 85 47 86 48 87
REMARK H PARENT 9 5 5 14 5 15 13 24 69 43 39 54
REMARK Flexibility Score: inf
ROOT
ATOM      1  C   UNL A   1      33.350  29.357  26.632  1.00  0.00     0.118 C 
ENDROOT
BRANCH   1   2
ATOM      2  N   UNL A   1      32.298  28.397  26.913  1.00  0.00    -0.351 N 
ATOM      3  C   UNL A   1      31.662  27.429  26.200  1.00  0.00     0.282 C 
ATOM      4  O   UNL A   1      30.847  26.781  26.871  1.00  0.00    -0.268 OA
ATOM      5  H   UNL A   1      31.966  28.461  27.838  1.00  0.00     0.163 HD
BRANCH   3   6
ATOM      6  C   UNL A   1      31.751  27.218  24.630  1.00  0.00     0.187 C 
ATOM      7  C   UNL A   1      33.167  27.013  24.049  1.00  0.00     0.081 C 
ATOM      8  C   UNL A   1      30.935  25.932  24.178  1.00  0.00     0.115 C 
ATOM      9  C   UNL A   1      33.911  25.837  24.700  1.00  0.00     0.018 C 
ATOM     10  S   UNL A   1      31.564  24.370  24.915  1.00  0.00    -0.152 SA
ATOM     11  C   UNL A   1      29.403  25.972  24.316  1.00  0.00     0.027 C 
ATOM     12  C   UNL A   1      33.287  24.486  24.371  1.00  0.00     0.070 C 
BRANCH   6  13
ATOM     13  N   UNL A   1      30.969  28.319  24.025  1.00  0.00    -0.331 N 
ATOM     14  H   UNL A   1      30.036  28.259  24.434  1.00  0.00     0.347 HD
ATOM     15  H   UNL A   1      31.561  29.125  24.225  1.00  0.00     0.347 HD
BRANCH  13  16
ATOM     16  C   UNL A   1      30.769  28.452  22.598  1.00  0.00     0.290 C 
BRANCH  16  17
ATOM     17  C   UNL A   1      29.406  29.156  22.379  1.00  0.00     0.221 C 
BRANCH  17  18
ATOM     18  O   UNL A   1      29.426  30.101  21.302  1.00  0.00    -0.379 OA
ATOM     19  C   UNL A   1      28.205  30.802  21.087  1.00  0.00     0.195 C 
ENDBRANCH  17  18
ENDBRANCH  16  17
ENDBRANCH  13  16
ENDBRANCH   6  13
ENDBRANCH   3   6
ENDBRANCH   1   2
BRANCH   1  20
ATOM     20  C   UNL A   1      34.642  29.100  27.397  1.00  0.00     0.042 C 
BRANCH  20  21
ATOM     21  C   UNL A   1      35.433  30.335  27.808  1.00  0.00     0.118 C 
BRANCH  21  22
ATOM     22  N   UNL A   1      35.456  30.564  29.246  1.00  0.00    -0.352 N 
ATOM     23  C   UNL A   1      36.429  30.285  30.182  1.00  0.00     0.251 C 
ATOM     24  H   UNL A   1      34.645  30.987  29.609  1.00  0.00     0.163 HD
ATOM     25  O   UNL A   1      36.181  30.463  31.369  1.00  0.00    -0.269 OA
BRANCH  23  26
ATOM     26  C   UNL A   1      37.751  29.742  29.778  1.00  0.00     0.039 A 
ATOM     27  C   UNL A   1      38.149  29.865  28.442  1.00  0.00     0.014 A 
ATOM     28  C   UNL A   1      38.594  29.101  30.689  1.00  0.00     0.014 A 
ATOM     29  C   UNL A   1      39.417  29.427  28.045  1.00  0.00     0.010 A 
ATOM     30  C   UNL A   1      39.890  28.748  30.313  1.00  0.00     0.010 A 
ATOM     31  C   UNL A   1      40.319  28.907  28.988  1.00  0.00    -0.014 A 
BRANCH  31  32
ATOM     32  C   UNL A   1      41.711  28.538  28.610  1.00  0.00     0.031 A 
ATOM     33  C   UNL A   1      42.791  29.588  28.552  1.00  0.00     0.074 A 
ATOM     34  C   UNL A   1      41.994  27.268  28.253  1.00  0.00     0.049 A 
ATOM     35  N   UNL A   1      44.041  29.467  28.181  1.00  0.00    -0.248 NA
ATOM     36  C   UNL A   1      42.413  30.958  28.937  1.00  0.00     0.031 C 
ATOM     37  C   UNL A   1      41.035  26.162  28.227  1.00  0.00     0.029 A 
ATOM     38  N   UNL A   1      43.170  26.694  27.834  1.00  0.00    -0.354 N 
ATOM     39  C   UNL A   1      44.591  30.740  28.271  1.00  0.00     0.074 A 
ATOM     40  C   UNL A   1      43.526  31.630  28.682  1.00  0.00     0.031 C 
ATOM     41  C   UNL A   1      41.665  25.040  27.844  1.00  0.00     0.029 A 
ATOM     42  C   UNL A   1      43.059  25.352  27.547  1.00  0.00     0.049 A 
ATOM     43  H   UNL A   1      44.013  27.195  27.746  1.00  0.00     0.167 HD
ATOM     44  C   UNL A   1      45.869  31.135  28.051  1.00  0.00     0.031 A 
ATOM     45  C   UNL A   1      43.971  24.471  27.087  1.00  0.00     0.031 A 
ATOM     46  C   UNL A   1      46.930  30.249  27.649  1.00  0.00     0.049 A 
ATOM     47  C   UNL A   1      45.378  24.938  26.828  1.00  0.00     0.074 A 
ATOM     48  C   UNL A   1      48.268  30.544  27.454  1.00  0.00     0.029 A 
ATOM     49  N   UNL A   1      46.775  28.899  27.373  1.00  0.00    -0.354 N 
ATOM     50  N   UNL A   1      45.891  26.134  26.985  1.00  0.00    -0.248 NA
ATOM     51  C   UNL A   1      46.331  23.932  26.339  1.00  0.00     0.031 C 
ATOM     52  C   UNL A   1      48.910  29.387  27.002  1.00  0.00     0.029 A 
ATOM     53  C   UNL A   1      47.987  28.354  26.982  1.00  0.00     0.049 A 
ATOM     54  H   UNL A   1      45.929  28.400  27.444  1.00  0.00     0.167 HD
ATOM     55  C   UNL A   1      47.235  26.017  26.644  1.00  0.00     0.074 A 
ATOM     56  C   UNL A   1      47.457  24.630  26.288  1.00  0.00     0.031 C 
ATOM     57  C   UNL A   1      48.198  26.972  26.629  1.00  0.00     0.031 A 
BRANCH  44  58
ATOM     58  C   UNL A   1      46.191  32.597  28.234  1.00  0.00    -0.014 A 
ATOM     59  C   UNL A   1      46.612  33.100  29.479  1.00  0.00     0.010 A 
ATOM     60  C   UNL A   1      46.120  33.473  27.135  1.00  0.00     0.010 A 
ATOM     61  C   UNL A   1      46.912  34.455  29.632  1.00  0.00     0.020 A 
ATOM     62  C   UNL A   1      46.449  34.824  27.276  1.00  0.00     0.020 A 
ATOM     63  C   UNL A   1      46.827  35.310  28.528  1.00  0.00     0.054 A 
BRANCH  63  64
ATOM     64  S   UNL A   1      47.246  37.060  28.751  1.00  0.00     0.124 S 
ATOM     65  O   UNL A   1      47.897  37.378  27.482  1.00  0.00    -0.237 OA
ATOM     66  O   UNL A   1      45.940  37.679  28.958  1.00  0.00    -0.237 OA
ATOM     67  O   UNL A   1      48.126  37.062  29.918  1.00  0.00    -0.744 OA
ENDBRANCH  63  64
ENDBRANCH  44  58
BRANCH  45  68
ATOM     68  C   UNL A   1      43.581  23.053  26.848  1.00  0.00    -0.014 A 
ATOM     69  C   UNL A   1      42.932  22.310  27.850  1.00  0.00     0.010 A 
ATOM     70  C   UNL A   1      43.853  22.439  25.611  1.00  0.00     0.010 A 
ATOM     71  C   UNL A   1      42.580  20.975  27.627  1.00  0.00     0.020 A 
ATOM     72  C   UNL A   1      43.474  21.114  25.374  1.00  0.00     0.020 A 
ATOM     73  C   UNL A   1      42.849  20.388  26.389  1.00  0.00     0.054 A 
BRANCH  73  74
ATOM     74  S   UNL A   1      42.337  18.669  26.106  1.00  0.00     0.124 S 
ATOM     75  O   UNL A   1      42.570  18.063  27.413  1.00  0.00    -0.237 OA
ATOM     76  O   UNL A   1      40.937  18.819  25.718  1.00  0.00    -0.237 OA
ATOM     77  O   UNL A   1      43.227  18.218  25.038  1.00  0.00    -0.744 OA
ENDBRANCH  73  74
ENDBRANCH  45  68
BRANCH  57  78
ATOM     78  C   UNL A   1      49.594  26.548  26.251  1.00  0.00    -0.014 A 
ATOM     79  C   UNL A   1      50.097  26.753  24.955  1.00  0.00     0.010 A 
ATOM     80  C   UNL A   1      50.433  25.984  27.230  1.00  0.00     0.010 A 
ATOM     81  C   UNL A   1      51.404  26.372  24.635  1.00  0.00     0.020 A 
ATOM     82  C   UNL A   1      51.750  25.631  26.923  1.00  0.00     0.020 A 
ATOM     83  C   UNL A   1      52.223  25.815  25.622  1.00  0.00     0.054 A 
BRANCH  83  84
ATOM     84  S   UNL A   1      53.927  25.370  25.194  1.00  0.00     0.124 S 
ATOM     85  O   UNL A   1      54.210  26.278  24.085  1.00  0.00    -0.237 OA
ATOM     86  O   UNL A   1      54.651  25.647  26.432  1.00  0.00    -0.237 OA
ATOM     87  O   UNL A   1      53.838  23.957  24.834  1.00  0.00    -0.744 OA
ENDBRANCH  83  84
ENDBRANCH  57  78
ENDBRANCH  31  32
ENDBRANCH  23  26
ENDBRANCH  21  22
ENDBRANCH  20  21
ENDBRANCH   1  20
TORSDOF 17
ENDMDL
