MODEL 1
REMARK VINA RESULT:      -9.6      0.000      0.000
REMARK SMILES O=C(CCCc1ccc2c(c1Br)C=CC2)NCCCNC(=O)c1ccc(-c2c3nc(c(-c4ccc(S(=O)(=O)[O-])cc4)c4ccc([nH]4)c(-c4ccc(S(=O)(=O)[O-])cc4)c4nc(c(-c5ccc(S(=O)(=O)[O-])cc5)c5ccc2[nH]5)C=C4)C=C3)cc1
REMARK SMILES IDX 18 1 17 2 16 3 1 4 2 5 3 7 4 8 5 9 6 10 7 11 11 12 8 13
REMARK SMILES IDX 10 14 12 15 9 16 13 17 15 18 14 19 19 20 20 21 21 22 22 24
REMARK SMILES IDX 23 25 24 26 82 27 25 28 81 29 26 30 27 31 28 32 75 33 29 34
REMARK SMILES IDX 80 35 74 36 76 37 30 38 79 39 73 40 72 41 31 43 61 44 42 45
REMARK SMILES IDX 60 46 43 47 46 48 59 49 77 50 44 51 45 52 58 54 78 55 47 56
REMARK SMILES IDX 32 57 33 58 41 59 34 60 40 61 35 62 36 63 37 64 38 65 39 66
REMARK SMILES IDX 62 67 63 68 71 69 64 70 70 71 65 72 66 73 67 74 68 75 69 76
REMARK SMILES IDX 48 77 49 78 57 79 50 80 56 81 51 82 52 83 53 84 54 85 55 86
REMARK H PARENT 16 6 20 23 76 42 46 53
REMARK Flexibility Score: inf
ROOT
ATOM      1  C   UNL A   1      42.231  21.980  26.428  1.00  0.00     0.042 C 
ENDROOT
BRANCH   1   2
ATOM      2  C   UNL A   1      43.161  20.773  26.381  1.00  0.00     0.117 C 
BRANCH   2   3
ATOM      3  N   UNL A   1      44.516  21.121  26.009  1.00  0.00    -0.356 N 
ATOM      4  O   UNL A   1      44.303  20.583  23.786  1.00  0.00    -0.275 OA
ATOM      5  C   UNL A   1      44.971  21.018  24.717  1.00  0.00     0.220 C 
ATOM      6  H   UNL A   1      45.132  21.441  26.706  1.00  0.00     0.163 HD
BRANCH   5   7
ATOM      7  C   UNL A   1      46.376  21.544  24.525  1.00  0.00     0.100 C 
BRANCH   7   8
ATOM      8  C   UNL A   1      46.375  23.050  24.254  1.00  0.00     0.015 C 
BRANCH   8   9
ATOM      9  C   UNL A   1      46.593  23.957  25.481  1.00  0.00     0.037 C 
BRANCH   9  10
ATOM     10  C   UNL A   1      45.677  25.164  25.568  1.00  0.00    -0.033 A 
ATOM     11  C   UNL A   1      44.363  25.032  25.049  1.00  0.00     0.005 A 
ATOM     12  C   UNL A   1      46.059  26.395  26.143  1.00  0.00     0.028 A 
ATOM     13  C   UNL A   1      43.412  26.044  25.179  1.00  0.00     0.005 A 
ATOM     14  C   UNL A   1      45.104  27.403  26.272  1.00  0.00    -0.008 A 
ATOM     15  Br  UNL A   1      47.846  26.746  26.689  1.00  0.00    -0.050 Br
ATOM     16  C   UNL A   1      43.792  27.212  25.811  1.00  0.00    -0.036 A 
ATOM     17  C   UNL A   1      45.190  28.745  26.840  1.00  0.00     0.005 C 
ATOM     18  C   UNL A   1      42.961  28.428  26.092  1.00  0.00     0.063 C 
ATOM     19  C   UNL A   1      43.982  29.323  26.743  1.00  0.00    -0.022 C 
ENDBRANCH   9  10
ENDBRANCH   8   9
ENDBRANCH   7   8
ENDBRANCH   5   7
ENDBRANCH   2   3
ENDBRANCH   1   2
BRANCH   1  20
ATOM     20  C   UNL A   1      40.972  21.799  27.269  1.00  0.00     0.118 C 
BRANCH  20  21
ATOM     21  N   UNL A   1      39.746  21.772  26.485  1.00  0.00    -0.352 N 
ATOM     22  C   UNL A   1      38.834  22.785  26.307  1.00  0.00     0.251 C 
ATOM     23  H   UNL A   1      39.546  20.926  26.024  1.00  0.00     0.163 HD
ATOM     24  O   UNL A   1      37.792  22.591  25.692  1.00  0.00    -0.269 OA
BRANCH  22  25
ATOM     25  C   UNL A   1      39.119  24.106  26.900  1.00  0.00     0.039 A 
ATOM     26  C   UNL A   1      38.685  24.370  28.199  1.00  0.00     0.014 A 
ATOM     27  C   UNL A   1      39.870  25.048  26.188  1.00  0.00     0.014 A 
ATOM     28  C   UNL A   1      39.060  25.563  28.817  1.00  0.00     0.010 A 
ATOM     29  C   UNL A   1      40.271  26.224  26.820  1.00  0.00     0.010 A 
ATOM     30  C   UNL A   1      39.878  26.484  28.142  1.00  0.00    -0.014 A 
BRANCH  30  31
ATOM     31  C   UNL A   1      40.342  27.718  28.820  1.00  0.00     0.031 A 
ATOM     32  C   UNL A   1      41.735  27.797  29.374  1.00  0.00     0.074 A 
ATOM     33  C   UNL A   1      39.496  28.757  28.960  1.00  0.00     0.049 A 
ATOM     34  N   UNL A   1      42.314  28.794  29.990  1.00  0.00    -0.248 NA
ATOM     35  C   UNL A   1      42.580  26.603  29.225  1.00  0.00     0.031 C 
ATOM     36  C   UNL A   1      38.110  28.789  28.490  1.00  0.00     0.029 A 
ATOM     37  N   UNL A   1      39.681  29.988  29.538  1.00  0.00    -0.354 N 
ATOM     38  C   UNL A   1      43.592  28.350  30.302  1.00  0.00     0.074 A 
ATOM     39  C   UNL A   1      43.691  26.981  29.843  1.00  0.00     0.031 C 
ATOM     40  C   UNL A   1      37.578  29.989  28.773  1.00  0.00     0.029 A 
ATOM     41  C   UNL A   1      38.576  30.804  29.461  1.00  0.00     0.049 A 
ATOM     42  H   UNL A   1      40.523  30.262  29.964  1.00  0.00     0.167 HD
ATOM     43  C   UNL A   1      44.599  29.029  30.898  1.00  0.00     0.031 A 
ATOM     44  C   UNL A   1      38.389  32.068  29.889  1.00  0.00     0.031 A 
ATOM     45  C   UNL A   1      44.507  30.392  31.343  1.00  0.00     0.049 A 
ATOM     46  C   UNL A   1      39.520  32.799  30.556  1.00  0.00     0.074 A 
ATOM     47  C   UNL A   1      45.490  31.172  31.926  1.00  0.00     0.029 A 
ATOM     48  N   UNL A   1      43.370  31.178  31.254  1.00  0.00    -0.354 N 
ATOM     49  N   UNL A   1      40.734  32.375  30.807  1.00  0.00    -0.248 NA
ATOM     50  C   UNL A   1      39.260  34.180  30.991  1.00  0.00     0.031 C 
ATOM     51  C   UNL A   1      44.939  32.424  32.213  1.00  0.00     0.029 A 
ATOM     52  C   UNL A   1      43.623  32.432  31.780  1.00  0.00     0.049 A 
ATOM     53  H   UNL A   1      42.510  30.888  30.873  1.00  0.00     0.167 HD
ATOM     54  C   UNL A   1      41.391  33.442  31.407  1.00  0.00     0.074 A 
ATOM     55  C   UNL A   1      40.440  34.532  31.486  1.00  0.00     0.031 C 
ATOM     56  C   UNL A   1      42.670  33.510  31.845  1.00  0.00     0.031 A 
BRANCH  43  57
ATOM     57  C   UNL A   1      45.901  28.307  31.092  1.00  0.00    -0.014 A 
ATOM     58  C   UNL A   1      46.120  27.525  32.239  1.00  0.00     0.010 A 
ATOM     59  C   UNL A   1      46.892  28.364  30.095  1.00  0.00     0.010 A 
ATOM     60  C   UNL A   1      47.318  26.828  32.399  1.00  0.00     0.020 A 
ATOM     61  C   UNL A   1      48.087  27.654  30.244  1.00  0.00     0.020 A 
ATOM     62  C   UNL A   1      48.295  26.897  31.399  1.00  0.00     0.054 A 
BRANCH  62  63
ATOM     63  S   UNL A   1      49.834  25.967  31.633  1.00  0.00     0.124 S 
ATOM     64  O   UNL A   1      49.937  25.232  30.375  1.00  0.00    -0.237 OA
ATOM     65  O   UNL A   1      50.818  27.028  31.824  1.00  0.00    -0.237 OA
ATOM     66  O   UNL A   1      49.568  25.144  32.811  1.00  0.00    -0.744 OA
ENDBRANCH  62  63
ENDBRANCH  43  57
BRANCH  44  67
ATOM     67  C   UNL A   1      37.082  32.731  29.653  1.00  0.00    -0.014 A 
ATOM     68  C   UNL A   1      36.157  32.861  30.703  1.00  0.00     0.010 A 
ATOM     69  C   UNL A   1      36.779  33.283  28.396  1.00  0.00     0.010 A 
ATOM     70  C   UNL A   1      34.951  33.538  30.501  1.00  0.00     0.020 A 
ATOM     71  C   UNL A   1      35.580  33.974  28.194  1.00  0.00     0.020 A 
ATOM     72  C   UNL A   1      34.675  34.100  29.252  1.00  0.00     0.054 A 
BRANCH  72  73
ATOM     73  S   UNL A   1      33.133  35.032  29.041  1.00  0.00     0.124 S 
ATOM     74  O   UNL A   1      32.441  34.254  28.018  1.00  0.00    -0.237 OA
ATOM     75  O   UNL A   1      32.555  34.973  30.382  1.00  0.00    -0.237 OA
ATOM     76  O   UNL A   1      33.586  36.356  28.621  1.00  0.00    -0.744 OA
ENDBRANCH  72  73
ENDBRANCH  44  67
BRANCH  56  77
ATOM     77  C   UNL A   1      43.148  34.804  32.437  1.00  0.00    -0.014 A 
ATOM     78  C   UNL A   1      43.684  35.812  31.618  1.00  0.00     0.010 A 
ATOM     79  C   UNL A   1      42.925  35.066  33.801  1.00  0.00     0.010 A 
ATOM     80  C   UNL A   1      43.978  37.069  32.153  1.00  0.00     0.020 A 
ATOM     81  C   UNL A   1      43.205  36.326  34.336  1.00  0.00     0.020 A 
ATOM     82  C   UNL A   1      43.723  37.322  33.505  1.00  0.00     0.054 A 
BRANCH  82  83
ATOM     83  S   UNL A   1      44.022  38.993  34.145  1.00  0.00     0.124 S 
ATOM     84  O   UNL A   1      44.078  38.765  35.586  1.00  0.00    -0.237 OA
ATOM     85  O   UNL A   1      45.292  39.347  33.514  1.00  0.00    -0.237 OA
ATOM     86  O   UNL A   1      42.866  39.757  33.681  1.00  0.00    -0.744 OA
ENDBRANCH  82  83
ENDBRANCH  56  77
ENDBRANCH  30  31
ENDBRANCH  22  25
ENDBRANCH  20  21
ENDBRANCH   1  20
TORSDOF 16
ENDMDL
MODEL 2
REMARK VINA RESULT:      -9.4      3.218     11.202
REMARK SMILES O=C(CCCc1ccc2c(c1Br)C=CC2)NCCCNC(=O)c1ccc(-c2c3nc(c(-c4ccc(S(=O)(=O)[O-])cc4)c4ccc([nH]4)c(-c4ccc(S(=O)(=O)[O-])cc4)c4nc(c(-c5ccc(S(=O)(=O)[O-])cc5)c5ccc2[nH]5)C=C4)C=C3)cc1
REMARK SMILES IDX 18 1 17 2 16 3 1 4 2 5 3 7 4 8 5 9 6 10 7 11 11 12 8 13
REMARK SMILES IDX 10 14 12 15 9 16 13 17 15 18 14 19 19 20 20 21 21 22 22 24
REMARK SMILES IDX 23 25 24 26 82 27 25 28 81 29 26 30 27 31 28 32 75 33 29 34
REMARK SMILES IDX 80 35 74 36 76 37 30 38 79 39 73 40 72 41 31 43 61 44 42 45
REMARK SMILES IDX 60 46 43 47 46 48 59 49 77 50 44 51 45 52 58 54 78 55 47 56
REMARK SMILES IDX 32 57 33 58 41 59 34 60 40 61 35 62 36 63 37 64 38 65 39 66
REMARK SMILES IDX 62 67 63 68 71 69 64 70 70 71 65 72 66 73 67 74 68 75 69 76
REMARK SMILES IDX 48 77 49 78 57 79 50 80 56 81 51 82 52 83 53 84 54 85 55 86
REMARK H PARENT 16 6 20 23 76 42 46 53
REMARK Flexibility Score: inf
ROOT
ATOM      1  C   UNL A   1      35.543  33.385  29.882  1.00  0.00     0.042 C 
ENDROOT
BRANCH   1   2
ATOM      2  C   UNL A   1      34.478  34.352  30.385  1.00  0.00     0.117 C 
BRANCH   2   3
ATOM      3  N   UNL A   1      34.769  34.873  31.704  1.00  0.00    -0.356 N 
ATOM      4  O   UNL A   1      33.760  33.169  32.867  1.00  0.00    -0.275 OA
ATOM      5  C   UNL A   1      34.402  34.213  32.851  1.00  0.00     0.220 C 
ATOM      6  H   UNL A   1      35.246  35.730  31.781  1.00  0.00     0.163 HD
BRANCH   5   7
ATOM      7  C   UNL A   1      34.906  34.869  34.118  1.00  0.00     0.100 C 
BRANCH   7   8
ATOM      8  C   UNL A   1      36.186  34.197  34.621  1.00  0.00     0.015 C 
BRANCH   8   9
ATOM      9  C   UNL A   1      37.293  33.980  33.571  1.00  0.00     0.037 C 
BRANCH   9  10
ATOM     10  C   UNL A   1      37.851  32.572  33.496  1.00  0.00    -0.033 A 
ATOM     11  C   UNL A   1      37.005  31.555  32.984  1.00  0.00     0.005 A 
ATOM     12  C   UNL A   1      39.161  32.227  33.895  1.00  0.00     0.028 A 
ATOM     13  C   UNL A   1      37.459  30.252  32.773  1.00  0.00     0.005 A 
ATOM     14  C   UNL A   1      39.610  30.925  33.679  1.00  0.00    -0.008 A 
ATOM     15  Br  UNL A   1      40.310  33.463  34.771  1.00  0.00    -0.050 Br
ATOM     16  C   UNL A   1      38.767  29.961  33.105  1.00  0.00    -0.036 A 
ATOM     17  C   UNL A   1      40.897  30.292  33.953  1.00  0.00     0.005 C 
ATOM     18  C   UNL A   1      39.494  28.658  32.957  1.00  0.00     0.063 C 
ATOM     19  C   UNL A   1      40.834  29.015  33.543  1.00  0.00    -0.022 C 
ENDBRANCH   9  10
ENDBRANCH   8   9
ENDBRANCH   7   8
ENDBRANCH   5   7
ENDBRANCH   2   3
ENDBRANCH   1   2
BRANCH   1  20
ATOM     20  C   UNL A   1      35.479  33.064  28.392  1.00  0.00     0.118 C 
BRANCH  20  21
ATOM     21  N   UNL A   1      34.465  32.077  28.052  1.00  0.00    -0.352 N 
ATOM     22  C   UNL A   1      34.627  30.723  27.884  1.00  0.00     0.251 C 
ATOM     23  H   UNL A   1      33.551  32.421  27.929  1.00  0.00     0.163 HD
ATOM     24  O   UNL A   1      33.696  30.021  27.504  1.00  0.00    -0.269 OA
BRANCH  22  25
ATOM     25  C   UNL A   1      35.954  30.131  28.140  1.00  0.00     0.039 A 
ATOM     26  C   UNL A   1      36.924  30.193  27.139  1.00  0.00     0.014 A 
ATOM     27  C   UNL A   1      36.247  29.579  29.391  1.00  0.00     0.014 A 
ATOM     28  C   UNL A   1      38.220  29.756  27.414  1.00  0.00     0.010 A 
ATOM     29  C   UNL A   1      37.550  29.173  29.673  1.00  0.00     0.010 A 
ATOM     30  C   UNL A   1      38.548  29.270  28.690  1.00  0.00    -0.014 A 
BRANCH  30  31
ATOM     31  C   UNL A   1      39.940  28.875  29.010  1.00  0.00     0.031 A 
ATOM     32  C   UNL A   1      40.858  29.838  29.704  1.00  0.00     0.074 A 
ATOM     33  C   UNL A   1      40.384  27.655  28.649  1.00  0.00     0.049 A 
ATOM     34  N   UNL A   1      42.101  29.665  30.069  1.00  0.00    -0.248 NA
ATOM     35  C   UNL A   1      40.313  31.168  30.019  1.00  0.00     0.031 C 
ATOM     36  C   UNL A   1      39.596  26.642  27.945  1.00  0.00     0.029 A 
ATOM     37  N   UNL A   1      41.608  27.061  28.828  1.00  0.00    -0.354 N 
ATOM     38  C   UNL A   1      42.490  30.860  30.658  1.00  0.00     0.074 A 
ATOM     39  C   UNL A   1      41.364  31.765  30.567  1.00  0.00     0.031 C 
ATOM     40  C   UNL A   1      40.347  25.541  27.776  1.00  0.00     0.029 A 
ATOM     41  C   UNL A   1      41.673  25.776  28.341  1.00  0.00     0.049 A 
ATOM     42  H   UNL A   1      42.366  27.509  29.265  1.00  0.00     0.167 HD
ATOM     43  C   UNL A   1      43.671  31.169  31.242  1.00  0.00     0.031 A 
ATOM     44  C   UNL A   1      42.684  24.884  28.354  1.00  0.00     0.031 A 
ATOM     45  C   UNL A   1      44.785  30.269  31.344  1.00  0.00     0.049 A 
ATOM     46  C   UNL A   1      43.989  25.253  29.000  1.00  0.00     0.074 A 
ATOM     47  C   UNL A   1      46.010  30.485  31.952  1.00  0.00     0.029 A 
ATOM     48  N   UNL A   1      44.813  28.982  30.832  1.00  0.00    -0.354 N 
ATOM     49  N   UNL A   1      44.323  26.376  29.587  1.00  0.00    -0.248 NA
ATOM     50  C   UNL A   1      45.051  24.235  28.993  1.00  0.00     0.031 C 
ATOM     51  C   UNL A   1      46.788  29.337  31.783  1.00  0.00     0.029 A 
ATOM     52  C   UNL A   1      46.036  28.395  31.099  1.00  0.00     0.049 A 
ATOM     53  H   UNL A   1      44.071  28.550  30.349  1.00  0.00     0.167 HD
ATOM     54  C   UNL A   1      45.624  26.192  30.040  1.00  0.00     0.074 A 
ATOM     55  C   UNL A   1      46.019  24.853  29.658  1.00  0.00     0.031 C 
ATOM     56  C   UNL A   1      46.413  27.058  30.719  1.00  0.00     0.031 A 
BRANCH  43  57
ATOM     57  C   UNL A   1      43.814  32.543  31.831  1.00  0.00    -0.014 A 
ATOM     58  C   UNL A   1      43.645  32.749  33.211  1.00  0.00     0.010 A 
ATOM     59  C   UNL A   1      44.175  33.625  31.009  1.00  0.00     0.010 A 
ATOM     60  C   UNL A   1      43.813  34.022  33.759  1.00  0.00     0.020 A 
ATOM     61  C   UNL A   1      44.361  34.898  31.557  1.00  0.00     0.020 A 
ATOM     62  C   UNL A   1      44.170  35.089  32.928  1.00  0.00     0.054 A 
BRANCH  62  63
ATOM     63  S   UNL A   1      44.395  36.725  33.676  1.00  0.00     0.124 S 
ATOM     64  O   UNL A   1      44.526  36.395  35.093  1.00  0.00    -0.237 OA
ATOM     65  O   UNL A   1      45.611  37.205  33.026  1.00  0.00    -0.237 OA
ATOM     66  O   UNL A   1      43.172  37.442  33.319  1.00  0.00    -0.744 OA
ENDBRANCH  62  63
ENDBRANCH  43  57
BRANCH  44  67
ATOM     67  C   UNL A   1      42.473  23.537  27.767  1.00  0.00    -0.014 A 
ATOM     68  C   UNL A   1      42.808  23.291  26.425  1.00  0.00     0.010 A 
ATOM     69  C   UNL A   1      41.990  22.481  28.561  1.00  0.00     0.010 A 
ATOM     70  C   UNL A   1      42.669  22.009  25.886  1.00  0.00     0.020 A 
ATOM     71  C   UNL A   1      41.863  21.194  28.030  1.00  0.00     0.020 A 
ATOM     72  C   UNL A   1      42.208  20.966  26.695  1.00  0.00     0.054 A 
BRANCH  72  73
ATOM     73  S   UNL A   1      42.104  19.300  25.986  1.00  0.00     0.124 S 
ATOM     74  O   UNL A   1      42.612  18.470  27.075  1.00  0.00    -0.237 OA
ATOM     75  O   UNL A   1      40.676  19.174  25.707  1.00  0.00    -0.237 OA
ATOM     76  O   UNL A   1      42.960  19.374  24.805  1.00  0.00    -0.744 OA
ENDBRANCH  72  73
ENDBRANCH  44  67
BRANCH  56  77
ATOM     77  C   UNL A   1      47.785  26.600  31.122  1.00  0.00    -0.014 A 
ATOM     78  C   UNL A   1      48.908  26.934  30.347  1.00  0.00     0.010 A 
ATOM     79  C   UNL A   1      47.963  25.955  32.360  1.00  0.00     0.010 A 
ATOM     80  C   UNL A   1      50.193  26.641  30.812  1.00  0.00     0.020 A 
ATOM     81  C   UNL A   1      49.247  25.675  32.833  1.00  0.00     0.020 A 
ATOM     82  C   UNL A   1      50.355  26.026  32.059  1.00  0.00     0.054 A 
BRANCH  82  83
ATOM     83  S   UNL A   1      52.038  25.751  32.676  1.00  0.00     0.124 S 
ATOM     84  O   UNL A   1      52.151  24.296  32.621  1.00  0.00    -0.237 OA
ATOM     85  O   UNL A   1      52.851  26.482  31.708  1.00  0.00    -0.237 OA
ATOM     86  O   UNL A   1      52.015  26.321  34.021  1.00  0.00    -0.744 OA
ENDBRANCH  82  83
ENDBRANCH  56  77
ENDBRANCH  30  31
ENDBRANCH  22  25
ENDBRANCH  20  21
ENDBRANCH   1  20
TORSDOF 16
ENDMDL
MODEL 3
REMARK VINA RESULT:      -9.3      3.161      9.686
REMARK SMILES O=C(CCCc1ccc2c(c1Br)C=CC2)NCCCNC(=O)c1ccc(-c2c3nc(c(-c4ccc(S(=O)(=O)[O-])cc4)c4ccc([nH]4)c(-c4ccc(S(=O)(=O)[O-])cc4)c4nc(c(-c5ccc(S(=O)(=O)[O-])cc5)c5ccc2[nH]5)C=C4)C=C3)cc1
REMARK SMILES IDX 18 1 17 2 16 3 1 4 2 5 3 7 4 8 5 9 6 10 7 11 11 12 8 13
REMARK SMILES IDX 10 14 12 15 9 16 13 17 15 18 14 19 19 20 20 21 21 22 22 24
REMARK SMILES IDX 23 25 24 26 82 27 25 28 81 29 26 30 27 31 28 32 75 33 29 34
REMARK SMILES IDX 80 35 74 36 76 37 30 38 79 39 73 40 72 41 31 43 61 44 42 45
REMARK SMILES IDX 60 46 43 47 46 48 59 49 77 50 44 51 45 52 58 54 78 55 47 56
REMARK SMILES IDX 32 57 33 58 41 59 34 60 40 61 35 62 36 63 37 64 38 65 39 66
REMARK SMILES IDX 62 67 63 68 71 69 64 70 70 71 65 72 66 73 67 74 68 75 69 76
REMARK SMILES IDX 48 77 49 78 57 79 50 80 56 81 51 82 52 83 53 84 54 85 55 86
REMARK H PARENT 16 6 20 23 76 42 46 53
REMARK Flexibility Score: inf
ROOT
ATOM      1  C   UNL A   1      34.178  34.282  28.501  1.00  0.00     0.042 C 
ENDROOT
BRANCH   1   2
ATOM      2  C   UNL A   1      34.136  34.698  29.966  1.00  0.00     0.117 C 
BRANCH   2   3
ATOM      3  N   UNL A   1      35.319  34.299  30.699  1.00  0.00    -0.356 N 
ATOM      4  O   UNL A   1      34.303  32.639  31.919  1.00  0.00    -0.275 OA
ATOM      5  C   UNL A   1      35.308  33.270  31.609  1.00  0.00     0.220 C 
ATOM      6  H   UNL A   1      36.161  34.783  30.540  1.00  0.00     0.163 HD
BRANCH   5   7
ATOM      7  C   UNL A   1      36.673  32.941  32.171  1.00  0.00     0.100 C 
BRANCH   7   8
ATOM      8  C   UNL A   1      36.698  31.541  32.789  1.00  0.00     0.015 C 
BRANCH   8   9
ATOM      9  C   UNL A   1      37.567  31.375  34.050  1.00  0.00     0.037 C 
BRANCH   9  10
ATOM     10  C   UNL A   1      38.746  30.431  33.908  1.00  0.00    -0.033 A 
ATOM     11  C   UNL A   1      38.572  29.279  33.099  1.00  0.00     0.005 A 
ATOM     12  C   UNL A   1      39.998  30.645  34.525  1.00  0.00     0.028 A 
ATOM     13  C   UNL A   1      39.626  28.408  32.817  1.00  0.00     0.005 A 
ATOM     14  C   UNL A   1      41.047  29.773  34.238  1.00  0.00    -0.008 A 
ATOM     15  Br  UNL A   1      40.282  32.044  35.781  1.00  0.00    -0.050 Br
ATOM     16  C   UNL A   1      40.858  28.682  33.376  1.00  0.00    -0.036 A 
ATOM     17  C   UNL A   1      42.435  29.753  34.691  1.00  0.00     0.005 C 
ATOM     18  C   UNL A   1      42.140  27.921  33.213  1.00  0.00     0.063 C 
ATOM     19  C   UNL A   1      43.054  28.712  34.111  1.00  0.00    -0.022 C 
ENDBRANCH   9  10
ENDBRANCH   8   9
ENDBRANCH   7   8
ENDBRANCH   5   7
ENDBRANCH   2   3
ENDBRANCH   1   2
BRANCH   1  20
ATOM     20  C   UNL A   1      34.880  32.957  28.221  1.00  0.00     0.118 C 
BRANCH  20  21
ATOM     21  N   UNL A   1      33.967  31.871  27.899  1.00  0.00    -0.352 N 
ATOM     22  C   UNL A   1      34.246  30.527  27.818  1.00  0.00     0.251 C 
ATOM     23  H   UNL A   1      33.034  32.129  27.717  1.00  0.00     0.163 HD
ATOM     24  O   UNL A   1      33.394  29.730  27.442  1.00  0.00    -0.269 OA
BRANCH  22  25
ATOM     25  C   UNL A   1      35.604  30.065  28.162  1.00  0.00     0.039 A 
ATOM     26  C   UNL A   1      36.592  30.081  27.178  1.00  0.00     0.014 A 
ATOM     27  C   UNL A   1      35.903  29.681  29.474  1.00  0.00     0.014 A 
ATOM     28  C   UNL A   1      37.908  29.771  27.523  1.00  0.00     0.010 A 
ATOM     29  C   UNL A   1      37.224  29.405  29.823  1.00  0.00     0.010 A 
ATOM     30  C   UNL A   1      38.237  29.459  28.852  1.00  0.00    -0.014 A 
BRANCH  30  31
ATOM     31  C   UNL A   1      39.644  29.203  29.240  1.00  0.00     0.031 A 
ATOM     32  C   UNL A   1      40.288  27.886  28.923  1.00  0.00     0.074 A 
ATOM     33  C   UNL A   1      40.333  30.154  29.902  1.00  0.00     0.049 A 
ATOM     34  N   UNL A   1      41.507  27.489  29.178  1.00  0.00    -0.248 NA
ATOM     35  C   UNL A   1      39.454  26.883  28.243  1.00  0.00     0.031 C 
ATOM     36  C   UNL A   1      39.808  31.463  30.292  1.00  0.00     0.029 A 
ATOM     37  N   UNL A   1      41.626  30.162  30.363  1.00  0.00    -0.354 N 
ATOM     38  C   UNL A   1      41.590  26.192  28.690  1.00  0.00     0.074 A 
ATOM     39  C   UNL A   1      40.287  25.854  28.158  1.00  0.00     0.031 C 
ATOM     40  C   UNL A   1      40.777  32.159  30.909  1.00  0.00     0.029 A 
ATOM     41  C   UNL A   1      41.984  31.340  30.976  1.00  0.00     0.049 A 
ATOM     42  H   UNL A   1      42.238  29.399  30.263  1.00  0.00     0.167 HD
ATOM     43  C   UNL A   1      42.661  25.365  28.666  1.00  0.00     0.031 A 
ATOM     44  C   UNL A   1      43.155  31.722  31.523  1.00  0.00     0.031 A 
ATOM     45  C   UNL A   1      43.958  25.703  29.182  1.00  0.00     0.049 A 
ATOM     46  C   UNL A   1      44.328  30.784  31.493  1.00  0.00     0.074 A 
ATOM     47  C   UNL A   1      45.113  24.940  29.168  1.00  0.00     0.029 A 
ATOM     48  N   UNL A   1      44.276  26.901  29.800  1.00  0.00    -0.354 N 
ATOM     49  N   UNL A   1      44.397  29.575  30.990  1.00  0.00    -0.248 NA
ATOM     50  C   UNL A   1      45.583  31.260  32.095  1.00  0.00     0.031 C 
ATOM     51  C   UNL A   1      46.123  25.667  29.802  1.00  0.00     0.029 A 
ATOM     52  C   UNL A   1      45.605  26.895  30.181  1.00  0.00     0.049 A 
ATOM     53  H   UNL A   1      43.649  27.646  29.946  1.00  0.00     0.167 HD
ATOM     54  C   UNL A   1      45.706  29.155  31.194  1.00  0.00     0.074 A 
ATOM     55  C   UNL A   1      46.396  30.235  31.868  1.00  0.00     0.031 C 
ATOM     56  C   UNL A   1      46.281  27.981  30.845  1.00  0.00     0.031 A 
BRANCH  43  57
ATOM     57  C   UNL A   1      42.476  24.010  28.047  1.00  0.00    -0.014 A 
ATOM     58  C   UNL A   1      42.736  23.808  26.680  1.00  0.00     0.010 A 
ATOM     59  C   UNL A   1      42.096  22.918  28.847  1.00  0.00     0.010 A 
ATOM     60  C   UNL A   1      42.596  22.539  26.116  1.00  0.00     0.020 A 
ATOM     61  C   UNL A   1      41.971  21.642  28.288  1.00  0.00     0.020 A 
ATOM     62  C   UNL A   1      42.214  21.463  26.925  1.00  0.00     0.054 A 
BRANCH  62  63
ATOM     63  S   UNL A   1      42.056  19.826  26.162  1.00  0.00     0.124 S 
ATOM     64  O   UNL A   1      40.624  19.759  25.882  1.00  0.00    -0.237 OA
ATOM     65  O   UNL A   1      42.921  19.939  24.991  1.00  0.00    -0.237 OA
ATOM     66  O   UNL A   1      42.527  18.911  27.200  1.00  0.00    -0.744 OA
ENDBRANCH  62  63
ENDBRANCH  43  57
BRANCH  44  67
ATOM     67  C   UNL A   1      43.277  33.082  32.107  1.00  0.00    -0.014 A 
ATOM     68  C   UNL A   1      43.678  34.162  31.302  1.00  0.00     0.010 A 
ATOM     69  C   UNL A   1      42.940  33.312  33.452  1.00  0.00     0.010 A 
ATOM     70  C   UNL A   1      43.734  35.454  31.833  1.00  0.00     0.020 A 
ATOM     71  C   UNL A   1      42.982  34.605  33.983  1.00  0.00     0.020 A 
ATOM     72  C   UNL A   1      43.375  35.669  33.167  1.00  0.00     0.054 A 
BRANCH  72  73
ATOM     73  S   UNL A   1      43.392  37.366  33.806  1.00  0.00     0.124 S 
ATOM     74  O   UNL A   1      42.120  37.440  34.518  1.00  0.00    -0.237 OA
ATOM     75  O   UNL A   1      44.589  37.366  34.645  1.00  0.00    -0.237 OA
ATOM     76  O   UNL A   1      43.483  38.187  32.601  1.00  0.00    -0.744 OA
ENDBRANCH  72  73
ENDBRANCH  44  67
BRANCH  56  77
ATOM     77  C   UNL A   1      47.736  27.784  31.157  1.00  0.00    -0.014 A 
ATOM     78  C   UNL A   1      48.727  28.233  30.268  1.00  0.00     0.010 A 
ATOM     79  C   UNL A   1      48.112  27.278  32.415  1.00  0.00     0.010 A 
ATOM     80  C   UNL A   1      50.074  28.190  30.638  1.00  0.00     0.020 A 
ATOM     81  C   UNL A   1      49.457  27.248  32.793  1.00  0.00     0.020 A 
ATOM     82  C   UNL A   1      50.429  27.711  31.904  1.00  0.00     0.054 A 
BRANCH  82  83
ATOM     83  S   UNL A   1      52.176  27.762  32.391  1.00  0.00     0.124 S 
ATOM     84  O   UNL A   1      52.091  28.136  33.800  1.00  0.00    -0.237 OA
ATOM     85  O   UNL A   1      52.614  26.393  32.128  1.00  0.00    -0.237 OA
ATOM     86  O   UNL A   1      52.754  28.777  31.512  1.00  0.00    -0.744 OA
ENDBRANCH  82  83
ENDBRANCH  56  77
ENDBRANCH  30  31
ENDBRANCH  22  25
ENDBRANCH  20  21
ENDBRANCH   1  20
TORSDOF 16
ENDMDL
