MODEL 1
REMARK VINA RESULT:     -10.8      0.000      0.000
REMARK SMILES O=C(Cc1cccc(-c2ccn(C(F)F)c(=O)c2)c1)NCCCNC(=O)c1ccc(-c2c3nc(c(-c4ccc(S(=O)(=O)[O-])cc4)c4ccc([nH]4)c(-c4ccc(S(=O)(=O)[O-])cc4)c4nc(c(-c5ccc(S(=O)(=O)[O-])cc5)c5ccc2[nH]5)C=C4)C=C3)cc1
REMARK SMILES IDX 22 1 21 2 20 3 1 4 2 5 3 7 4 8 5 9 19 10 6 11 8 12 7 13 9 14
REMARK SMILES IDX 10 15 18 16 11 17 16 18 12 19 17 20 13 21 14 22 15 23 23 24
REMARK SMILES IDX 24 25 25 26 26 28 27 29 28 30 86 31 29 32 85 33 30 34 31 35
REMARK SMILES IDX 32 36 79 37 33 38 84 39 78 40 80 41 34 42 83 43 77 44 76 45
REMARK SMILES IDX 35 47 65 48 46 49 64 50 47 51 50 52 63 53 81 54 48 55 49 56
REMARK SMILES IDX 62 58 82 59 51 60 36 61 37 62 45 63 38 64 44 65 39 66 40 67
REMARK SMILES IDX 41 68 42 69 43 70 66 71 67 72 75 73 68 74 74 75 69 76 70 77
REMARK SMILES IDX 71 78 72 79 73 80 52 81 53 82 61 83 54 84 60 85 55 86 56 87
REMARK SMILES IDX 57 88 58 89 59 90
REMARK H PARENT 20 6 24 27 80 46 50 57
REMARK Flexibility Score: inf
ROOT
ATOM      1  C   UNL A   1      35.489  22.818  26.036  1.00  0.00     0.042 C 
ENDROOT
BRANCH   1   2
ATOM      2  C   UNL A   1      34.866  21.968  24.938  1.00  0.00     0.117 C 
BRANCH   2   3
ATOM      3  N   UNL A   1      33.810  22.659  24.227  1.00  0.00    -0.356 N 
ATOM      4  O   UNL A   1      35.178  23.769  22.746  1.00  0.00    -0.275 OA
ATOM      5  C   UNL A   1      34.055  23.473  23.139  1.00  0.00     0.224 C 
ATOM      6  H   UNL A   1      32.880  22.546  24.532  1.00  0.00     0.163 HD
BRANCH   5   7
ATOM      7  C   UNL A   1      32.796  23.947  22.437  1.00  0.00     0.135 C 
BRANCH   7   8
ATOM      8  C   UNL A   1      31.896  24.856  23.254  1.00  0.00    -0.038 A 
ATOM      9  C   UNL A   1      30.501  24.719  23.310  1.00  0.00     0.004 A 
ATOM     10  C   UNL A   1      32.493  25.889  23.995  1.00  0.00     0.013 A 
ATOM     11  C   UNL A   1      29.729  25.571  24.100  1.00  0.00     0.001 A 
ATOM     12  C   UNL A   1      31.721  26.768  24.771  1.00  0.00    -0.018 A 
ATOM     13  C   UNL A   1      30.335  26.593  24.826  1.00  0.00     0.009 A 
BRANCH  12  14
ATOM     14  C   UNL A   1      32.365  27.902  25.462  1.00  0.00    -0.011 A 
ATOM     15  C   UNL A   1      33.733  27.830  25.939  1.00  0.00     0.027 A 
ATOM     16  C   UNL A   1      31.670  29.039  25.642  1.00  0.00     0.080 A 
ATOM     17  C   UNL A   1      34.300  28.877  26.547  1.00  0.00     0.095 A 
ATOM     18  C   UNL A   1      32.291  30.218  26.310  1.00  0.00     0.255 A 
ATOM     19  N   UNL A   1      33.600  30.054  26.735  1.00  0.00    -0.258 N 
ATOM     20  O   UNL A   1      31.626  31.241  26.431  1.00  0.00    -0.269 OA
BRANCH  19  21
ATOM     21  C   UNL A   1      34.223  31.177  27.384  1.00  0.00     0.451 C 
ATOM     22  F   UNL A   1      33.934  31.198  28.709  1.00  0.00    -0.185 F 
ATOM     23  F   UNL A   1      35.569  31.140  27.247  1.00  0.00    -0.185 F 
ENDBRANCH  19  21
ENDBRANCH  12  14
ENDBRANCH   7   8
ENDBRANCH   5   7
ENDBRANCH   2   3
ENDBRANCH   1   2
BRANCH   1  24
ATOM     24  C   UNL A   1      36.827  23.452  25.671  1.00  0.00     0.118 C 
BRANCH  24  25
ATOM     25  N   UNL A   1      37.971  22.583  25.908  1.00  0.00    -0.352 N 
ATOM     26  C   UNL A   1      39.193  22.888  26.464  1.00  0.00     0.251 C 
ATOM     27  H   UNL A   1      37.855  21.645  25.632  1.00  0.00     0.163 HD
ATOM     28  O   UNL A   1      40.086  22.045  26.484  1.00  0.00    -0.269 OA
BRANCH  26  29
ATOM     29  C   UNL A   1      39.438  24.244  27.001  1.00  0.00     0.039 A 
ATOM     30  C   UNL A   1      39.037  24.539  28.306  1.00  0.00     0.014 A 
ATOM     31  C   UNL A   1      40.097  25.207  26.232  1.00  0.00     0.014 A 
ATOM     32  C   UNL A   1      39.381  25.769  28.875  1.00  0.00     0.010 A 
ATOM     33  C   UNL A   1      40.495  26.404  26.821  1.00  0.00     0.010 A 
ATOM     34  C   UNL A   1      40.156  26.691  28.153  1.00  0.00    -0.014 A 
BRANCH  34  35
ATOM     35  C   UNL A   1      40.656  27.947  28.770  1.00  0.00     0.031 A 
ATOM     36  C   UNL A   1      42.047  28.008  29.335  1.00  0.00     0.074 A 
ATOM     37  C   UNL A   1      39.823  28.998  28.913  1.00  0.00     0.049 A 
ATOM     38  N   UNL A   1      42.610  28.955  30.041  1.00  0.00    -0.248 NA
ATOM     39  C   UNL A   1      42.910  26.839  29.100  1.00  0.00     0.031 C 
ATOM     40  C   UNL A   1      38.439  29.058  28.437  1.00  0.00     0.029 A 
ATOM     41  N   UNL A   1      40.015  30.214  29.524  1.00  0.00    -0.354 N 
ATOM     42  C   UNL A   1      43.879  28.487  30.358  1.00  0.00     0.074 A 
ATOM     43  C   UNL A   1      43.992  27.158  29.796  1.00  0.00     0.031 C 
ATOM     44  C   UNL A   1      37.913  30.250  28.761  1.00  0.00     0.029 A 
ATOM     45  C   UNL A   1      38.902  31.021  29.508  1.00  0.00     0.049 A 
ATOM     46  H   UNL A   1      40.869  30.481  29.933  1.00  0.00     0.167 HD
ATOM     47  C   UNL A   1      44.865  29.110  31.045  1.00  0.00     0.031 A 
ATOM     48  C   UNL A   1      38.691  32.237  30.050  1.00  0.00     0.031 A 
ATOM     49  C   UNL A   1      44.759  30.438  31.587  1.00  0.00     0.049 A 
ATOM     50  C   UNL A   1      39.799  32.908  30.812  1.00  0.00     0.074 A 
ATOM     51  C   UNL A   1      45.724  31.174  32.255  1.00  0.00     0.029 A 
ATOM     52  N   UNL A   1      43.625  31.232  31.522  1.00  0.00    -0.354 N 
ATOM     53  N   UNL A   1      41.007  32.466  31.064  1.00  0.00    -0.248 NA
ATOM     54  C   UNL A   1      39.518  34.243  31.358  1.00  0.00     0.031 C 
ATOM     55  C   UNL A   1      45.159  32.398  32.627  1.00  0.00     0.029 A 
ATOM     56  C   UNL A   1      43.860  32.444  32.149  1.00  0.00     0.049 A 
ATOM     57  H   UNL A   1      42.777  30.973  31.093  1.00  0.00     0.167 HD
ATOM     58  C   UNL A   1      41.641  33.481  31.772  1.00  0.00     0.074 A 
ATOM     59  C   UNL A   1      40.685  34.561  31.905  1.00  0.00     0.031 C 
ATOM     60  C   UNL A   1      42.903  33.514  32.263  1.00  0.00     0.031 A 
BRANCH  47  61
ATOM     61  C   UNL A   1      46.148  28.353  31.257  1.00  0.00    -0.014 A 
ATOM     62  C   UNL A   1      47.202  28.437  30.329  1.00  0.00     0.010 A 
ATOM     63  C   UNL A   1      46.315  27.572  32.416  1.00  0.00     0.010 A 
ATOM     64  C   UNL A   1      48.383  27.719  30.534  1.00  0.00     0.020 A 
ATOM     65  C   UNL A   1      47.505  26.873  32.637  1.00  0.00     0.020 A 
ATOM     66  C   UNL A   1      48.524  26.936  31.684  1.00  0.00     0.054 A 
BRANCH  66  67
ATOM     67  S   UNL A   1      50.072  26.024  31.932  1.00  0.00     0.124 S 
ATOM     68  O   UNL A   1      50.152  25.233  30.706  1.00  0.00    -0.237 OA
ATOM     69  O   UNL A   1      51.060  27.093  32.055  1.00  0.00    -0.237 OA
ATOM     70  O   UNL A   1      49.831  25.259  33.153  1.00  0.00    -0.744 OA
ENDBRANCH  66  67
ENDBRANCH  47  61
BRANCH  48  71
ATOM     71  C   UNL A   1      37.371  32.904  29.881  1.00  0.00    -0.014 A 
ATOM     72  C   UNL A   1      36.386  32.789  30.878  1.00  0.00     0.010 A 
ATOM     73  C   UNL A   1      37.099  33.673  28.736  1.00  0.00     0.010 A 
ATOM     74  C   UNL A   1      35.147  33.419  30.725  1.00  0.00     0.020 A 
ATOM     75  C   UNL A   1      35.871  34.325  28.591  1.00  0.00     0.020 A 
ATOM     76  C   UNL A   1      34.899  34.184  29.582  1.00  0.00     0.054 A 
BRANCH  76  77
ATOM     77  S   UNL A   1      33.306  35.041  29.431  1.00  0.00     0.124 S 
ATOM     78  O   UNL A   1      33.720  36.380  29.025  1.00  0.00    -0.237 OA
ATOM     79  O   UNL A   1      32.618  34.254  28.410  1.00  0.00    -0.237 OA
ATOM     80  O   UNL A   1      32.737  34.938  30.773  1.00  0.00    -0.744 OA
ENDBRANCH  76  77
ENDBRANCH  48  71
BRANCH  60  81
ATOM     81  C   UNL A   1      43.352  34.774  32.953  1.00  0.00    -0.014 A 
ATOM     82  C   UNL A   1      43.883  35.851  32.225  1.00  0.00     0.010 A 
ATOM     83  C   UNL A   1      43.157  34.908  34.339  1.00  0.00     0.010 A 
ATOM     84  C   UNL A   1      44.222  37.041  32.875  1.00  0.00     0.020 A 
ATOM     85  C   UNL A   1      43.474  36.103  34.989  1.00  0.00     0.020 A 
ATOM     86  C   UNL A   1      44.012  37.160  34.254  1.00  0.00     0.054 A 
BRANCH  86  87
ATOM     87  S   UNL A   1      44.388  38.739  35.063  1.00  0.00     0.124 S 
ATOM     88  O   UNL A   1      43.548  39.672  34.317  1.00  0.00    -0.237 OA
ATOM     89  O   UNL A   1      43.985  38.498  36.446  1.00  0.00    -0.237 OA
ATOM     90  O   UNL A   1      45.827  38.898  34.860  1.00  0.00    -0.744 OA
ENDBRANCH  86  87
ENDBRANCH  60  81
ENDBRANCH  34  35
ENDBRANCH  26  29
ENDBRANCH  24  25
ENDBRANCH   1  24
TORSDOF 16
ENDMDL
MODEL 2
REMARK VINA RESULT:     -10.7      2.823      9.448
REMARK SMILES O=C(Cc1cccc(-c2ccn(C(F)F)c(=O)c2)c1)NCCCNC(=O)c1ccc(-c2c3nc(c(-c4ccc(S(=O)(=O)[O-])cc4)c4ccc([nH]4)c(-c4ccc(S(=O)(=O)[O-])cc4)c4nc(c(-c5ccc(S(=O)(=O)[O-])cc5)c5ccc2[nH]5)C=C4)C=C3)cc1
REMARK SMILES IDX 22 1 21 2 20 3 1 4 2 5 3 7 4 8 5 9 19 10 6 11 8 12 7 13 9 14
REMARK SMILES IDX 10 15 18 16 11 17 16 18 12 19 17 20 13 21 14 22 15 23 23 24
REMARK SMILES IDX 24 25 25 26 26 28 27 29 28 30 86 31 29 32 85 33 30 34 31 35
REMARK SMILES IDX 32 36 79 37 33 38 84 39 78 40 80 41 34 42 83 43 77 44 76 45
REMARK SMILES IDX 35 47 65 48 46 49 64 50 47 51 50 52 63 53 81 54 48 55 49 56
REMARK SMILES IDX 62 58 82 59 51 60 36 61 37 62 45 63 38 64 44 65 39 66 40 67
REMARK SMILES IDX 41 68 42 69 43 70 66 71 67 72 75 73 68 74 74 75 69 76 70 77
REMARK SMILES IDX 71 78 72 79 73 80 52 81 53 82 61 83 54 84 60 85 55 86 56 87
REMARK SMILES IDX 57 88 58 89 59 90
REMARK H PARENT 20 6 24 27 80 46 50 57
REMARK Flexibility Score: inf
ROOT
ATOM      1  C   UNL A   1      33.517  27.873  26.849  1.00  0.00     0.042 C 
ENDROOT
BRANCH   1   2
ATOM      2  C   UNL A   1      32.029  27.828  27.161  1.00  0.00     0.117 C 
BRANCH   2   3
ATOM      3  N   UNL A   1      31.440  26.531  26.895  1.00  0.00    -0.356 N 
ATOM      4  O   UNL A   1      30.778  26.985  24.738  1.00  0.00    -0.275 OA
ATOM      5  C   UNL A   1      30.903  26.197  25.669  1.00  0.00     0.224 C 
ATOM      6  H   UNL A   1      31.419  25.863  27.618  1.00  0.00     0.163 HD
BRANCH   5   7
ATOM      7  C   UNL A   1      30.509  24.735  25.555  1.00  0.00     0.135 C 
BRANCH   7   8
ATOM      8  C   UNL A   1      31.424  23.876  24.703  1.00  0.00    -0.038 A 
ATOM      9  C   UNL A   1      30.987  23.150  23.585  1.00  0.00     0.004 A 
ATOM     10  C   UNL A   1      32.783  23.806  25.052  1.00  0.00     0.013 A 
ATOM     11  C   UNL A   1      31.883  22.398  22.825  1.00  0.00     0.001 A 
ATOM     12  C   UNL A   1      33.686  23.029  24.309  1.00  0.00    -0.018 A 
ATOM     13  C   UNL A   1      33.226  22.334  23.186  1.00  0.00     0.009 A 
BRANCH  12  14
ATOM     14  C   UNL A   1      35.087  22.897  24.755  1.00  0.00    -0.011 A 
ATOM     15  C   UNL A   1      35.774  23.973  25.445  1.00  0.00     0.027 A 
ATOM     16  C   UNL A   1      35.740  21.745  24.529  1.00  0.00     0.080 A 
ATOM     17  C   UNL A   1      37.037  23.822  25.855  1.00  0.00     0.095 A 
ATOM     18  C   UNL A   1      37.146  21.558  24.988  1.00  0.00     0.255 A 
ATOM     19  N   UNL A   1      37.721  22.641  25.634  1.00  0.00    -0.258 N 
ATOM     20  O   UNL A   1      37.693  20.481  24.779  1.00  0.00    -0.269 OA
BRANCH  19  21
ATOM     21  C   UNL A   1      39.078  22.489  26.086  1.00  0.00     0.451 C 
ATOM     22  F   UNL A   1      39.823  23.578  25.774  1.00  0.00    -0.185 F 
ATOM     23  F   UNL A   1      39.133  22.311  27.427  1.00  0.00    -0.185 F 
ENDBRANCH  19  21
ENDBRANCH  12  14
ENDBRANCH   7   8
ENDBRANCH   5   7
ENDBRANCH   2   3
ENDBRANCH   1   2
BRANCH   1  24
ATOM     24  C   UNL A   1      33.976  29.121  26.103  1.00  0.00     0.118 C 
BRANCH  24  25
ATOM     25  N   UNL A   1      33.805  30.352  26.862  1.00  0.00    -0.352 N 
ATOM     26  C   UNL A   1      34.620  30.896  27.829  1.00  0.00     0.251 C 
ATOM     27  H   UNL A   1      32.993  30.869  26.655  1.00  0.00     0.163 HD
ATOM     28  O   UNL A   1      34.258  31.893  28.447  1.00  0.00    -0.269 OA
BRANCH  26  29
ATOM     29  C   UNL A   1      35.912  30.252  28.149  1.00  0.00     0.039 A 
ATOM     30  C   UNL A   1      36.944  30.298  27.207  1.00  0.00     0.014 A 
ATOM     31  C   UNL A   1      36.117  29.640  29.388  1.00  0.00     0.014 A 
ATOM     32  C   UNL A   1      38.211  29.814  27.544  1.00  0.00     0.010 A 
ATOM     33  C   UNL A   1      37.395  29.218  29.746  1.00  0.00     0.010 A 
ATOM     34  C   UNL A   1      38.459  29.316  28.834  1.00  0.00    -0.014 A 
BRANCH  34  35
ATOM     35  C   UNL A   1      39.823  28.921  29.272  1.00  0.00     0.031 A 
ATOM     36  C   UNL A   1      40.707  29.914  29.974  1.00  0.00     0.074 A 
ATOM     37  C   UNL A   1      40.302  27.703  28.947  1.00  0.00     0.049 A 
ATOM     38  N   UNL A   1      41.970  29.808  30.298  1.00  0.00    -0.248 NA
ATOM     39  C   UNL A   1      40.098  31.204  30.334  1.00  0.00     0.031 C 
ATOM     40  C   UNL A   1      39.558  26.657  28.241  1.00  0.00     0.029 A 
ATOM     41  N   UNL A   1      41.541  27.146  29.151  1.00  0.00    -0.354 N 
ATOM     42  C   UNL A   1      42.316  31.025  30.873  1.00  0.00     0.074 A 
ATOM     43  C   UNL A   1      41.138  31.865  30.823  1.00  0.00     0.031 C 
ATOM     44  C   UNL A   1      40.350  25.585  28.081  1.00  0.00     0.029 A 
ATOM     45  C   UNL A   1      41.670  25.880  28.630  1.00  0.00     0.049 A 
ATOM     46  H   UNL A   1      42.268  27.610  29.624  1.00  0.00     0.167 HD
ATOM     47  C   UNL A   1      43.502  31.406  31.403  1.00  0.00     0.031 A 
ATOM     48  C   UNL A   1      42.734  25.054  28.581  1.00  0.00     0.031 A 
ATOM     49  C   UNL A   1      44.666  30.564  31.469  1.00  0.00     0.049 A 
ATOM     50  C   UNL A   1      44.042  25.499  29.173  1.00  0.00     0.074 A 
ATOM     51  C   UNL A   1      45.899  30.844  32.034  1.00  0.00     0.029 A 
ATOM     52  N   UNL A   1      44.744  29.277  30.958  1.00  0.00    -0.354 N 
ATOM     53  N   UNL A   1      44.336  26.639  29.751  1.00  0.00    -0.248 NA
ATOM     54  C   UNL A   1      45.160  24.547  29.111  1.00  0.00     0.031 C 
ATOM     55  C   UNL A   1      46.733  29.740  31.831  1.00  0.00     0.029 A 
ATOM     56  C   UNL A   1      46.005  28.755  31.182  1.00  0.00     0.049 A 
ATOM     57  H   UNL A   1      44.009  28.805  30.503  1.00  0.00     0.167 HD
ATOM     58  C   UNL A   1      45.664  26.529  30.148  1.00  0.00     0.074 A 
ATOM     59  C   UNL A   1      46.114  25.212  29.750  1.00  0.00     0.031 C 
ATOM     60  C   UNL A   1      46.436  27.438  30.790  1.00  0.00     0.031 A 
BRANCH  47  61
ATOM     61  C   UNL A   1      43.600  32.804  31.949  1.00  0.00    -0.014 A 
ATOM     62  C   UNL A   1      43.264  33.087  33.285  1.00  0.00     0.010 A 
ATOM     63  C   UNL A   1      44.067  33.844  31.125  1.00  0.00     0.010 A 
ATOM     64  C   UNL A   1      43.350  34.393  33.774  1.00  0.00     0.020 A 
ATOM     65  C   UNL A   1      44.179  35.147  31.618  1.00  0.00     0.020 A 
ATOM     66  C   UNL A   1      43.800  35.416  32.935  1.00  0.00     0.054 A 
BRANCH  66  67
ATOM     67  S   UNL A   1      43.915  37.100  33.599  1.00  0.00     0.124 S 
ATOM     68  O   UNL A   1      42.784  37.134  34.523  1.00  0.00    -0.237 OA
ATOM     69  O   UNL A   1      45.236  37.112  34.223  1.00  0.00    -0.237 OA
ATOM     70  O   UNL A   1      43.780  37.947  32.417  1.00  0.00    -0.744 OA
ENDBRANCH  66  67
ENDBRANCH  47  61
BRANCH  48  71
ATOM     71  C   UNL A   1      42.602  23.713  27.950  1.00  0.00    -0.014 A 
ATOM     72  C   UNL A   1      42.908  23.534  26.590  1.00  0.00     0.010 A 
ATOM     73  C   UNL A   1      42.189  22.603  28.710  1.00  0.00     0.010 A 
ATOM     74  C   UNL A   1      42.791  22.274  25.997  1.00  0.00     0.020 A 
ATOM     75  C   UNL A   1      42.094  21.336  28.127  1.00  0.00     0.020 A 
ATOM     76  C   UNL A   1      42.385  21.183  26.770  1.00  0.00     0.054 A 
BRANCH  76  77
ATOM     77  S   UNL A   1      42.295  19.544  25.995  1.00  0.00     0.124 S 
ATOM     78  O   UNL A   1      42.797  18.679  27.057  1.00  0.00    -0.237 OA
ATOM     79  O   UNL A   1      40.872  19.415  25.691  1.00  0.00    -0.237 OA
ATOM     80  O   UNL A   1      43.163  19.674  24.826  1.00  0.00    -0.744 OA
ENDBRANCH  76  77
ENDBRANCH  48  71
BRANCH  60  81
ATOM     81  C   UNL A   1      47.840  27.033  31.150  1.00  0.00    -0.014 A 
ATOM     82  C   UNL A   1      48.117  26.360  32.351  1.00  0.00     0.010 A 
ATOM     83  C   UNL A   1      48.880  27.256  30.229  1.00  0.00     0.010 A 
ATOM     84  C   UNL A   1      49.416  25.924  32.630  1.00  0.00     0.020 A 
ATOM     85  C   UNL A   1      50.173  26.803  30.494  1.00  0.00     0.020 A 
ATOM     86  C   UNL A   1      50.436  26.146  31.698  1.00  0.00     0.054 A 
BRANCH  86  87
ATOM     87  S   UNL A   1      52.096  25.505  32.048  1.00  0.00     0.124 S 
ATOM     88  O   UNL A   1      52.821  25.856  30.830  1.00  0.00    -0.237 OA
ATOM     89  O   UNL A   1      52.483  26.246  33.245  1.00  0.00    -0.237 OA
ATOM     90  O   UNL A   1      51.878  24.074  32.252  1.00  0.00    -0.744 OA
ENDBRANCH  86  87
ENDBRANCH  60  81
ENDBRANCH  34  35
ENDBRANCH  26  29
ENDBRANCH  24  25
ENDBRANCH   1  24
TORSDOF 16
ENDMDL
MODEL 3
REMARK VINA RESULT:     -10.6      3.644      9.876
REMARK SMILES O=C(Cc1cccc(-c2ccn(C(F)F)c(=O)c2)c1)NCCCNC(=O)c1ccc(-c2c3nc(c(-c4ccc(S(=O)(=O)[O-])cc4)c4ccc([nH]4)c(-c4ccc(S(=O)(=O)[O-])cc4)c4nc(c(-c5ccc(S(=O)(=O)[O-])cc5)c5ccc2[nH]5)C=C4)C=C3)cc1
REMARK SMILES IDX 22 1 21 2 20 3 1 4 2 5 3 7 4 8 5 9 19 10 6 11 8 12 7 13 9 14
REMARK SMILES IDX 10 15 18 16 11 17 16 18 12 19 17 20 13 21 14 22 15 23 23 24
REMARK SMILES IDX 24 25 25 26 26 28 27 29 28 30 86 31 29 32 85 33 30 34 31 35
REMARK SMILES IDX 32 36 79 37 33 38 84 39 78 40 80 41 34 42 83 43 77 44 76 45
REMARK SMILES IDX 35 47 65 48 46 49 64 50 47 51 50 52 63 53 81 54 48 55 49 56
REMARK SMILES IDX 62 58 82 59 51 60 36 61 37 62 45 63 38 64 44 65 39 66 40 67
REMARK SMILES IDX 41 68 42 69 43 70 66 71 67 72 75 73 68 74 74 75 69 76 70 77
REMARK SMILES IDX 71 78 72 79 73 80 52 81 53 82 61 83 54 84 60 85 55 86 56 87
REMARK SMILES IDX 57 88 58 89 59 90
REMARK H PARENT 20 6 24 27 80 46 50 57
REMARK Flexibility Score: inf
ROOT
ATOM      1  C   UNL A   1      32.895  28.541  25.759  1.00  0.00     0.042 C 
ENDROOT
BRANCH   1   2
ATOM      2  C   UNL A   1      31.388  28.349  25.842  1.00  0.00     0.117 C 
BRANCH   2   3
ATOM      3  N   UNL A   1      30.984  26.978  25.607  1.00  0.00    -0.356 N 
ATOM      4  O   UNL A   1      29.729  27.397  23.724  1.00  0.00    -0.275 OA
ATOM      5  C   UNL A   1      30.221  26.604  24.520  1.00  0.00     0.224 C 
ATOM      6  H   UNL A   1      31.264  26.286  26.249  1.00  0.00     0.163 HD
BRANCH   5   7
ATOM      7  C   UNL A   1      30.068  25.102  24.371  1.00  0.00     0.135 C 
BRANCH   7   8
ATOM      8  C   UNL A   1      31.161  24.410  23.578  1.00  0.00    -0.038 A 
ATOM      9  C   UNL A   1      31.870  25.025  22.534  1.00  0.00     0.004 A 
ATOM     10  C   UNL A   1      31.483  23.083  23.909  1.00  0.00     0.013 A 
ATOM     11  C   UNL A   1      32.883  24.344  21.859  1.00  0.00     0.001 A 
ATOM     12  C   UNL A   1      32.482  22.382  23.216  1.00  0.00    -0.018 A 
ATOM     13  C   UNL A   1      33.187  23.028  22.195  1.00  0.00     0.009 A 
BRANCH  12  14
ATOM     14  C   UNL A   1      32.732  20.959  23.520  1.00  0.00    -0.011 A 
ATOM     15  C   UNL A   1      33.415  20.545  24.731  1.00  0.00     0.027 A 
ATOM     16  C   UNL A   1      32.303  20.021  22.659  1.00  0.00     0.080 A 
ATOM     17  C   UNL A   1      33.614  19.249  24.992  1.00  0.00     0.095 A 
ATOM     18  C   UNL A   1      32.508  18.571  22.941  1.00  0.00     0.255 A 
ATOM     19  N   UNL A   1      33.174  18.272  24.119  1.00  0.00    -0.258 N 
ATOM     20  O   UNL A   1      32.078  17.751  22.137  1.00  0.00    -0.269 OA
BRANCH  19  21
ATOM     21  C   UNL A   1      33.388  16.880  24.414  1.00  0.00     0.451 C 
ATOM     22  F   UNL A   1      32.239  16.284  24.817  1.00  0.00    -0.185 F 
ATOM     23  F   UNL A   1      33.851  16.213  23.331  1.00  0.00    -0.185 F 
ENDBRANCH  19  21
ENDBRANCH  12  14
ENDBRANCH   7   8
ENDBRANCH   5   7
ENDBRANCH   2   3
ENDBRANCH   1   2
BRANCH   1  24
ATOM     24  C   UNL A   1      33.594  28.698  27.106  1.00  0.00     0.118 C 
BRANCH  24  25
ATOM     25  N   UNL A   1      33.573  30.061  27.620  1.00  0.00    -0.352 N 
ATOM     26  C   UNL A   1      34.558  30.753  28.288  1.00  0.00     0.251 C 
ATOM     27  H   UNL A   1      32.737  30.558  27.468  1.00  0.00     0.163 HD
ATOM     28  O   UNL A   1      34.322  31.866  28.749  1.00  0.00    -0.269 OA
BRANCH  26  29
ATOM     29  C   UNL A   1      35.887  30.134  28.483  1.00  0.00     0.039 A 
ATOM     30  C   UNL A   1      36.792  30.121  27.418  1.00  0.00     0.014 A 
ATOM     31  C   UNL A   1      36.252  29.604  29.724  1.00  0.00     0.014 A 
ATOM     32  C   UNL A   1      38.097  29.664  27.624  1.00  0.00     0.010 A 
ATOM     33  C   UNL A   1      37.569  29.210  29.944  1.00  0.00     0.010 A 
ATOM     34  C   UNL A   1      38.510  29.251  28.901  1.00  0.00    -0.014 A 
BRANCH  34  35
ATOM     35  C   UNL A   1      39.922  28.889  29.189  1.00  0.00     0.031 A 
ATOM     36  C   UNL A   1      40.867  29.919  29.740  1.00  0.00     0.074 A 
ATOM     37  C   UNL A   1      40.377  27.663  28.857  1.00  0.00     0.049 A 
ATOM     38  N   UNL A   1      42.162  29.840  29.916  1.00  0.00    -0.248 NA
ATOM     39  C   UNL A   1      40.286  31.217  30.118  1.00  0.00     0.031 C 
ATOM     40  C   UNL A   1      39.572  26.582  28.288  1.00  0.00     0.029 A 
ATOM     41  N   UNL A   1      41.641  27.129  28.934  1.00  0.00    -0.354 N 
ATOM     42  C   UNL A   1      42.554  31.083  30.396  1.00  0.00     0.074 A 
ATOM     43  C   UNL A   1      41.366  31.908  30.454  1.00  0.00     0.031 C 
ATOM     44  C   UNL A   1      40.355  25.512  28.077  1.00  0.00     0.029 A 
ATOM     45  C   UNL A   1      41.726  25.843  28.453  1.00  0.00     0.049 A 
ATOM     46  H   UNL A   1      42.411  27.620  29.299  1.00  0.00     0.167 HD
ATOM     47  C   UNL A   1      43.789  31.498  30.766  1.00  0.00     0.031 A 
ATOM     48  C   UNL A   1      42.789  25.028  28.310  1.00  0.00     0.031 A 
ATOM     49  C   UNL A   1      44.965  30.672  30.726  1.00  0.00     0.049 A 
ATOM     50  C   UNL A   1      44.151  25.511  28.723  1.00  0.00     0.074 A 
ATOM     51  C   UNL A   1      46.252  30.988  31.128  1.00  0.00     0.029 A 
ATOM     52  N   UNL A   1      45.002  29.367  30.260  1.00  0.00    -0.354 N 
ATOM     53  N   UNL A   1      44.495  26.677  29.216  1.00  0.00    -0.248 NA
ATOM     54  C   UNL A   1      45.269  24.569  28.567  1.00  0.00     0.031 C 
ATOM     55  C   UNL A   1      47.073  29.886  30.871  1.00  0.00     0.029 A 
ATOM     56  C   UNL A   1      46.289  28.868  30.353  1.00  0.00     0.049 A 
ATOM     57  H   UNL A   1      44.225  28.868  29.916  1.00  0.00     0.167 HD
ATOM     58  C   UNL A   1      45.861  26.597  29.457  1.00  0.00     0.074 A 
ATOM     59  C   UNL A   1      46.282  25.269  29.060  1.00  0.00     0.031 C 
ATOM     60  C   UNL A   1      46.691  27.540  29.965  1.00  0.00     0.031 A 
BRANCH  47  61
ATOM     61  C   UNL A   1      43.930  32.919  31.240  1.00  0.00    -0.014 A 
ATOM     62  C   UNL A   1      43.774  33.250  32.598  1.00  0.00     0.010 A 
ATOM     63  C   UNL A   1      44.256  33.933  30.320  1.00  0.00     0.010 A 
ATOM     64  C   UNL A   1      43.897  34.575  33.021  1.00  0.00     0.020 A 
ATOM     65  C   UNL A   1      44.405  35.256  30.744  1.00  0.00     0.020 A 
ATOM     66  C   UNL A   1      44.205  35.571  32.090  1.00  0.00     0.054 A 
BRANCH  66  67
ATOM     67  S   UNL A   1      44.371  37.283  32.668  1.00  0.00     0.124 S 
ATOM     68  O   UNL A   1      43.306  37.366  33.664  1.00  0.00    -0.237 OA
ATOM     69  O   UNL A   1      45.732  37.313  33.200  1.00  0.00    -0.237 OA
ATOM     70  O   UNL A   1      44.160  38.077  31.461  1.00  0.00    -0.744 OA
ENDBRANCH  66  67
ENDBRANCH  47  61
BRANCH  48  71
ATOM     71  C   UNL A   1      42.604  23.660  27.754  1.00  0.00    -0.014 A 
ATOM     72  C   UNL A   1      42.687  23.440  26.368  1.00  0.00     0.010 A 
ATOM     73  C   UNL A   1      42.364  22.567  28.607  1.00  0.00     0.010 A 
ATOM     74  C   UNL A   1      42.519  22.155  25.843  1.00  0.00     0.020 A 
ATOM     75  C   UNL A   1      42.220  21.277  28.088  1.00  0.00     0.020 A 
ATOM     76  C   UNL A   1      42.288  21.082  26.708  1.00  0.00     0.054 A 
BRANCH  76  77
ATOM     77  S   UNL A   1      42.131  19.413  26.011  1.00  0.00     0.124 S 
ATOM     78  O   UNL A   1      43.030  19.479  24.863  1.00  0.00    -0.237 OA
ATOM     79  O   UNL A   1      42.575  18.565  27.115  1.00  0.00    -0.237 OA
ATOM     80  O   UNL A   1      40.709  19.312  25.691  1.00  0.00    -0.744 OA
ENDBRANCH  76  77
ENDBRANCH  48  71
BRANCH  60  81
ATOM     81  C   UNL A   1      48.133  27.165  30.170  1.00  0.00    -0.014 A 
ATOM     82  C   UNL A   1      49.092  27.391  29.169  1.00  0.00     0.010 A 
ATOM     83  C   UNL A   1      48.545  26.661  31.417  1.00  0.00     0.010 A 
ATOM     84  C   UNL A   1      50.440  27.107  29.408  1.00  0.00     0.020 A 
ATOM     85  C   UNL A   1      49.893  26.397  31.667  1.00  0.00     0.020 A 
ATOM     86  C   UNL A   1      50.832  26.615  30.658  1.00  0.00     0.054 A 
BRANCH  86  87
ATOM     87  S   UNL A   1      52.596  26.327  30.971  1.00  0.00     0.124 S 
ATOM     88  O   UNL A   1      52.968  27.516  31.731  1.00  0.00    -0.237 OA
ATOM     89  O   UNL A   1      52.590  25.075  31.724  1.00  0.00    -0.237 OA
ATOM     90  O   UNL A   1      53.174  26.237  29.631  1.00  0.00    -0.744 OA
ENDBRANCH  86  87
ENDBRANCH  60  81
ENDBRANCH  34  35
ENDBRANCH  26  29
ENDBRANCH  24  25
ENDBRANCH   1  24
TORSDOF 16
ENDMDL
