MODEL 1
REMARK VINA RESULT:     -10.5      0.000      0.000
REMARK SMILES CC(C)(C)c1nnsc1C(=O)N[C@](C)(C(=O)NCCCNC(=O)c1ccc(-c2c3nc(c(-c4ccc(S(=O)(=O)[O-])cc4)c4ccc([nH]4)c(-c4ccc(S(=O)(=O)[O-])cc4)c4nc(c(-c5ccc(S(=O)(=O)[O-])cc5)c5ccc2[nH]5)C=C4)C=C3)cc1)C(F)(F)F
REMARK SMILES IDX 19 1 18 2 17 3 15 4 16 5 13 7 14 8 12 9 10 10 11 11 9 13
REMARK SMILES IDX 5 14 6 15 7 16 8 17 2 18 1 19 3 20 4 21 84 22 85 23 86 24
REMARK SMILES IDX 87 25 20 26 21 27 22 28 23 30 24 31 25 32 83 33 26 34 82 35
REMARK SMILES IDX 27 36 28 37 29 38 76 39 30 40 81 41 75 42 77 43 31 44 80 45
REMARK SMILES IDX 74 46 73 47 32 49 62 50 43 51 61 52 44 53 47 54 60 55 78 56
REMARK SMILES IDX 45 57 46 58 59 60 79 61 48 62 33 63 34 64 42 65 35 66 41 67
REMARK SMILES IDX 36 68 37 69 38 70 39 71 40 72 63 73 64 74 72 75 65 76 71 77
REMARK SMILES IDX 66 78 67 79 68 80 69 81 70 82 49 83 50 84 58 85 51 86 57 87
REMARK SMILES IDX 52 88 53 89 54 90 55 91 56 92
REMARK H PARENT 17 6 12 12 21 29 77 48 47 59
REMARK Flexibility Score: inf
ROOT
ATOM      1  C   UNL A   1      36.144  23.832  24.424  1.00  0.00     0.042 C 
ENDROOT
BRANCH   1   2
ATOM      2  C   UNL A   1      35.062  22.901  23.862  1.00  0.00     0.117 C 
BRANCH   2   3
ATOM      3  N   UNL A   1      34.214  22.305  24.877  1.00  0.00    -0.354 N 
ATOM      4  C   UNL A   1      33.138  22.735  25.584  1.00  0.00     0.254 C 
ATOM      5  O   UNL A   1      32.979  22.114  26.642  1.00  0.00    -0.272 OA
ATOM      6  H   UNL A   1      34.478  21.384  25.103  1.00  0.00     0.163 HD
BRANCH   4   7
ATOM      7  C   UNL A   1      32.350  24.044  25.275  1.00  0.00     0.212 C 
ATOM      8  C   UNL A   1      32.254  24.684  26.680  1.00  0.00     0.056 C 
BRANCH   7   9
ATOM      9  N   UNL A   1      33.076  24.992  24.369  1.00  0.00    -0.330 N 
ATOM     10  C   UNL A   1      33.049  26.287  23.901  1.00  0.00     0.266 C 
ATOM     11  O   UNL A   1      33.925  26.342  23.015  1.00  0.00    -0.268 OA
ATOM     12  H   UNL A   1      33.845  24.524  23.968  1.00  0.00     0.165 HD
BRANCH  10  13
ATOM     13  C   UNL A   1      32.238  27.496  24.196  1.00  0.00     0.137 A 
ATOM     14  C   UNL A   1      31.901  28.527  25.116  1.00  0.00     0.094 A 
ATOM     15  N   UNL A   1      31.030  29.510  24.603  1.00  0.00    -0.142 NA
ATOM     16  N   UNL A   1      30.630  29.286  23.381  1.00  0.00    -0.090 NA
ATOM     17  S   UNL A   1      31.260  27.908  22.753  1.00  0.00    -0.006 S 
BRANCH  14  18
ATOM     18  C   UNL A   1      32.329  28.917  26.541  1.00  0.00     0.008 C 
ATOM     19  C   UNL A   1      33.721  28.443  26.856  1.00  0.00     0.018 C 
ATOM     20  C   UNL A   1      31.488  28.210  27.639  1.00  0.00     0.018 C 
ATOM     21  C   UNL A   1      32.182  30.440  26.722  1.00  0.00     0.018 C 
ENDBRANCH  14  18
ENDBRANCH  10  13
ENDBRANCH   7   9
BRANCH   7  22
ATOM     22  C   UNL A   1      31.082  23.469  24.564  1.00  0.00     0.420 C 
ATOM     23  F   UNL A   1      31.370  22.891  23.379  1.00  0.00    -0.168 F 
ATOM     24  F   UNL A   1      30.470  22.527  25.333  1.00  0.00    -0.168 F 
ATOM     25  F   UNL A   1      30.105  24.388  24.373  1.00  0.00    -0.168 F 
ENDBRANCH   7  22
ENDBRANCH   4   7
ENDBRANCH   2   3
ENDBRANCH   1   2
BRANCH   1  26
ATOM     26  C   UNL A   1      36.550  23.581  25.874  1.00  0.00     0.118 C 
BRANCH  26  27
ATOM     27  N   UNL A   1      37.661  22.650  25.977  1.00  0.00    -0.352 N 
ATOM     28  C   UNL A   1      38.975  22.897  26.272  1.00  0.00     0.251 C 
ATOM     29  H   UNL A   1      37.437  21.706  25.811  1.00  0.00     0.163 HD
ATOM     30  O   UNL A   1      39.825  22.042  26.004  1.00  0.00    -0.269 OA
BRANCH  28  31
ATOM     31  C   UNL A   1      39.380  24.172  26.897  1.00  0.00     0.039 A 
ATOM     32  C   UNL A   1      39.035  24.418  28.228  1.00  0.00     0.014 A 
ATOM     33  C   UNL A   1      40.059  25.144  26.156  1.00  0.00     0.014 A 
ATOM     34  C   UNL A   1      39.418  25.618  28.832  1.00  0.00     0.010 A 
ATOM     35  C   UNL A   1      40.499  26.310  26.778  1.00  0.00     0.010 A 
ATOM     36  C   UNL A   1      40.178  26.561  28.121  1.00  0.00    -0.014 A 
BRANCH  36  37
ATOM     37  C   UNL A   1      40.653  27.812  28.764  1.00  0.00     0.031 A 
ATOM     38  C   UNL A   1      42.041  27.888  29.342  1.00  0.00     0.074 A 
ATOM     39  C   UNL A   1      39.811  28.857  28.886  1.00  0.00     0.049 A 
ATOM     40  N   UNL A   1      42.607  28.867  30.002  1.00  0.00    -0.248 NA
ATOM     41  C   UNL A   1      42.897  26.702  29.176  1.00  0.00     0.031 C 
ATOM     42  C   UNL A   1      38.431  28.892  28.395  1.00  0.00     0.029 A 
ATOM     43  N   UNL A   1      39.986  30.087  29.468  1.00  0.00    -0.354 N 
ATOM     44  C   UNL A   1      43.875  28.410  30.343  1.00  0.00     0.074 A 
ATOM     45  C   UNL A   1      43.979  27.051  29.858  1.00  0.00     0.031 C 
ATOM     46  C   UNL A   1      37.894  30.091  28.677  1.00  0.00     0.029 A 
ATOM     47  C   UNL A   1      38.871  30.890  29.409  1.00  0.00     0.049 A 
ATOM     48  H   UNL A   1      40.830  30.368  29.890  1.00  0.00     0.167 HD
ATOM     49  C   UNL A   1      44.869  29.070  30.986  1.00  0.00     0.031 A 
ATOM     50  C   UNL A   1      38.653  32.126  29.899  1.00  0.00     0.031 A 
ATOM     51  C   UNL A   1      44.760  30.423  31.462  1.00  0.00     0.049 A 
ATOM     52  C   UNL A   1      39.761  32.825  30.637  1.00  0.00     0.074 A 
ATOM     53  C   UNL A   1      45.727  31.200  32.076  1.00  0.00     0.029 A 
ATOM     54  N   UNL A   1      43.614  31.200  31.384  1.00  0.00    -0.354 N 
ATOM     55  N   UNL A   1      40.978  32.402  30.888  1.00  0.00    -0.248 NA
ATOM     56  C   UNL A   1      39.471  34.171  31.151  1.00  0.00     0.031 C 
ATOM     57  C   UNL A   1      45.147  32.424  32.425  1.00  0.00     0.029 A 
ATOM     58  C   UNL A   1      43.838  32.435  31.971  1.00  0.00     0.049 A 
ATOM     59  H   UNL A   1      42.765  30.915  30.973  1.00  0.00     0.167 HD
ATOM     60  C   UNL A   1      41.604  33.437  31.573  1.00  0.00     0.074 A 
ATOM     61  C   UNL A   1      40.639  34.514  31.678  1.00  0.00     0.031 C 
ATOM     62  C   UNL A   1      42.863  33.492  32.073  1.00  0.00     0.031 A 
BRANCH  49  63
ATOM     63  C   UNL A   1      46.161  28.328  31.222  1.00  0.00    -0.014 A 
ATOM     64  C   UNL A   1      47.200  28.356  30.274  1.00  0.00     0.010 A 
ATOM     65  C   UNL A   1      46.355  27.629  32.427  1.00  0.00     0.010 A 
ATOM     66  C   UNL A   1      48.390  27.662  30.506  1.00  0.00     0.020 A 
ATOM     67  C   UNL A   1      47.557  26.958  32.678  1.00  0.00     0.020 A 
ATOM     68  C   UNL A   1      48.560  26.965  31.707  1.00  0.00     0.054 A 
BRANCH  68  69
ATOM     69  S   UNL A   1      50.124  26.090  31.989  1.00  0.00     0.124 S 
ATOM     70  O   UNL A   1      49.666  24.847  32.603  1.00  0.00    -0.237 OA
ATOM     71  O   UNL A   1      50.665  25.961  30.639  1.00  0.00    -0.237 OA
ATOM     72  O   UNL A   1      50.868  26.983  32.872  1.00  0.00    -0.744 OA
ENDBRANCH  68  69
ENDBRANCH  49  63
BRANCH  50  73
ATOM     73  C   UNL A   1      37.329  32.778  29.707  1.00  0.00    -0.014 A 
ATOM     74  C   UNL A   1      36.365  32.755  30.731  1.00  0.00     0.010 A 
ATOM     75  C   UNL A   1      37.030  33.442  28.502  1.00  0.00     0.010 A 
ATOM     76  C   UNL A   1      35.123  33.371  30.548  1.00  0.00     0.020 A 
ATOM     77  C   UNL A   1      35.801  34.083  28.327  1.00  0.00     0.020 A 
ATOM     78  C   UNL A   1      34.851  34.034  29.348  1.00  0.00     0.054 A 
BRANCH  78  79
ATOM     79  S   UNL A   1      33.252  34.871  29.155  1.00  0.00     0.124 S 
ATOM     80  O   UNL A   1      32.750  34.885  30.524  1.00  0.00    -0.237 OA
ATOM     81  O   UNL A   1      33.642  36.169  28.608  1.00  0.00    -0.237 OA
ATOM     82  O   UNL A   1      32.525  34.007  28.228  1.00  0.00    -0.744 OA
ENDBRANCH  78  79
ENDBRANCH  50  73
BRANCH  62  83
ATOM     83  C   UNL A   1      43.279  34.763  32.764  1.00  0.00    -0.014 A 
ATOM     84  C   UNL A   1      43.908  35.803  32.056  1.00  0.00     0.010 A 
ATOM     85  C   UNL A   1      42.981  34.944  34.127  1.00  0.00     0.010 A 
ATOM     86  C   UNL A   1      44.255  36.990  32.705  1.00  0.00     0.020 A 
ATOM     87  C   UNL A   1      43.299  36.142  34.772  1.00  0.00     0.020 A 
ATOM     88  C   UNL A   1      43.945  37.154  34.059  1.00  0.00     0.054 A 
BRANCH  88  89
ATOM     89  S   UNL A   1      44.355  38.726  34.862  1.00  0.00     0.124 S 
ATOM     90  O   UNL A   1      44.063  38.438  36.264  1.00  0.00    -0.237 OA
ATOM     91  O   UNL A   1      45.768  38.893  34.536  1.00  0.00    -0.237 OA
ATOM     92  O   UNL A   1      43.456  39.687  34.224  1.00  0.00    -0.744 OA
ENDBRANCH  88  89
ENDBRANCH  62  83
ENDBRANCH  36  37
ENDBRANCH  28  31
ENDBRANCH  26  27
ENDBRANCH   1  26
TORSDOF 17
ENDMDL
MODEL 2
REMARK VINA RESULT:     -10.5      3.300      3.932
REMARK SMILES CC(C)(C)c1nnsc1C(=O)N[C@](C)(C(=O)NCCCNC(=O)c1ccc(-c2c3nc(c(-c4ccc(S(=O)(=O)[O-])cc4)c4ccc([nH]4)c(-c4ccc(S(=O)(=O)[O-])cc4)c4nc(c(-c5ccc(S(=O)(=O)[O-])cc5)c5ccc2[nH]5)C=C4)C=C3)cc1)C(F)(F)F
REMARK SMILES IDX 19 1 18 2 17 3 15 4 16 5 13 7 14 8 12 9 10 10 11 11 9 13
REMARK SMILES IDX 5 14 6 15 7 16 8 17 2 18 1 19 3 20 4 21 84 22 85 23 86 24
REMARK SMILES IDX 87 25 20 26 21 27 22 28 23 30 24 31 25 32 83 33 26 34 82 35
REMARK SMILES IDX 27 36 28 37 29 38 76 39 30 40 81 41 75 42 77 43 31 44 80 45
REMARK SMILES IDX 74 46 73 47 32 49 62 50 43 51 61 52 44 53 47 54 60 55 78 56
REMARK SMILES IDX 45 57 46 58 59 60 79 61 48 62 33 63 34 64 42 65 35 66 41 67
REMARK SMILES IDX 36 68 37 69 38 70 39 71 40 72 63 73 64 74 72 75 65 76 71 77
REMARK SMILES IDX 66 78 67 79 68 80 69 81 70 82 49 83 50 84 58 85 51 86 57 87
REMARK SMILES IDX 52 88 53 89 54 90 55 91 56 92
REMARK H PARENT 17 6 12 12 21 29 77 48 47 59
REMARK Flexibility Score: inf
ROOT
ATOM      1  C   UNL A   1      37.173  24.003  25.547  1.00  0.00     0.042 C 
ENDROOT
BRANCH   1   2
ATOM      2  C   UNL A   1      36.783  22.550  25.248  1.00  0.00     0.117 C 
BRANCH   2   3
ATOM      3  N   UNL A   1      35.970  21.935  26.279  1.00  0.00    -0.354 N 
ATOM      4  C   UNL A   1      34.634  21.843  26.502  1.00  0.00     0.254 C 
ATOM      5  O   UNL A   1      34.359  21.632  27.690  1.00  0.00    -0.272 OA
ATOM      6  H   UNL A   1      36.505  21.483  26.971  1.00  0.00     0.163 HD
BRANCH   4   7
ATOM      7  C   UNL A   1      33.541  22.244  25.466  1.00  0.00     0.212 C 
ATOM      8  C   UNL A   1      32.535  23.007  26.360  1.00  0.00     0.056 C 
BRANCH   7   9
ATOM      9  N   UNL A   1      34.027  23.175  24.397  1.00  0.00    -0.330 N 
ATOM     10  C   UNL A   1      33.694  24.329  23.723  1.00  0.00     0.266 C 
ATOM     11  O   UNL A   1      34.542  24.445  22.816  1.00  0.00    -0.268 OA
ATOM     12  H   UNL A   1      34.892  22.845  24.057  1.00  0.00     0.165 HD
BRANCH  10  13
ATOM     13  C   UNL A   1      32.610  25.338  23.837  1.00  0.00     0.137 A 
ATOM     14  C   UNL A   1      32.244  26.691  24.082  1.00  0.00     0.094 A 
ATOM     15  N   UNL A   1      30.875  26.972  23.886  1.00  0.00    -0.142 NA
ATOM     16  N   UNL A   1      30.156  25.932  23.563  1.00  0.00    -0.090 NA
ATOM     17  S   UNL A   1      31.043  24.557  23.460  1.00  0.00    -0.006 S 
BRANCH  14  18
ATOM     18  C   UNL A   1      32.989  27.992  24.421  1.00  0.00     0.008 C 
ATOM     19  C   UNL A   1      33.861  27.837  25.636  1.00  0.00     0.018 C 
ATOM     20  C   UNL A   1      32.035  29.142  24.849  1.00  0.00     0.018 C 
ATOM     21  C   UNL A   1      33.790  28.461  23.190  1.00  0.00     0.018 C 
ENDBRANCH  14  18
ENDBRANCH  10  13
ENDBRANCH   7   9
BRANCH   7  22
ATOM     22  C   UNL A   1      33.180  20.850  24.857  1.00  0.00     0.420 C 
ATOM     23  F   UNL A   1      32.870  20.922  23.546  1.00  0.00    -0.168 F 
ATOM     24  F   UNL A   1      34.218  19.976  24.977  1.00  0.00    -0.168 F 
ATOM     25  F   UNL A   1      32.174  20.219  25.508  1.00  0.00    -0.168 F 
ENDBRANCH   7  22
ENDBRANCH   4   7
ENDBRANCH   2   3
ENDBRANCH   1   2
BRANCH   1  26
ATOM     26  C   UNL A   1      38.181  24.203  26.677  1.00  0.00     0.118 C 
BRANCH  26  27
ATOM     27  N   UNL A   1      39.551  24.040  26.222  1.00  0.00    -0.352 N 
ATOM     28  C   UNL A   1      40.643  24.832  26.458  1.00  0.00     0.251 C 
ATOM     29  H   UNL A   1      39.718  23.247  25.664  1.00  0.00     0.163 HD
ATOM     30  O   UNL A   1      41.640  24.715  25.738  1.00  0.00    -0.269 OA
BRANCH  28  31
ATOM     31  C   UNL A   1      40.633  25.821  27.554  1.00  0.00     0.039 A 
ATOM     32  C   UNL A   1      41.556  26.869  27.536  1.00  0.00     0.014 A 
ATOM     33  C   UNL A   1      39.744  25.688  28.626  1.00  0.00     0.014 A 
ATOM     34  C   UNL A   1      41.552  27.813  28.564  1.00  0.00     0.010 A 
ATOM     35  C   UNL A   1      39.696  26.667  29.614  1.00  0.00     0.010 A 
ATOM     36  C   UNL A   1      40.603  27.737  29.596  1.00  0.00    -0.014 A 
BRANCH  36  37
ATOM     37  C   UNL A   1      40.538  28.769  30.663  1.00  0.00     0.031 A 
ATOM     38  C   UNL A   1      41.445  28.680  31.861  1.00  0.00     0.074 A 
ATOM     39  C   UNL A   1      39.615  29.748  30.583  1.00  0.00     0.049 A 
ATOM     40  N   UNL A   1      41.485  29.444  32.922  1.00  0.00    -0.248 NA
ATOM     41  C   UNL A   1      42.420  27.576  31.878  1.00  0.00     0.031 C 
ATOM     42  C   UNL A   1      38.658  29.920  29.487  1.00  0.00     0.029 A 
ATOM     43  N   UNL A   1      39.323  30.777  31.442  1.00  0.00    -0.354 N 
ATOM     44  C   UNL A   1      42.474  28.906  33.739  1.00  0.00     0.074 A 
ATOM     45  C   UNL A   1      42.976  27.725  33.071  1.00  0.00     0.031 C 
ATOM     46  C   UNL A   1      37.901  31.003  29.731  1.00  0.00     0.029 A 
ATOM     47  C   UNL A   1      38.285  31.573  31.018  1.00  0.00     0.049 A 
ATOM     48  H   UNL A   1      39.810  30.930  32.284  1.00  0.00     0.167 HD
ATOM     49  C   UNL A   1      42.934  29.364  34.928  1.00  0.00     0.031 A 
ATOM     50  C   UNL A   1      37.697  32.634  31.604  1.00  0.00     0.031 A 
ATOM     51  C   UNL A   1      42.431  30.541  35.585  1.00  0.00     0.049 A 
ATOM     52  C   UNL A   1      38.204  33.105  32.940  1.00  0.00     0.074 A 
ATOM     53  C   UNL A   1      42.867  31.121  36.764  1.00  0.00     0.029 A 
ATOM     54  N   UNL A   1      41.378  31.318  35.124  1.00  0.00    -0.354 N 
ATOM     55  N   UNL A   1      39.188  32.623  33.663  1.00  0.00    -0.248 NA
ATOM     56  C   UNL A   1      37.528  34.266  33.535  1.00  0.00     0.031 C 
ATOM     57  C   UNL A   1      42.037  32.211  37.047  1.00  0.00     0.029 A 
ATOM     58  C   UNL A   1      41.126  32.350  36.013  1.00  0.00     0.049 A 
ATOM     59  H   UNL A   1      40.883  31.158  34.288  1.00  0.00     0.167 HD
ATOM     60  C   UNL A   1      39.260  33.434  34.790  1.00  0.00     0.074 A 
ATOM     61  C   UNL A   1      38.236  34.449  34.641  1.00  0.00     0.031 C 
ATOM     62  C   UNL A   1      40.097  33.346  35.853  1.00  0.00     0.031 A 
BRANCH  49  63
ATOM     63  C   UNL A   1      44.031  28.579  35.603  1.00  0.00    -0.014 A 
ATOM     64  C   UNL A   1      45.385  28.820  35.308  1.00  0.00     0.010 A 
ATOM     65  C   UNL A   1      43.705  27.617  36.576  1.00  0.00     0.010 A 
ATOM     66  C   UNL A   1      46.390  28.083  35.940  1.00  0.00     0.020 A 
ATOM     67  C   UNL A   1      44.708  26.898  37.233  1.00  0.00     0.020 A 
ATOM     68  C   UNL A   1      46.045  27.124  36.898  1.00  0.00     0.054 A 
BRANCH  68  69
ATOM     69  S   UNL A   1      47.372  26.197  37.715  1.00  0.00     0.124 S 
ATOM     70  O   UNL A   1      47.039  24.820  37.361  1.00  0.00    -0.237 OA
ATOM     71  O   UNL A   1      48.574  26.735  37.084  1.00  0.00    -0.237 OA
ATOM     72  O   UNL A   1      47.212  26.532  39.128  1.00  0.00    -0.744 OA
ENDBRANCH  68  69
ENDBRANCH  49  63
BRANCH  50  73
ATOM     73  C   UNL A   1      36.562  33.321  30.930  1.00  0.00    -0.014 A 
ATOM     74  C   UNL A   1      35.297  33.380  31.540  1.00  0.00     0.010 A 
ATOM     75  C   UNL A   1      36.746  33.937  29.677  1.00  0.00     0.010 A 
ATOM     76  C   UNL A   1      34.233  34.028  30.904  1.00  0.00     0.020 A 
ATOM     77  C   UNL A   1      35.693  34.611  29.053  1.00  0.00     0.020 A 
ATOM     78  C   UNL A   1      34.440  34.642  29.666  1.00  0.00     0.054 A 
BRANCH  78  79
ATOM     79  S   UNL A   1      33.059  35.524  28.886  1.00  0.00     0.124 S 
ATOM     80  O   UNL A   1      32.300  35.983  30.044  1.00  0.00    -0.237 OA
ATOM     81  O   UNL A   1      33.742  36.564  28.121  1.00  0.00    -0.237 OA
ATOM     82  O   UNL A   1      32.410  34.493  28.078  1.00  0.00    -0.744 OA
ENDBRANCH  78  79
ENDBRANCH  50  73
BRANCH  62  83
ATOM     83  C   UNL A   1      39.955  34.385  36.934  1.00  0.00    -0.014 A 
ATOM     84  C   UNL A   1      40.678  35.590  36.884  1.00  0.00     0.010 A 
ATOM     85  C   UNL A   1      39.039  34.178  37.982  1.00  0.00     0.010 A 
ATOM     86  C   UNL A   1      40.507  36.558  37.876  1.00  0.00     0.020 A 
ATOM     87  C   UNL A   1      38.842  35.157  38.959  1.00  0.00     0.020 A 
ATOM     88  C   UNL A   1      39.587  36.337  38.906  1.00  0.00     0.054 A 
BRANCH  88  89
ATOM     89  S   UNL A   1      39.343  37.634  40.149  1.00  0.00     0.124 S 
ATOM     90  O   UNL A   1      39.062  36.854  41.352  1.00  0.00    -0.237 OA
ATOM     91  O   UNL A   1      40.626  38.332  40.138  1.00  0.00    -0.237 OA
ATOM     92  O   UNL A   1      38.216  38.405  39.629  1.00  0.00    -0.744 OA
ENDBRANCH  88  89
ENDBRANCH  62  83
ENDBRANCH  36  37
ENDBRANCH  28  31
ENDBRANCH  26  27
ENDBRANCH   1  26
TORSDOF 17
ENDMDL
MODEL 3
REMARK VINA RESULT:     -10.3      4.043      9.999
REMARK SMILES CC(C)(C)c1nnsc1C(=O)N[C@](C)(C(=O)NCCCNC(=O)c1ccc(-c2c3nc(c(-c4ccc(S(=O)(=O)[O-])cc4)c4ccc([nH]4)c(-c4ccc(S(=O)(=O)[O-])cc4)c4nc(c(-c5ccc(S(=O)(=O)[O-])cc5)c5ccc2[nH]5)C=C4)C=C3)cc1)C(F)(F)F
REMARK SMILES IDX 19 1 18 2 17 3 15 4 16 5 13 7 14 8 12 9 10 10 11 11 9 13
REMARK SMILES IDX 5 14 6 15 7 16 8 17 2 18 1 19 3 20 4 21 84 22 85 23 86 24
REMARK SMILES IDX 87 25 20 26 21 27 22 28 23 30 24 31 25 32 83 33 26 34 82 35
REMARK SMILES IDX 27 36 28 37 29 38 76 39 30 40 81 41 75 42 77 43 31 44 80 45
REMARK SMILES IDX 74 46 73 47 32 49 62 50 43 51 61 52 44 53 47 54 60 55 78 56
REMARK SMILES IDX 45 57 46 58 59 60 79 61 48 62 33 63 34 64 42 65 35 66 41 67
REMARK SMILES IDX 36 68 37 69 38 70 39 71 40 72 63 73 64 74 72 75 65 76 71 77
REMARK SMILES IDX 66 78 67 79 68 80 69 81 70 82 49 83 50 84 58 85 51 86 57 87
REMARK SMILES IDX 52 88 53 89 54 90 55 91 56 92
REMARK H PARENT 17 6 12 12 21 29 77 48 47 59
REMARK Flexibility Score: inf
ROOT
ATOM      1  C   UNL A   1      34.483  30.831  27.386  1.00  0.00     0.042 C 
ENDROOT
BRANCH   1   2
ATOM      2  C   UNL A   1      33.486  29.922  26.656  1.00  0.00     0.117 C 
BRANCH   2   3
ATOM      3  N   UNL A   1      32.535  29.267  27.534  1.00  0.00    -0.354 N 
ATOM      4  C   UNL A   1      31.812  28.121  27.458  1.00  0.00     0.254 C 
ATOM      5  O   UNL A   1      30.809  28.137  28.183  1.00  0.00    -0.272 OA
ATOM      6  H   UNL A   1      32.378  29.764  28.369  1.00  0.00     0.163 HD
BRANCH   4   7
ATOM      7  C   UNL A   1      32.027  27.015  26.381  1.00  0.00     0.212 C 
ATOM      8  C   UNL A   1      33.572  26.955  26.307  1.00  0.00     0.056 C 
BRANCH   7   9
ATOM      9  N   UNL A   1      31.518  25.665  26.784  1.00  0.00    -0.330 N 
ATOM     10  C   UNL A   1      31.633  24.324  26.489  1.00  0.00     0.266 C 
ATOM     11  O   UNL A   1      30.755  23.754  27.167  1.00  0.00    -0.268 OA
ATOM     12  H   UNL A   1      30.873  25.775  27.521  1.00  0.00     0.165 HD
BRANCH  10  13
ATOM     13  C   UNL A   1      32.493  23.515  25.588  1.00  0.00     0.137 A 
ATOM     14  C   UNL A   1      33.035  23.328  24.286  1.00  0.00     0.094 A 
ATOM     15  N   UNL A   1      33.981  22.286  24.188  1.00  0.00    -0.142 NA
ATOM     16  N   UNL A   1      34.166  21.626  25.298  1.00  0.00    -0.090 NA
ATOM     17  S   UNL A   1      33.247  22.194  26.532  1.00  0.00    -0.006 S 
BRANCH  14  18
ATOM     18  C   UNL A   1      32.930  24.051  22.933  1.00  0.00     0.008 C 
ATOM     19  C   UNL A   1      33.828  25.256  22.871  1.00  0.00     0.018 C 
ATOM     20  C   UNL A   1      31.529  24.677  22.689  1.00  0.00     0.018 C 
ATOM     21  C   UNL A   1      33.220  23.054  21.794  1.00  0.00     0.018 C 
ENDBRANCH  14  18
ENDBRANCH  10  13
ENDBRANCH   7   9
BRANCH   7  22
ATOM     22  C   UNL A   1      31.186  27.586  25.193  1.00  0.00     0.420 C 
ATOM     23  F   UNL A   1      30.826  28.873  25.385  1.00  0.00    -0.168 F 
ATOM     24  F   UNL A   1      31.883  27.534  24.024  1.00  0.00    -0.168 F 
ATOM     25  F   UNL A   1      30.075  26.861  24.919  1.00  0.00    -0.168 F 
ENDBRANCH   7  22
ENDBRANCH   4   7
ENDBRANCH   2   3
ENDBRANCH   1   2
BRANCH   1  26
ATOM     26  C   UNL A   1      35.454  30.128  28.333  1.00  0.00     0.118 C 
BRANCH  26  27
ATOM     27  N   UNL A   1      35.565  30.814  29.609  1.00  0.00    -0.352 N 
ATOM     28  C   UNL A   1      36.584  30.783  30.524  1.00  0.00     0.251 C 
ATOM     29  H   UNL A   1      34.799  31.383  29.851  1.00  0.00     0.163 HD
ATOM     30  O   UNL A   1      36.370  31.168  31.678  1.00  0.00    -0.269 OA
BRANCH  28  31
ATOM     31  C   UNL A   1      37.922  30.290  30.144  1.00  0.00     0.039 A 
ATOM     32  C   UNL A   1      38.332  30.385  28.812  1.00  0.00     0.014 A 
ATOM     33  C   UNL A   1      38.756  29.690  31.093  1.00  0.00     0.014 A 
ATOM     34  C   UNL A   1      39.599  29.928  28.443  1.00  0.00     0.010 A 
ATOM     35  C   UNL A   1      40.044  29.297  30.738  1.00  0.00     0.010 A 
ATOM     36  C   UNL A   1      40.476  29.406  29.407  1.00  0.00    -0.014 A 
BRANCH  36  37
ATOM     37  C   UNL A   1      41.852  28.977  29.048  1.00  0.00     0.031 A 
ATOM     38  C   UNL A   1      42.984  29.969  29.063  1.00  0.00     0.074 A 
ATOM     39  C   UNL A   1      42.067  27.709  28.646  1.00  0.00     0.049 A 
ATOM     40  N   UNL A   1      44.233  29.798  28.714  1.00  0.00    -0.248 NA
ATOM     41  C   UNL A   1      42.666  31.336  29.506  1.00  0.00     0.031 C 
ATOM     42  C   UNL A   1      41.044  26.664  28.559  1.00  0.00     0.029 A 
ATOM     43  N   UNL A   1      43.214  27.085  28.224  1.00  0.00    -0.354 N 
ATOM     44  C   UNL A   1      44.846  31.036  28.879  1.00  0.00     0.074 A 
ATOM     45  C   UNL A   1      43.820  31.959  29.315  1.00  0.00     0.031 C 
ATOM     46  C   UNL A   1      41.614  25.525  28.133  1.00  0.00     0.029 A 
ATOM     47  C   UNL A   1      43.029  25.768  27.873  1.00  0.00     0.049 A 
ATOM     48  H   UNL A   1      44.087  27.537  28.177  1.00  0.00     0.167 HD
ATOM     49  C   UNL A   1      46.147  31.368  28.701  1.00  0.00     0.031 A 
ATOM     50  C   UNL A   1      43.895  24.861  27.382  1.00  0.00     0.031 A 
ATOM     51  C   UNL A   1      47.162  30.444  28.271  1.00  0.00     0.049 A 
ATOM     52  C   UNL A   1      45.328  25.263  27.163  1.00  0.00     0.074 A 
ATOM     53  C   UNL A   1      48.519  30.668  28.113  1.00  0.00     0.029 A 
ATOM     54  N   UNL A   1      46.933  29.121  27.922  1.00  0.00    -0.354 N 
ATOM     55  N   UNL A   1      45.902  26.421  27.392  1.00  0.00    -0.248 NA
ATOM     56  C   UNL A   1      46.231  24.236  26.626  1.00  0.00     0.031 C 
ATOM     57  C   UNL A   1      49.099  29.499  27.611  1.00  0.00     0.029 A 
ATOM     58  C   UNL A   1      48.116  28.527  27.517  1.00  0.00     0.049 A 
ATOM     59  H   UNL A   1      46.057  28.672  27.958  1.00  0.00     0.167 HD
ATOM     60  C   UNL A   1      47.238  26.255  27.045  1.00  0.00     0.074 A 
ATOM     61  C   UNL A   1      47.391  24.880  26.612  1.00  0.00     0.031 C 
ATOM     62  C   UNL A   1      48.248  27.159  27.081  1.00  0.00     0.031 A 
BRANCH  49  63
ATOM     63  C   UNL A   1      46.544  32.800  28.962  1.00  0.00    -0.014 A 
ATOM     64  C   UNL A   1      46.495  33.767  27.942  1.00  0.00     0.010 A 
ATOM     65  C   UNL A   1      46.932  33.193  30.257  1.00  0.00     0.010 A 
ATOM     66  C   UNL A   1      46.869  35.089  28.199  1.00  0.00     0.020 A 
ATOM     67  C   UNL A   1      47.278  34.521  30.526  1.00  0.00     0.020 A 
ATOM     68  C   UNL A   1      47.261  35.457  29.490  1.00  0.00     0.054 A 
BRANCH  68  69
ATOM     69  S   UNL A   1      47.721  37.184  29.798  1.00  0.00     0.124 S 
ATOM     70  O   UNL A   1      48.716  37.045  30.857  1.00  0.00    -0.237 OA
ATOM     71  O   UNL A   1      48.240  37.612  28.501  1.00  0.00    -0.237 OA
ATOM     72  O   UNL A   1      46.466  37.812  30.201  1.00  0.00    -0.744 OA
ENDBRANCH  68  69
ENDBRANCH  49  63
BRANCH  50  73
ATOM     73  C   UNL A   1      43.429  23.483  27.065  1.00  0.00    -0.014 A 
ATOM     74  C   UNL A   1      43.425  23.018  25.738  1.00  0.00     0.010 A 
ATOM     75  C   UNL A   1      43.000  22.622  28.092  1.00  0.00     0.010 A 
ATOM     76  C   UNL A   1      42.988  21.722  25.444  1.00  0.00     0.020 A 
ATOM     77  C   UNL A   1      42.591  21.318  27.805  1.00  0.00     0.020 A 
ATOM     78  C   UNL A   1      42.577  20.880  26.481  1.00  0.00     0.054 A 
BRANCH  78  79
ATOM     79  S   UNL A   1      42.065  19.185  26.079  1.00  0.00     0.124 S 
ATOM     80  O   UNL A   1      42.780  18.941  24.831  1.00  0.00    -0.237 OA
ATOM     81  O   UNL A   1      42.537  18.432  27.239  1.00  0.00    -0.237 OA
ATOM     82  O   UNL A   1      40.613  19.288  25.962  1.00  0.00    -0.744 OA
ENDBRANCH  78  79
ENDBRANCH  50  73
BRANCH  62  83
ATOM     83  C   UNL A   1      49.614  26.689  26.655  1.00  0.00    -0.014 A 
ATOM     84  C   UNL A   1      50.481  26.059  27.565  1.00  0.00     0.010 A 
ATOM     85  C   UNL A   1      50.009  26.825  25.312  1.00  0.00     0.010 A 
ATOM     86  C   UNL A   1      51.730  25.596  27.144  1.00  0.00     0.020 A 
ATOM     87  C   UNL A   1      51.245  26.335  24.880  1.00  0.00     0.020 A 
ATOM     88  C   UNL A   1      52.103  25.734  25.803  1.00  0.00     0.054 A 
BRANCH  88  89
ATOM     89  S   UNL A   1      53.706  25.074  25.273  1.00  0.00     0.124 S 
ATOM     90  O   UNL A   1      53.459  23.634  25.279  1.00  0.00    -0.237 OA
ATOM     91  O   UNL A   1      53.879  25.675  23.953  1.00  0.00    -0.237 OA
ATOM     92  O   UNL A   1      54.634  25.551  26.296  1.00  0.00    -0.744 OA
ENDBRANCH  88  89
ENDBRANCH  62  83
ENDBRANCH  36  37
ENDBRANCH  28  31
ENDBRANCH  26  27
ENDBRANCH   1  26
TORSDOF 17
ENDMDL
