MODEL 1
REMARK VINA RESULT:     -12.9      0.000      0.000
REMARK SMILES O=C(NCCCNC(=O)c1nnn(-c2cccc(OC(F)(F)F)c2)c1-c1ccncc1)c1ccc(-c2c3nc(c(-c4ccc(S(=O)(=O)[O-])cc4)c4ccc([nH]4)c(-c4ccc(S(=O)(=O)[O-])cc4)c4nc(c(-c5ccc(S(=O)(=O)[O-])cc5)c5ccc2[nH]5)C=C4)C=C3)cc1
REMARK SMILES IDX 5 1 4 2 3 3 1 4 2 5 32 7 33 8 91 9 34 10 90 11 35 12 36 13
REMARK SMILES IDX 37 14 84 15 38 16 89 17 83 18 85 19 39 20 88 21 82 22 81 23
REMARK SMILES IDX 40 25 70 26 51 27 69 28 52 29 55 30 68 31 86 32 53 33 54 34
REMARK SMILES IDX 67 36 87 37 56 38 41 39 42 40 50 41 43 42 49 43 44 44 45 45
REMARK SMILES IDX 46 46 47 47 48 48 71 49 72 50 80 51 73 52 79 53 74 54 75 55
REMARK SMILES IDX 76 56 77 57 78 58 57 59 58 60 66 61 59 62 65 63 60 64 61 65
REMARK SMILES IDX 62 66 63 67 64 68 6 69 7 70 8 71 9 73 10 74 11 75 25 76
REMARK SMILES IDX 12 77 13 78 26 79 27 80 31 81 28 82 30 83 29 84 14 85 15 86
REMARK SMILES IDX 24 87 16 88 18 89 17 90 19 91 20 92 21 93 22 94 23 95
REMARK H PARENT 3 6 85 24 55 35 7 72
REMARK Flexibility Score: inf
ROOT
ATOM      1  C   UNL A   1      36.900  22.312  23.977  1.00  0.00     0.042 C 
ENDROOT
BRANCH   1   2
ATOM      2  C   UNL A   1      37.157  21.830  25.399  1.00  0.00     0.118 C 
BRANCH   2   3
ATOM      3  N   UNL A   1      38.465  21.250  25.632  1.00  0.00    -0.352 N 
ATOM      4  O   UNL A   1      40.452  20.755  26.441  1.00  0.00    -0.269 OA
ATOM      5  C   UNL A   1      39.588  21.630  26.314  1.00  0.00     0.251 C 
ATOM      6  H   UNL A   1      38.569  20.374  25.194  1.00  0.00     0.163 HD
BRANCH   5   7
ATOM      7  C   UNL A   1      39.862  22.990  26.859  1.00  0.00     0.039 A 
ATOM      8  C   UNL A   1      39.051  24.114  26.708  1.00  0.00     0.014 A 
ATOM      9  C   UNL A   1      41.059  23.127  27.591  1.00  0.00     0.014 A 
ATOM     10  C   UNL A   1      39.446  25.350  27.229  1.00  0.00     0.010 A 
ATOM     11  C   UNL A   1      41.449  24.353  28.128  1.00  0.00     0.010 A 
ATOM     12  C   UNL A   1      40.649  25.475  27.933  1.00  0.00    -0.014 A 
BRANCH  12  13
ATOM     13  C   UNL A   1      40.944  26.752  28.593  1.00  0.00     0.031 A 
ATOM     14  C   UNL A   1      42.132  27.489  28.068  1.00  0.00     0.074 A 
ATOM     15  C   UNL A   1      40.134  27.371  29.476  1.00  0.00     0.049 A 
ATOM     16  N   UNL A   1      43.199  27.859  28.701  1.00  0.00    -0.248 NA
ATOM     17  C   UNL A   1      42.150  27.806  26.631  1.00  0.00     0.031 C 
ATOM     18  C   UNL A   1      38.771  26.999  29.857  1.00  0.00     0.029 A 
ATOM     19  N   UNL A   1      40.332  28.551  30.137  1.00  0.00    -0.354 N 
ATOM     20  C   UNL A   1      43.952  28.602  27.793  1.00  0.00     0.074 A 
ATOM     21  C   UNL A   1      43.316  28.439  26.509  1.00  0.00     0.031 C 
ATOM     22  C   UNL A   1      38.191  28.040  30.498  1.00  0.00     0.029 A 
ATOM     23  C   UNL A   1      39.178  29.091  30.689  1.00  0.00     0.049 A 
ATOM     24  H   UNL A   1      41.215  28.981  30.215  1.00  0.00     0.167 HD
ATOM     25  C   UNL A   1      44.952  29.448  28.175  1.00  0.00     0.031 A 
ATOM     26  C   UNL A   1      39.022  30.335  31.207  1.00  0.00     0.031 A 
ATOM     27  C   UNL A   1      45.372  29.222  29.529  1.00  0.00     0.049 A 
ATOM     28  C   UNL A   1      40.365  30.871  31.528  1.00  0.00     0.074 A 
ATOM     29  C   UNL A   1      45.914  28.157  30.222  1.00  0.00     0.029 A 
ATOM     30  N   UNL A   1      44.953  30.118  30.482  1.00  0.00    -0.354 N 
ATOM     31  N   UNL A   1      41.126  30.413  32.480  1.00  0.00    -0.248 NA
ATOM     32  C   UNL A   1      41.032  31.718  30.552  1.00  0.00     0.031 C 
ATOM     33  C   UNL A   1      45.371  28.255  31.535  1.00  0.00     0.029 A 
ATOM     34  C   UNL A   1      44.559  29.391  31.574  1.00  0.00     0.049 A 
ATOM     35  H   UNL A   1      44.939  31.099  30.396  1.00  0.00     0.167 HD
ATOM     36  C   UNL A   1      42.420  30.565  32.009  1.00  0.00     0.074 A 
ATOM     37  C   UNL A   1      42.304  31.482  30.879  1.00  0.00     0.031 C 
ATOM     38  C   UNL A   1      43.421  29.724  32.405  1.00  0.00     0.031 A 
BRANCH  25  39
ATOM     39  C   UNL A   1      45.326  30.708  27.430  1.00  0.00    -0.014 A 
ATOM     40  C   UNL A   1      46.668  30.905  27.040  1.00  0.00     0.010 A 
ATOM     41  C   UNL A   1      44.468  31.824  27.344  1.00  0.00     0.010 A 
ATOM     42  C   UNL A   1      47.140  32.169  26.655  1.00  0.00     0.020 A 
ATOM     43  C   UNL A   1      44.916  33.076  26.915  1.00  0.00     0.020 A 
ATOM     44  C   UNL A   1      46.261  33.250  26.612  1.00  0.00     0.054 A 
BRANCH  44  45
ATOM     45  S   UNL A   1      46.900  34.901  26.235  1.00  0.00     0.124 S 
ATOM     46  O   UNL A   1      45.677  35.623  25.892  1.00  0.00    -0.237 OA
ATOM     47  O   UNL A   1      47.531  35.286  27.493  1.00  0.00    -0.237 OA
ATOM     48  O   UNL A   1      47.823  34.666  25.127  1.00  0.00    -0.744 OA
ENDBRANCH  44  45
ENDBRANCH  25  39
BRANCH  26  49
ATOM     49  C   UNL A   1      37.812  31.194  31.209  1.00  0.00    -0.014 A 
ATOM     50  C   UNL A   1      36.737  30.929  32.078  1.00  0.00     0.010 A 
ATOM     51  C   UNL A   1      37.831  32.441  30.553  1.00  0.00     0.010 A 
ATOM     52  C   UNL A   1      35.755  31.902  32.333  1.00  0.00     0.020 A 
ATOM     53  C   UNL A   1      36.851  33.411  30.792  1.00  0.00     0.020 A 
ATOM     54  C   UNL A   1      35.831  33.146  31.702  1.00  0.00     0.054 A 
BRANCH  54  55
ATOM     55  S   UNL A   1      34.674  34.463  32.180  1.00  0.00     0.124 S 
ATOM     56  O   UNL A   1      34.166  34.914  30.887  1.00  0.00    -0.237 OA
ATOM     57  O   UNL A   1      33.716  33.754  33.024  1.00  0.00    -0.237 OA
ATOM     58  O   UNL A   1      35.520  35.425  32.884  1.00  0.00    -0.744 OA
ENDBRANCH  54  55
ENDBRANCH  26  49
BRANCH  38  59
ATOM     59  C   UNL A   1      43.207  28.866  33.630  1.00  0.00    -0.014 A 
ATOM     60  C   UNL A   1      43.277  29.357  34.948  1.00  0.00     0.010 A 
ATOM     61  C   UNL A   1      42.771  27.542  33.431  1.00  0.00     0.010 A 
ATOM     62  C   UNL A   1      42.948  28.539  36.036  1.00  0.00     0.020 A 
ATOM     63  C   UNL A   1      42.419  26.728  34.511  1.00  0.00     0.020 A 
ATOM     64  C   UNL A   1      42.517  27.228  35.810  1.00  0.00     0.054 A 
BRANCH  64  65
ATOM     65  S   UNL A   1      42.024  26.200  37.221  1.00  0.00     0.124 S 
ATOM     66  O   UNL A   1      42.059  24.852  36.660  1.00  0.00    -0.237 OA
ATOM     67  O   UNL A   1      43.055  26.494  38.214  1.00  0.00    -0.237 OA
ATOM     68  O   UNL A   1      40.691  26.693  37.562  1.00  0.00    -0.744 OA
ENDBRANCH  64  65
ENDBRANCH  38  59
ENDBRANCH  12  13
ENDBRANCH   5   7
ENDBRANCH   2   3
ENDBRANCH   1   2
BRANCH   1  69
ATOM     69  C   UNL A   1      35.799  23.355  23.833  1.00  0.00     0.118 C 
BRANCH  69  70
ATOM     70  N   UNL A   1      34.733  22.975  22.921  1.00  0.00    -0.351 N 
ATOM     71  C   UNL A   1      33.706  23.744  22.411  1.00  0.00     0.274 C 
ATOM     72  H   UNL A   1      34.746  22.037  22.625  1.00  0.00     0.163 HD
ATOM     73  O   UNL A   1      32.897  23.215  21.660  1.00  0.00    -0.267 OA
BRANCH  71  74
ATOM     74  C   UNL A   1      33.616  25.152  22.776  1.00  0.00     0.178 A 
ATOM     75  N   UNL A   1      33.986  26.147  21.907  1.00  0.00    -0.124 NA
ATOM     76  C   UNL A   1      33.147  25.722  23.954  1.00  0.00     0.108 A 
ATOM     77  N   UNL A   1      33.676  27.313  22.453  1.00  0.00    -0.061 NA
ATOM     78  N   UNL A   1      33.261  27.087  23.717  1.00  0.00    -0.212 N 
BRANCH  76  79
ATOM     79  C   UNL A   1      32.475  25.120  25.108  1.00  0.00     0.006 A 
ATOM     80  C   UNL A   1      33.196  24.461  26.100  1.00  0.00     0.030 A 
ATOM     81  C   UNL A   1      31.077  25.160  25.200  1.00  0.00     0.030 A 
ATOM     82  C   UNL A   1      32.489  23.877  27.138  1.00  0.00     0.111 A 
ATOM     83  C   UNL A   1      30.463  24.540  26.271  1.00  0.00     0.111 A 
ATOM     84  N   UNL A   1      31.143  23.901  27.243  1.00  0.00    -0.265 NA
ENDBRANCH  76  79
BRANCH  78  85
ATOM     85  C   UNL A   1      32.946  28.145  24.600  1.00  0.00     0.071 A 
ATOM     86  C   UNL A   1      31.820  28.933  24.356  1.00  0.00     0.029 A 
ATOM     87  C   UNL A   1      33.711  28.325  25.765  1.00  0.00     0.075 A 
ATOM     88  C   UNL A   1      31.406  29.835  25.334  1.00  0.00     0.006 A 
ATOM     89  C   UNL A   1      33.315  29.250  26.726  1.00  0.00     0.131 A 
ATOM     90  C   UNL A   1      32.143  29.982  26.515  1.00  0.00     0.047 A 
BRANCH  89  91
ATOM     91  O   UNL A   1      33.956  29.511  27.904  1.00  0.00    -0.406 OA
BRANCH  91  92
ATOM     92  C   UNL A   1      35.027  30.441  27.878  1.00  0.00     0.573 C 
ATOM     93  F   UNL A   1      34.747  31.497  27.086  1.00  0.00    -0.132 F 
ATOM     94  F   UNL A   1      35.317  30.884  29.122  1.00  0.00    -0.132 F 
ATOM     95  F   UNL A   1      36.128  29.830  27.389  1.00  0.00    -0.132 F 
ENDBRANCH  91  92
ENDBRANCH  89  91
ENDBRANCH  78  85
ENDBRANCH  71  74
ENDBRANCH  69  70
ENDBRANCH   1  69
TORSDOF 17
ENDMDL
MODEL 2
REMARK VINA RESULT:     -12.4      2.190      2.949
REMARK SMILES O=C(NCCCNC(=O)c1nnn(-c2cccc(OC(F)(F)F)c2)c1-c1ccncc1)c1ccc(-c2c3nc(c(-c4ccc(S(=O)(=O)[O-])cc4)c4ccc([nH]4)c(-c4ccc(S(=O)(=O)[O-])cc4)c4nc(c(-c5ccc(S(=O)(=O)[O-])cc5)c5ccc2[nH]5)C=C4)C=C3)cc1
REMARK SMILES IDX 5 1 4 2 3 3 1 4 2 5 32 7 33 8 91 9 34 10 90 11 35 12 36 13
REMARK SMILES IDX 37 14 84 15 38 16 89 17 83 18 85 19 39 20 88 21 82 22 81 23
REMARK SMILES IDX 40 25 70 26 51 27 69 28 52 29 55 30 68 31 86 32 53 33 54 34
REMARK SMILES IDX 67 36 87 37 56 38 41 39 42 40 50 41 43 42 49 43 44 44 45 45
REMARK SMILES IDX 46 46 47 47 48 48 71 49 72 50 80 51 73 52 79 53 74 54 75 55
REMARK SMILES IDX 76 56 77 57 78 58 57 59 58 60 66 61 59 62 65 63 60 64 61 65
REMARK SMILES IDX 62 66 63 67 64 68 6 69 7 70 8 71 9 73 10 74 11 75 25 76
REMARK SMILES IDX 12 77 13 78 26 79 27 80 31 81 28 82 30 83 29 84 14 85 15 86
REMARK SMILES IDX 24 87 16 88 18 89 17 90 19 91 20 92 21 93 22 94 23 95
REMARK H PARENT 3 6 85 24 55 35 7 72
REMARK Flexibility Score: inf
ROOT
ATOM      1  C   UNL A   1      35.481  22.388  24.873  1.00  0.00     0.042 C 
ENDROOT
BRANCH   1   2
ATOM      2  C   UNL A   1      36.877  22.978  24.714  1.00  0.00     0.118 C 
BRANCH   2   3
ATOM      3  N   UNL A   1      37.971  22.077  25.017  1.00  0.00    -0.352 N 
ATOM      4  O   UNL A   1      39.649  21.029  25.982  1.00  0.00    -0.269 OA
ATOM      5  C   UNL A   1      39.032  22.094  25.881  1.00  0.00     0.251 C 
ATOM      6  H   UNL A   1      37.945  21.259  24.470  1.00  0.00     0.163 HD
BRANCH   5   7
ATOM      7  C   UNL A   1      39.513  23.276  26.652  1.00  0.00     0.039 A 
ATOM      8  C   UNL A   1      40.659  23.328  27.445  1.00  0.00     0.014 A 
ATOM      9  C   UNL A   1      38.720  24.437  26.554  1.00  0.00     0.014 A 
ATOM     10  C   UNL A   1      40.977  24.487  28.160  1.00  0.00     0.010 A 
ATOM     11  C   UNL A   1      39.042  25.601  27.250  1.00  0.00     0.010 A 
ATOM     12  C   UNL A   1      40.166  25.624  28.070  1.00  0.00    -0.014 A 
BRANCH  12  13
ATOM     13  C   UNL A   1      40.623  26.862  28.711  1.00  0.00     0.031 A 
ATOM     14  C   UNL A   1      41.840  27.486  28.110  1.00  0.00     0.074 A 
ATOM     15  C   UNL A   1      39.935  27.549  29.645  1.00  0.00     0.049 A 
ATOM     16  N   UNL A   1      42.976  27.748  28.674  1.00  0.00    -0.248 NA
ATOM     17  C   UNL A   1      41.796  27.810  26.676  1.00  0.00     0.031 C 
ATOM     18  C   UNL A   1      38.570  27.306  30.112  1.00  0.00     0.029 A 
ATOM     19  N   UNL A   1      40.287  28.700  30.293  1.00  0.00    -0.354 N 
ATOM     20  C   UNL A   1      43.737  28.423  27.719  1.00  0.00     0.074 A 
ATOM     21  C   UNL A   1      43.007  28.330  26.479  1.00  0.00     0.031 C 
ATOM     22  C   UNL A   1      38.134  28.392  30.791  1.00  0.00     0.029 A 
ATOM     23  C   UNL A   1      39.227  29.343  30.919  1.00  0.00     0.049 A 
ATOM     24  H   UNL A   1      41.210  29.043  30.314  1.00  0.00     0.167 HD
ATOM     25  C   UNL A   1      44.835  29.166  28.037  1.00  0.00     0.031 A 
ATOM     26  C   UNL A   1      39.225  30.593  31.447  1.00  0.00     0.031 A 
ATOM     27  C   UNL A   1      45.318  28.891  29.361  1.00  0.00     0.049 A 
ATOM     28  C   UNL A   1      40.630  30.996  31.681  1.00  0.00     0.074 A 
ATOM     29  C   UNL A   1      45.800  27.775  30.016  1.00  0.00     0.029 A 
ATOM     30  N   UNL A   1      45.049  29.816  30.340  1.00  0.00    -0.354 N 
ATOM     31  N   UNL A   1      41.404  30.460  32.582  1.00  0.00    -0.248 NA
ATOM     32  C   UNL A   1      41.312  31.783  30.665  1.00  0.00     0.031 C 
ATOM     33  C   UNL A   1      45.354  27.914  31.361  1.00  0.00     0.029 A 
ATOM     34  C   UNL A   1      44.658  29.122  31.454  1.00  0.00     0.049 A 
ATOM     35  H   UNL A   1      45.123  30.795  30.256  1.00  0.00     0.167 HD
ATOM     36  C   UNL A   1      42.673  30.491  32.028  1.00  0.00     0.074 A 
ATOM     37  C   UNL A   1      42.573  31.424  30.909  1.00  0.00     0.031 C 
ATOM     38  C   UNL A   1      43.613  29.557  32.357  1.00  0.00     0.031 A 
BRANCH  25  39
ATOM     39  C   UNL A   1      45.279  30.391  27.270  1.00  0.00    -0.014 A 
ATOM     40  C   UNL A   1      46.658  30.679  27.172  1.00  0.00     0.010 A 
ATOM     41  C   UNL A   1      44.387  31.410  26.883  1.00  0.00     0.010 A 
ATOM     42  C   UNL A   1      47.113  31.946  26.777  1.00  0.00     0.020 A 
ATOM     43  C   UNL A   1      44.830  32.660  26.440  1.00  0.00     0.020 A 
ATOM     44  C   UNL A   1      46.192  32.933  26.429  1.00  0.00     0.054 A 
BRANCH  44  45
ATOM     45  S   UNL A   1      46.780  34.600  26.039  1.00  0.00     0.124 S 
ATOM     46  O   UNL A   1      45.536  35.281  25.689  1.00  0.00    -0.237 OA
ATOM     47  O   UNL A   1      47.398  35.015  27.295  1.00  0.00    -0.237 OA
ATOM     48  O   UNL A   1      47.711  34.385  24.934  1.00  0.00    -0.744 OA
ENDBRANCH  44  45
ENDBRANCH  25  39
BRANCH  26  49
ATOM     49  C   UNL A   1      38.105  31.563  31.529  1.00  0.00    -0.014 A 
ATOM     50  C   UNL A   1      36.800  31.198  31.146  1.00  0.00     0.010 A 
ATOM     51  C   UNL A   1      38.264  32.765  32.247  1.00  0.00     0.010 A 
ATOM     52  C   UNL A   1      35.690  31.971  31.528  1.00  0.00     0.020 A 
ATOM     53  C   UNL A   1      37.166  33.547  32.621  1.00  0.00     0.020 A 
ATOM     54  C   UNL A   1      35.881  33.132  32.282  1.00  0.00     0.054 A 
BRANCH  54  55
ATOM     55  S   UNL A   1      34.436  34.021  32.935  1.00  0.00     0.124 S 
ATOM     56  O   UNL A   1      34.963  34.611  34.162  1.00  0.00    -0.237 OA
ATOM     57  O   UNL A   1      34.130  34.962  31.861  1.00  0.00    -0.237 OA
ATOM     58  O   UNL A   1      33.444  32.965  33.130  1.00  0.00    -0.744 OA
ENDBRANCH  54  55
ENDBRANCH  26  49
BRANCH  38  59
ATOM     59  C   UNL A   1      43.397  28.714  33.593  1.00  0.00    -0.014 A 
ATOM     60  C   UNL A   1      43.844  29.082  34.876  1.00  0.00     0.010 A 
ATOM     61  C   UNL A   1      42.579  27.575  33.471  1.00  0.00     0.010 A 
ATOM     62  C   UNL A   1      43.506  28.318  36.001  1.00  0.00     0.020 A 
ATOM     63  C   UNL A   1      42.219  26.821  34.591  1.00  0.00     0.020 A 
ATOM     64  C   UNL A   1      42.691  27.192  35.851  1.00  0.00     0.054 A 
BRANCH  64  65
ATOM     65  S   UNL A   1      42.198  26.251  37.321  1.00  0.00     0.124 S 
ATOM     66  O   UNL A   1      42.331  24.867  36.872  1.00  0.00    -0.237 OA
ATOM     67  O   UNL A   1      43.171  26.681  38.324  1.00  0.00    -0.237 OA
ATOM     68  O   UNL A   1      40.827  26.690  37.573  1.00  0.00    -0.744 OA
ENDBRANCH  64  65
ENDBRANCH  38  59
ENDBRANCH  12  13
ENDBRANCH   5   7
ENDBRANCH   2   3
ENDBRANCH   1   2
BRANCH   1  69
ATOM     69  C   UNL A   1      34.352  23.406  24.971  1.00  0.00     0.118 C 
BRANCH  69  70
ATOM     70  N   UNL A   1      33.462  23.202  26.101  1.00  0.00    -0.351 N 
ATOM     71  C   UNL A   1      32.196  23.711  26.317  1.00  0.00     0.274 C 
ATOM     72  H   UNL A   1      33.809  22.617  26.812  1.00  0.00     0.163 HD
ATOM     73  O   UNL A   1      31.620  23.420  27.357  1.00  0.00    -0.267 OA
BRANCH  71  74
ATOM     74  C   UNL A   1      31.589  24.571  25.310  1.00  0.00     0.178 A 
ATOM     75  N   UNL A   1      30.734  24.073  24.359  1.00  0.00    -0.124 NA
ATOM     76  C   UNL A   1      31.710  25.946  25.146  1.00  0.00     0.108 A 
ATOM     77  N   UNL A   1      30.240  25.092  23.671  1.00  0.00    -0.061 NA
ATOM     78  N   UNL A   1      30.881  26.213  24.061  1.00  0.00    -0.212 N 
BRANCH  76  79
ATOM     79  C   UNL A   1      32.343  26.960  25.992  1.00  0.00     0.006 A 
ATOM     80  C   UNL A   1      31.619  27.642  26.966  1.00  0.00     0.030 A 
ATOM     81  C   UNL A   1      33.689  27.293  25.792  1.00  0.00     0.030 A 
ATOM     82  C   UNL A   1      32.273  28.620  27.697  1.00  0.00     0.111 A 
ATOM     83  C   UNL A   1      34.249  28.290  26.567  1.00  0.00     0.111 A 
ATOM     84  N   UNL A   1      33.567  28.959  27.517  1.00  0.00    -0.265 NA
ENDBRANCH  76  79
BRANCH  78  85
ATOM     85  C   UNL A   1      30.646  27.462  23.442  1.00  0.00     0.071 A 
ATOM     86  C   UNL A   1      31.629  28.019  22.623  1.00  0.00     0.029 A 
ATOM     87  C   UNL A   1      29.389  28.075  23.577  1.00  0.00     0.075 A 
ATOM     88  C   UNL A   1      31.311  29.141  21.860  1.00  0.00     0.006 A 
ATOM     89  C   UNL A   1      29.085  29.216  22.840  1.00  0.00     0.131 A 
ATOM     90  C   UNL A   1      30.044  29.727  21.961  1.00  0.00     0.047 A 
BRANCH  89  91
ATOM     91  O   UNL A   1      27.901  29.898  22.867  1.00  0.00    -0.406 OA
BRANCH  91  92
ATOM     92  C   UNL A   1      27.901  31.194  23.445  1.00  0.00     0.573 C 
ATOM     93  F   UNL A   1      29.033  31.423  24.143  1.00  0.00    -0.132 F 
ATOM     94  F   UNL A   1      27.763  32.149  22.498  1.00  0.00    -0.132 F 
ATOM     95  F   UNL A   1      26.856  31.296  24.294  1.00  0.00    -0.132 F 
ENDBRANCH  91  92
ENDBRANCH  89  91
ENDBRANCH  78  85
ENDBRANCH  71  74
ENDBRANCH  69  70
ENDBRANCH   1  69
TORSDOF 17
ENDMDL
MODEL 3
REMARK VINA RESULT:     -12.0      2.714      9.278
REMARK SMILES O=C(NCCCNC(=O)c1nnn(-c2cccc(OC(F)(F)F)c2)c1-c1ccncc1)c1ccc(-c2c3nc(c(-c4ccc(S(=O)(=O)[O-])cc4)c4ccc([nH]4)c(-c4ccc(S(=O)(=O)[O-])cc4)c4nc(c(-c5ccc(S(=O)(=O)[O-])cc5)c5ccc2[nH]5)C=C4)C=C3)cc1
REMARK SMILES IDX 5 1 4 2 3 3 1 4 2 5 32 7 33 8 91 9 34 10 90 11 35 12 36 13
REMARK SMILES IDX 37 14 84 15 38 16 89 17 83 18 85 19 39 20 88 21 82 22 81 23
REMARK SMILES IDX 40 25 70 26 51 27 69 28 52 29 55 30 68 31 86 32 53 33 54 34
REMARK SMILES IDX 67 36 87 37 56 38 41 39 42 40 50 41 43 42 49 43 44 44 45 45
REMARK SMILES IDX 46 46 47 47 48 48 71 49 72 50 80 51 73 52 79 53 74 54 75 55
REMARK SMILES IDX 76 56 77 57 78 58 57 59 58 60 66 61 59 62 65 63 60 64 61 65
REMARK SMILES IDX 62 66 63 67 64 68 6 69 7 70 8 71 9 73 10 74 11 75 25 76
REMARK SMILES IDX 12 77 13 78 26 79 27 80 31 81 28 82 30 83 29 84 14 85 15 86
REMARK SMILES IDX 24 87 16 88 18 89 17 90 19 91 20 92 21 93 22 94 23 95
REMARK H PARENT 3 6 85 24 55 35 7 72
REMARK Flexibility Score: inf
ROOT
ATOM      1  C   UNL A   1      31.937  29.181  27.136  1.00  0.00     0.042 C 
ENDROOT
BRANCH   1   2
ATOM      2  C   UNL A   1      33.340  29.770  27.218  1.00  0.00     0.118 C 
BRANCH   2   3
ATOM      3  N   UNL A   1      33.441  31.041  27.907  1.00  0.00    -0.352 N 
ATOM      4  O   UNL A   1      34.154  32.949  28.744  1.00  0.00    -0.269 OA
ATOM      5  C   UNL A   1      34.469  31.812  28.377  1.00  0.00     0.251 C 
ATOM      6  H   UNL A   1      32.560  31.444  28.079  1.00  0.00     0.163 HD
BRANCH   5   7
ATOM      7  C   UNL A   1      35.890  31.383  28.518  1.00  0.00     0.039 A 
ATOM      8  C   UNL A   1      36.963  32.200  28.875  1.00  0.00     0.014 A 
ATOM      9  C   UNL A   1      36.148  30.021  28.263  1.00  0.00     0.014 A 
ATOM     10  C   UNL A   1      38.262  31.684  28.925  1.00  0.00     0.010 A 
ATOM     11  C   UNL A   1      37.438  29.498  28.330  1.00  0.00     0.010 A 
ATOM     12  C   UNL A   1      38.504  30.334  28.647  1.00  0.00    -0.014 A 
BRANCH  12  13
ATOM     13  C   UNL A   1      39.855  29.807  28.866  1.00  0.00     0.031 A 
ATOM     14  C   UNL A   1      40.290  29.720  30.292  1.00  0.00     0.074 A 
ATOM     15  C   UNL A   1      40.626  29.237  27.917  1.00  0.00     0.049 A 
ATOM     16  N   UNL A   1      41.308  30.281  30.862  1.00  0.00    -0.248 NA
ATOM     17  C   UNL A   1      39.440  28.948  31.212  1.00  0.00     0.031 C 
ATOM     18  C   UNL A   1      40.255  28.900  26.542  1.00  0.00     0.029 A 
ATOM     19  N   UNL A   1      41.889  28.727  28.033  1.00  0.00    -0.354 N 
ATOM     20  C   UNL A   1      41.332  29.803  32.172  1.00  0.00     0.074 A 
ATOM     21  C   UNL A   1      40.099  29.081  32.363  1.00  0.00     0.031 C 
ATOM     22  C   UNL A   1      41.178  28.055  26.028  1.00  0.00     0.029 A 
ATOM     23  C   UNL A   1      42.263  27.898  26.983  1.00  0.00     0.049 A 
ATOM     24  H   UNL A   1      42.482  28.929  28.793  1.00  0.00     0.167 HD
ATOM     25  C   UNL A   1      42.436  29.879  32.969  1.00  0.00     0.031 A 
ATOM     26  C   UNL A   1      43.351  27.091  26.926  1.00  0.00     0.031 A 
ATOM     27  C   UNL A   1      43.417  30.797  32.461  1.00  0.00     0.049 A 
ATOM     28  C   UNL A   1      44.328  27.562  27.933  1.00  0.00     0.074 A 
ATOM     29  C   UNL A   1      43.441  32.148  32.182  1.00  0.00     0.029 A 
ATOM     30  N   UNL A   1      44.528  30.266  31.853  1.00  0.00    -0.354 N 
ATOM     31  N   UNL A   1      44.980  28.687  27.849  1.00  0.00    -0.248 NA
ATOM     32  C   UNL A   1      44.340  26.933  29.245  1.00  0.00     0.031 C 
ATOM     33  C   UNL A   1      44.290  32.277  31.045  1.00  0.00     0.029 A 
ATOM     34  C   UNL A   1      44.759  31.001  30.721  1.00  0.00     0.049 A 
ATOM     35  H   UNL A   1      45.059  29.499  32.172  1.00  0.00     0.167 HD
ATOM     36  C   UNL A   1      45.129  29.113  29.159  1.00  0.00     0.074 A 
ATOM     37  C   UNL A   1      44.829  27.939  29.973  1.00  0.00     0.031 C 
ATOM     38  C   UNL A   1      45.216  30.440  29.467  1.00  0.00     0.031 A 
BRANCH  25  39
ATOM     39  C   UNL A   1      42.777  28.870  34.042  1.00  0.00    -0.014 A 
ATOM     40  C   UNL A   1      43.059  27.538  33.670  1.00  0.00     0.010 A 
ATOM     41  C   UNL A   1      42.561  29.117  35.413  1.00  0.00     0.010 A 
ATOM     42  C   UNL A   1      43.051  26.499  34.613  1.00  0.00     0.020 A 
ATOM     43  C   UNL A   1      42.600  28.097  36.368  1.00  0.00     0.020 A 
ATOM     44  C   UNL A   1      42.805  26.786  35.955  1.00  0.00     0.054 A 
BRANCH  44  45
ATOM     45  S   UNL A   1      42.674  25.429  37.146  1.00  0.00     0.124 S 
ATOM     46  O   UNL A   1      41.285  25.014  36.974  1.00  0.00    -0.237 OA
ATOM     47  O   UNL A   1      43.680  24.490  36.659  1.00  0.00    -0.237 OA
ATOM     48  O   UNL A   1      42.987  26.063  38.424  1.00  0.00    -0.744 OA
ENDBRANCH  44  45
ENDBRANCH  25  39
BRANCH  26  49
ATOM     49  C   UNL A   1      43.502  25.785  26.236  1.00  0.00    -0.014 A 
ATOM     50  C   UNL A   1      44.626  25.515  25.432  1.00  0.00     0.010 A 
ATOM     51  C   UNL A   1      42.677  24.699  26.593  1.00  0.00     0.010 A 
ATOM     52  C   UNL A   1      44.949  24.200  25.057  1.00  0.00     0.020 A 
ATOM     53  C   UNL A   1      42.985  23.388  26.214  1.00  0.00     0.020 A 
ATOM     54  C   UNL A   1      44.135  23.141  25.470  1.00  0.00     0.054 A 
BRANCH  54  55
ATOM     55  S   UNL A   1      44.661  21.432  25.147  1.00  0.00     0.124 S 
ATOM     56  O   UNL A   1      43.679  20.658  25.901  1.00  0.00    -0.237 OA
ATOM     57  O   UNL A   1      44.561  21.338  23.693  1.00  0.00    -0.237 OA
ATOM     58  O   UNL A   1      46.023  21.387  25.674  1.00  0.00    -0.744 OA
ENDBRANCH  54  55
ENDBRANCH  26  49
BRANCH  38  59
ATOM     59  C   UNL A   1      45.521  31.424  28.360  1.00  0.00    -0.014 A 
ATOM     60  C   UNL A   1      44.541  31.966  27.507  1.00  0.00     0.010 A 
ATOM     61  C   UNL A   1      46.832  31.930  28.281  1.00  0.00     0.010 A 
ATOM     62  C   UNL A   1      44.869  32.966  26.583  1.00  0.00     0.020 A 
ATOM     63  C   UNL A   1      47.161  32.943  27.376  1.00  0.00     0.020 A 
ATOM     64  C   UNL A   1      46.178  33.452  26.525  1.00  0.00     0.054 A 
BRANCH  64  65
ATOM     65  S   UNL A   1      46.577  34.797  25.375  1.00  0.00     0.124 S 
ATOM     66  O   UNL A   1      45.639  34.567  24.280  1.00  0.00    -0.237 OA
ATOM     67  O   UNL A   1      46.326  35.994  26.176  1.00  0.00    -0.237 OA
ATOM     68  O   UNL A   1      47.982  34.568  25.045  1.00  0.00    -0.744 OA
ENDBRANCH  64  65
ENDBRANCH  38  59
ENDBRANCH  12  13
ENDBRANCH   5   7
ENDBRANCH   2   3
ENDBRANCH   1   2
BRANCH   1  69
ATOM     69  C   UNL A   1      31.844  27.685  27.410  1.00  0.00     0.118 C 
BRANCH  69  70
ATOM     70  N   UNL A   1      30.674  27.046  26.832  1.00  0.00    -0.351 N 
ATOM     71  C   UNL A   1      30.552  25.785  26.281  1.00  0.00     0.274 C 
ATOM     72  H   UNL A   1      29.852  27.588  26.833  1.00  0.00     0.163 HD
ATOM     73  O   UNL A   1      29.464  25.447  25.832  1.00  0.00    -0.267 OA
BRANCH  71  74
ATOM     74  C   UNL A   1      31.709  24.901  26.253  1.00  0.00     0.178 A 
ATOM     75  N   UNL A   1      31.860  23.882  27.160  1.00  0.00    -0.124 NA
ATOM     76  C   UNL A   1      32.776  24.885  25.362  1.00  0.00     0.108 A 
ATOM     77  N   UNL A   1      32.924  23.172  26.814  1.00  0.00    -0.061 NA
ATOM     78  N   UNL A   1      33.542  23.809  25.798  1.00  0.00    -0.212 N 
BRANCH  76  79
ATOM     79  C   UNL A   1      32.998  25.629  24.120  1.00  0.00     0.006 A 
ATOM     80  C   UNL A   1      32.564  25.131  22.894  1.00  0.00     0.030 A 
ATOM     81  C   UNL A   1      33.703  26.839  24.148  1.00  0.00     0.030 A 
ATOM     82  C   UNL A   1      32.850  25.867  21.756  1.00  0.00     0.111 A 
ATOM     83  C   UNL A   1      33.946  27.495  22.956  1.00  0.00     0.111 A 
ATOM     84  N   UNL A   1      33.531  27.033  21.761  1.00  0.00    -0.265 NA
ENDBRANCH  76  79
BRANCH  78  85
ATOM     85  C   UNL A   1      34.768  23.351  25.265  1.00  0.00     0.071 A 
ATOM     86  C   UNL A   1      34.886  23.147  23.889  1.00  0.00     0.029 A 
ATOM     87  C   UNL A   1      35.879  23.204  26.112  1.00  0.00     0.075 A 
ATOM     88  C   UNL A   1      36.147  22.894  23.353  1.00  0.00     0.006 A 
ATOM     89  C   UNL A   1      37.132  22.918  25.579  1.00  0.00     0.131 A 
ATOM     90  C   UNL A   1      37.262  22.792  24.193  1.00  0.00     0.047 A 
BRANCH  89  91
ATOM     91  O   UNL A   1      38.291  22.765  26.286  1.00  0.00    -0.406 OA
BRANCH  91  92
ATOM     92  C   UNL A   1      38.881  23.929  26.842  1.00  0.00     0.573 C 
ATOM     93  F   UNL A   1      37.980  24.657  27.536  1.00  0.00    -0.132 F 
ATOM     94  F   UNL A   1      39.913  23.611  27.655  1.00  0.00    -0.132 F 
ATOM     95  F   UNL A   1      39.362  24.700  25.843  1.00  0.00    -0.132 F 
ENDBRANCH  91  92
ENDBRANCH  89  91
ENDBRANCH  78  85
ENDBRANCH  71  74
ENDBRANCH  69  70
ENDBRANCH   1  69
TORSDOF 17
ENDMDL
