MODEL 1
REMARK VINA RESULT:     -13.1      0.000      0.000
REMARK SMILES O=C(NCCCNC(=O)[C@H]1[C@@H](C(=O)NN2CCOCC2)[C@H]2C=C[C@@H]1CC2)c1ccc(-c2c3nc(c(-c4ccc(S(=O)(=O)[O-])cc4)c4ccc([nH]4)c(-c4ccc(S(=O)(=O)[O-])cc4)c4nc(c(-c5ccc(S(=O)(=O)[O-])cc5)c5ccc2[nH]5)C=C4)C=C3)cc1
REMARK SMILES IDX 4 1 3 2 1 3 2 4 27 6 28 7 86 8 29 9 85 10 30 11 31 12 32 13
REMARK SMILES IDX 79 14 33 15 84 16 78 17 80 18 34 19 83 20 77 21 76 22 35 24
REMARK SMILES IDX 65 25 46 26 64 27 47 28 50 29 63 30 81 31 48 32 49 33 62 35
REMARK SMILES IDX 82 36 51 37 36 38 37 39 45 40 38 41 44 42 39 43 40 44 41 45
REMARK SMILES IDX 42 46 43 47 66 48 67 49 75 50 68 51 74 52 69 53 70 54 71 55
REMARK SMILES IDX 72 56 73 57 52 58 53 59 61 60 54 61 60 62 55 63 56 64 57 65
REMARK SMILES IDX 58 66 59 67 5 68 6 69 7 70 8 71 9 73 10 74 11 75 24 76 21 77
REMARK SMILES IDX 23 78 25 79 22 80 26 81 12 82 13 83 14 84 15 86 16 87 20 88
REMARK SMILES IDX 17 89 19 90 18 91
REMARK H PARENT 3 5 80 23 50 34 7 72 14 85
REMARK Flexibility Score: inf
ROOT
ATOM      1  C   UNL A   1      40.138  23.466  27.134  1.00  0.00     0.118 C 
ENDROOT
BRANCH   1   2
ATOM      2  N   UNL A   1      40.929  24.187  26.149  1.00  0.00    -0.352 N 
ATOM      3  O   UNL A   1      41.635  25.995  25.012  1.00  0.00    -0.269 OA
ATOM      4  C   UNL A   1      41.205  25.530  26.060  1.00  0.00     0.251 C 
ATOM      5  H   UNL A   1      41.324  23.630  25.441  1.00  0.00     0.163 HD
BRANCH   4   6
ATOM      6  C   UNL A   1      40.955  26.414  27.221  1.00  0.00     0.039 A 
ATOM      7  C   UNL A   1      41.683  27.593  27.386  1.00  0.00     0.014 A 
ATOM      8  C   UNL A   1      39.963  26.078  28.145  1.00  0.00     0.014 A 
ATOM      9  C   UNL A   1      41.555  28.330  28.556  1.00  0.00     0.010 A 
ATOM     10  C   UNL A   1      39.750  26.890  29.264  1.00  0.00     0.010 A 
ATOM     11  C   UNL A   1      40.573  28.001  29.503  1.00  0.00    -0.014 A 
BRANCH  11  12
ATOM     12  C   UNL A   1      40.403  28.869  30.699  1.00  0.00     0.031 A 
ATOM     13  C   UNL A   1      41.312  28.742  31.892  1.00  0.00     0.074 A 
ATOM     14  C   UNL A   1      39.440  29.813  30.684  1.00  0.00     0.049 A 
ATOM     15  N   UNL A   1      41.340  29.464  32.985  1.00  0.00    -0.248 NA
ATOM     16  C   UNL A   1      42.315  27.665  31.865  1.00  0.00     0.031 C 
ATOM     17  C   UNL A   1      38.491  30.034  29.588  1.00  0.00     0.029 A 
ATOM     18  N   UNL A   1      39.117  30.784  31.597  1.00  0.00    -0.354 N 
ATOM     19  C   UNL A   1      42.337  28.915  33.784  1.00  0.00     0.074 A 
ATOM     20  C   UNL A   1      42.875  27.783  33.062  1.00  0.00     0.031 C 
ATOM     21  C   UNL A   1      37.742  31.110  29.861  1.00  0.00     0.029 A 
ATOM     22  C   UNL A   1      38.102  31.615  31.181  1.00  0.00     0.049 A 
ATOM     23  H   UNL A   1      39.568  30.878  32.467  1.00  0.00     0.167 HD
ATOM     24  C   UNL A   1      42.767  29.320  35.004  1.00  0.00     0.031 A 
ATOM     25  C   UNL A   1      37.514  32.659  31.793  1.00  0.00     0.031 A 
ATOM     26  C   UNL A   1      42.226  30.448  35.718  1.00  0.00     0.049 A 
ATOM     27  C   UNL A   1      37.990  33.066  33.157  1.00  0.00     0.074 A 
ATOM     28  C   UNL A   1      42.624  30.962  36.941  1.00  0.00     0.029 A 
ATOM     29  N   UNL A   1      41.167  31.233  35.283  1.00  0.00    -0.354 N 
ATOM     30  N   UNL A   1      38.966  32.562  33.873  1.00  0.00    -0.248 NA
ATOM     31  C   UNL A   1      37.289  34.188  33.792  1.00  0.00     0.031 C 
ATOM     32  C   UNL A   1      41.763  32.013  37.275  1.00  0.00     0.029 A 
ATOM     33  C   UNL A   1      40.878  32.205  36.227  1.00  0.00     0.049 A 
ATOM     34  H   UNL A   1      40.691  31.115  34.429  1.00  0.00     0.167 HD
ATOM     35  C   UNL A   1      39.015  33.325  35.033  1.00  0.00     0.074 A 
ATOM     36  C   UNL A   1      37.983  34.335  34.912  1.00  0.00     0.031 C 
ATOM     37  C   UNL A   1      39.844  33.202  36.100  1.00  0.00     0.031 A 
BRANCH  24  38
ATOM     38  C   UNL A   1      43.853  28.512  35.669  1.00  0.00    -0.014 A 
ATOM     39  C   UNL A   1      45.215  28.808  35.476  1.00  0.00     0.010 A 
ATOM     40  C   UNL A   1      43.502  27.464  36.540  1.00  0.00     0.010 A 
ATOM     41  C   UNL A   1      46.204  28.045  36.106  1.00  0.00     0.020 A 
ATOM     42  C   UNL A   1      44.487  26.717  37.196  1.00  0.00     0.020 A 
ATOM     43  C   UNL A   1      45.832  27.001  36.959  1.00  0.00     0.054 A 
BRANCH  43  44
ATOM     44  S   UNL A   1      47.135  26.036  37.771  1.00  0.00     0.124 S 
ATOM     45  O   UNL A   1      46.465  25.594  38.992  1.00  0.00    -0.237 OA
ATOM     46  O   UNL A   1      47.414  24.987  36.794  1.00  0.00    -0.237 OA
ATOM     47  O   UNL A   1      48.213  27.003  37.969  1.00  0.00    -0.744 OA
ENDBRANCH  43  44
ENDBRANCH  24  38
BRANCH  25  48
ATOM     48  C   UNL A   1      36.409  33.391  31.113  1.00  0.00    -0.014 A 
ATOM     49  C   UNL A   1      35.207  33.661  31.789  1.00  0.00     0.010 A 
ATOM     50  C   UNL A   1      36.564  33.837  29.787  1.00  0.00     0.010 A 
ATOM     51  C   UNL A   1      34.173  34.346  31.145  1.00  0.00     0.020 A 
ATOM     52  C   UNL A   1      35.545  34.552  29.152  1.00  0.00     0.020 A 
ATOM     53  C   UNL A   1      34.350  34.790  29.832  1.00  0.00     0.054 A 
BRANCH  53  54
ATOM     54  S   UNL A   1      33.011  35.718  29.035  1.00  0.00     0.124 S 
ATOM     55  O   UNL A   1      33.743  36.767  28.334  1.00  0.00    -0.237 OA
ATOM     56  O   UNL A   1      32.388  34.704  28.188  1.00  0.00    -0.237 OA
ATOM     57  O   UNL A   1      32.192  36.169  30.159  1.00  0.00    -0.744 OA
ENDBRANCH  53  54
ENDBRANCH  25  48
BRANCH  37  58
ATOM     58  C   UNL A   1      39.700  34.218  37.203  1.00  0.00    -0.014 A 
ATOM     59  C   UNL A   1      38.991  33.930  38.382  1.00  0.00     0.010 A 
ATOM     60  C   UNL A   1      40.313  35.478  37.063  1.00  0.00     0.010 A 
ATOM     61  C   UNL A   1      38.857  34.900  39.381  1.00  0.00     0.020 A 
ATOM     62  C   UNL A   1      40.210  36.437  38.072  1.00  0.00     0.020 A 
ATOM     63  C   UNL A   1      39.466  36.148  39.218  1.00  0.00     0.054 A 
BRANCH  63  64
ATOM     64  S   UNL A   1      39.297  37.382  40.536  1.00  0.00     0.124 S 
ATOM     65  O   UNL A   1      38.259  38.259  40.000  1.00  0.00    -0.237 OA
ATOM     66  O   UNL A   1      38.904  36.570  41.685  1.00  0.00    -0.237 OA
ATOM     67  O   UNL A   1      40.629  37.977  40.628  1.00  0.00    -0.744 OA
ENDBRANCH  63  64
ENDBRANCH  37  58
ENDBRANCH  11  12
ENDBRANCH   4   6
ENDBRANCH   1   2
BRANCH   1  68
ATOM     68  C   UNL A   1      39.103  22.572  26.468  1.00  0.00     0.042 C 
BRANCH  68  69
ATOM     69  C   UNL A   1      37.844  23.353  26.127  1.00  0.00     0.117 C 
BRANCH  69  70
ATOM     70  N   UNL A   1      36.715  22.454  26.091  1.00  0.00    -0.356 N 
ATOM     71  C   UNL A   1      36.478  21.672  24.997  1.00  0.00     0.224 C 
ATOM     72  H   UNL A   1      36.109  22.404  26.865  1.00  0.00     0.163 HD
ATOM     73  O   UNL A   1      37.317  20.925  24.505  1.00  0.00    -0.275 OA
BRANCH  71  74
ATOM     74  C   UNL A   1      35.163  21.979  24.323  1.00  0.00     0.098 C 
ATOM     75  C   UNL A   1      33.899  21.155  24.617  1.00  0.00     0.100 C 
ATOM     76  C   UNL A   1      34.808  23.501  24.173  1.00  0.00     0.025 C 
ATOM     77  C   UNL A   1      32.667  22.046  24.229  1.00  0.00     0.025 C 
ATOM     78  C   UNL A   1      33.788  23.925  25.215  1.00  0.00    -0.027 C 
ATOM     79  C   UNL A   1      34.082  23.634  22.816  1.00  0.00     0.009 C 
ATOM     80  C   UNL A   1      32.655  23.204  25.205  1.00  0.00    -0.027 C 
ATOM     81  C   UNL A   1      32.892  22.645  22.804  1.00  0.00     0.009 C 
BRANCH  75  82
ATOM     82  C   UNL A   1      33.571  20.396  25.911  1.00  0.00     0.238 C 
ATOM     83  O   UNL A   1      33.928  20.919  26.984  1.00  0.00    -0.273 OA
ATOM     84  N   UNL A   1      33.028  19.154  26.047  1.00  0.00    -0.288 N 
ATOM     85  H   UNL A   1      33.059  18.777  26.956  1.00  0.00     0.185 HD
BRANCH  84  86
ATOM     86  N   UNL A   1      32.432  18.337  25.082  1.00  0.00    -0.217 NA
ATOM     87  C   UNL A   1      32.276  16.946  25.604  1.00  0.00     0.136 C 
ATOM     88  C   UNL A   1      33.248  18.274  23.842  1.00  0.00     0.136 C 
ATOM     89  C   UNL A   1      33.577  16.136  25.680  1.00  0.00     0.177 C 
ATOM     90  C   UNL A   1      34.521  17.412  23.949  1.00  0.00     0.177 C 
ATOM     91  O   UNL A   1      34.225  16.090  24.407  1.00  0.00    -0.379 OA
ENDBRANCH  84  86
ENDBRANCH  75  82
ENDBRANCH  71  74
ENDBRANCH  69  70
ENDBRANCH  68  69
ENDBRANCH   1  68
TORSDOF 15
ENDMDL
MODEL 2
REMARK VINA RESULT:     -12.9      7.202     12.926
REMARK SMILES O=C(NCCCNC(=O)[C@H]1[C@@H](C(=O)NN2CCOCC2)[C@H]2C=C[C@@H]1CC2)c1ccc(-c2c3nc(c(-c4ccc(S(=O)(=O)[O-])cc4)c4ccc([nH]4)c(-c4ccc(S(=O)(=O)[O-])cc4)c4nc(c(-c5ccc(S(=O)(=O)[O-])cc5)c5ccc2[nH]5)C=C4)C=C3)cc1
REMARK SMILES IDX 4 1 3 2 1 3 2 4 27 6 28 7 86 8 29 9 85 10 30 11 31 12 32 13
REMARK SMILES IDX 79 14 33 15 84 16 78 17 80 18 34 19 83 20 77 21 76 22 35 24
REMARK SMILES IDX 65 25 46 26 64 27 47 28 50 29 63 30 81 31 48 32 49 33 62 35
REMARK SMILES IDX 82 36 51 37 36 38 37 39 45 40 38 41 44 42 39 43 40 44 41 45
REMARK SMILES IDX 42 46 43 47 66 48 67 49 75 50 68 51 74 52 69 53 70 54 71 55
REMARK SMILES IDX 72 56 73 57 52 58 53 59 61 60 54 61 60 62 55 63 56 64 57 65
REMARK SMILES IDX 58 66 59 67 5 68 6 69 7 70 8 71 9 73 10 74 11 75 24 76 21 77
REMARK SMILES IDX 23 78 25 79 22 80 26 81 12 82 13 83 14 84 15 86 16 87 20 88
REMARK SMILES IDX 17 89 19 90 18 91
REMARK H PARENT 3 5 80 23 50 34 7 72 14 85
REMARK Flexibility Score: inf
ROOT
ATOM      1  C   UNL A   1      35.824  31.414  28.356  1.00  0.00     0.118 C 
ENDROOT
BRANCH   1   2
ATOM      2  N   UNL A   1      35.688  30.943  29.725  1.00  0.00    -0.352 N 
ATOM      3  O   UNL A   1      36.102  29.599  31.481  1.00  0.00    -0.269 OA
ATOM      4  C   UNL A   1      36.517  30.125  30.456  1.00  0.00     0.251 C 
ATOM      5  H   UNL A   1      34.884  31.255  30.197  1.00  0.00     0.163 HD
BRANCH   4   6
ATOM      6  C   UNL A   1      37.896  29.862  29.988  1.00  0.00     0.039 A 
ATOM      7  C   UNL A   1      38.201  29.884  28.627  1.00  0.00     0.014 A 
ATOM      8  C   UNL A   1      38.907  29.616  30.921  1.00  0.00     0.014 A 
ATOM      9  C   UNL A   1      39.457  29.480  28.190  1.00  0.00     0.010 A 
ATOM     10  C   UNL A   1      40.204  29.329  30.483  1.00  0.00     0.010 A 
ATOM     11  C   UNL A   1      40.482  29.216  29.112  1.00  0.00    -0.014 A 
BRANCH  11  12
ATOM     12  C   UNL A   1      41.838  28.876  28.604  1.00  0.00     0.031 A 
ATOM     13  C   UNL A   1      42.941  29.900  28.576  1.00  0.00     0.074 A 
ATOM     14  C   UNL A   1      42.084  27.611  28.206  1.00  0.00     0.049 A 
ATOM     15  N   UNL A   1      44.194  29.748  28.226  1.00  0.00    -0.248 NA
ATOM     16  C   UNL A   1      42.599  31.272  28.984  1.00  0.00     0.031 C 
ATOM     17  C   UNL A   1      41.096  26.526  28.181  1.00  0.00     0.029 A 
ATOM     18  N   UNL A   1      43.239  27.010  27.777  1.00  0.00    -0.354 N 
ATOM     19  C   UNL A   1      44.782  31.003  28.344  1.00  0.00     0.074 A 
ATOM     20  C   UNL A   1      43.741  31.913  28.773  1.00  0.00     0.031 C 
ATOM     21  C   UNL A   1      41.701  25.385  27.826  1.00  0.00     0.029 A 
ATOM     22  C   UNL A   1      43.100  25.664  27.526  1.00  0.00     0.049 A 
ATOM     23  H   UNL A   1      44.088  27.495  27.660  1.00  0.00     0.167 HD
ATOM     24  C   UNL A   1      46.069  31.364  28.119  1.00  0.00     0.031 A 
ATOM     25  C   UNL A   1      43.991  24.754  27.092  1.00  0.00     0.031 A 
ATOM     26  C   UNL A   1      47.100  30.453  27.691  1.00  0.00     0.049 A 
ATOM     27  C   UNL A   1      45.403  25.188  26.821  1.00  0.00     0.074 A 
ATOM     28  C   UNL A   1      48.443  30.715  27.477  1.00  0.00     0.029 A 
ATOM     29  N   UNL A   1      46.906  29.110  27.402  1.00  0.00    -0.354 N 
ATOM     30  N   UNL A   1      45.946  26.371  26.985  1.00  0.00    -0.248 NA
ATOM     31  C   UNL A   1      46.322  24.162  26.314  1.00  0.00     0.031 C 
ATOM     32  C   UNL A   1      49.045  29.548  26.995  1.00  0.00     0.029 A 
ATOM     33  C   UNL A   1      48.096  28.538  26.981  1.00  0.00     0.049 A 
ATOM     34  H   UNL A   1      46.048  28.633  27.483  1.00  0.00     0.167 HD
ATOM     35  C   UNL A   1      47.280  26.223  26.627  1.00  0.00     0.074 A 
ATOM     36  C   UNL A   1      47.464  24.834  26.258  1.00  0.00     0.031 C 
ATOM     37  C   UNL A   1      48.267  27.155  26.610  1.00  0.00     0.031 A 
BRANCH  24  38
ATOM     38  C   UNL A   1      46.431  32.818  28.291  1.00  0.00    -0.014 A 
ATOM     39  C   UNL A   1      46.360  33.728  27.220  1.00  0.00     0.010 A 
ATOM     40  C   UNL A   1      46.806  33.292  29.562  1.00  0.00     0.010 A 
ATOM     41  C   UNL A   1      46.700  35.072  27.407  1.00  0.00     0.020 A 
ATOM     42  C   UNL A   1      47.117  34.641  29.761  1.00  0.00     0.020 A 
ATOM     43  C   UNL A   1      47.080  35.518  28.676  1.00  0.00     0.054 A 
BRANCH  43  44
ATOM     44  S   UNL A   1      47.503  37.269  28.891  1.00  0.00     0.124 S 
ATOM     45  O   UNL A   1      48.944  37.262  28.648  1.00  0.00    -0.237 OA
ATOM     46  O   UNL A   1      46.697  37.921  27.863  1.00  0.00    -0.237 OA
ATOM     47  O   UNL A   1      47.106  37.558  30.267  1.00  0.00    -0.744 OA
ENDBRANCH  43  44
ENDBRANCH  24  38
BRANCH  25  48
ATOM     48  C   UNL A   1      43.568  23.341  26.889  1.00  0.00    -0.014 A 
ATOM     49  C   UNL A   1      43.037  22.593  27.954  1.00  0.00     0.010 A 
ATOM     50  C   UNL A   1      43.682  22.741  25.621  1.00  0.00     0.010 A 
ATOM     51  C   UNL A   1      42.644  21.266  27.758  1.00  0.00     0.020 A 
ATOM     52  C   UNL A   1      43.259  21.425  25.414  1.00  0.00     0.020 A 
ATOM     53  C   UNL A   1      42.754  20.691  26.489  1.00  0.00     0.054 A 
BRANCH  53  54
ATOM     54  S   UNL A   1      42.195  18.983  26.250  1.00  0.00     0.124 S 
ATOM     55  O   UNL A   1      40.799  19.172  25.867  1.00  0.00    -0.237 OA
ATOM     56  O   UNL A   1      43.084  18.506  25.195  1.00  0.00    -0.237 OA
ATOM     57  O   UNL A   1      42.407  18.368  27.560  1.00  0.00    -0.744 OA
ENDBRANCH  53  54
ENDBRANCH  25  48
BRANCH  37  58
ATOM     58  C   UNL A   1      49.647  26.689  26.226  1.00  0.00    -0.014 A 
ATOM     59  C   UNL A   1      50.097  26.741  24.894  1.00  0.00     0.010 A 
ATOM     60  C   UNL A   1      50.517  26.216  27.225  1.00  0.00     0.010 A 
ATOM     61  C   UNL A   1      51.376  26.284  24.564  1.00  0.00     0.020 A 
ATOM     62  C   UNL A   1      51.807  25.789  26.903  1.00  0.00     0.020 A 
ATOM     63  C   UNL A   1      52.222  25.809  25.570  1.00  0.00     0.054 A 
BRANCH  63  64
ATOM     64  S   UNL A   1      53.885  25.240  25.119  1.00  0.00     0.124 S 
ATOM     65  O   UNL A   1      54.627  25.464  26.356  1.00  0.00    -0.237 OA
ATOM     66  O   UNL A   1      53.658  23.841  24.765  1.00  0.00    -0.237 OA
ATOM     67  O   UNL A   1      54.257  26.107  24.004  1.00  0.00    -0.744 OA
ENDBRANCH  63  64
ENDBRANCH  37  58
ENDBRANCH  11  12
ENDBRANCH   4   6
ENDBRANCH   1   2
BRANCH   1  68
ATOM     68  C   UNL A   1      34.565  31.139  27.547  1.00  0.00     0.042 C 
BRANCH  68  69
ATOM     69  C   UNL A   1      34.415  29.655  27.258  1.00  0.00     0.117 C 
BRANCH  69  70
ATOM     70  N   UNL A   1      33.753  29.477  25.986  1.00  0.00    -0.356 N 
ATOM     71  C   UNL A   1      32.421  29.745  25.848  1.00  0.00     0.224 C 
ATOM     72  H   UNL A   1      34.268  29.160  25.210  1.00  0.00     0.163 HD
ATOM     73  O   UNL A   1      31.907  30.811  26.169  1.00  0.00    -0.275 OA
BRANCH  71  74
ATOM     74  C   UNL A   1      31.609  28.529  25.471  1.00  0.00     0.098 C 
ATOM     75  C   UNL A   1      30.733  28.511  24.207  1.00  0.00     0.100 C 
ATOM     76  C   UNL A   1      32.315  27.141  25.674  1.00  0.00     0.025 C 
ATOM     77  C   UNL A   1      30.509  27.006  23.824  1.00  0.00     0.025 C 
ATOM     78  C   UNL A   1      32.812  26.588  24.350  1.00  0.00    -0.027 C 
ATOM     79  C   UNL A   1      31.208  26.167  26.131  1.00  0.00     0.009 C 
ATOM     80  C   UNL A   1      31.862  26.466  23.409  1.00  0.00    -0.027 C 
ATOM     81  C   UNL A   1      30.063  26.211  25.091  1.00  0.00     0.009 C 
BRANCH  75  82
ATOM     82  C   UNL A   1      30.949  29.321  22.920  1.00  0.00     0.238 C 
ATOM     83  O   UNL A   1      32.080  29.276  22.402  1.00  0.00    -0.273 OA
ATOM     84  N   UNL A   1      30.089  30.186  22.313  1.00  0.00    -0.288 N 
ATOM     85  H   UNL A   1      30.480  30.736  21.597  1.00  0.00     0.185 HD
BRANCH  84  86
ATOM     86  N   UNL A   1      28.731  30.405  22.560  1.00  0.00    -0.217 NA
ATOM     87  C   UNL A   1      28.010  30.689  21.282  1.00  0.00     0.136 C 
ATOM     88  C   UNL A   1      28.521  31.559  23.472  1.00  0.00     0.136 C 
ATOM     89  C   UNL A   1      28.266  32.082  20.693  1.00  0.00     0.177 C 
ATOM     90  C   UNL A   1      28.742  32.941  22.827  1.00  0.00     0.177 C 
ATOM     91  O   UNL A   1      27.955  33.103  21.644  1.00  0.00    -0.379 OA
ENDBRANCH  84  86
ENDBRANCH  75  82
ENDBRANCH  71  74
ENDBRANCH  69  70
ENDBRANCH  68  69
ENDBRANCH   1  68
TORSDOF 15
ENDMDL
MODEL 3
REMARK VINA RESULT:     -12.8      3.991      9.819
REMARK SMILES O=C(NCCCNC(=O)[C@H]1[C@@H](C(=O)NN2CCOCC2)[C@H]2C=C[C@@H]1CC2)c1ccc(-c2c3nc(c(-c4ccc(S(=O)(=O)[O-])cc4)c4ccc([nH]4)c(-c4ccc(S(=O)(=O)[O-])cc4)c4nc(c(-c5ccc(S(=O)(=O)[O-])cc5)c5ccc2[nH]5)C=C4)C=C3)cc1
REMARK SMILES IDX 4 1 3 2 1 3 2 4 27 6 28 7 86 8 29 9 85 10 30 11 31 12 32 13
REMARK SMILES IDX 79 14 33 15 84 16 78 17 80 18 34 19 83 20 77 21 76 22 35 24
REMARK SMILES IDX 65 25 46 26 64 27 47 28 50 29 63 30 81 31 48 32 49 33 62 35
REMARK SMILES IDX 82 36 51 37 36 38 37 39 45 40 38 41 44 42 39 43 40 44 41 45
REMARK SMILES IDX 42 46 43 47 66 48 67 49 75 50 68 51 74 52 69 53 70 54 71 55
REMARK SMILES IDX 72 56 73 57 52 58 53 59 61 60 54 61 60 62 55 63 56 64 57 65
REMARK SMILES IDX 58 66 59 67 5 68 6 69 7 70 8 71 9 73 10 74 11 75 24 76 21 77
REMARK SMILES IDX 23 78 25 79 22 80 26 81 12 82 13 83 14 84 15 86 16 87 20 88
REMARK SMILES IDX 17 89 19 90 18 91
REMARK H PARENT 3 5 80 23 50 34 7 72 14 85
REMARK Flexibility Score: inf
ROOT
ATOM      1  C   UNL A   1      32.944  32.609  27.264  1.00  0.00     0.118 C 
ENDROOT
BRANCH   1   2
ATOM      2  N   UNL A   1      32.774  33.973  27.740  1.00  0.00    -0.352 N 
ATOM      3  O   UNL A   1      32.881  35.653  29.233  1.00  0.00    -0.269 OA
ATOM      4  C   UNL A   1      33.359  34.608  28.809  1.00  0.00     0.251 C 
ATOM      5  H   UNL A   1      32.145  34.522  27.219  1.00  0.00     0.163 HD
BRANCH   4   6
ATOM      6  C   UNL A   1      34.548  34.013  29.461  1.00  0.00     0.039 A 
ATOM      7  C   UNL A   1      34.403  33.056  30.465  1.00  0.00     0.014 A 
ATOM      8  C   UNL A   1      35.827  34.397  29.047  1.00  0.00     0.014 A 
ATOM      9  C   UNL A   1      35.515  32.624  31.178  1.00  0.00     0.010 A 
ATOM     10  C   UNL A   1      36.952  33.867  29.686  1.00  0.00     0.010 A 
ATOM     11  C   UNL A   1      36.807  33.008  30.787  1.00  0.00    -0.014 A 
BRANCH  11  12
ATOM     12  C   UNL A   1      37.977  32.452  31.517  1.00  0.00     0.031 A 
ATOM     13  C   UNL A   1      38.369  32.969  32.875  1.00  0.00     0.074 A 
ATOM     14  C   UNL A   1      38.666  31.435  30.959  1.00  0.00     0.049 A 
ATOM     15  N   UNL A   1      39.321  32.549  33.671  1.00  0.00    -0.248 NA
ATOM     16  C   UNL A   1      37.605  34.107  33.410  1.00  0.00     0.031 C 
ATOM     17  C   UNL A   1      38.388  30.847  29.644  1.00  0.00     0.029 A 
ATOM     18  N   UNL A   1      39.717  30.692  31.434  1.00  0.00    -0.354 N 
ATOM     19  C   UNL A   1      39.289  33.383  34.784  1.00  0.00     0.074 A 
ATOM     20  C   UNL A   1      38.240  34.352  34.549  1.00  0.00     0.031 C 
ATOM     21  C   UNL A   1      39.198  29.798  29.448  1.00  0.00     0.029 A 
ATOM     22  C   UNL A   1      40.103  29.680  30.585  1.00  0.00     0.049 A 
ATOM     23  H   UNL A   1      40.154  30.867  32.298  1.00  0.00     0.167 HD
ATOM     24  C   UNL A   1      40.059  33.344  35.898  1.00  0.00     0.031 A 
ATOM     25  C   UNL A   1      41.081  28.763  30.698  1.00  0.00     0.031 A 
ATOM     26  C   UNL A   1      41.103  32.377  36.125  1.00  0.00     0.049 A 
ATOM     27  C   UNL A   1      41.939  28.762  31.931  1.00  0.00     0.074 A 
ATOM     28  C   UNL A   1      41.910  32.229  37.240  1.00  0.00     0.029 A 
ATOM     29  N   UNL A   1      41.493  31.399  35.221  1.00  0.00    -0.354 N 
ATOM     30  N   UNL A   1      41.860  29.531  32.990  1.00  0.00    -0.248 NA
ATOM     31  C   UNL A   1      43.014  27.764  31.984  1.00  0.00     0.031 C 
ATOM     32  C   UNL A   1      42.830  31.208  36.983  1.00  0.00     0.029 A 
ATOM     33  C   UNL A   1      42.548  30.667  35.739  1.00  0.00     0.049 A 
ATOM     34  H   UNL A   1      41.080  31.248  34.339  1.00  0.00     0.167 HD
ATOM     35  C   UNL A   1      42.858  29.090  33.850  1.00  0.00     0.074 A 
ATOM     36  C   UNL A   1      43.513  27.976  33.194  1.00  0.00     0.031 C 
ATOM     37  C   UNL A   1      43.198  29.563  35.076  1.00  0.00     0.031 A 
BRANCH  24  38
ATOM     38  C   UNL A   1      39.832  34.404  36.946  1.00  0.00    -0.014 A 
ATOM     39  C   UNL A   1      39.039  34.160  38.082  1.00  0.00     0.010 A 
ATOM     40  C   UNL A   1      40.464  35.655  36.814  1.00  0.00     0.010 A 
ATOM     41  C   UNL A   1      38.845  35.160  39.041  1.00  0.00     0.020 A 
ATOM     42  C   UNL A   1      40.297  36.648  37.785  1.00  0.00     0.020 A 
ATOM     43  C   UNL A   1      39.473  36.399  38.883  1.00  0.00     0.054 A 
BRANCH  43  44
ATOM     44  S   UNL A   1      39.214  37.672  40.149  1.00  0.00     0.124 S 
ATOM     45  O   UNL A   1      40.515  38.338  40.177  1.00  0.00    -0.237 OA
ATOM     46  O   UNL A   1      38.119  38.460  39.591  1.00  0.00    -0.237 OA
ATOM     47  O   UNL A   1      38.881  36.908  41.349  1.00  0.00    -0.744 OA
ENDBRANCH  43  44
ENDBRANCH  24  38
BRANCH  25  48
ATOM     48  C   UNL A   1      41.296  27.770  29.610  1.00  0.00    -0.014 A 
ATOM     49  C   UNL A   1      40.382  26.722  29.406  1.00  0.00     0.010 A 
ATOM     50  C   UNL A   1      42.413  27.878  28.760  1.00  0.00     0.010 A 
ATOM     51  C   UNL A   1      40.591  25.791  28.385  1.00  0.00     0.020 A 
ATOM     52  C   UNL A   1      42.606  26.969  27.717  1.00  0.00     0.020 A 
ATOM     53  C   UNL A   1      41.700  25.923  27.544  1.00  0.00     0.054 A 
BRANCH  53  54
ATOM     54  S   UNL A   1      41.922  24.729  26.197  1.00  0.00     0.124 S 
ATOM     55  O   UNL A   1      43.255  24.204  26.475  1.00  0.00    -0.237 OA
ATOM     56  O   UNL A   1      40.816  23.802  26.414  1.00  0.00    -0.237 OA
ATOM     57  O   UNL A   1      41.810  25.550  24.992  1.00  0.00    -0.744 OA
ENDBRANCH  53  54
ENDBRANCH  25  48
BRANCH  37  58
ATOM     58  C   UNL A   1      44.299  28.844  35.809  1.00  0.00    -0.014 A 
ATOM     59  C   UNL A   1      44.031  27.750  36.652  1.00  0.00     0.010 A 
ATOM     60  C   UNL A   1      45.633  29.256  35.627  1.00  0.00     0.010 A 
ATOM     61  C   UNL A   1      45.071  27.114  37.335  1.00  0.00     0.020 A 
ATOM     62  C   UNL A   1      46.678  28.602  36.282  1.00  0.00     0.020 A 
ATOM     63  C   UNL A   1      46.388  27.546  37.147  1.00  0.00     0.054 A 
BRANCH  63  64
ATOM     64  S   UNL A   1      47.723  26.691  38.029  1.00  0.00     0.124 S 
ATOM     65  O   UNL A   1      48.373  25.951  36.951  1.00  0.00    -0.237 OA
ATOM     66  O   UNL A   1      48.496  27.797  38.588  1.00  0.00    -0.237 OA
ATOM     67  O   UNL A   1      47.020  25.870  39.012  1.00  0.00    -0.744 OA
ENDBRANCH  63  64
ENDBRANCH  37  58
ENDBRANCH  11  12
ENDBRANCH   4   6
ENDBRANCH   1   2
BRANCH   1  68
ATOM     68  C   UNL A   1      31.602  31.942  27.002  1.00  0.00     0.042 C 
BRANCH  68  69
ATOM     69  C   UNL A   1      31.671  31.035  25.785  1.00  0.00     0.117 C 
BRANCH  69  70
ATOM     70  N   UNL A   1      31.557  29.657  26.204  1.00  0.00    -0.356 N 
ATOM     71  C   UNL A   1      32.336  28.688  25.639  1.00  0.00     0.224 C 
ATOM     72  H   UNL A   1      30.911  29.415  26.905  1.00  0.00     0.163 HD
ATOM     73  O   UNL A   1      33.559  28.754  25.574  1.00  0.00    -0.275 OA
BRANCH  71  74
ATOM     74  C   UNL A   1      31.536  27.637  24.908  1.00  0.00     0.098 C 
ATOM     75  C   UNL A   1      30.787  27.961  23.605  1.00  0.00     0.100 C 
ATOM     76  C   UNL A   1      32.186  26.209  24.831  1.00  0.00     0.025 C 
ATOM     77  C   UNL A   1      30.566  26.603  22.851  1.00  0.00     0.025 C 
ATOM     78  C   UNL A   1      32.797  25.965  23.463  1.00  0.00    -0.027 C 
ATOM     79  C   UNL A   1      31.017  25.207  24.940  1.00  0.00     0.009 C 
ATOM     80  C   UNL A   1      31.940  26.115  22.440  1.00  0.00    -0.027 C 
ATOM     81  C   UNL A   1      29.980  25.550  23.843  1.00  0.00     0.009 C 
BRANCH  75  82
ATOM     82  C   UNL A   1      31.147  29.044  22.577  1.00  0.00     0.238 C 
ATOM     83  O   UNL A   1      32.356  29.299  22.418  1.00  0.00    -0.273 OA
ATOM     84  N   UNL A   1      30.307  29.857  21.877  1.00  0.00    -0.288 N 
ATOM     85  H   UNL A   1      30.740  30.601  21.400  1.00  0.00     0.185 HD
BRANCH  84  86
ATOM     86  N   UNL A   1      28.918  29.786  21.738  1.00  0.00    -0.217 NA
ATOM     87  C   UNL A   1      28.427  30.892  20.862  1.00  0.00     0.136 C 
ATOM     88  C   UNL A   1      28.232  29.901  23.052  1.00  0.00     0.136 C 
ATOM     89  C   UNL A   1      28.426  32.280  21.515  1.00  0.00     0.177 C 
ATOM     90  C   UNL A   1      28.213  31.321  23.649  1.00  0.00     0.177 C 
ATOM     91  O   UNL A   1      27.671  32.273  22.729  1.00  0.00    -0.379 OA
ENDBRANCH  84  86
ENDBRANCH  75  82
ENDBRANCH  71  74
ENDBRANCH  69  70
ENDBRANCH  68  69
ENDBRANCH   1  68
TORSDOF 15
ENDMDL
