MODEL 1
REMARK VINA RESULT:     -11.8      0.000      0.000
REMARK SMILES CC(C)Cc1cc2c(cc1Cl)C=C(C(=O)NCCCNC(=O)c1ccc(-c3c4nc(c(-c5ccc(S(=O)(=O)[O-])cc5)c5ccc([nH]5)c(-c5ccc(S(=O)(=O)[O-])cc5)c5nc(c(-c6ccc(S(=O)(=O)[O-])cc6)c6ccc3[nH]6)C=C5)C=C4)cc1)[C@@H](C(F)(F)F)O2
REMARK SMILES IDX 18 1 17 2 16 3 14 4 15 5 13 7 5 8 6 9 10 10 7 11 9 12 11 13
REMARK SMILES IDX 8 14 88 15 12 16 83 17 4 18 2 19 1 20 3 21 84 22 85 23 86 24
REMARK SMILES IDX 87 25 19 26 20 27 21 28 22 30 23 31 24 32 82 33 25 34 81 35
REMARK SMILES IDX 26 36 27 37 28 38 75 39 29 40 80 41 74 42 76 43 30 44 79 45
REMARK SMILES IDX 73 46 72 47 31 49 61 50 42 51 60 52 43 53 46 54 59 55 77 56
REMARK SMILES IDX 44 57 45 58 58 60 78 61 47 62 32 63 33 64 41 65 34 66 40 67
REMARK SMILES IDX 35 68 36 69 37 70 38 71 39 72 62 73 63 74 71 75 64 76 70 77
REMARK SMILES IDX 65 78 66 79 67 80 68 81 69 82 48 83 49 84 57 85 50 86 56 87
REMARK SMILES IDX 51 88 52 89 53 90 54 91 55 92
REMARK H PARENT 16 6 20 29 76 48 46 59
REMARK Flexibility Score: inf
ROOT
ATOM      1  C   UNL A   1      33.579  28.934  24.626  1.00  0.00     0.042 C 
ENDROOT
BRANCH   1   2
ATOM      2  C   UNL A   1      32.282  28.196  24.334  1.00  0.00     0.118 C 
BRANCH   2   3
ATOM      3  N   UNL A   1      31.586  27.800  25.552  1.00  0.00    -0.352 N 
ATOM      4  C   UNL A   1      31.298  26.650  26.205  1.00  0.00     0.251 C 
ATOM      5  O   UNL A   1      30.670  26.783  27.260  1.00  0.00    -0.270 OA
ATOM      6  H   UNL A   1      31.226  28.583  26.029  1.00  0.00     0.163 HD
BRANCH   4   7
ATOM      7  C   UNL A   1      31.682  25.284  25.742  1.00  0.00     0.067 C 
ATOM      8  C   UNL A   1      34.128  20.940  24.903  1.00  0.00    -0.025 A 
ATOM      9  C   UNL A   1      32.823  21.406  24.710  1.00  0.00     0.052 A 
ATOM     10  C   UNL A   1      35.086  21.851  25.377  1.00  0.00     0.045 A 
ATOM     11  C   UNL A   1      32.458  22.695  25.075  1.00  0.00     0.128 A 
ATOM     12  C   UNL A   1      34.725  23.173  25.688  1.00  0.00     0.032 A 
ATOM     13  Cl  UNL A   1      36.737  21.404  25.612  1.00  0.00    -0.084 Cl
ATOM     14  C   UNL A   1      33.399  23.594  25.560  1.00  0.00     0.019 A 
ATOM     15  O   UNL A   1      31.128  22.963  24.997  1.00  0.00    -0.475 OA
ATOM     16  C   UNL A   1      32.960  24.922  25.970  1.00  0.00     0.025 C 
ATOM     17  C   UNL A   1      30.731  24.352  25.045  1.00  0.00     0.314 C 
BRANCH   8  18
ATOM     18  C   UNL A   1      34.392  19.476  24.623  1.00  0.00     0.040 C 
BRANCH  18  19
ATOM     19  C   UNL A   1      33.113  18.635  24.377  1.00  0.00    -0.013 C 
ATOM     20  C   UNL A   1      33.279  17.544  23.310  1.00  0.00     0.008 C 
ATOM     21  C   UNL A   1      32.682  17.967  25.686  1.00  0.00     0.008 C 
ENDBRANCH  18  19
ENDBRANCH   8  18
BRANCH  17  22
ATOM     22  C   UNL A   1      30.399  24.789  23.608  1.00  0.00     0.429 C 
ATOM     23  F   UNL A   1      29.910  23.741  22.897  1.00  0.00    -0.167 F 
ATOM     24  F   UNL A   1      29.459  25.761  23.553  1.00  0.00    -0.167 F 
ATOM     25  F   UNL A   1      31.483  25.255  22.947  1.00  0.00    -0.167 F 
ENDBRANCH  17  22
ENDBRANCH   4   7
ENDBRANCH   2   3
ENDBRANCH   1   2
BRANCH   1  26
ATOM     26  C   UNL A   1      33.963  28.859  26.097  1.00  0.00     0.118 C 
BRANCH  26  27
ATOM     27  N   UNL A   1      33.868  30.161  26.757  1.00  0.00    -0.352 N 
ATOM     28  C   UNL A   1      34.677  30.743  27.702  1.00  0.00     0.251 C 
ATOM     29  H   UNL A   1      33.097  30.708  26.480  1.00  0.00     0.163 HD
ATOM     30  O   UNL A   1      34.289  31.744  28.300  1.00  0.00    -0.269 OA
BRANCH  28  31
ATOM     31  C   UNL A   1      35.998  30.157  28.008  1.00  0.00     0.039 A 
ATOM     32  C   UNL A   1      36.214  29.515  29.226  1.00  0.00     0.014 A 
ATOM     33  C   UNL A   1      37.031  30.249  27.071  1.00  0.00     0.014 A 
ATOM     34  C   UNL A   1      37.501  29.153  29.593  1.00  0.00     0.010 A 
ATOM     35  C   UNL A   1      38.306  29.775  27.399  1.00  0.00     0.010 A 
ATOM     36  C   UNL A   1      38.564  29.271  28.682  1.00  0.00    -0.014 A 
BRANCH  36  37
ATOM     37  C   UNL A   1      39.922  28.845  29.107  1.00  0.00     0.031 A 
ATOM     38  C   UNL A   1      40.760  29.718  30.002  1.00  0.00     0.074 A 
ATOM     39  C   UNL A   1      40.366  27.626  28.740  1.00  0.00     0.049 A 
ATOM     40  N   UNL A   1      41.954  29.485  30.483  1.00  0.00    -0.248 NA
ATOM     41  C   UNL A   1      40.197  31.016  30.413  1.00  0.00     0.031 C 
ATOM     42  C   UNL A   1      39.634  26.687  27.883  1.00  0.00     0.029 A 
ATOM     43  N   UNL A   1      41.513  26.945  29.066  1.00  0.00    -0.354 N 
ATOM     44  C   UNL A   1      42.293  30.608  31.229  1.00  0.00     0.074 A 
ATOM     45  C   UNL A   1      41.189  31.534  31.125  1.00  0.00     0.031 C 
ATOM     46  C   UNL A   1      40.313  25.535  27.807  1.00  0.00     0.029 A 
ATOM     47  C   UNL A   1      41.567  25.675  28.540  1.00  0.00     0.049 A 
ATOM     48  H   UNL A   1      42.228  27.331  29.622  1.00  0.00     0.167 HD
ATOM     49  C   UNL A   1      43.419  30.834  31.944  1.00  0.00     0.031 A 
ATOM     50  C   UNL A   1      42.523  24.728  28.617  1.00  0.00     0.031 A 
ATOM     51  C   UNL A   1      44.498  29.890  32.069  1.00  0.00     0.049 A 
ATOM     52  C   UNL A   1      43.765  25.011  29.408  1.00  0.00     0.074 A 
ATOM     53  C   UNL A   1      45.674  30.030  32.785  1.00  0.00     0.029 A 
ATOM     54  N   UNL A   1      44.531  28.632  31.486  1.00  0.00    -0.354 N 
ATOM     55  N   UNL A   1      44.067  26.086  30.096  1.00  0.00    -0.248 NA
ATOM     56  C   UNL A   1      44.797  23.967  29.433  1.00  0.00     0.031 C 
ATOM     57  C   UNL A   1      46.441  28.880  32.593  1.00  0.00     0.029 A 
ATOM     58  C   UNL A   1      45.716  27.995  31.811  1.00  0.00     0.049 A 
ATOM     59  H   UNL A   1      43.818  28.250  30.926  1.00  0.00     0.167 HD
ATOM     60  C   UNL A   1      45.326  25.849  30.633  1.00  0.00     0.074 A 
ATOM     61  C   UNL A   1      45.715  24.517  30.217  1.00  0.00     0.031 C 
ATOM     62  C   UNL A   1      46.092  26.670  31.390  1.00  0.00     0.031 A 
BRANCH  49  63
ATOM     63  C   UNL A   1      43.567  32.145  32.670  1.00  0.00    -0.014 A 
ATOM     64  C   UNL A   1      43.030  32.286  33.964  1.00  0.00     0.010 A 
ATOM     65  C   UNL A   1      44.077  33.278  32.012  1.00  0.00     0.010 A 
ATOM     66  C   UNL A   1      42.954  33.544  34.568  1.00  0.00     0.020 A 
ATOM     67  C   UNL A   1      44.024  34.534  32.623  1.00  0.00     0.020 A 
ATOM     68  C   UNL A   1      43.435  34.664  33.883  1.00  0.00     0.054 A 
BRANCH  68  69
ATOM     69  S   UNL A   1      43.261  36.298  34.651  1.00  0.00     0.124 S 
ATOM     70  O   UNL A   1      44.049  36.150  35.871  1.00  0.00    -0.237 OA
ATOM     71  O   UNL A   1      43.824  37.189  33.639  1.00  0.00    -0.237 OA
ATOM     72  O   UNL A   1      41.819  36.430  34.850  1.00  0.00    -0.744 OA
ENDBRANCH  68  69
ENDBRANCH  49  63
BRANCH  50  73
ATOM     73  C   UNL A   1      42.322  23.439  27.899  1.00  0.00    -0.014 A 
ATOM     74  C   UNL A   1      41.677  22.368  28.548  1.00  0.00     0.010 A 
ATOM     75  C   UNL A   1      42.842  23.242  26.610  1.00  0.00     0.010 A 
ATOM     76  C   UNL A   1      41.611  21.108  27.949  1.00  0.00     0.020 A 
ATOM     77  C   UNL A   1      42.748  21.991  25.991  1.00  0.00     0.020 A 
ATOM     78  C   UNL A   1      42.161  20.924  26.678  1.00  0.00     0.054 A 
BRANCH  78  79
ATOM     79  S   UNL A   1      42.099  19.273  25.931  1.00  0.00     0.124 S 
ATOM     80  O   UNL A   1      40.665  19.099  25.712  1.00  0.00    -0.237 OA
ATOM     81  O   UNL A   1      42.904  19.432  24.724  1.00  0.00    -0.237 OA
ATOM     82  O   UNL A   1      42.684  18.415  26.959  1.00  0.00    -0.744 OA
ENDBRANCH  78  79
ENDBRANCH  50  73
BRANCH  62  83
ATOM     83  C   UNL A   1      47.444  26.175  31.825  1.00  0.00    -0.014 A 
ATOM     84  C   UNL A   1      48.531  26.242  30.934  1.00  0.00     0.010 A 
ATOM     85  C   UNL A   1      47.599  25.514  33.055  1.00  0.00     0.010 A 
ATOM     86  C   UNL A   1      49.742  25.623  31.251  1.00  0.00     0.020 A 
ATOM     87  C   UNL A   1      48.817  24.915  33.386  1.00  0.00     0.020 A 
ATOM     88  C   UNL A   1      49.872  24.951  32.470  1.00  0.00     0.054 A 
BRANCH  88  89
ATOM     89  S   UNL A   1      51.438  24.118  32.848  1.00  0.00     0.124 S 
ATOM     90  O   UNL A   1      51.433  24.103  34.308  1.00  0.00    -0.237 OA
ATOM     91  O   UNL A   1      51.274  22.817  32.204  1.00  0.00    -0.237 OA
ATOM     92  O   UNL A   1      52.442  24.985  32.235  1.00  0.00    -0.744 OA
ENDBRANCH  88  89
ENDBRANCH  62  83
ENDBRANCH  36  37
ENDBRANCH  28  31
ENDBRANCH  26  27
ENDBRANCH   1  26
TORSDOF 16
ENDMDL
MODEL 2
REMARK VINA RESULT:     -11.8      1.225      8.211
REMARK SMILES CC(C)Cc1cc2c(cc1Cl)C=C(C(=O)NCCCNC(=O)c1ccc(-c3c4nc(c(-c5ccc(S(=O)(=O)[O-])cc5)c5ccc([nH]5)c(-c5ccc(S(=O)(=O)[O-])cc5)c5nc(c(-c6ccc(S(=O)(=O)[O-])cc6)c6ccc3[nH]6)C=C5)C=C4)cc1)[C@@H](C(F)(F)F)O2
REMARK SMILES IDX 18 1 17 2 16 3 14 4 15 5 13 7 5 8 6 9 10 10 7 11 9 12 11 13
REMARK SMILES IDX 8 14 88 15 12 16 83 17 4 18 2 19 1 20 3 21 84 22 85 23 86 24
REMARK SMILES IDX 87 25 19 26 20 27 21 28 22 30 23 31 24 32 82 33 25 34 81 35
REMARK SMILES IDX 26 36 27 37 28 38 75 39 29 40 80 41 74 42 76 43 30 44 79 45
REMARK SMILES IDX 73 46 72 47 31 49 61 50 42 51 60 52 43 53 46 54 59 55 77 56
REMARK SMILES IDX 44 57 45 58 58 60 78 61 47 62 32 63 33 64 41 65 34 66 40 67
REMARK SMILES IDX 35 68 36 69 37 70 38 71 39 72 62 73 63 74 71 75 64 76 70 77
REMARK SMILES IDX 65 78 66 79 67 80 68 81 69 82 48 83 49 84 57 85 50 86 56 87
REMARK SMILES IDX 51 88 52 89 53 90 54 91 55 92
REMARK H PARENT 16 6 20 29 76 48 46 59
REMARK Flexibility Score: inf
ROOT
ATOM      1  C   UNL A   1      32.046  28.052  27.563  1.00  0.00     0.042 C 
ENDROOT
BRANCH   1   2
ATOM      2  C   UNL A   1      31.485  27.606  26.223  1.00  0.00     0.118 C 
BRANCH   2   3
ATOM      3  N   UNL A   1      32.512  27.527  25.192  1.00  0.00    -0.352 N 
ATOM      4  C   UNL A   1      33.114  26.562  24.458  1.00  0.00     0.251 C 
ATOM      5  O   UNL A   1      33.960  26.961  23.650  1.00  0.00    -0.270 OA
ATOM      6  H   UNL A   1      32.863  28.420  24.968  1.00  0.00     0.163 HD
BRANCH   4   7
ATOM      7  C   UNL A   1      32.826  25.102  24.564  1.00  0.00     0.067 C 
ATOM      8  C   UNL A   1      33.227  20.091  25.103  1.00  0.00    -0.025 A 
ATOM      9  C   UNL A   1      32.176  21.015  25.090  1.00  0.00     0.052 A 
ATOM     10  C   UNL A   1      34.521  20.568  24.842  1.00  0.00     0.045 A 
ATOM     11  C   UNL A   1      32.413  22.373  24.930  1.00  0.00     0.128 A 
ATOM     12  C   UNL A   1      34.750  21.937  24.619  1.00  0.00     0.032 A 
ATOM     13  Cl  UNL A   1      35.891  19.517  24.788  1.00  0.00    -0.084 Cl
ATOM     14  C   UNL A   1      33.695  22.850  24.687  1.00  0.00     0.019 A 
ATOM     15  O   UNL A   1      31.330  23.174  25.109  1.00  0.00    -0.475 OA
ATOM     16  C   UNL A   1      33.901  24.288  24.569  1.00  0.00     0.025 C 
ATOM     17  C   UNL A   1      31.436  24.539  24.643  1.00  0.00     0.314 C 
BRANCH   8  18
ATOM     18  C   UNL A   1      32.887  18.655  25.442  1.00  0.00     0.040 C 
BRANCH  18  19
ATOM     19  C   UNL A   1      32.579  17.768  24.208  1.00  0.00    -0.013 C 
ATOM     20  C   UNL A   1      32.338  18.559  22.915  1.00  0.00     0.008 C 
ATOM     21  C   UNL A   1      33.745  16.803  23.971  1.00  0.00     0.008 C 
ENDBRANCH  18  19
ENDBRANCH   8  18
BRANCH  17  22
ATOM     22  C   UNL A   1      30.667  24.634  23.313  1.00  0.00     0.429 C 
ATOM     23  F   UNL A   1      31.515  24.949  22.300  1.00  0.00    -0.167 F 
ATOM     24  F   UNL A   1      30.067  23.473  22.963  1.00  0.00    -0.167 F 
ATOM     25  F   UNL A   1      29.702  25.581  23.341  1.00  0.00    -0.167 F 
ENDBRANCH  17  22
ENDBRANCH   4   7
ENDBRANCH   2   3
ENDBRANCH   1   2
BRANCH   1  26
ATOM     26  C   UNL A   1      33.459  28.608  27.437  1.00  0.00     0.118 C 
BRANCH  26  27
ATOM     27  N   UNL A   1      33.516  30.037  27.740  1.00  0.00    -0.352 N 
ATOM     28  C   UNL A   1      34.512  30.788  28.317  1.00  0.00     0.251 C 
ATOM     29  H   UNL A   1      32.709  30.544  27.491  1.00  0.00     0.163 HD
ATOM     30  O   UNL A   1      34.268  31.930  28.698  1.00  0.00    -0.269 OA
BRANCH  28  31
ATOM     31  C   UNL A   1      35.863  30.216  28.491  1.00  0.00     0.039 A 
ATOM     32  C   UNL A   1      36.233  29.655  29.712  1.00  0.00     0.014 A 
ATOM     33  C   UNL A   1      36.769  30.240  27.427  1.00  0.00     0.014 A 
ATOM     34  C   UNL A   1      37.557  29.310  29.936  1.00  0.00     0.010 A 
ATOM     35  C   UNL A   1      38.077  29.782  27.622  1.00  0.00     0.010 A 
ATOM     36  C   UNL A   1      38.496  29.362  28.892  1.00  0.00    -0.014 A 
BRANCH  36  37
ATOM     37  C   UNL A   1      39.898  28.957  29.169  1.00  0.00     0.031 A 
ATOM     38  C   UNL A   1      40.411  27.608  28.739  1.00  0.00     0.074 A 
ATOM     39  C   UNL A   1      40.732  29.847  29.745  1.00  0.00     0.049 A 
ATOM     40  N   UNL A   1      41.611  27.108  28.882  1.00  0.00    -0.248 NA
ATOM     41  C   UNL A   1      39.466  26.701  28.065  1.00  0.00     0.031 C 
ATOM     42  C   UNL A   1      40.348  31.190  30.194  1.00  0.00     0.029 A 
ATOM     43  N   UNL A   1      42.075  29.782  30.019  1.00  0.00    -0.354 N 
ATOM     44  C   UNL A   1      41.560  25.829  28.341  1.00  0.00     0.074 A 
ATOM     45  C   UNL A   1      40.207  25.616  27.882  1.00  0.00     0.031 C 
ATOM     46  C   UNL A   1      41.437  31.841  30.620  1.00  0.00     0.029 A 
ATOM     47  C   UNL A   1      42.584  30.942  30.555  1.00  0.00     0.049 A 
ATOM     48  H   UNL A   1      42.621  28.980  29.849  1.00  0.00     0.167 HD
ATOM     49  C   UNL A   1      42.559  24.924  28.228  1.00  0.00     0.031 A 
ATOM     50  C   UNL A   1      43.829  31.251  30.969  1.00  0.00     0.031 A 
ATOM     51  C   UNL A   1      43.913  25.159  28.658  1.00  0.00     0.049 A 
ATOM     52  C   UNL A   1      44.914  30.224  30.842  1.00  0.00     0.074 A 
ATOM     53  C   UNL A   1      44.996  24.301  28.571  1.00  0.00     0.029 A 
ATOM     54  N   UNL A   1      44.376  26.332  29.233  1.00  0.00    -0.354 N 
ATOM     55  N   UNL A   1      44.838  29.016  30.337  1.00  0.00    -0.248 NA
ATOM     56  C   UNL A   1      46.245  30.588  31.342  1.00  0.00     0.031 C 
ATOM     57  C   UNL A   1      46.101  24.935  29.141  1.00  0.00     0.029 A 
ATOM     58  C   UNL A   1      45.724  26.212  29.525  1.00  0.00     0.049 A 
ATOM     59  H   UNL A   1      43.828  27.130  29.409  1.00  0.00     0.167 HD
ATOM     60  C   UNL A   1      46.111  28.475  30.460  1.00  0.00     0.074 A 
ATOM     61  C   UNL A   1      46.945  29.497  31.059  1.00  0.00     0.031 C 
ATOM     62  C   UNL A   1      46.542  27.237  30.121  1.00  0.00     0.031 A 
BRANCH  49  63
ATOM     63  C   UNL A   1      42.260  23.585  27.609  1.00  0.00    -0.014 A 
ATOM     64  C   UNL A   1      41.814  22.527  28.424  1.00  0.00     0.010 A 
ATOM     65  C   UNL A   1      42.583  23.326  26.265  1.00  0.00     0.010 A 
ATOM     66  C   UNL A   1      41.744  21.225  27.922  1.00  0.00     0.020 A 
ATOM     67  C   UNL A   1      42.492  22.028  25.753  1.00  0.00     0.020 A 
ATOM     68  C   UNL A   1      42.103  20.981  26.593  1.00  0.00     0.054 A 
BRANCH  68  69
ATOM     69  S   UNL A   1      42.076  19.274  25.980  1.00  0.00     0.124 S 
ATOM     70  O   UNL A   1      42.933  19.357  24.801  1.00  0.00    -0.237 OA
ATOM     71  O   UNL A   1      42.621  18.520  27.106  1.00  0.00    -0.237 OA
ATOM     72  O   UNL A   1      40.660  19.031  25.708  1.00  0.00    -0.744 OA
ENDBRANCH  68  69
ENDBRANCH  49  63
BRANCH  50  73
ATOM     73  C   UNL A   1      44.082  32.596  31.556  1.00  0.00    -0.014 A 
ATOM     74  C   UNL A   1      43.945  32.792  32.944  1.00  0.00     0.010 A 
ATOM     75  C   UNL A   1      44.371  33.698  30.736  1.00  0.00     0.010 A 
ATOM     76  C   UNL A   1      44.032  34.073  33.493  1.00  0.00     0.020 A 
ATOM     77  C   UNL A   1      44.493  34.979  31.287  1.00  0.00     0.020 A 
ATOM     78  C   UNL A   1      44.291  35.161  32.657  1.00  0.00     0.054 A 
BRANCH  78  79
ATOM     79  S   UNL A   1      44.363  36.822  33.384  1.00  0.00     0.124 S 
ATOM     80  O   UNL A   1      42.952  37.092  33.647  1.00  0.00    -0.237 OA
ATOM     81  O   UNL A   1      45.197  36.623  34.566  1.00  0.00    -0.237 OA
ATOM     82  O   UNL A   1      44.969  37.628  32.326  1.00  0.00    -0.744 OA
ENDBRANCH  78  79
ENDBRANCH  50  73
BRANCH  62  83
ATOM     83  C   UNL A   1      47.981  26.890  30.388  1.00  0.00    -0.014 A 
ATOM     84  C   UNL A   1      48.359  26.405  31.654  1.00  0.00     0.010 A 
ATOM     85  C   UNL A   1      48.973  27.182  29.436  1.00  0.00     0.010 A 
ATOM     86  C   UNL A   1      49.708  26.254  31.977  1.00  0.00     0.020 A 
ATOM     87  C   UNL A   1      50.324  27.007  29.749  1.00  0.00     0.020 A 
ATOM     88  C   UNL A   1      50.683  26.569  31.026  1.00  0.00     0.054 A 
BRANCH  88  89
ATOM     89  S   UNL A   1      52.432  26.406  31.477  1.00  0.00     0.124 S 
ATOM     90  O   UNL A   1      53.104  26.736  30.223  1.00  0.00    -0.237 OA
ATOM     91  O   UNL A   1      52.582  27.386  32.549  1.00  0.00    -0.237 OA
ATOM     92  O   UNL A   1      52.546  25.011  31.898  1.00  0.00    -0.744 OA
ENDBRANCH  88  89
ENDBRANCH  62  83
ENDBRANCH  36  37
ENDBRANCH  28  31
ENDBRANCH  26  27
ENDBRANCH   1  26
TORSDOF 16
ENDMDL
MODEL 3
REMARK VINA RESULT:     -11.6      1.165      1.597
REMARK SMILES CC(C)Cc1cc2c(cc1Cl)C=C(C(=O)NCCCNC(=O)c1ccc(-c3c4nc(c(-c5ccc(S(=O)(=O)[O-])cc5)c5ccc([nH]5)c(-c5ccc(S(=O)(=O)[O-])cc5)c5nc(c(-c6ccc(S(=O)(=O)[O-])cc6)c6ccc3[nH]6)C=C5)C=C4)cc1)[C@@H](C(F)(F)F)O2
REMARK SMILES IDX 18 1 17 2 16 3 14 4 15 5 13 7 5 8 6 9 10 10 7 11 9 12 11 13
REMARK SMILES IDX 8 14 88 15 12 16 83 17 4 18 2 19 1 20 3 21 84 22 85 23 86 24
REMARK SMILES IDX 87 25 19 26 20 27 21 28 22 30 23 31 24 32 82 33 25 34 81 35
REMARK SMILES IDX 26 36 27 37 28 38 75 39 29 40 80 41 74 42 76 43 30 44 79 45
REMARK SMILES IDX 73 46 72 47 31 49 61 50 42 51 60 52 43 53 46 54 59 55 77 56
REMARK SMILES IDX 44 57 45 58 58 60 78 61 47 62 32 63 33 64 41 65 34 66 40 67
REMARK SMILES IDX 35 68 36 69 37 70 38 71 39 72 62 73 63 74 71 75 64 76 70 77
REMARK SMILES IDX 65 78 66 79 67 80 68 81 69 82 48 83 49 84 57 85 50 86 56 87
REMARK SMILES IDX 51 88 52 89 53 90 54 91 55 92
REMARK H PARENT 16 6 20 29 76 48 46 59
REMARK Flexibility Score: inf
ROOT
ATOM      1  C   UNL A   1      32.101  27.962  27.103  1.00  0.00     0.042 C 
ENDROOT
BRANCH   1   2
ATOM      2  C   UNL A   1      31.461  28.421  25.803  1.00  0.00     0.118 C 
BRANCH   2   3
ATOM      3  N   UNL A   1      32.410  28.447  24.697  1.00  0.00    -0.352 N 
ATOM      4  C   UNL A   1      33.111  27.550  23.966  1.00  0.00     0.251 C 
ATOM      5  O   UNL A   1      33.819  28.031  23.074  1.00  0.00    -0.270 OA
ATOM      6  H   UNL A   1      32.591  29.370  24.403  1.00  0.00     0.163 HD
BRANCH   4   7
ATOM      7  C   UNL A   1      33.080  26.072  24.165  1.00  0.00     0.067 C 
ATOM      8  C   UNL A   1      34.347  21.238  24.936  1.00  0.00    -0.025 A 
ATOM      9  C   UNL A   1      33.157  21.973  24.943  1.00  0.00     0.052 A 
ATOM     10  C   UNL A   1      35.527  21.905  24.566  1.00  0.00     0.045 A 
ATOM     11  C   UNL A   1      33.153  23.340  24.698  1.00  0.00     0.128 A 
ATOM     12  C   UNL A   1      35.509  23.277  24.259  1.00  0.00     0.032 A 
ATOM     13  Cl  UNL A   1      37.049  21.093  24.478  1.00  0.00    -0.084 Cl
ATOM     14  C   UNL A   1      34.321  24.006  24.348  1.00  0.00     0.019 A 
ATOM     15  O   UNL A   1      31.962  23.961  24.906  1.00  0.00    -0.475 OA
ATOM     16  C   UNL A   1      34.274  25.448  24.142  1.00  0.00     0.025 C 
ATOM     17  C   UNL A   1      31.810  25.293  24.364  1.00  0.00     0.314 C 
BRANCH   8  18
ATOM     18  C   UNL A   1      34.274  19.790  25.369  1.00  0.00     0.040 C 
BRANCH  18  19
ATOM     19  C   UNL A   1      33.866  18.809  24.239  1.00  0.00    -0.013 C 
ATOM     20  C   UNL A   1      34.701  17.522  24.200  1.00  0.00     0.008 C 
ATOM     21  C   UNL A   1      32.394  18.423  24.406  1.00  0.00     0.008 C 
ENDBRANCH  18  19
ENDBRANCH   8  18
BRANCH  17  22
ATOM     22  C   UNL A   1      30.964  25.178  23.083  1.00  0.00     0.429 C 
ATOM     23  F   UNL A   1      30.089  26.212  23.003  1.00  0.00    -0.167 F 
ATOM     24  F   UNL A   1      31.706  25.216  21.953  1.00  0.00    -0.167 F 
ATOM     25  F   UNL A   1      30.244  24.034  23.041  1.00  0.00    -0.167 F 
ENDBRANCH  17  22
ENDBRANCH   4   7
ENDBRANCH   2   3
ENDBRANCH   1   2
BRANCH   1  26
ATOM     26  C   UNL A   1      33.512  28.509  27.271  1.00  0.00     0.118 C 
BRANCH  26  27
ATOM     27  N   UNL A   1      33.512  29.921  27.647  1.00  0.00    -0.352 N 
ATOM     28  C   UNL A   1      34.477  30.680  28.266  1.00  0.00     0.251 C 
ATOM     29  H   UNL A   1      32.687  30.408  27.422  1.00  0.00     0.163 HD
ATOM     30  O   UNL A   1      34.188  31.790  28.705  1.00  0.00    -0.269 OA
BRANCH  28  31
ATOM     31  C   UNL A   1      35.849  30.154  28.415  1.00  0.00     0.039 A 
ATOM     32  C   UNL A   1      36.267  29.623  29.635  1.00  0.00     0.014 A 
ATOM     33  C   UNL A   1      36.728  30.189  27.329  1.00  0.00     0.014 A 
ATOM     34  C   UNL A   1      37.607  29.324  29.831  1.00  0.00     0.010 A 
ATOM     35  C   UNL A   1      38.054  29.776  27.497  1.00  0.00     0.010 A 
ATOM     36  C   UNL A   1      38.517  29.389  28.764  1.00  0.00    -0.014 A 
BRANCH  36  37
ATOM     37  C   UNL A   1      39.938  29.032  29.011  1.00  0.00     0.031 A 
ATOM     38  C   UNL A   1      40.856  29.980  29.738  1.00  0.00     0.074 A 
ATOM     39  C   UNL A   1      40.377  27.812  28.643  1.00  0.00     0.049 A 
ATOM     40  N   UNL A   1      42.114  29.813  30.055  1.00  0.00    -0.248 NA
ATOM     41  C   UNL A   1      40.301  31.277  30.164  1.00  0.00     0.031 C 
ATOM     42  C   UNL A   1      39.572  26.806  27.941  1.00  0.00     0.029 A 
ATOM     43  N   UNL A   1      41.585  27.190  28.834  1.00  0.00    -0.354 N 
ATOM     44  C   UNL A   1      42.506  30.984  30.694  1.00  0.00     0.074 A 
ATOM     45  C   UNL A   1      41.361  31.865  30.704  1.00  0.00     0.031 C 
ATOM     46  C   UNL A   1      40.282  25.676  27.824  1.00  0.00     0.029 A 
ATOM     47  C   UNL A   1      41.618  25.897  28.365  1.00  0.00     0.049 A 
ATOM     48  H   UNL A   1      42.355  27.628  29.266  1.00  0.00     0.167 HD
ATOM     49  C   UNL A   1      43.710  31.286  31.231  1.00  0.00     0.031 A 
ATOM     50  C   UNL A   1      42.614  24.989  28.351  1.00  0.00     0.031 A 
ATOM     51  C   UNL A   1      44.835  30.387  31.246  1.00  0.00     0.049 A 
ATOM     52  C   UNL A   1      43.941  25.355  28.944  1.00  0.00     0.074 A 
ATOM     53  C   UNL A   1      46.092  30.605  31.782  1.00  0.00     0.029 A 
ATOM     54  N   UNL A   1      44.838  29.104  30.724  1.00  0.00    -0.354 N 
ATOM     55  N   UNL A   1      44.291  26.474  29.532  1.00  0.00    -0.248 NA
ATOM     56  C   UNL A   1      45.010  24.350  28.871  1.00  0.00     0.031 C 
ATOM     57  C   UNL A   1      46.872  29.474  31.537  1.00  0.00     0.029 A 
ATOM     58  C   UNL A   1      46.082  28.526  30.907  1.00  0.00     0.049 A 
ATOM     59  H   UNL A   1      44.071  28.669  30.288  1.00  0.00     0.167 HD
ATOM     60  C   UNL A   1      45.621  26.309  29.897  1.00  0.00     0.074 A 
ATOM     61  C   UNL A   1      46.005  24.972  29.491  1.00  0.00     0.031 C 
ATOM     62  C   UNL A   1      46.451  27.194  30.499  1.00  0.00     0.031 A 
BRANCH  49  63
ATOM     63  C   UNL A   1      43.903  32.637  31.868  1.00  0.00    -0.014 A 
ATOM     64  C   UNL A   1      43.652  32.798  33.244  1.00  0.00     0.010 A 
ATOM     65  C   UNL A   1      44.160  33.773  31.080  1.00  0.00     0.010 A 
ATOM     66  C   UNL A   1      43.605  34.073  33.812  1.00  0.00     0.020 A 
ATOM     67  C   UNL A   1      44.136  35.049  31.651  1.00  0.00     0.020 A 
ATOM     68  C   UNL A   1      43.829  35.193  33.006  1.00  0.00     0.054 A 
BRANCH  68  69
ATOM     69  S   UNL A   1      43.692  36.844  33.746  1.00  0.00     0.124 S 
ATOM     70  O   UNL A   1      43.809  37.714  32.579  1.00  0.00    -0.237 OA
ATOM     71  O   UNL A   1      42.374  36.804  34.375  1.00  0.00    -0.237 OA
ATOM     72  O   UNL A   1      44.816  36.894  34.679  1.00  0.00    -0.744 OA
ENDBRANCH  68  69
ENDBRANCH  49  63
BRANCH  50  73
ATOM     73  C   UNL A   1      42.369  23.658  27.729  1.00  0.00    -0.014 A 
ATOM     74  C   UNL A   1      41.804  22.620  28.494  1.00  0.00     0.010 A 
ATOM     75  C   UNL A   1      42.773  23.392  26.410  1.00  0.00     0.010 A 
ATOM     76  C   UNL A   1      41.703  21.327  27.976  1.00  0.00     0.020 A 
ATOM     77  C   UNL A   1      42.642  22.106  25.875  1.00  0.00     0.020 A 
ATOM     78  C   UNL A   1      42.137  21.076  26.672  1.00  0.00     0.054 A 
BRANCH  78  79
ATOM     79  S   UNL A   1      42.034  19.383  26.030  1.00  0.00     0.124 S 
ATOM     80  O   UNL A   1      40.599  19.240  25.797  1.00  0.00    -0.237 OA
ATOM     81  O   UNL A   1      42.863  19.440  24.829  1.00  0.00    -0.237 OA
ATOM     82  O   UNL A   1      42.575  18.574  27.119  1.00  0.00    -0.744 OA
ENDBRANCH  78  79
ENDBRANCH  50  73
BRANCH  62  83
ATOM     83  C   UNL A   1      47.869  26.770  30.761  1.00  0.00    -0.014 A 
ATOM     84  C   UNL A   1      48.219  26.241  32.018  1.00  0.00     0.010 A 
ATOM     85  C   UNL A   1      48.878  27.031  29.818  1.00  0.00     0.010 A 
ATOM     86  C   UNL A   1      49.558  26.015  32.340  1.00  0.00     0.020 A 
ATOM     87  C   UNL A   1      50.217  26.782  30.129  1.00  0.00     0.020 A 
ATOM     88  C   UNL A   1      50.550  26.300  31.398  1.00  0.00     0.054 A 
BRANCH  88  89
ATOM     89  S   UNL A   1      52.287  26.039  31.848  1.00  0.00     0.124 S 
ATOM     90  O   UNL A   1      52.347  24.590  32.015  1.00  0.00    -0.237 OA
ATOM     91  O   UNL A   1      53.004  26.571  30.691  1.00  0.00    -0.237 OA
ATOM     92  O   UNL A   1      52.441  26.817  33.076  1.00  0.00    -0.744 OA
ENDBRANCH  88  89
ENDBRANCH  62  83
ENDBRANCH  36  37
ENDBRANCH  28  31
ENDBRANCH  26  27
ENDBRANCH   1  26
TORSDOF 16
ENDMDL
