MODEL 1
REMARK VINA RESULT:     -13.6      0.000      0.000
REMARK SMILES COc1cccc(-c2nn(-c3cc4c(cc3C(N)=O)OCO4)cc2C(=O)NCCCNC(=O)c2ccc(-c3c4nc(c(-c5ccc(S(=O)(=O)[O-])cc5)c5ccc([nH]5)c(-c5ccc(S(=O)(=O)[O-])cc5)c5nc(c(-c6ccc(S(=O)(=O)[O-])cc6)c6ccc3[nH]6)C=C5)C=C4)cc2)c1
REMARK SMILES IDX 29 1 28 2 27 3 25 4 26 5 24 7 8 8 9 9 10 10 23 11 7 12 3 13
REMARK SMILES IDX 4 14 94 15 5 16 6 17 2 18 1 19 11 20 12 21 16 22 13 23 15 24
REMARK SMILES IDX 14 25 22 26 20 27 21 28 17 29 18 30 19 31 30 34 31 35 32 36
REMARK SMILES IDX 33 38 34 39 35 40 93 41 36 42 92 43 37 44 38 45 39 46 86 47
REMARK SMILES IDX 40 48 91 49 85 50 87 51 41 52 90 53 84 54 83 55 42 57 72 58
REMARK SMILES IDX 53 59 71 60 54 61 57 62 70 63 88 64 55 65 56 66 69 68 89 69
REMARK SMILES IDX 58 70 43 71 44 72 52 73 45 74 51 75 46 76 47 77 48 78 49 79
REMARK SMILES IDX 50 80 73 81 74 82 82 83 75 84 81 85 76 86 77 87 78 88 79 89
REMARK SMILES IDX 80 90 59 91 60 92 68 93 61 94 67 95 62 96 63 97 64 98 65 99
REMARK SMILES IDX 66 100
REMARK H PARENT 27 6 18 32 18 33 31 37 87 56 57 67
REMARK Flexibility Score: inf
ROOT
ATOM      1  C   UNL A   1      32.446  29.094  26.729  1.00  0.00     0.042 C 
ENDROOT
BRANCH   1   2
ATOM      2  C   UNL A   1      32.264  27.791  27.513  1.00  0.00     0.118 C 
BRANCH   2   3
ATOM      3  N   UNL A   1      31.032  27.106  27.163  1.00  0.00    -0.352 N 
ATOM      4  C   UNL A   1      30.780  25.917  26.523  1.00  0.00     0.255 C 
ATOM      5  O   UNL A   1      29.600  25.573  26.479  1.00  0.00    -0.269 OA
ATOM      6  H   UNL A   1      30.219  27.589  27.438  1.00  0.00     0.163 HD
BRANCH   4   7
ATOM      7  C   UNL A   1      31.851  25.098  25.974  1.00  0.00     0.086 A 
ATOM      8  C   UNL A   1      32.661  25.344  24.808  1.00  0.00     0.106 A 
ATOM      9  N   UNL A   1      33.467  24.291  24.532  1.00  0.00    -0.167 NA
ATOM     10  N   UNL A   1      33.058  23.348  25.406  1.00  0.00    -0.239 N 
ATOM     11  C   UNL A   1      32.352  23.904  26.442  1.00  0.00     0.129 A 
BRANCH   8  12
ATOM     12  C   UNL A   1      32.667  26.548  23.975  1.00  0.00     0.007 A 
ATOM     13  C   UNL A   1      31.497  28.196  22.636  1.00  0.00     0.119 A 
ATOM     14  C   UNL A   1      32.675  28.934  22.507  1.00  0.00     0.046 A 
ATOM     15  C   UNL A   1      31.493  26.994  23.351  1.00  0.00     0.056 A 
ATOM     16  C   UNL A   1      33.848  28.487  23.110  1.00  0.00     0.005 A 
ATOM     17  C   UNL A   1      33.845  27.296  23.834  1.00  0.00     0.011 A 
BRANCH  13  18
ATOM     18  O   UNL A   1      30.404  28.690  21.972  1.00  0.00    -0.497 OA
ATOM     19  C   UNL A   1      29.772  29.775  22.644  1.00  0.00     0.278 C 
ENDBRANCH  13  18
ENDBRANCH   8  12
BRANCH  10  20
ATOM     20  C   UNL A   1      33.453  21.990  25.347  1.00  0.00     0.081 A 
ATOM     21  C   UNL A   1      32.451  21.005  25.399  1.00  0.00     0.079 A 
ATOM     22  C   UNL A   1      34.821  21.635  25.130  1.00  0.00     0.069 A 
ATOM     23  C   UNL A   1      32.834  19.704  25.149  1.00  0.00     0.167 A 
ATOM     24  C   UNL A   1      35.135  20.315  24.773  1.00  0.00     0.066 A 
ATOM     25  C   UNL A   1      34.129  19.379  24.815  1.00  0.00     0.166 A 
ATOM     26  O   UNL A   1      32.035  18.603  25.182  1.00  0.00    -0.454 OA
ATOM     27  O   UNL A   1      34.300  18.046  24.600  1.00  0.00    -0.454 OA
ATOM     28  C   UNL A   1      33.018  17.555  25.042  1.00  0.00     0.468 C 
BRANCH  22  29
ATOM     29  C   UNL A   1      35.950  22.562  25.487  1.00  0.00     0.251 C 
ATOM     30  N   UNL A   1      35.963  23.137  26.726  1.00  0.00    -0.366 N 
ATOM     31  O   UNL A   1      36.823  22.907  24.697  1.00  0.00    -0.269 OA
ATOM     32  H   UNL A   1      35.281  22.889  27.391  1.00  0.00     0.159 HD
ATOM     33  H   UNL A   1      36.655  23.800  26.954  1.00  0.00     0.159 HD
ENDBRANCH  22  29
ENDBRANCH  10  20
ENDBRANCH   4   7
ENDBRANCH   2   3
ENDBRANCH   1   2
BRANCH   1  34
ATOM     34  C   UNL A   1      33.898  29.539  26.741  1.00  0.00     0.118 C 
BRANCH  34  35
ATOM     35  N   UNL A   1      34.034  30.987  26.925  1.00  0.00    -0.352 N 
ATOM     36  C   UNL A   1      34.901  31.670  27.755  1.00  0.00     0.251 C 
ATOM     37  H   UNL A   1      33.428  31.546  26.387  1.00  0.00     0.163 HD
ATOM     38  O   UNL A   1      34.682  32.840  28.050  1.00  0.00    -0.269 OA
BRANCH  36  39
ATOM     39  C   UNL A   1      36.087  30.967  28.276  1.00  0.00     0.039 A 
ATOM     40  C   UNL A   1      36.201  29.577  28.212  1.00  0.00     0.014 A 
ATOM     41  C   UNL A   1      37.114  31.736  28.815  1.00  0.00     0.014 A 
ATOM     42  C   UNL A   1      37.394  28.984  28.618  1.00  0.00     0.010 A 
ATOM     43  C   UNL A   1      38.343  31.177  29.039  1.00  0.00     0.010 A 
ATOM     44  C   UNL A   1      38.474  29.796  29.007  1.00  0.00    -0.014 A 
BRANCH  44  45
ATOM     45  C   UNL A   1      39.801  29.237  29.243  1.00  0.00     0.031 A 
ATOM     46  C   UNL A   1      40.125  29.085  30.684  1.00  0.00     0.074 A 
ATOM     47  C   UNL A   1      40.570  28.705  28.266  1.00  0.00     0.049 A 
ATOM     48  N   UNL A   1      40.945  29.802  31.375  1.00  0.00    -0.248 NA
ATOM     49  C   UNL A   1      39.309  28.164  31.496  1.00  0.00     0.031 C 
ATOM     50  C   UNL A   1      40.237  28.533  26.844  1.00  0.00     0.029 A 
ATOM     51  N   UNL A   1      41.786  28.097  28.354  1.00  0.00    -0.354 N 
ATOM     52  C   UNL A   1      40.947  29.247  32.649  1.00  0.00     0.074 A 
ATOM     53  C   UNL A   1      39.779  28.409  32.722  1.00  0.00     0.031 C 
ATOM     54  C   UNL A   1      41.103  27.669  26.269  1.00  0.00     0.029 A 
ATOM     55  C   UNL A   1      42.156  27.373  27.221  1.00  0.00     0.049 A 
ATOM     56  H   UNL A   1      42.356  28.163  29.153  1.00  0.00     0.167 HD
ATOM     57  C   UNL A   1      42.067  29.285  33.424  1.00  0.00     0.031 A 
ATOM     58  C   UNL A   1      43.256  26.591  27.067  1.00  0.00     0.031 A 
ATOM     59  C   UNL A   1      43.043  30.200  32.884  1.00  0.00     0.049 A 
ATOM     60  C   UNL A   1      44.240  27.050  28.071  1.00  0.00     0.074 A 
ATOM     61  C   UNL A   1      43.092  31.558  32.648  1.00  0.00     0.029 A 
ATOM     62  N   UNL A   1      44.011  29.626  32.093  1.00  0.00    -0.354 N 
ATOM     63  N   UNL A   1      44.775  28.239  28.048  1.00  0.00    -0.248 NA
ATOM     64  C   UNL A   1      44.303  26.364  29.350  1.00  0.00     0.031 C 
ATOM     65  C   UNL A   1      43.818  31.699  31.427  1.00  0.00     0.029 A 
ATOM     66  C   UNL A   1      44.250  30.436  31.014  1.00  0.00     0.049 A 
ATOM     67  H   UNL A   1      44.461  28.770  32.275  1.00  0.00     0.167 HD
ATOM     68  C   UNL A   1      44.819  28.628  29.378  1.00  0.00     0.074 A 
ATOM     69  C   UNL A   1      44.652  27.389  30.134  1.00  0.00     0.031 C 
ATOM     70  C   UNL A   1      44.699  29.946  29.723  1.00  0.00     0.031 A 
BRANCH  57  71
ATOM     71  C   UNL A   1      42.467  28.171  34.366  1.00  0.00    -0.014 A 
ATOM     72  C   UNL A   1      42.827  28.498  35.689  1.00  0.00     0.010 A 
ATOM     73  C   UNL A   1      42.770  26.864  33.928  1.00  0.00     0.010 A 
ATOM     74  C   UNL A   1      43.503  27.582  36.508  1.00  0.00     0.020 A 
ATOM     75  C   UNL A   1      43.407  25.931  34.748  1.00  0.00     0.020 A 
ATOM     76  C   UNL A   1      43.795  26.306  36.026  1.00  0.00     0.054 A 
BRANCH  76  77
ATOM     77  S   UNL A   1      44.732  25.156  37.062  1.00  0.00     0.124 S 
ATOM     78  O   UNL A   1      44.381  23.867  36.478  1.00  0.00    -0.237 OA
ATOM     79  O   UNL A   1      46.107  25.599  36.844  1.00  0.00    -0.237 OA
ATOM     80  O   UNL A   1      44.210  25.402  38.404  1.00  0.00    -0.744 OA
ENDBRANCH  76  77
ENDBRANCH  57  71
BRANCH  58  81
ATOM     81  C   UNL A   1      43.405  25.318  26.316  1.00  0.00    -0.014 A 
ATOM     82  C   UNL A   1      44.353  25.174  25.284  1.00  0.00     0.010 A 
ATOM     83  C   UNL A   1      42.810  24.143  26.821  1.00  0.00     0.010 A 
ATOM     84  C   UNL A   1      44.732  23.900  24.815  1.00  0.00     0.020 A 
ATOM     85  C   UNL A   1      43.183  22.873  26.361  1.00  0.00     0.020 A 
ATOM     86  C   UNL A   1      44.157  22.755  25.372  1.00  0.00     0.054 A 
BRANCH  86  87
ATOM     87  S   UNL A   1      44.768  21.111  24.882  1.00  0.00     0.124 S 
ATOM     88  O   UNL A   1      44.643  21.152  23.429  1.00  0.00    -0.237 OA
ATOM     89  O   UNL A   1      46.134  21.110  25.398  1.00  0.00    -0.237 OA
ATOM     90  O   UNL A   1      43.854  20.189  25.557  1.00  0.00    -0.744 OA
ENDBRANCH  86  87
ENDBRANCH  58  81
BRANCH  70  91
ATOM     91  C   UNL A   1      44.871  30.979  28.627  1.00  0.00    -0.014 A 
ATOM     92  C   UNL A   1      43.820  31.489  27.839  1.00  0.00     0.010 A 
ATOM     93  C   UNL A   1      46.151  31.541  28.473  1.00  0.00     0.010 A 
ATOM     94  C   UNL A   1      44.053  32.514  26.904  1.00  0.00     0.020 A 
ATOM     95  C   UNL A   1      46.385  32.571  27.561  1.00  0.00     0.020 A 
ATOM     96  C   UNL A   1      45.338  33.047  26.770  1.00  0.00     0.054 A 
BRANCH  96  97
ATOM     97  S   UNL A   1      45.638  34.391  25.587  1.00  0.00     0.124 S 
ATOM     98  O   UNL A   1      47.089  34.364  25.435  1.00  0.00    -0.237 OA
ATOM     99  O   UNL A   1      44.873  33.970  24.415  1.00  0.00    -0.237 OA
ATOM    100  O   UNL A   1      45.110  35.575  26.264  1.00  0.00    -0.744 OA
ENDBRANCH  96  97
ENDBRANCH  70  91
ENDBRANCH  44  45
ENDBRANCH  36  39
ENDBRANCH  34  35
ENDBRANCH   1  34
TORSDOF 17
ENDMDL
MODEL 2
REMARK VINA RESULT:     -13.3      2.630      9.648
REMARK SMILES COc1cccc(-c2nn(-c3cc4c(cc3C(N)=O)OCO4)cc2C(=O)NCCCNC(=O)c2ccc(-c3c4nc(c(-c5ccc(S(=O)(=O)[O-])cc5)c5ccc([nH]5)c(-c5ccc(S(=O)(=O)[O-])cc5)c5nc(c(-c6ccc(S(=O)(=O)[O-])cc6)c6ccc3[nH]6)C=C5)C=C4)cc2)c1
REMARK SMILES IDX 29 1 28 2 27 3 25 4 26 5 24 7 8 8 9 9 10 10 23 11 7 12 3 13
REMARK SMILES IDX 4 14 94 15 5 16 6 17 2 18 1 19 11 20 12 21 16 22 13 23 15 24
REMARK SMILES IDX 14 25 22 26 20 27 21 28 17 29 18 30 19 31 30 34 31 35 32 36
REMARK SMILES IDX 33 38 34 39 35 40 93 41 36 42 92 43 37 44 38 45 39 46 86 47
REMARK SMILES IDX 40 48 91 49 85 50 87 51 41 52 90 53 84 54 83 55 42 57 72 58
REMARK SMILES IDX 53 59 71 60 54 61 57 62 70 63 88 64 55 65 56 66 69 68 89 69
REMARK SMILES IDX 58 70 43 71 44 72 52 73 45 74 51 75 46 76 47 77 48 78 49 79
REMARK SMILES IDX 50 80 73 81 74 82 82 83 75 84 81 85 76 86 77 87 78 88 79 89
REMARK SMILES IDX 80 90 59 91 60 92 68 93 61 94 67 95 62 96 63 97 64 98 65 99
REMARK SMILES IDX 66 100
REMARK H PARENT 27 6 18 32 18 33 31 37 87 56 57 67
REMARK Flexibility Score: inf
ROOT
ATOM      1  C   UNL A   1      37.014  22.339  24.711  1.00  0.00     0.042 C 
ENDROOT
BRANCH   1   2
ATOM      2  C   UNL A   1      36.615  23.556  23.871  1.00  0.00     0.118 C 
BRANCH   2   3
ATOM      3  N   UNL A   1      35.651  23.218  22.838  1.00  0.00    -0.352 N 
ATOM      4  C   UNL A   1      34.401  23.705  22.539  1.00  0.00     0.255 C 
ATOM      5  O   UNL A   1      33.885  23.261  21.515  1.00  0.00    -0.269 OA
ATOM      6  H   UNL A   1      35.951  22.500  22.235  1.00  0.00     0.163 HD
BRANCH   4   7
ATOM      7  C   UNL A   1      33.752  24.715  23.364  1.00  0.00     0.086 A 
ATOM      8  C   UNL A   1      33.179  24.569  24.678  1.00  0.00     0.106 A 
ATOM      9  N   UNL A   1      32.545  25.699  25.071  1.00  0.00    -0.167 NA
ATOM     10  N   UNL A   1      32.584  26.478  23.970  1.00  0.00    -0.239 N 
ATOM     11  C   UNL A   1      33.545  26.049  23.092  1.00  0.00     0.129 A 
BRANCH   8  12
ATOM     12  C   UNL A   1      33.227  23.383  25.536  1.00  0.00     0.007 A 
ATOM     13  C   UNL A   1      32.859  21.012  25.887  1.00  0.00     0.119 A 
ATOM     14  C   UNL A   1      33.467  21.099  27.140  1.00  0.00     0.046 A 
ATOM     15  C   UNL A   1      32.720  22.154  25.090  1.00  0.00     0.056 A 
ATOM     16  C   UNL A   1      33.958  22.321  27.595  1.00  0.00     0.005 A 
ATOM     17  C   UNL A   1      33.832  23.458  26.799  1.00  0.00     0.011 A 
BRANCH  13  18
ATOM     18  O   UNL A   1      32.367  19.780  25.542  1.00  0.00    -0.497 OA
ATOM     19  C   UNL A   1      32.595  19.437  24.179  1.00  0.00     0.278 C 
ENDBRANCH  13  18
ENDBRANCH   8  12
BRANCH  10  20
ATOM     20  C   UNL A   1      31.844  27.676  23.823  1.00  0.00     0.081 A 
ATOM     21  C   UNL A   1      31.026  27.815  22.688  1.00  0.00     0.079 A 
ATOM     22  C   UNL A   1      31.847  28.668  24.853  1.00  0.00     0.069 A 
ATOM     23  C   UNL A   1      30.173  28.899  22.656  1.00  0.00     0.167 A 
ATOM     24  C   UNL A   1      30.882  29.687  24.821  1.00  0.00     0.066 A 
ATOM     25  C   UNL A   1      30.084  29.784  23.706  1.00  0.00     0.166 A 
ATOM     26  O   UNL A   1      29.328  29.236  21.644  1.00  0.00    -0.454 OA
ATOM     27  O   UNL A   1      29.181  30.777  23.483  1.00  0.00    -0.454 OA
ATOM     28  C   UNL A   1      28.873  30.529  22.097  1.00  0.00     0.468 C 
BRANCH  22  29
ATOM     29  C   UNL A   1      32.976  28.789  25.839  1.00  0.00     0.251 C 
ATOM     30  N   UNL A   1      34.134  29.394  25.442  1.00  0.00    -0.366 N 
ATOM     31  O   UNL A   1      32.954  28.297  26.962  1.00  0.00    -0.269 OA
ATOM     32  H   UNL A   1      34.195  29.803  24.548  1.00  0.00     0.159 HD
ATOM     33  H   UNL A   1      34.909  29.422  26.049  1.00  0.00     0.159 HD
ENDBRANCH  22  29
ENDBRANCH  10  20
ENDBRANCH   4   7
ENDBRANCH   2   3
ENDBRANCH   1   2
BRANCH   1  34
ATOM     34  C   UNL A   1      37.670  22.767  26.012  1.00  0.00     0.118 C 
BRANCH  34  35
ATOM     35  N   UNL A   1      38.759  21.869  26.406  1.00  0.00    -0.352 N 
ATOM     36  C   UNL A   1      40.059  22.191  26.745  1.00  0.00     0.251 C 
ATOM     37  H   UNL A   1      38.535  20.911  26.435  1.00  0.00     0.163 HD
ATOM     38  O   UNL A   1      40.934  21.331  26.729  1.00  0.00    -0.269 OA
BRANCH  36  39
ATOM     39  C   UNL A   1      40.372  23.582  27.119  1.00  0.00     0.039 A 
ATOM     40  C   UNL A   1      39.572  24.649  26.705  1.00  0.00     0.014 A 
ATOM     41  C   UNL A   1      41.482  23.804  27.929  1.00  0.00     0.014 A 
ATOM     42  C   UNL A   1      39.856  25.925  27.187  1.00  0.00     0.010 A 
ATOM     43  C   UNL A   1      41.650  25.015  28.544  1.00  0.00     0.010 A 
ATOM     44  C   UNL A   1      40.885  26.095  28.131  1.00  0.00    -0.014 A 
BRANCH  44  45
ATOM     45  C   UNL A   1      41.087  27.368  28.815  1.00  0.00     0.031 A 
ATOM     46  C   UNL A   1      42.306  28.088  28.367  1.00  0.00     0.074 A 
ATOM     47  C   UNL A   1      40.156  27.943  29.610  1.00  0.00     0.049 A 
ATOM     48  N   UNL A   1      43.409  28.228  29.022  1.00  0.00    -0.248 NA
ATOM     49  C   UNL A   1      42.386  28.534  26.965  1.00  0.00     0.031 C 
ATOM     50  C   UNL A   1      38.794  27.468  29.899  1.00  0.00     0.029 A 
ATOM     51  N   UNL A   1      40.185  29.144  30.251  1.00  0.00    -0.354 N 
ATOM     52  C   UNL A   1      44.225  29.014  28.217  1.00  0.00     0.074 A 
ATOM     53  C   UNL A   1      43.643  28.978  26.900  1.00  0.00     0.031 C 
ATOM     54  C   UNL A   1      38.064  28.466  30.445  1.00  0.00     0.029 A 
ATOM     55  C   UNL A   1      38.946  29.585  30.717  1.00  0.00     0.049 A 
ATOM     56  H   UNL A   1      41.014  29.660  30.373  1.00  0.00     0.167 HD
ATOM     57  C   UNL A   1      45.132  29.869  28.768  1.00  0.00     0.031 A 
ATOM     58  C   UNL A   1      38.662  30.779  31.297  1.00  0.00     0.031 A 
ATOM     59  C   UNL A   1      45.315  29.599  30.174  1.00  0.00     0.049 A 
ATOM     60  C   UNL A   1      39.940  31.302  31.828  1.00  0.00     0.074 A 
ATOM     61  C   UNL A   1      45.780  28.536  30.918  1.00  0.00     0.029 A 
ATOM     62  N   UNL A   1      44.563  30.377  31.023  1.00  0.00    -0.354 N 
ATOM     63  N   UNL A   1      40.605  30.714  32.783  1.00  0.00    -0.248 NA
ATOM     64  C   UNL A   1      40.710  32.223  31.010  1.00  0.00     0.031 C 
ATOM     65  C   UNL A   1      44.959  28.507  32.084  1.00  0.00     0.029 A 
ATOM     66  C   UNL A   1      44.084  29.597  32.043  1.00  0.00     0.049 A 
ATOM     67  H   UNL A   1      44.395  31.340  30.915  1.00  0.00     0.167 HD
ATOM     68  C   UNL A   1      41.934  30.827  32.405  1.00  0.00     0.074 A 
ATOM     69  C   UNL A   1      41.944  31.881  31.392  1.00  0.00     0.031 C 
ATOM     70  C   UNL A   1      42.840  29.861  32.744  1.00  0.00     0.031 A 
BRANCH  57  71
ATOM     71  C   UNL A   1      45.477  31.215  28.172  1.00  0.00    -0.014 A 
ATOM     72  C   UNL A   1      44.430  32.046  27.722  1.00  0.00     0.010 A 
ATOM     73  C   UNL A   1      46.786  31.573  27.784  1.00  0.00     0.010 A 
ATOM     74  C   UNL A   1      44.679  33.143  26.884  1.00  0.00     0.020 A 
ATOM     75  C   UNL A   1      47.048  32.686  26.982  1.00  0.00     0.020 A 
ATOM     76  C   UNL A   1      45.989  33.449  26.514  1.00  0.00     0.054 A 
BRANCH  76  77
ATOM     77  S   UNL A   1      46.294  34.819  25.373  1.00  0.00     0.124 S 
ATOM     78  O   UNL A   1      47.700  34.625  25.036  1.00  0.00    -0.237 OA
ATOM     79  O   UNL A   1      45.339  34.545  24.302  1.00  0.00    -0.237 OA
ATOM     80  O   UNL A   1      45.998  36.004  26.175  1.00  0.00    -0.744 OA
ENDBRANCH  76  77
ENDBRANCH  57  71
BRANCH  58  81
ATOM     81  C   UNL A   1      37.439  31.612  31.179  1.00  0.00    -0.014 A 
ATOM     82  C   UNL A   1      36.201  31.189  31.704  1.00  0.00     0.010 A 
ATOM     83  C   UNL A   1      37.557  32.967  30.806  1.00  0.00     0.010 A 
ATOM     84  C   UNL A   1      35.144  32.099  31.900  1.00  0.00     0.020 A 
ATOM     85  C   UNL A   1      36.510  33.878  31.000  1.00  0.00     0.020 A 
ATOM     86  C   UNL A   1      35.312  33.445  31.564  1.00  0.00     0.054 A 
BRANCH  86  87
ATOM     87  S   UNL A   1      34.006  34.646  31.972  1.00  0.00     0.124 S 
ATOM     88  O   UNL A   1      33.362  34.857  30.680  1.00  0.00    -0.237 OA
ATOM     89  O   UNL A   1      33.210  33.929  32.965  1.00  0.00    -0.237 OA
ATOM     90  O   UNL A   1      34.746  35.796  32.491  1.00  0.00    -0.744 OA
ENDBRANCH  86  87
ENDBRANCH  58  81
BRANCH  70  91
ATOM     91  C   UNL A   1      42.443  28.868  33.819  1.00  0.00    -0.014 A 
ATOM     92  C   UNL A   1      41.770  27.654  33.574  1.00  0.00     0.010 A 
ATOM     93  C   UNL A   1      42.879  29.135  35.128  1.00  0.00     0.010 A 
ATOM     94  C   UNL A   1      41.519  26.747  34.619  1.00  0.00     0.020 A 
ATOM     95  C   UNL A   1      42.651  28.230  36.166  1.00  0.00     0.020 A 
ATOM     96  C   UNL A   1      41.961  27.044  35.912  1.00  0.00     0.054 A 
BRANCH  96  97
ATOM     97  S   UNL A   1      41.666  25.863  37.258  1.00  0.00     0.124 S 
ATOM     98  O   UNL A   1      41.823  24.574  36.591  1.00  0.00    -0.237 OA
ATOM     99  O   UNL A   1      42.708  26.203  38.224  1.00  0.00    -0.237 OA
ATOM    100  O   UNL A   1      40.305  26.168  37.698  1.00  0.00    -0.744 OA
ENDBRANCH  96  97
ENDBRANCH  70  91
ENDBRANCH  44  45
ENDBRANCH  36  39
ENDBRANCH  34  35
ENDBRANCH   1  34
TORSDOF 17
ENDMDL
MODEL 3
REMARK VINA RESULT:     -13.2      2.789      9.537
REMARK SMILES COc1cccc(-c2nn(-c3cc4c(cc3C(N)=O)OCO4)cc2C(=O)NCCCNC(=O)c2ccc(-c3c4nc(c(-c5ccc(S(=O)(=O)[O-])cc5)c5ccc([nH]5)c(-c5ccc(S(=O)(=O)[O-])cc5)c5nc(c(-c6ccc(S(=O)(=O)[O-])cc6)c6ccc3[nH]6)C=C5)C=C4)cc2)c1
REMARK SMILES IDX 29 1 28 2 27 3 25 4 26 5 24 7 8 8 9 9 10 10 23 11 7 12 3 13
REMARK SMILES IDX 4 14 94 15 5 16 6 17 2 18 1 19 11 20 12 21 16 22 13 23 15 24
REMARK SMILES IDX 14 25 22 26 20 27 21 28 17 29 18 30 19 31 30 34 31 35 32 36
REMARK SMILES IDX 33 38 34 39 35 40 93 41 36 42 92 43 37 44 38 45 39 46 86 47
REMARK SMILES IDX 40 48 91 49 85 50 87 51 41 52 90 53 84 54 83 55 42 57 72 58
REMARK SMILES IDX 53 59 71 60 54 61 57 62 70 63 88 64 55 65 56 66 69 68 89 69
REMARK SMILES IDX 58 70 43 71 44 72 52 73 45 74 51 75 46 76 47 77 48 78 49 79
REMARK SMILES IDX 50 80 73 81 74 82 82 83 75 84 81 85 76 86 77 87 78 88 79 89
REMARK SMILES IDX 80 90 59 91 60 92 68 93 61 94 67 95 62 96 63 97 64 98 65 99
REMARK SMILES IDX 66 100
REMARK H PARENT 27 6 18 32 18 33 31 37 87 56 57 67
REMARK Flexibility Score: inf
ROOT
ATOM      1  C   UNL A   1      37.367  21.725  24.993  1.00  0.00     0.042 C 
ENDROOT
BRANCH   1   2
ATOM      2  C   UNL A   1      36.001  22.415  25.065  1.00  0.00     0.118 C 
BRANCH   2   3
ATOM      3  N   UNL A   1      35.398  22.303  26.381  1.00  0.00    -0.352 N 
ATOM      4  C   UNL A   1      34.099  22.403  26.819  1.00  0.00     0.255 C 
ATOM      5  O   UNL A   1      33.915  22.148  28.008  1.00  0.00    -0.269 OA
ATOM      6  H   UNL A   1      36.046  22.121  27.100  1.00  0.00     0.163 HD
BRANCH   4   7
ATOM      7  C   UNL A   1      33.008  22.745  25.917  1.00  0.00     0.086 A 
ATOM      8  C   UNL A   1      32.302  21.890  24.998  1.00  0.00     0.106 A 
ATOM      9  N   UNL A   1      31.439  22.594  24.228  1.00  0.00    -0.167 NA
ATOM     10  N   UNL A   1      31.712  23.876  24.546  1.00  0.00    -0.239 N 
ATOM     11  C   UNL A   1      32.385  23.959  25.738  1.00  0.00     0.129 A 
BRANCH   8  12
ATOM     12  C   UNL A   1      32.447  20.440  24.851  1.00  0.00     0.007 A 
ATOM     13  C   UNL A   1      32.598  18.462  23.456  1.00  0.00     0.119 A 
ATOM     14  C   UNL A   1      32.875  17.684  24.581  1.00  0.00     0.046 A 
ATOM     15  C   UNL A   1      32.365  19.835  23.588  1.00  0.00     0.056 A 
ATOM     16  C   UNL A   1      32.942  18.276  25.840  1.00  0.00     0.005 A 
ATOM     17  C   UNL A   1      32.721  19.647  25.975  1.00  0.00     0.011 A 
BRANCH  13  18
ATOM     18  O   UNL A   1      32.509  17.787  22.266  1.00  0.00    -0.497 OA
ATOM     19  C   UNL A   1      32.122  18.610  21.172  1.00  0.00     0.278 C 
ENDBRANCH  13  18
ENDBRANCH   8  12
BRANCH  10  20
ATOM     20  C   UNL A   1      31.218  24.992  23.827  1.00  0.00     0.081 A 
ATOM     21  C   UNL A   1      29.974  25.525  24.206  1.00  0.00     0.079 A 
ATOM     22  C   UNL A   1      32.012  25.621  22.819  1.00  0.00     0.069 A 
ATOM     23  C   UNL A   1      29.599  26.719  23.625  1.00  0.00     0.167 A 
ATOM     24  C   UNL A   1      31.634  26.888  22.345  1.00  0.00     0.066 A 
ATOM     25  C   UNL A   1      30.421  27.391  22.750  1.00  0.00     0.166 A 
ATOM     26  O   UNL A   1      28.429  27.386  23.825  1.00  0.00    -0.454 OA
ATOM     27  O   UNL A   1      29.871  28.551  22.296  1.00  0.00    -0.454 OA
ATOM     28  C   UNL A   1      28.536  28.418  22.823  1.00  0.00     0.468 C 
BRANCH  22  29
ATOM     29  C   UNL A   1      33.103  24.887  22.090  1.00  0.00     0.251 C 
ATOM     30  N   UNL A   1      32.765  23.836  21.286  1.00  0.00    -0.366 N 
ATOM     31  O   UNL A   1      34.298  25.119  22.241  1.00  0.00    -0.269 OA
ATOM     32  H   UNL A   1      31.817  23.615  21.136  1.00  0.00     0.159 HD
ATOM     33  H   UNL A   1      33.469  23.299  20.855  1.00  0.00     0.159 HD
ENDBRANCH  22  29
ENDBRANCH  10  20
ENDBRANCH   4   7
ENDBRANCH   2   3
ENDBRANCH   1   2
BRANCH   1  34
ATOM     34  C   UNL A   1      38.328  22.314  26.012  1.00  0.00     0.118 C 
BRANCH  34  35
ATOM     35  N   UNL A   1      39.708  21.870  25.794  1.00  0.00    -0.352 N 
ATOM     36  C   UNL A   1      40.881  22.556  26.041  1.00  0.00     0.251 C 
ATOM     37  H   UNL A   1      39.813  20.963  25.425  1.00  0.00     0.163 HD
ATOM     38  O   UNL A   1      41.929  22.201  25.511  1.00  0.00    -0.269 OA
BRANCH  36  39
ATOM     39  C   UNL A   1      40.846  23.719  26.945  1.00  0.00     0.039 A 
ATOM     40  C   UNL A   1      41.598  23.755  28.121  1.00  0.00     0.014 A 
ATOM     41  C   UNL A   1      40.057  24.806  26.577  1.00  0.00     0.014 A 
ATOM     42  C   UNL A   1      41.609  24.929  28.873  1.00  0.00     0.010 A 
ATOM     43  C   UNL A   1      40.211  26.010  27.210  1.00  0.00     0.010 A 
ATOM     44  C   UNL A   1      40.931  26.064  28.394  1.00  0.00    -0.014 A 
BRANCH  44  45
ATOM     45  C   UNL A   1      41.081  27.366  29.036  1.00  0.00     0.031 A 
ATOM     46  C   UNL A   1      42.173  28.185  28.451  1.00  0.00     0.074 A 
ATOM     47  C   UNL A   1      40.186  27.870  29.916  1.00  0.00     0.049 A 
ATOM     48  N   UNL A   1      43.319  28.444  28.984  1.00  0.00    -0.248 NA
ATOM     49  C   UNL A   1      42.064  28.603  27.042  1.00  0.00     0.031 C 
ATOM     50  C   UNL A   1      38.913  27.278  30.353  1.00  0.00     0.029 A 
ATOM     51  N   UNL A   1      40.167  29.085  30.533  1.00  0.00    -0.354 N 
ATOM     52  C   UNL A   1      43.969  29.283  28.087  1.00  0.00     0.074 A 
ATOM     53  C   UNL A   1      43.260  29.161  26.840  1.00  0.00     0.031 C 
ATOM     54  C   UNL A   1      38.152  28.217  30.958  1.00  0.00     0.029 A 
ATOM     55  C   UNL A   1      38.947  29.419  31.120  1.00  0.00     0.049 A 
ATOM     56  H   UNL A   1      40.951  29.679  30.560  1.00  0.00     0.167 HD
ATOM     57  C   UNL A   1      44.843  30.231  28.527  1.00  0.00     0.031 A 
ATOM     58  C   UNL A   1      38.612  30.595  31.710  1.00  0.00     0.031 A 
ATOM     59  C   UNL A   1      45.194  30.014  29.909  1.00  0.00     0.049 A 
ATOM     60  C   UNL A   1      39.882  31.247  32.096  1.00  0.00     0.074 A 
ATOM     61  C   UNL A   1      45.834  29.017  30.616  1.00  0.00     0.029 A 
ATOM     62  N   UNL A   1      44.464  30.738  30.822  1.00  0.00    -0.354 N 
ATOM     63  N   UNL A   1      40.695  30.747  32.983  1.00  0.00    -0.248 NA
ATOM     64  C   UNL A   1      40.472  32.217  31.188  1.00  0.00     0.031 C 
ATOM     65  C   UNL A   1      45.144  28.940  31.862  1.00  0.00     0.029 A 
ATOM     66  C   UNL A   1      44.169  29.942  31.898  1.00  0.00     0.049 A 
ATOM     67  H   UNL A   1      44.195  31.679  30.718  1.00  0.00     0.167 HD
ATOM     68  C   UNL A   1      41.961  30.975  32.466  1.00  0.00     0.074 A 
ATOM     69  C   UNL A   1      41.766  32.001  31.444  1.00  0.00     0.031 C 
ATOM     70  C   UNL A   1      42.985  30.106  32.722  1.00  0.00     0.031 A 
BRANCH  57  71
ATOM     71  C   UNL A   1      44.994  31.589  27.879  1.00  0.00    -0.014 A 
ATOM     72  C   UNL A   1      46.242  31.942  27.326  1.00  0.00     0.010 A 
ATOM     73  C   UNL A   1      44.052  32.628  28.039  1.00  0.00     0.010 A 
ATOM     74  C   UNL A   1      46.547  33.273  27.003  1.00  0.00     0.020 A 
ATOM     75  C   UNL A   1      44.332  33.950  27.685  1.00  0.00     0.020 A 
ATOM     76  C   UNL A   1      45.589  34.268  27.194  1.00  0.00     0.054 A 
BRANCH  76  77
ATOM     77  S   UNL A   1      46.016  35.992  26.846  1.00  0.00     0.124 S 
ATOM     78  O   UNL A   1      46.908  36.312  27.954  1.00  0.00    -0.237 OA
ATOM     79  O   UNL A   1      46.644  35.892  25.531  1.00  0.00    -0.237 OA
ATOM     80  O   UNL A   1      44.723  36.673  26.861  1.00  0.00    -0.744 OA
ENDBRANCH  76  77
ENDBRANCH  57  71
BRANCH  58  81
ATOM     81  C   UNL A   1      37.309  31.307  31.709  1.00  0.00    -0.014 A 
ATOM     82  C   UNL A   1      36.591  31.541  32.900  1.00  0.00     0.010 A 
ATOM     83  C   UNL A   1      36.912  32.023  30.561  1.00  0.00     0.010 A 
ATOM     84  C   UNL A   1      35.556  32.494  32.952  1.00  0.00     0.020 A 
ATOM     85  C   UNL A   1      35.883  32.974  30.605  1.00  0.00     0.020 A 
ATOM     86  C   UNL A   1      35.221  33.220  31.806  1.00  0.00     0.054 A 
BRANCH  86  87
ATOM     87  S   UNL A   1      33.998  34.565  31.916  1.00  0.00     0.124 S 
ATOM     88  O   UNL A   1      34.811  35.689  32.366  1.00  0.00    -0.237 OA
ATOM     89  O   UNL A   1      33.498  34.656  30.547  1.00  0.00    -0.237 OA
ATOM     90  O   UNL A   1      33.029  34.070  32.894  1.00  0.00    -0.744 OA
ENDBRANCH  86  87
ENDBRANCH  58  81
BRANCH  70  91
ATOM     91  C   UNL A   1      42.798  29.107  33.847  1.00  0.00    -0.014 A 
ATOM     92  C   UNL A   1      43.078  29.370  35.203  1.00  0.00     0.010 A 
ATOM     93  C   UNL A   1      42.199  27.879  33.517  1.00  0.00     0.010 A 
ATOM     94  C   UNL A   1      42.790  28.417  36.195  1.00  0.00     0.020 A 
ATOM     95  C   UNL A   1      41.893  26.935  34.500  1.00  0.00     0.020 A 
ATOM     96  C   UNL A   1      42.200  27.202  35.835  1.00  0.00     0.054 A 
BRANCH  96  97
ATOM     97  S   UNL A   1      41.798  25.980  37.116  1.00  0.00     0.124 S 
ATOM     98  O   UNL A   1      41.930  24.714  36.402  1.00  0.00    -0.237 OA
ATOM     99  O   UNL A   1      42.810  26.235  38.138  1.00  0.00    -0.237 OA
ATOM    100  O   UNL A   1      40.433  26.326  37.512  1.00  0.00    -0.744 OA
ENDBRANCH  96  97
ENDBRANCH  70  91
ENDBRANCH  44  45
ENDBRANCH  36  39
ENDBRANCH  34  35
ENDBRANCH   1  34
TORSDOF 17
ENDMDL
