MODEL 1
REMARK VINA RESULT:     -12.0      0.000      0.000
REMARK SMILES CC(C)Nc1ncc(C(=O)N2CCC[C@H](c3cccc(C(=O)NCCCNC(=O)c4ccc(-c5c6nc(c(-c7ccc(S(=O)(=O)[O-])cc7)c7ccc([nH]7)c(-c7ccc(S(=O)(=O)[O-])cc7)c7nc(c(-c8ccc(S(=O)(=O)[O-])cc8)c8ccc5[nH]8)C=C7)C=C6)cc4)c3)C2)cn1
REMARK SMILES IDX 24 1 23 2 21 3 22 4 20 6 16 7 17 8 90 9 18 10 19 11 15 12
REMARK SMILES IDX 11 13 12 14 91 15 13 16 14 17 9 18 10 19 8 20 5 21 6 22
REMARK SMILES IDX 93 23 7 24 92 25 4 26 2 28 1 29 3 30 25 31 26 32 27 33 28 34
REMARK SMILES IDX 29 36 30 37 31 38 89 39 32 40 88 41 33 42 34 43 35 44 82 45
REMARK SMILES IDX 36 46 87 47 81 48 83 49 37 50 86 51 80 52 79 53 38 55 68 56
REMARK SMILES IDX 49 57 67 58 50 59 53 60 66 61 84 62 51 63 52 64 65 66 85 67
REMARK SMILES IDX 54 68 39 69 40 70 48 71 41 72 47 73 42 74 43 75 44 76 45 77
REMARK SMILES IDX 46 78 69 79 70 80 78 81 71 82 77 83 72 84 73 85 74 86 75 87
REMARK SMILES IDX 76 88 55 89 56 90 64 91 57 92 63 93 58 94 59 95 60 96 61 97
REMARK SMILES IDX 62 98
REMARK H PARENT 23 5 4 27 27 35 83 54 53 65
REMARK Flexibility Score: inf
ROOT
ATOM      1  C   UNL A   1      34.422  29.821  27.440  1.00  0.00     0.118 C 
ENDROOT
BRANCH   1   2
ATOM      2  N   UNL A   1      34.224  29.647  26.005  1.00  0.00    -0.352 N 
ATOM      3  C   UNL A   1      33.678  28.666  25.208  1.00  0.00     0.251 C 
ATOM      4  O   UNL A   1      33.677  28.867  23.992  1.00  0.00    -0.269 OA
ATOM      5  H   UNL A   1      34.560  30.411  25.484  1.00  0.00     0.163 HD
BRANCH   3   6
ATOM      6  C   UNL A   1      33.155  27.365  25.715  1.00  0.00     0.040 A 
ATOM      7  C   UNL A   1      33.452  24.968  26.165  1.00  0.00    -0.042 A 
ATOM      8  C   UNL A   1      32.072  24.863  26.368  1.00  0.00     0.004 A 
ATOM      9  C   UNL A   1      33.963  26.259  25.957  1.00  0.00     0.018 A 
ATOM     10  C   UNL A   1      31.252  25.998  26.317  1.00  0.00     0.001 A 
ATOM     11  C   UNL A   1      31.785  27.235  25.952  1.00  0.00     0.014 A 
BRANCH   7  12
ATOM     12  C   UNL A   1      34.385  23.759  26.000  1.00  0.00     0.039 C 
ATOM     13  N   UNL A   1      33.841  22.978  23.710  1.00  0.00    -0.338 N 
ATOM     14  C   UNL A   1      33.125  21.801  24.195  1.00  0.00     0.120 C 
ATOM     15  C   UNL A   1      34.909  23.498  24.572  1.00  0.00     0.128 C 
ATOM     16  C   UNL A   1      32.661  21.945  25.638  1.00  0.00     0.022 C 
ATOM     17  C   UNL A   1      33.813  22.418  26.522  1.00  0.00     0.012 C 
BRANCH  13  18
ATOM     18  C   UNL A   1      33.432  23.575  22.527  1.00  0.00     0.257 C 
ATOM     19  O   UNL A   1      33.823  23.221  21.419  1.00  0.00    -0.269 OA
BRANCH  18  20
ATOM     20  C   UNL A   1      32.580  24.770  22.600  1.00  0.00     0.076 A 
ATOM     21  C   UNL A   1      30.921  26.917  22.421  1.00  0.00     0.222 A 
ATOM     22  N   UNL A   1      32.202  27.079  22.067  1.00  0.00    -0.221 NA
ATOM     23  N   UNL A   1      30.408  25.759  22.868  1.00  0.00    -0.221 NA
ATOM     24  C   UNL A   1      33.007  26.002  22.164  1.00  0.00     0.130 A 
ATOM     25  C   UNL A   1      31.247  24.696  22.921  1.00  0.00     0.130 A 
BRANCH  21  26
ATOM     26  N   UNL A   1      30.142  28.027  22.274  1.00  0.00    -0.352 N 
ATOM     27  H   UNL A   1      30.070  28.439  21.383  1.00  0.00     0.163 HD
BRANCH  26  28
ATOM     28  C   UNL A   1      29.418  28.625  23.370  1.00  0.00     0.076 C 
ATOM     29  C   UNL A   1      30.207  29.847  23.840  1.00  0.00     0.030 C 
ATOM     30  C   UNL A   1      28.023  29.028  22.909  1.00  0.00     0.030 C 
ENDBRANCH  26  28
ENDBRANCH  21  26
ENDBRANCH  18  20
ENDBRANCH  13  18
ENDBRANCH   7  12
ENDBRANCH   3   6
ENDBRANCH   1   2
BRANCH   1  31
ATOM     31  C   UNL A   1      34.427  31.268  27.900  1.00  0.00     0.042 C 
BRANCH  31  32
ATOM     32  C   UNL A   1      35.689  31.666  28.646  1.00  0.00     0.118 C 
BRANCH  32  33
ATOM     33  N   UNL A   1      35.623  31.336  30.067  1.00  0.00    -0.352 N 
ATOM     34  C   UNL A   1      36.427  30.545  30.851  1.00  0.00     0.251 C 
ATOM     35  H   UNL A   1      34.872  31.753  30.548  1.00  0.00     0.163 HD
ATOM     36  O   UNL A   1      36.034  30.211  31.965  1.00  0.00    -0.269 OA
BRANCH  34  37
ATOM     37  C   UNL A   1      37.748  30.090  30.364  1.00  0.00     0.039 A 
ATOM     38  C   UNL A   1      38.012  30.104  28.991  1.00  0.00     0.014 A 
ATOM     39  C   UNL A   1      38.712  29.609  31.251  1.00  0.00     0.014 A 
ATOM     40  C   UNL A   1      39.265  29.699  28.522  1.00  0.00     0.010 A 
ATOM     41  C   UNL A   1      39.990  29.312  30.796  1.00  0.00     0.010 A 
ATOM     42  C   UNL A   1      40.276  29.336  29.426  1.00  0.00    -0.014 A 
BRANCH  42  43
ATOM     43  C   UNL A   1      41.636  28.958  28.965  1.00  0.00     0.031 A 
ATOM     44  C   UNL A   1      42.725  29.998  28.904  1.00  0.00     0.074 A 
ATOM     45  C   UNL A   1      41.869  27.703  28.533  1.00  0.00     0.049 A 
ATOM     46  N   UNL A   1      43.950  29.883  28.459  1.00  0.00    -0.248 NA
ATOM     47  C   UNL A   1      42.384  31.352  29.374  1.00  0.00     0.031 C 
ATOM     48  C   UNL A   1      40.881  26.621  28.498  1.00  0.00     0.029 A 
ATOM     49  N   UNL A   1      43.009  27.126  28.035  1.00  0.00    -0.354 N 
ATOM     50  C   UNL A   1      44.514  31.149  28.571  1.00  0.00     0.074 A 
ATOM     51  C   UNL A   1      43.483  32.030  29.073  1.00  0.00     0.031 C 
ATOM     52  C   UNL A   1      41.469  25.504  28.039  1.00  0.00     0.029 A 
ATOM     53  C   UNL A   1      42.857  25.799  27.703  1.00  0.00     0.049 A 
ATOM     54  H   UNL A   1      43.856  27.615  27.924  1.00  0.00     0.167 HD
ATOM     55  C   UNL A   1      45.783  31.540  28.305  1.00  0.00     0.031 A 
ATOM     56  C   UNL A   1      43.735  24.922  27.182  1.00  0.00     0.031 A 
ATOM     57  C   UNL A   1      46.810  30.654  27.827  1.00  0.00     0.049 A 
ATOM     58  C   UNL A   1      45.139  25.379  26.897  1.00  0.00     0.074 A 
ATOM     59  C   UNL A   1      48.142  30.934  27.584  1.00  0.00     0.029 A 
ATOM     60  N   UNL A   1      46.618  29.315  27.520  1.00  0.00    -0.354 N 
ATOM     61  N   UNL A   1      45.670  26.565  27.072  1.00  0.00    -0.248 NA
ATOM     62  C   UNL A   1      46.065  24.374  26.356  1.00  0.00     0.031 C 
ATOM     63  C   UNL A   1      48.745  29.777  27.080  1.00  0.00     0.029 A 
ATOM     64  C   UNL A   1      47.804  28.761  27.068  1.00  0.00     0.049 A 
ATOM     65  H   UNL A   1      45.766  28.831  27.610  1.00  0.00     0.167 HD
ATOM     66  C   UNL A   1      47.002  26.443  26.690  1.00  0.00     0.074 A 
ATOM     67  C   UNL A   1      47.196  25.063  26.291  1.00  0.00     0.031 C 
ATOM     68  C   UNL A   1      47.977  27.385  26.674  1.00  0.00     0.031 A 
BRANCH  55  69
ATOM     69  C   UNL A   1      46.128  32.991  28.527  1.00  0.00    -0.014 A 
ATOM     70  C   UNL A   1      45.962  33.943  27.505  1.00  0.00     0.010 A 
ATOM     71  C   UNL A   1      46.587  33.415  29.787  1.00  0.00     0.010 A 
ATOM     72  C   UNL A   1      46.289  35.284  27.725  1.00  0.00     0.020 A 
ATOM     73  C   UNL A   1      46.887  34.761  30.021  1.00  0.00     0.020 A 
ATOM     74  C   UNL A   1      46.751  35.684  28.983  1.00  0.00     0.054 A 
BRANCH  74  75
ATOM     75  S   UNL A   1      47.141  37.436  29.246  1.00  0.00     0.124 S 
ATOM     76  O   UNL A   1      48.538  37.500  28.820  1.00  0.00    -0.237 OA
ATOM     77  O   UNL A   1      46.187  38.111  28.372  1.00  0.00    -0.237 OA
ATOM     78  O   UNL A   1      46.917  37.629  30.677  1.00  0.00    -0.744 OA
ENDBRANCH  74  75
ENDBRANCH  55  69
BRANCH  56  79
ATOM     79  C   UNL A   1      43.316  23.517  26.919  1.00  0.00    -0.014 A 
ATOM     80  C   UNL A   1      43.184  23.047  25.600  1.00  0.00     0.010 A 
ATOM     81  C   UNL A   1      43.063  22.636  27.987  1.00  0.00     0.010 A 
ATOM     82  C   UNL A   1      42.787  21.730  25.353  1.00  0.00     0.020 A 
ATOM     83  C   UNL A   1      42.695  21.310  27.744  1.00  0.00     0.020 A 
ATOM     84  C   UNL A   1      42.548  20.868  26.428  1.00  0.00     0.054 A 
BRANCH  84  85
ATOM     85  S   UNL A   1      42.086  19.148  26.082  1.00  0.00     0.124 S 
ATOM     86  O   UNL A   1      42.980  18.809  24.980  1.00  0.00    -0.237 OA
ATOM     87  O   UNL A   1      42.366  18.485  27.354  1.00  0.00    -0.237 OA
ATOM     88  O   UNL A   1      40.668  19.239  25.736  1.00  0.00    -0.744 OA
ENDBRANCH  84  85
ENDBRANCH  56  79
BRANCH  68  89
ATOM     89  C   UNL A   1      49.352  26.949  26.245  1.00  0.00    -0.014 A 
ATOM     90  C   UNL A   1      50.240  26.337  27.147  1.00  0.00     0.010 A 
ATOM     91  C   UNL A   1      49.740  27.112  24.902  1.00  0.00     0.010 A 
ATOM     92  C   UNL A   1      51.506  25.928  26.721  1.00  0.00     0.020 A 
ATOM     93  C   UNL A   1      50.993  26.676  24.465  1.00  0.00     0.020 A 
ATOM     94  C   UNL A   1      51.874  26.100  25.382  1.00  0.00     0.054 A 
BRANCH  94  95
ATOM     95  S   UNL A   1      53.509  25.526  24.847  1.00  0.00     0.124 S 
ATOM     96  O   UNL A   1      53.501  25.866  23.428  1.00  0.00    -0.237 OA
ATOM     97  O   UNL A   1      54.414  26.316  25.679  1.00  0.00    -0.237 OA
ATOM     98  O   UNL A   1      53.488  24.095  25.145  1.00  0.00    -0.744 OA
ENDBRANCH  94  95
ENDBRANCH  68  89
ENDBRANCH  42  43
ENDBRANCH  34  37
ENDBRANCH  32  33
ENDBRANCH  31  32
ENDBRANCH   1  31
TORSDOF 18
ENDMDL
MODEL 2
REMARK VINA RESULT:     -11.6      1.248      3.230
REMARK SMILES CC(C)Nc1ncc(C(=O)N2CCC[C@H](c3cccc(C(=O)NCCCNC(=O)c4ccc(-c5c6nc(c(-c7ccc(S(=O)(=O)[O-])cc7)c7ccc([nH]7)c(-c7ccc(S(=O)(=O)[O-])cc7)c7nc(c(-c8ccc(S(=O)(=O)[O-])cc8)c8ccc5[nH]8)C=C7)C=C6)cc4)c3)C2)cn1
REMARK SMILES IDX 24 1 23 2 21 3 22 4 20 6 16 7 17 8 90 9 18 10 19 11 15 12
REMARK SMILES IDX 11 13 12 14 91 15 13 16 14 17 9 18 10 19 8 20 5 21 6 22
REMARK SMILES IDX 93 23 7 24 92 25 4 26 2 28 1 29 3 30 25 31 26 32 27 33 28 34
REMARK SMILES IDX 29 36 30 37 31 38 89 39 32 40 88 41 33 42 34 43 35 44 82 45
REMARK SMILES IDX 36 46 87 47 81 48 83 49 37 50 86 51 80 52 79 53 38 55 68 56
REMARK SMILES IDX 49 57 67 58 50 59 53 60 66 61 84 62 51 63 52 64 65 66 85 67
REMARK SMILES IDX 54 68 39 69 40 70 48 71 41 72 47 73 42 74 43 75 44 76 45 77
REMARK SMILES IDX 46 78 69 79 70 80 78 81 71 82 77 83 72 84 73 85 74 86 75 87
REMARK SMILES IDX 76 88 55 89 56 90 64 91 57 92 63 93 58 94 59 95 60 96 61 97
REMARK SMILES IDX 62 98
REMARK H PARENT 23 5 4 27 27 35 83 54 53 65
REMARK Flexibility Score: inf
ROOT
ATOM      1  C   UNL A   1      34.846  30.316  26.908  1.00  0.00     0.118 C 
ENDROOT
BRANCH   1   2
ATOM      2  N   UNL A   1      33.552  30.971  26.750  1.00  0.00    -0.352 N 
ATOM      3  C   UNL A   1      32.260  30.542  26.545  1.00  0.00     0.251 C 
ATOM      4  O   UNL A   1      31.387  31.409  26.460  1.00  0.00    -0.269 OA
ATOM      5  H   UNL A   1      33.619  31.952  26.800  1.00  0.00     0.163 HD
BRANCH   3   6
ATOM      6  C   UNL A   1      31.867  29.116  26.358  1.00  0.00     0.040 A 
ATOM      7  C   UNL A   1      30.886  27.328  24.988  1.00  0.00    -0.042 A 
ATOM      8  C   UNL A   1      30.843  26.517  26.126  1.00  0.00     0.004 A 
ATOM      9  C   UNL A   1      31.514  28.576  25.125  1.00  0.00     0.018 A 
ATOM     10  C   UNL A   1      31.367  26.965  27.346  1.00  0.00     0.001 A 
ATOM     11  C   UNL A   1      31.839  28.273  27.470  1.00  0.00     0.014 A 
BRANCH   7  12
ATOM     12  C   UNL A   1      30.157  26.999  23.677  1.00  0.00     0.039 C 
ATOM     13  N   UNL A   1      31.316  24.938  22.929  1.00  0.00    -0.338 N 
ATOM     14  C   UNL A   1      32.019  25.627  21.851  1.00  0.00     0.120 C 
ATOM     15  C   UNL A   1      30.022  25.500  23.334  1.00  0.00     0.128 C 
ATOM     16  C   UNL A   1      32.105  27.131  22.069  1.00  0.00     0.022 C 
ATOM     17  C   UNL A   1      30.730  27.698  22.418  1.00  0.00     0.012 C 
BRANCH  13  18
ATOM     18  C   UNL A   1      31.929  23.860  23.552  1.00  0.00     0.257 C 
ATOM     19  O   UNL A   1      31.311  22.921  24.044  1.00  0.00    -0.269 OA
BRANCH  18  20
ATOM     20  C   UNL A   1      33.384  23.894  23.743  1.00  0.00     0.076 A 
ATOM     21  C   UNL A   1      36.044  23.675  24.268  1.00  0.00     0.222 A 
ATOM     22  N   UNL A   1      35.278  24.329  25.151  1.00  0.00    -0.221 NA
ATOM     23  N   UNL A   1      35.578  23.130  23.133  1.00  0.00    -0.221 NA
ATOM     24  C   UNL A   1      33.963  24.426  24.871  1.00  0.00     0.130 A 
ATOM     25  C   UNL A   1      34.245  23.226  22.907  1.00  0.00     0.130 A 
BRANCH  21  26
ATOM     26  N   UNL A   1      37.360  23.578  24.613  1.00  0.00    -0.352 N 
ATOM     27  H   UNL A   1      38.042  23.764  23.928  1.00  0.00     0.163 HD
BRANCH  26  28
ATOM     28  C   UNL A   1      37.796  23.214  25.939  1.00  0.00     0.076 C 
ATOM     29  C   UNL A   1      38.520  21.871  25.842  1.00  0.00     0.030 C 
ATOM     30  C   UNL A   1      38.726  24.289  26.490  1.00  0.00     0.030 C 
ENDBRANCH  26  28
ENDBRANCH  21  26
ENDBRANCH  18  20
ENDBRANCH  13  18
ENDBRANCH   7  12
ENDBRANCH   3   6
ENDBRANCH   1   2
BRANCH   1  31
ATOM     31  C   UNL A   1      35.211  29.993  28.346  1.00  0.00     0.042 C 
BRANCH  31  32
ATOM     32  C   UNL A   1      35.760  31.181  29.118  1.00  0.00     0.118 C 
BRANCH  32  33
ATOM     33  N   UNL A   1      35.801  30.939  30.557  1.00  0.00    -0.352 N 
ATOM     34  C   UNL A   1      36.740  30.318  31.343  1.00  0.00     0.251 C 
ATOM     35  H   UNL A   1      35.021  31.281  31.050  1.00  0.00     0.163 HD
ATOM     36  O   UNL A   1      36.446  30.008  32.494  1.00  0.00    -0.269 OA
BRANCH  34  37
ATOM     37  C   UNL A   1      38.090  30.016  30.817  1.00  0.00     0.039 A 
ATOM     38  C   UNL A   1      39.044  29.450  31.668  1.00  0.00     0.014 A 
ATOM     39  C   UNL A   1      38.433  30.329  29.501  1.00  0.00     0.014 A 
ATOM     40  C   UNL A   1      40.315  29.139  31.176  1.00  0.00     0.010 A 
ATOM     41  C   UNL A   1      39.655  29.920  28.984  1.00  0.00     0.010 A 
ATOM     42  C   UNL A   1      40.617  29.337  29.819  1.00  0.00    -0.014 A 
BRANCH  42  43
ATOM     43  C   UNL A   1      41.936  28.962  29.250  1.00  0.00     0.031 A 
ATOM     44  C   UNL A   1      43.025  29.995  29.134  1.00  0.00     0.074 A 
ATOM     45  C   UNL A   1      42.125  27.716  28.772  1.00  0.00     0.049 A 
ATOM     46  N   UNL A   1      44.213  29.885  28.597  1.00  0.00    -0.248 NA
ATOM     47  C   UNL A   1      42.732  31.340  29.661  1.00  0.00     0.031 C 
ATOM     48  C   UNL A   1      41.129  26.641  28.783  1.00  0.00     0.029 A 
ATOM     49  N   UNL A   1      43.221  27.144  28.176  1.00  0.00    -0.354 N 
ATOM     50  C   UNL A   1      44.795  31.144  28.698  1.00  0.00     0.074 A 
ATOM     51  C   UNL A   1      43.811  32.018  29.296  1.00  0.00     0.031 C 
ATOM     52  C   UNL A   1      41.672  25.533  28.254  1.00  0.00     0.029 A 
ATOM     53  C   UNL A   1      43.034  25.828  27.824  1.00  0.00     0.049 A 
ATOM     54  H   UNL A   1      44.061  27.630  28.015  1.00  0.00     0.167 HD
ATOM     55  C   UNL A   1      46.043  31.533  28.349  1.00  0.00     0.031 A 
ATOM     56  C   UNL A   1      43.864  24.958  27.218  1.00  0.00     0.031 A 
ATOM     57  C   UNL A   1      47.025  30.653  27.775  1.00  0.00     0.049 A 
ATOM     58  C   UNL A   1      45.247  25.413  26.841  1.00  0.00     0.074 A 
ATOM     59  C   UNL A   1      48.338  30.930  27.441  1.00  0.00     0.029 A 
ATOM     60  N   UNL A   1      46.800  29.323  27.450  1.00  0.00    -0.354 N 
ATOM     61  N   UNL A   1      45.799  26.591  27.006  1.00  0.00    -0.248 NA
ATOM     62  C   UNL A   1      46.122  24.416  26.210  1.00  0.00     0.031 C 
ATOM     63  C   UNL A   1      48.893  29.782  26.866  1.00  0.00     0.029 A 
ATOM     64  C   UNL A   1      47.945  28.772  26.899  1.00  0.00     0.049 A 
ATOM     65  H   UNL A   1      45.953  28.842  27.591  1.00  0.00     0.167 HD
ATOM     66  C   UNL A   1      47.098  26.469  26.524  1.00  0.00     0.074 A 
ATOM     67  C   UNL A   1      47.251  25.100  26.078  1.00  0.00     0.031 C 
ATOM     68  C   UNL A   1      48.077  27.406  26.459  1.00  0.00     0.031 A 
BRANCH  55  69
ATOM     69  C   UNL A   1      46.416  32.975  28.580  1.00  0.00    -0.014 A 
ATOM     70  C   UNL A   1      47.084  33.376  29.752  1.00  0.00     0.010 A 
ATOM     71  C   UNL A   1      46.130  33.937  27.595  1.00  0.00     0.010 A 
ATOM     72  C   UNL A   1      47.421  34.718  29.952  1.00  0.00     0.020 A 
ATOM     73  C   UNL A   1      46.492  35.276  27.778  1.00  0.00     0.020 A 
ATOM     74  C   UNL A   1      47.121  35.660  28.964  1.00  0.00     0.054 A 
BRANCH  74  75
ATOM     75  S   UNL A   1      47.595  37.388  29.241  1.00  0.00     0.124 S 
ATOM     76  O   UNL A   1      49.054  37.304  29.236  1.00  0.00    -0.237 OA
ATOM     77  O   UNL A   1      47.002  38.071  28.095  1.00  0.00    -0.237 OA
ATOM     78  O   UNL A   1      46.994  37.709  30.534  1.00  0.00    -0.744 OA
ENDBRANCH  74  75
ENDBRANCH  55  69
BRANCH  56  79
ATOM     79  C   UNL A   1      43.415  23.563  26.953  1.00  0.00    -0.014 A 
ATOM     80  C   UNL A   1      43.204  23.120  25.635  1.00  0.00     0.010 A 
ATOM     81  C   UNL A   1      43.212  22.664  28.016  1.00  0.00     0.010 A 
ATOM     82  C   UNL A   1      42.779  21.812  25.385  1.00  0.00     0.020 A 
ATOM     83  C   UNL A   1      42.816  21.346  27.769  1.00  0.00     0.020 A 
ATOM     84  C   UNL A   1      42.591  20.932  26.455  1.00  0.00     0.054 A 
BRANCH  84  85
ATOM     85  S   UNL A   1      42.091  19.224  26.103  1.00  0.00     0.124 S 
ATOM     86  O   UNL A   1      42.476  18.536  27.331  1.00  0.00    -0.237 OA
ATOM     87  O   UNL A   1      40.654  19.358  25.874  1.00  0.00    -0.237 OA
ATOM     88  O   UNL A   1      42.872  18.877  24.917  1.00  0.00    -0.744 OA
ENDBRANCH  84  85
ENDBRANCH  56  79
BRANCH  68  89
ATOM     89  C   UNL A   1      49.413  26.972  25.919  1.00  0.00    -0.014 A 
ATOM     90  C   UNL A   1      49.768  27.195  24.578  1.00  0.00     0.010 A 
ATOM     91  C   UNL A   1      50.347  26.376  26.787  1.00  0.00     0.010 A 
ATOM     92  C   UNL A   1      51.019  26.796  24.103  1.00  0.00     0.020 A 
ATOM     93  C   UNL A   1      51.612  26.003  26.324  1.00  0.00     0.020 A 
ATOM     94  C   UNL A   1      51.934  26.202  24.981  1.00  0.00     0.054 A 
BRANCH  94  95
ATOM     95  S   UNL A   1      53.566  25.728  24.348  1.00  0.00     0.124 S 
ATOM     96  O   UNL A   1      53.407  25.937  22.912  1.00  0.00    -0.237 OA
ATOM     97  O   UNL A   1      54.458  26.665  25.026  1.00  0.00    -0.237 OA
ATOM     98  O   UNL A   1      53.706  24.333  24.763  1.00  0.00    -0.744 OA
ENDBRANCH  94  95
ENDBRANCH  68  89
ENDBRANCH  42  43
ENDBRANCH  34  37
ENDBRANCH  32  33
ENDBRANCH  31  32
ENDBRANCH   1  31
TORSDOF 18
ENDMDL
MODEL 3
REMARK VINA RESULT:     -11.3      6.063     11.176
REMARK SMILES CC(C)Nc1ncc(C(=O)N2CCC[C@H](c3cccc(C(=O)NCCCNC(=O)c4ccc(-c5c6nc(c(-c7ccc(S(=O)(=O)[O-])cc7)c7ccc([nH]7)c(-c7ccc(S(=O)(=O)[O-])cc7)c7nc(c(-c8ccc(S(=O)(=O)[O-])cc8)c8ccc5[nH]8)C=C7)C=C6)cc4)c3)C2)cn1
REMARK SMILES IDX 24 1 23 2 21 3 22 4 20 6 16 7 17 8 90 9 18 10 19 11 15 12
REMARK SMILES IDX 11 13 12 14 91 15 13 16 14 17 9 18 10 19 8 20 5 21 6 22
REMARK SMILES IDX 93 23 7 24 92 25 4 26 2 28 1 29 3 30 25 31 26 32 27 33 28 34
REMARK SMILES IDX 29 36 30 37 31 38 89 39 32 40 88 41 33 42 34 43 35 44 82 45
REMARK SMILES IDX 36 46 87 47 81 48 83 49 37 50 86 51 80 52 79 53 38 55 68 56
REMARK SMILES IDX 49 57 67 58 50 59 53 60 66 61 84 62 51 63 52 64 65 66 85 67
REMARK SMILES IDX 54 68 39 69 40 70 48 71 41 72 47 73 42 74 43 75 44 76 45 77
REMARK SMILES IDX 46 78 69 79 70 80 78 81 71 82 77 83 72 84 73 85 74 86 75 87
REMARK SMILES IDX 76 88 55 89 56 90 64 91 57 92 63 93 58 94 59 95 60 96 61 97
REMARK SMILES IDX 62 98
REMARK H PARENT 23 5 4 27 27 35 83 54 53 65
REMARK Flexibility Score: inf
ROOT
ATOM      1  C   UNL A   1      39.080  22.431  26.095  1.00  0.00     0.118 C 
ENDROOT
BRANCH   1   2
ATOM      2  N   UNL A   1      38.422  21.240  25.569  1.00  0.00    -0.352 N 
ATOM      3  C   UNL A   1      37.127  20.904  25.243  1.00  0.00     0.251 C 
ATOM      4  O   UNL A   1      36.934  19.767  24.807  1.00  0.00    -0.269 OA
ATOM      5  H   UNL A   1      39.053  20.501  25.412  1.00  0.00     0.163 HD
BRANCH   3   6
ATOM      6  C   UNL A   1      35.951  21.799  25.443  1.00  0.00     0.040 A 
ATOM      7  C   UNL A   1      34.300  23.391  24.562  1.00  0.00    -0.042 A 
ATOM      8  C   UNL A   1      33.952  23.717  25.878  1.00  0.00     0.004 A 
ATOM      9  C   UNL A   1      35.219  22.345  24.392  1.00  0.00     0.018 A 
ATOM     10  C   UNL A   1      34.539  23.048  26.960  1.00  0.00     0.001 A 
ATOM     11  C   UNL A   1      35.563  22.123  26.744  1.00  0.00     0.014 A 
BRANCH   7  12
ATOM     12  C   UNL A   1      33.863  24.208  23.337  1.00  0.00     0.039 C 
ATOM     13  N   UNL A   1      31.636  25.052  24.030  1.00  0.00    -0.338 N 
ATOM     14  C   UNL A   1      30.924  24.147  23.130  1.00  0.00     0.120 C 
ATOM     15  C   UNL A   1      32.990  25.448  23.626  1.00  0.00     0.128 C 
ATOM     16  C   UNL A   1      31.762  22.945  22.719  1.00  0.00     0.022 C 
ATOM     17  C   UNL A   1      33.138  23.395  22.235  1.00  0.00     0.012 C 
BRANCH  13  18
ATOM     18  C   UNL A   1      31.039  25.417  25.228  1.00  0.00     0.257 C 
ATOM     19  O   UNL A   1      30.195  24.734  25.800  1.00  0.00    -0.269 OA
BRANCH  18  20
ATOM     20  C   UNL A   1      31.338  26.742  25.787  1.00  0.00     0.076 A 
ATOM     21  C   UNL A   1      32.202  29.144  26.723  1.00  0.00     0.222 A 
ATOM     22  N   UNL A   1      32.274  28.085  27.541  1.00  0.00    -0.221 NA
ATOM     23  N   UNL A   1      31.719  29.092  25.471  1.00  0.00    -0.221 NA
ATOM     24  C   UNL A   1      31.840  26.905  27.056  1.00  0.00     0.130 A 
ATOM     25  C   UNL A   1      31.321  27.879  25.017  1.00  0.00     0.130 A 
BRANCH  21  26
ATOM     26  N   UNL A   1      32.683  30.307  27.249  1.00  0.00    -0.352 N 
ATOM     27  H   UNL A   1      32.055  30.913  27.706  1.00  0.00     0.163 HD
BRANCH  26  28
ATOM     28  C   UNL A   1      34.071  30.690  27.164  1.00  0.00     0.076 C 
ATOM     29  C   UNL A   1      34.383  31.590  28.360  1.00  0.00     0.030 C 
ATOM     30  C   UNL A   1      34.952  29.445  27.182  1.00  0.00     0.030 C 
ENDBRANCH  26  28
ENDBRANCH  21  26
ENDBRANCH  18  20
ENDBRANCH  13  18
ENDBRANCH   7  12
ENDBRANCH   3   6
ENDBRANCH   1   2
BRANCH   1  31
ATOM     31  C   UNL A   1      40.092  22.154  27.192  1.00  0.00     0.042 C 
BRANCH  31  32
ATOM     32  C   UNL A   1      40.986  23.340  27.511  1.00  0.00     0.118 C 
BRANCH  32  33
ATOM     33  N   UNL A   1      41.202  24.202  26.352  1.00  0.00    -0.352 N 
ATOM     34  C   UNL A   1      41.039  25.555  26.188  1.00  0.00     0.251 C 
ATOM     35  H   UNL A   1      41.519  23.731  25.548  1.00  0.00     0.163 HD
ATOM     36  O   UNL A   1      41.040  26.025  25.053  1.00  0.00    -0.269 OA
BRANCH  34  37
ATOM     37  C   UNL A   1      40.858  26.444  27.357  1.00  0.00     0.039 A 
ATOM     38  C   UNL A   1      39.850  26.158  28.282  1.00  0.00     0.014 A 
ATOM     39  C   UNL A   1      41.649  27.582  27.521  1.00  0.00     0.014 A 
ATOM     40  C   UNL A   1      39.684  26.978  29.403  1.00  0.00     0.010 A 
ATOM     41  C   UNL A   1      41.557  28.330  28.688  1.00  0.00     0.010 A 
ATOM     42  C   UNL A   1      40.563  28.048  29.633  1.00  0.00    -0.014 A 
BRANCH  42  43
ATOM     43  C   UNL A   1      40.454  28.901  30.843  1.00  0.00     0.031 A 
ATOM     44  C   UNL A   1      39.422  29.997  30.899  1.00  0.00     0.074 A 
ATOM     45  C   UNL A   1      41.329  28.738  31.855  1.00  0.00     0.049 A 
ATOM     46  N   UNL A   1      39.221  30.894  31.831  1.00  0.00    -0.248 NA
ATOM     47  C   UNL A   1      38.517  30.124  29.744  1.00  0.00     0.031 C 
ATOM     48  C   UNL A   1      42.405  27.743  31.895  1.00  0.00     0.029 A 
ATOM     49  N   UNL A   1      41.458  29.411  33.044  1.00  0.00    -0.354 N 
ATOM     50  C   UNL A   1      38.190  31.702  31.364  1.00  0.00     0.074 A 
ATOM     51  C   UNL A   1      37.844  31.226  30.044  1.00  0.00     0.031 C 
ATOM     52  C   UNL A   1      43.057  27.848  33.063  1.00  0.00     0.029 A 
ATOM     53  C   UNL A   1      42.482  28.944  33.834  1.00  0.00     0.049 A 
ATOM     54  H   UNL A   1      40.873  30.158  33.305  1.00  0.00     0.167 HD
ATOM     55  C   UNL A   1      37.570  32.731  31.987  1.00  0.00     0.031 A 
ATOM     56  C   UNL A   1      42.912  29.356  35.042  1.00  0.00     0.031 A 
ATOM     57  C   UNL A   1      37.905  33.186  33.310  1.00  0.00     0.049 A 
ATOM     58  C   UNL A   1      42.205  30.501  35.715  1.00  0.00     0.074 A 
ATOM     59  C   UNL A   1      37.299  34.179  34.057  1.00  0.00     0.029 A 
ATOM     60  N   UNL A   1      38.937  32.675  34.083  1.00  0.00    -0.354 N 
ATOM     61  N   UNL A   1      41.189  31.209  35.284  1.00  0.00    -0.248 NA
ATOM     62  C   UNL A   1      42.695  30.891  37.044  1.00  0.00     0.031 C 
ATOM     63  C   UNL A   1      37.997  34.305  35.262  1.00  0.00     0.029 A 
ATOM     64  C   UNL A   1      38.999  33.348  35.291  1.00  0.00     0.049 A 
ATOM     65  H   UNL A   1      39.537  31.942  33.813  1.00  0.00     0.167 HD
ATOM     66  C   UNL A   1      40.899  32.111  36.301  1.00  0.00     0.074 A 
ATOM     67  C   UNL A   1      41.836  31.847  37.374  1.00  0.00     0.031 C 
ATOM     68  C   UNL A   1      39.941  33.071  36.346  1.00  0.00     0.031 A 
BRANCH  55  69
ATOM     69  C   UNL A   1      36.465  33.435  31.242  1.00  0.00    -0.014 A 
ATOM     70  C   UNL A   1      35.172  33.543  31.788  1.00  0.00     0.010 A 
ATOM     71  C   UNL A   1      36.731  34.031  29.996  1.00  0.00     0.010 A 
ATOM     72  C   UNL A   1      34.157  34.197  31.083  1.00  0.00     0.020 A 
ATOM     73  C   UNL A   1      35.726  34.713  29.301  1.00  0.00     0.020 A 
ATOM     74  C   UNL A   1      34.441  34.776  29.843  1.00  0.00     0.054 A 
BRANCH  74  75
ATOM     75  S   UNL A   1      33.110  35.641  28.965  1.00  0.00     0.124 S 
ATOM     76  O   UNL A   1      32.304  36.153  30.072  1.00  0.00    -0.237 OA
ATOM     77  O   UNL A   1      33.835  36.650  28.199  1.00  0.00    -0.237 OA
ATOM     78  O   UNL A   1      32.480  34.590  28.169  1.00  0.00    -0.744 OA
ENDBRANCH  74  75
ENDBRANCH  55  69
BRANCH  56  79
ATOM     79  C   UNL A   1      44.055  28.665  35.700  1.00  0.00    -0.014 A 
ATOM     80  C   UNL A   1      43.836  27.532  36.504  1.00  0.00     0.010 A 
ATOM     81  C   UNL A   1      45.371  29.126  35.514  1.00  0.00     0.010 A 
ATOM     82  C   UNL A   1      44.908  26.884  37.124  1.00  0.00     0.020 A 
ATOM     83  C   UNL A   1      46.448  28.464  36.109  1.00  0.00     0.020 A 
ATOM     84  C   UNL A   1      46.208  27.353  36.920  1.00  0.00     0.054 A 
BRANCH  84  85
ATOM     85  S   UNL A   1      47.589  26.465  37.693  1.00  0.00     0.124 S 
ATOM     86  O   UNL A   1      46.894  25.511  38.551  1.00  0.00    -0.237 OA
ATOM     87  O   UNL A   1      48.282  25.895  36.540  1.00  0.00    -0.237 OA
ATOM     88  O   UNL A   1      48.323  27.518  38.392  1.00  0.00    -0.744 OA
ENDBRANCH  84  85
ENDBRANCH  56  79
BRANCH  68  89
ATOM     89  C   UNL A   1      39.834  33.882  37.609  1.00  0.00    -0.014 A 
ATOM     90  C   UNL A   1      40.494  35.115  37.745  1.00  0.00     0.010 A 
ATOM     91  C   UNL A   1      39.017  33.421  38.658  1.00  0.00     0.010 A 
ATOM     92  C   UNL A   1      40.369  35.856  38.922  1.00  0.00     0.020 A 
ATOM     93  C   UNL A   1      38.863  34.174  39.824  1.00  0.00     0.020 A 
ATOM     94  C   UNL A   1      39.553  35.380  39.955  1.00  0.00     0.054 A 
BRANCH  94  95
ATOM     95  S   UNL A   1      39.377  36.380  41.457  1.00  0.00     0.124 S 
ATOM     96  O   UNL A   1      38.288  35.699  42.150  1.00  0.00    -0.237 OA
ATOM     97  O   UNL A   1      40.693  36.259  42.080  1.00  0.00    -0.237 OA
ATOM     98  O   UNL A   1      39.055  37.713  40.950  1.00  0.00    -0.744 OA
ENDBRANCH  94  95
ENDBRANCH  68  89
ENDBRANCH  42  43
ENDBRANCH  34  37
ENDBRANCH  32  33
ENDBRANCH  31  32
ENDBRANCH   1  31
TORSDOF 18
ENDMDL
