MODEL 1
REMARK VINA RESULT:     -13.7      0.000      0.000
REMARK SMILES Cc1ccc(NC(=O)C[N@@H+]2CC[C@@H](C(=O)NCCCNC(=O)c3ccc(-c4c5nc(c(-c6ccc(S(=O)(=O)[O-])cc6)c6ccc([nH]6)c(-c6ccc(S(=O)(=O)[O-])cc6)c6nc(c(-c7ccc(S(=O)(=O)[O-])cc7)c7ccc4[nH]7)C=C6)C=C5)cc3)[C@@H]2C)cc1
REMARK SMILES IDX 18 1 17 2 16 3 14 4 15 5 13 7 10 8 11 9 83 10 12 12 84 13
REMARK SMILES IDX 9 14 7 15 6 16 8 18 5 19 1 20 2 21 3 22 86 23 4 24 85 25
REMARK SMILES IDX 19 26 20 27 21 28 22 30 23 31 24 32 82 33 25 34 81 35 26 36
REMARK SMILES IDX 27 37 28 38 75 39 29 40 80 41 74 42 76 43 30 44 79 45 73 46
REMARK SMILES IDX 72 47 31 49 61 50 42 51 60 52 43 53 46 54 59 55 77 56 44 57
REMARK SMILES IDX 45 58 58 60 78 61 47 62 32 63 33 64 41 65 34 66 40 67 35 68
REMARK SMILES IDX 36 69 37 70 38 71 39 72 62 73 63 74 71 75 64 76 70 77 65 78
REMARK SMILES IDX 66 79 67 80 68 81 69 82 48 83 49 84 57 85 50 86 56 87 51 88
REMARK SMILES IDX 52 89 53 90 54 91 55 92
REMARK H PARENT 16 6 10 11 6 17 20 29 76 48 46 59
REMARK Flexibility Score: inf
ROOT
ATOM      1  C   UNL A   1      37.873  22.145  24.976  1.00  0.00     0.042 C 
ENDROOT
BRANCH   1   2
ATOM      2  C   UNL A   1      37.633  20.670  25.283  1.00  0.00     0.117 C 
BRANCH   2   3
ATOM      3  N   UNL A   1      36.245  20.214  25.186  1.00  0.00    -0.356 N 
ATOM      4  C   UNL A   1      35.065  20.904  25.189  1.00  0.00     0.229 C 
ATOM      5  O   UNL A   1      34.156  20.433  24.489  1.00  0.00    -0.275 OA
ATOM      6  H   UNL A   1      36.145  19.238  25.103  1.00  0.00     0.163 HD
BRANCH   4   7
ATOM      7  C   UNL A   1      34.732  22.131  26.062  1.00  0.00     0.142 C 
ATOM      8  N   UNL A   1      32.534  22.515  26.417  1.00  0.00    -0.324 N 
ATOM      9  C   UNL A   1      32.956  22.358  27.782  1.00  0.00     0.263 C 
ATOM     10  C   UNL A   1      33.617  23.059  25.607  1.00  0.00     0.194 C 
ATOM     11  H   UNL A   1      32.270  21.568  26.145  1.00  0.00     0.348 HD
ATOM     12  C   UNL A   1      34.400  21.852  27.558  1.00  0.00     0.081 C 
ATOM     13  C   UNL A   1      34.031  24.510  25.907  1.00  0.00     0.076 C 
BRANCH   8  14
ATOM     14  C   UNL A   1      31.160  22.583  25.974  1.00  0.00     0.364 C 
BRANCH  14  15
ATOM     15  C   UNL A   1      30.177  23.525  26.721  1.00  0.00     0.279 C 
ATOM     16  N   UNL A   1      30.188  24.900  26.728  1.00  0.00    -0.321 N 
ATOM     17  H   UNL A   1      30.031  25.263  27.630  1.00  0.00     0.170 HD
ATOM     18  O   UNL A   1      29.438  22.999  27.575  1.00  0.00    -0.268 OA
BRANCH  16  19
ATOM     19  C   UNL A   1      30.367  25.929  25.774  1.00  0.00     0.041 A 
ATOM     20  C   UNL A   1      31.137  28.948  22.732  1.00  0.00     0.044 C 
ATOM     21  C   UNL A   1      30.879  27.872  23.743  1.00  0.00    -0.051 A 
ATOM     22  C   UNL A   1      31.443  27.988  25.000  1.00  0.00     0.005 A 
ATOM     23  C   UNL A   1      30.033  26.785  23.504  1.00  0.00     0.005 A 
ATOM     24  C   UNL A   1      31.189  27.017  25.969  1.00  0.00     0.026 A 
ATOM     25  C   UNL A   1      29.784  25.820  24.508  1.00  0.00     0.026 A 
ENDBRANCH  16  19
ENDBRANCH  14  15
ENDBRANCH   8  14
ENDBRANCH   4   7
ENDBRANCH   2   3
ENDBRANCH   1   2
BRANCH   1  26
ATOM     26  C   UNL A   1      38.081  22.993  26.225  1.00  0.00     0.118 C 
BRANCH  26  27
ATOM     27  N   UNL A   1      39.398  22.842  26.857  1.00  0.00    -0.352 N 
ATOM     28  C   UNL A   1      40.198  23.836  27.418  1.00  0.00     0.251 C 
ATOM     29  H   UNL A   1      39.759  21.927  26.886  1.00  0.00     0.163 HD
ATOM     30  O   UNL A   1      41.317  23.607  27.836  1.00  0.00    -0.269 OA
BRANCH  28  31
ATOM     31  C   UNL A   1      39.605  25.188  27.531  1.00  0.00     0.039 A 
ATOM     32  C   UNL A   1      40.139  26.216  26.748  1.00  0.00     0.014 A 
ATOM     33  C   UNL A   1      38.837  25.465  28.651  1.00  0.00     0.014 A 
ATOM     34  C   UNL A   1      40.106  27.521  27.236  1.00  0.00     0.010 A 
ATOM     35  C   UNL A   1      38.967  26.717  29.214  1.00  0.00     0.010 A 
ATOM     36  C   UNL A   1      39.634  27.743  28.529  1.00  0.00    -0.014 A 
BRANCH  36  37
ATOM     37  C   UNL A   1      39.862  28.973  29.288  1.00  0.00     0.031 A 
ATOM     38  C   UNL A   1      38.843  30.056  29.249  1.00  0.00     0.074 A 
ATOM     39  C   UNL A   1      40.934  29.106  30.105  1.00  0.00     0.049 A 
ATOM     40  N   UNL A   1      39.079  31.297  29.525  1.00  0.00    -0.248 NA
ATOM     41  C   UNL A   1      37.464  29.829  28.823  1.00  0.00     0.031 C 
ATOM     42  C   UNL A   1      41.105  30.115  31.151  1.00  0.00     0.029 A 
ATOM     43  N   UNL A   1      42.184  28.486  30.042  1.00  0.00    -0.354 N 
ATOM     44  C   UNL A   1      37.865  31.943  29.616  1.00  0.00     0.074 A 
ATOM     45  C   UNL A   1      36.905  31.010  29.082  1.00  0.00     0.031 C 
ATOM     46  C   UNL A   1      42.415  30.262  31.400  1.00  0.00     0.029 A 
ATOM     47  C   UNL A   1      43.132  29.447  30.435  1.00  0.00     0.049 A 
ATOM     48  H   UNL A   1      42.366  27.556  29.773  1.00  0.00     0.167 HD
ATOM     49  C   UNL A   1      37.782  33.141  30.262  1.00  0.00     0.031 A 
ATOM     50  C   UNL A   1      44.175  29.874  29.665  1.00  0.00     0.031 A 
ATOM     51  C   UNL A   1      39.102  33.640  30.640  1.00  0.00     0.049 A 
ATOM     52  C   UNL A   1      44.150  31.365  29.411  1.00  0.00     0.074 A 
ATOM     53  C   UNL A   1      39.795  33.655  31.839  1.00  0.00     0.029 A 
ATOM     54  N   UNL A   1      40.017  33.972  29.649  1.00  0.00    -0.354 N 
ATOM     55  N   UNL A   1      43.126  32.126  29.677  1.00  0.00    -0.248 NA
ATOM     56  C   UNL A   1      45.240  32.106  28.778  1.00  0.00     0.031 C 
ATOM     57  C   UNL A   1      41.159  33.915  31.550  1.00  0.00     0.029 A 
ATOM     58  C   UNL A   1      41.286  34.087  30.183  1.00  0.00     0.049 A 
ATOM     59  H   UNL A   1      39.793  34.106  28.699  1.00  0.00     0.167 HD
ATOM     60  C   UNL A   1      43.368  33.398  29.234  1.00  0.00     0.074 A 
ATOM     61  C   UNL A   1      44.715  33.343  28.698  1.00  0.00     0.031 C 
ATOM     62  C   UNL A   1      42.427  34.382  29.325  1.00  0.00     0.031 A 
BRANCH  49  63
ATOM     63  C   UNL A   1      36.488  33.722  30.805  1.00  0.00    -0.014 A 
ATOM     64  C   UNL A   1      35.407  33.945  29.925  1.00  0.00     0.010 A 
ATOM     65  C   UNL A   1      36.288  34.143  32.132  1.00  0.00     0.010 A 
ATOM     66  C   UNL A   1      34.249  34.635  30.321  1.00  0.00     0.020 A 
ATOM     67  C   UNL A   1      35.152  34.860  32.538  1.00  0.00     0.020 A 
ATOM     68  C   UNL A   1      34.142  35.116  31.622  1.00  0.00     0.054 A 
BRANCH  68  69
ATOM     69  S   UNL A   1      32.684  36.076  32.102  1.00  0.00     0.124 S 
ATOM     70  O   UNL A   1      33.216  36.955  33.141  1.00  0.00    -0.237 OA
ATOM     71  O   UNL A   1      32.312  36.730  30.851  1.00  0.00    -0.237 OA
ATOM     72  O   UNL A   1      31.742  35.064  32.577  1.00  0.00    -0.744 OA
ENDBRANCH  68  69
ENDBRANCH  49  63
BRANCH  50  73
ATOM     73  C   UNL A   1      44.695  28.858  28.713  1.00  0.00    -0.014 A 
ATOM     74  C   UNL A   1      44.044  28.757  27.466  1.00  0.00     0.010 A 
ATOM     75  C   UNL A   1      46.009  28.376  28.843  1.00  0.00     0.010 A 
ATOM     76  C   UNL A   1      44.757  28.377  26.329  1.00  0.00     0.020 A 
ATOM     77  C   UNL A   1      46.725  27.991  27.701  1.00  0.00     0.020 A 
ATOM     78  C   UNL A   1      46.113  28.071  26.447  1.00  0.00     0.054 A 
BRANCH  78  79
ATOM     79  S   UNL A   1      47.101  28.014  24.923  1.00  0.00     0.124 S 
ATOM     80  O   UNL A   1      46.586  29.153  24.171  1.00  0.00    -0.237 OA
ATOM     81  O   UNL A   1      48.457  28.168  25.447  1.00  0.00    -0.237 OA
ATOM     82  O   UNL A   1      46.790  26.699  24.372  1.00  0.00    -0.744 OA
ENDBRANCH  78  79
ENDBRANCH  50  73
BRANCH  62  83
ATOM     83  C   UNL A   1      42.520  35.742  28.683  1.00  0.00    -0.014 A 
ATOM     84  C   UNL A   1      41.922  36.074  27.457  1.00  0.00     0.010 A 
ATOM     85  C   UNL A   1      43.137  36.793  29.404  1.00  0.00     0.010 A 
ATOM     86  C   UNL A   1      42.004  37.374  26.937  1.00  0.00     0.020 A 
ATOM     87  C   UNL A   1      43.188  38.101  28.915  1.00  0.00     0.020 A 
ATOM     88  C   UNL A   1      42.645  38.377  27.665  1.00  0.00     0.054 A 
BRANCH  88  89
ATOM     89  S   UNL A   1      42.715  40.062  27.007  1.00  0.00     0.124 S 
ATOM     90  O   UNL A   1      41.309  40.332  26.722  1.00  0.00    -0.237 OA
ATOM     91  O   UNL A   1      43.287  40.825  28.115  1.00  0.00    -0.237 OA
ATOM     92  O   UNL A   1      43.580  39.936  25.838  1.00  0.00    -0.744 OA
ENDBRANCH  88  89
ENDBRANCH  62  83
ENDBRANCH  36  37
ENDBRANCH  28  31
ENDBRANCH  26  27
ENDBRANCH   1  26
TORSDOF 16
ENDMDL
MODEL 2
REMARK VINA RESULT:     -13.4      4.877     11.379
REMARK SMILES Cc1ccc(NC(=O)C[N@@H+]2CC[C@@H](C(=O)NCCCNC(=O)c3ccc(-c4c5nc(c(-c6ccc(S(=O)(=O)[O-])cc6)c6ccc([nH]6)c(-c6ccc(S(=O)(=O)[O-])cc6)c6nc(c(-c7ccc(S(=O)(=O)[O-])cc7)c7ccc4[nH]7)C=C6)C=C5)cc3)[C@@H]2C)cc1
REMARK SMILES IDX 18 1 17 2 16 3 14 4 15 5 13 7 10 8 11 9 83 10 12 12 84 13
REMARK SMILES IDX 9 14 7 15 6 16 8 18 5 19 1 20 2 21 3 22 86 23 4 24 85 25
REMARK SMILES IDX 19 26 20 27 21 28 22 30 23 31 24 32 82 33 25 34 81 35 26 36
REMARK SMILES IDX 27 37 28 38 75 39 29 40 80 41 74 42 76 43 30 44 79 45 73 46
REMARK SMILES IDX 72 47 31 49 61 50 42 51 60 52 43 53 46 54 59 55 77 56 44 57
REMARK SMILES IDX 45 58 58 60 78 61 47 62 32 63 33 64 41 65 34 66 40 67 35 68
REMARK SMILES IDX 36 69 37 70 38 71 39 72 62 73 63 74 71 75 64 76 70 77 65 78
REMARK SMILES IDX 66 79 67 80 68 81 69 82 48 83 49 84 57 85 50 86 56 87 51 88
REMARK SMILES IDX 52 89 53 90 54 91 55 92
REMARK H PARENT 16 6 10 11 6 17 20 29 76 48 46 59
REMARK Flexibility Score: inf
ROOT
ATOM      1  C   UNL A   1      32.989  30.457  26.873  1.00  0.00     0.042 C 
ENDROOT
BRANCH   1   2
ATOM      2  C   UNL A   1      32.384  29.624  25.748  1.00  0.00     0.117 C 
BRANCH   2   3
ATOM      3  N   UNL A   1      33.309  29.203  24.694  1.00  0.00    -0.356 N 
ATOM      4  C   UNL A   1      33.093  28.579  23.498  1.00  0.00     0.229 C 
ATOM      5  O   UNL A   1      33.850  28.900  22.570  1.00  0.00    -0.275 OA
ATOM      6  H   UNL A   1      34.255  29.408  24.880  1.00  0.00     0.163 HD
BRANCH   4   7
ATOM      7  C   UNL A   1      32.081  27.446  23.234  1.00  0.00     0.142 C 
ATOM      8  N   UNL A   1      31.410  26.285  25.053  1.00  0.00    -0.324 N 
ATOM      9  C   UNL A   1      30.130  26.774  24.616  1.00  0.00     0.263 C 
ATOM     10  C   UNL A   1      32.303  26.106  23.915  1.00  0.00     0.194 C 
ATOM     11  H   UNL A   1      31.727  27.009  25.697  1.00  0.00     0.348 HD
ATOM     12  C   UNL A   1      30.583  27.769  23.522  1.00  0.00     0.081 C 
ATOM     13  C   UNL A   1      31.934  24.984  22.928  1.00  0.00     0.076 C 
BRANCH   8  14
ATOM     14  C   UNL A   1      31.662  25.629  26.315  1.00  0.00     0.364 C 
BRANCH  14  15
ATOM     15  C   UNL A   1      31.076  24.211  26.553  1.00  0.00     0.279 C 
ATOM     16  N   UNL A   1      31.528  23.026  26.022  1.00  0.00    -0.321 N 
ATOM     17  H   UNL A   1      30.786  22.456  25.716  1.00  0.00     0.170 HD
ATOM     18  O   UNL A   1      29.958  24.152  27.100  1.00  0.00    -0.268 OA
BRANCH  16  19
ATOM     19  C   UNL A   1      32.784  22.413  25.803  1.00  0.00     0.041 A 
ATOM     20  C   UNL A   1      36.746  20.779  25.039  1.00  0.00     0.044 C 
ATOM     21  C   UNL A   1      35.405  21.383  25.323  1.00  0.00    -0.051 A 
ATOM     22  C   UNL A   1      34.424  21.319  24.351  1.00  0.00     0.005 A 
ATOM     23  C   UNL A   1      35.067  21.949  26.556  1.00  0.00     0.005 A 
ATOM     24  C   UNL A   1      33.156  21.842  24.606  1.00  0.00     0.026 A 
ATOM     25  C   UNL A   1      33.771  22.463  26.791  1.00  0.00     0.026 A 
ENDBRANCH  16  19
ENDBRANCH  14  15
ENDBRANCH   8  14
ENDBRANCH   4   7
ENDBRANCH   2   3
ENDBRANCH   1   2
BRANCH   1  26
ATOM     26  C   UNL A   1      34.444  30.108  27.162  1.00  0.00     0.118 C 
BRANCH  26  27
ATOM     27  N   UNL A   1      35.250  31.219  27.682  1.00  0.00    -0.352 N 
ATOM     28  C   UNL A   1      36.543  31.172  28.201  1.00  0.00     0.251 C 
ATOM     29  H   UNL A   1      34.824  32.106  27.663  1.00  0.00     0.163 HD
ATOM     30  O   UNL A   1      37.082  32.148  28.687  1.00  0.00    -0.269 OA
BRANCH  28  31
ATOM     31  C   UNL A   1      37.262  29.882  28.089  1.00  0.00     0.039 A 
ATOM     32  C   UNL A   1      37.345  29.067  29.222  1.00  0.00     0.014 A 
ATOM     33  C   UNL A   1      38.131  29.717  27.021  1.00  0.00     0.014 A 
ATOM     34  C   UNL A   1      38.462  28.250  29.383  1.00  0.00     0.010 A 
ATOM     35  C   UNL A   1      39.314  29.054  27.265  1.00  0.00     0.010 A 
ATOM     36  C   UNL A   1      39.504  28.347  28.462  1.00  0.00    -0.014 A 
BRANCH  36  37
ATOM     37  C   UNL A   1      40.854  27.828  28.687  1.00  0.00     0.031 A 
ATOM     38  C   UNL A   1      41.169  26.423  28.315  1.00  0.00     0.074 A 
ATOM     39  C   UNL A   1      41.849  28.629  29.137  1.00  0.00     0.049 A 
ATOM     40  N   UNL A   1      42.149  25.736  28.804  1.00  0.00    -0.248 NA
ATOM     41  C   UNL A   1      40.346  25.647  27.391  1.00  0.00     0.031 C 
ATOM     42  C   UNL A   1      43.282  28.340  29.090  1.00  0.00     0.029 A 
ATOM     43  N   UNL A   1      41.776  29.791  29.911  1.00  0.00    -0.354 N 
ATOM     44  C   UNL A   1      42.268  24.586  28.054  1.00  0.00     0.074 A 
ATOM     45  C   UNL A   1      41.071  24.538  27.253  1.00  0.00     0.031 C 
ATOM     46  C   UNL A   1      43.903  29.075  30.024  1.00  0.00     0.029 A 
ATOM     47  C   UNL A   1      42.876  29.763  30.786  1.00  0.00     0.049 A 
ATOM     48  H   UNL A   1      41.087  30.493  29.854  1.00  0.00     0.167 HD
ATOM     49  C   UNL A   1      43.429  23.872  28.087  1.00  0.00     0.031 A 
ATOM     50  C   UNL A   1      42.789  29.788  32.148  1.00  0.00     0.031 A 
ATOM     51  C   UNL A   1      44.353  24.397  29.090  1.00  0.00     0.049 A 
ATOM     52  C   UNL A   1      43.428  28.583  32.803  1.00  0.00     0.074 A 
ATOM     53  C   UNL A   1      45.481  25.196  29.005  1.00  0.00     0.029 A 
ATOM     54  N   UNL A   1      44.006  24.342  30.434  1.00  0.00    -0.354 N 
ATOM     55  N   UNL A   1      43.798  27.518  32.150  1.00  0.00    -0.248 NA
ATOM     56  C   UNL A   1      43.639  28.449  34.243  1.00  0.00     0.031 C 
ATOM     57  C   UNL A   1      45.759  25.695  30.303  1.00  0.00     0.029 A 
ATOM     58  C   UNL A   1      44.821  25.174  31.177  1.00  0.00     0.049 A 
ATOM     59  H   UNL A   1      43.281  23.788  30.806  1.00  0.00     0.167 HD
ATOM     60  C   UNL A   1      44.235  26.565  33.029  1.00  0.00     0.074 A 
ATOM     61  C   UNL A   1      44.138  27.203  34.329  1.00  0.00     0.031 C 
ATOM     62  C   UNL A   1      44.616  25.323  32.612  1.00  0.00     0.031 A 
BRANCH  49  63
ATOM     63  C   UNL A   1      43.844  22.878  27.016  1.00  0.00    -0.014 A 
ATOM     64  C   UNL A   1      42.976  21.813  26.688  1.00  0.00     0.010 A 
ATOM     65  C   UNL A   1      45.085  22.877  26.354  1.00  0.00     0.010 A 
ATOM     66  C   UNL A   1      43.365  20.766  25.837  1.00  0.00     0.020 A 
ATOM     67  C   UNL A   1      45.502  21.825  25.524  1.00  0.00     0.020 A 
ATOM     68  C   UNL A   1      44.642  20.764  25.282  1.00  0.00     0.054 A 
BRANCH  68  69
ATOM     69  S   UNL A   1      45.167  19.368  24.254  1.00  0.00     0.124 S 
ATOM     70  O   UNL A   1      44.552  19.680  22.965  1.00  0.00    -0.237 OA
ATOM     71  O   UNL A   1      46.621  19.472  24.303  1.00  0.00    -0.237 OA
ATOM     72  O   UNL A   1      44.604  18.204  24.936  1.00  0.00    -0.744 OA
ENDBRANCH  68  69
ENDBRANCH  49  63
BRANCH  50  73
ATOM     73  C   UNL A   1      41.606  30.516  32.677  1.00  0.00    -0.014 A 
ATOM     74  C   UNL A   1      40.448  29.753  32.936  1.00  0.00     0.010 A 
ATOM     75  C   UNL A   1      41.769  31.756  33.319  1.00  0.00     0.010 A 
ATOM     76  C   UNL A   1      39.579  30.120  33.963  1.00  0.00     0.020 A 
ATOM     77  C   UNL A   1      40.894  32.126  34.349  1.00  0.00     0.020 A 
ATOM     78  C   UNL A   1      39.853  31.265  34.710  1.00  0.00     0.054 A 
BRANCH  78  79
ATOM     79  S   UNL A   1      38.978  31.474  36.289  1.00  0.00     0.124 S 
ATOM     80  O   UNL A   1      37.942  32.443  35.948  1.00  0.00    -0.237 OA
ATOM     81  O   UNL A   1      38.507  30.114  36.545  1.00  0.00    -0.237 OA
ATOM     82  O   UNL A   1      40.021  31.953  37.189  1.00  0.00    -0.744 OA
ENDBRANCH  78  79
ENDBRANCH  50  73
BRANCH  62  83
ATOM     83  C   UNL A   1      44.909  24.151  33.513  1.00  0.00    -0.014 A 
ATOM     84  C   UNL A   1      43.978  23.147  33.823  1.00  0.00     0.010 A 
ATOM     85  C   UNL A   1      46.232  23.969  33.983  1.00  0.00     0.010 A 
ATOM     86  C   UNL A   1      44.328  22.055  34.629  1.00  0.00     0.020 A 
ATOM     87  C   UNL A   1      46.603  22.862  34.751  1.00  0.00     0.020 A 
ATOM     88  C   UNL A   1      45.637  21.924  35.095  1.00  0.00     0.054 A 
BRANCH  88  89
ATOM     89  S   UNL A   1      46.094  20.491  36.104  1.00  0.00     0.124 S 
ATOM     90  O   UNL A   1      45.680  20.919  37.438  1.00  0.00    -0.237 OA
ATOM     91  O   UNL A   1      45.301  19.410  35.520  1.00  0.00    -0.237 OA
ATOM     92  O   UNL A   1      47.535  20.376  35.900  1.00  0.00    -0.744 OA
ENDBRANCH  88  89
ENDBRANCH  62  83
ENDBRANCH  36  37
ENDBRANCH  28  31
ENDBRANCH  26  27
ENDBRANCH   1  26
TORSDOF 16
ENDMDL
MODEL 3
REMARK VINA RESULT:     -13.0      4.876     11.361
REMARK SMILES Cc1ccc(NC(=O)C[N@@H+]2CC[C@@H](C(=O)NCCCNC(=O)c3ccc(-c4c5nc(c(-c6ccc(S(=O)(=O)[O-])cc6)c6ccc([nH]6)c(-c6ccc(S(=O)(=O)[O-])cc6)c6nc(c(-c7ccc(S(=O)(=O)[O-])cc7)c7ccc4[nH]7)C=C6)C=C5)cc3)[C@@H]2C)cc1
REMARK SMILES IDX 18 1 17 2 16 3 14 4 15 5 13 7 10 8 11 9 83 10 12 12 84 13
REMARK SMILES IDX 9 14 7 15 6 16 8 18 5 19 1 20 2 21 3 22 86 23 4 24 85 25
REMARK SMILES IDX 19 26 20 27 21 28 22 30 23 31 24 32 82 33 25 34 81 35 26 36
REMARK SMILES IDX 27 37 28 38 75 39 29 40 80 41 74 42 76 43 30 44 79 45 73 46
REMARK SMILES IDX 72 47 31 49 61 50 42 51 60 52 43 53 46 54 59 55 77 56 44 57
REMARK SMILES IDX 45 58 58 60 78 61 47 62 32 63 33 64 41 65 34 66 40 67 35 68
REMARK SMILES IDX 36 69 37 70 38 71 39 72 62 73 63 74 71 75 64 76 70 77 65 78
REMARK SMILES IDX 66 79 67 80 68 81 69 82 48 83 49 84 57 85 50 86 56 87 51 88
REMARK SMILES IDX 52 89 53 90 54 91 55 92
REMARK H PARENT 16 6 10 11 6 17 20 29 76 48 46 59
REMARK Flexibility Score: inf
ROOT
ATOM      1  C   UNL A   1      33.284  30.753  27.642  1.00  0.00     0.042 C 
ENDROOT
BRANCH   1   2
ATOM      2  C   UNL A   1      32.672  30.774  26.246  1.00  0.00     0.117 C 
BRANCH   2   3
ATOM      3  N   UNL A   1      33.229  29.817  25.288  1.00  0.00    -0.356 N 
ATOM      4  C   UNL A   1      32.672  29.191  24.208  1.00  0.00     0.229 C 
ATOM      5  O   UNL A   1      33.431  28.978  23.251  1.00  0.00    -0.275 OA
ATOM      6  H   UNL A   1      34.172  29.584  25.451  1.00  0.00     0.163 HD
BRANCH   4   7
ATOM      7  C   UNL A   1      31.237  28.634  24.120  1.00  0.00     0.142 C 
ATOM      8  N   UNL A   1      30.988  26.754  22.891  1.00  0.00    -0.324 N 
ATOM      9  C   UNL A   1      30.505  26.261  24.153  1.00  0.00     0.263 C 
ATOM     10  C   UNL A   1      30.720  28.181  22.766  1.00  0.00     0.194 C 
ATOM     11  H   UNL A   1      31.984  26.538  22.923  1.00  0.00     0.348 HD
ATOM     12  C   UNL A   1      30.893  27.446  25.069  1.00  0.00     0.081 C 
ATOM     13  C   UNL A   1      29.241  28.589  22.641  1.00  0.00     0.076 C 
BRANCH   8  14
ATOM     14  C   UNL A   1      31.268  25.938  21.732  1.00  0.00     0.364 C 
BRANCH  14  15
ATOM     15  C   UNL A   1      32.746  25.621  21.379  1.00  0.00     0.279 C 
ATOM     16  N   UNL A   1      33.771  25.352  22.255  1.00  0.00    -0.321 N 
ATOM     17  H   UNL A   1      34.601  25.817  22.001  1.00  0.00     0.170 HD
ATOM     18  O   UNL A   1      33.100  25.843  20.205  1.00  0.00    -0.268 OA
BRANCH  16  19
ATOM     19  C   UNL A   1      33.941  24.581  23.429  1.00  0.00     0.041 A 
ATOM     20  C   UNL A   1      34.739  22.285  27.040  1.00  0.00     0.044 C 
ATOM     21  C   UNL A   1      34.493  23.114  25.817  1.00  0.00    -0.051 A 
ATOM     22  C   UNL A   1      34.572  22.512  24.575  1.00  0.00     0.005 A 
ATOM     23  C   UNL A   1      34.113  24.459  25.868  1.00  0.00     0.005 A 
ATOM     24  C   UNL A   1      34.312  23.255  23.424  1.00  0.00     0.026 A 
ATOM     25  C   UNL A   1      33.845  25.186  24.685  1.00  0.00     0.026 A 
ENDBRANCH  16  19
ENDBRANCH  14  15
ENDBRANCH   8  14
ENDBRANCH   4   7
ENDBRANCH   2   3
ENDBRANCH   1   2
BRANCH   1  26
ATOM     26  C   UNL A   1      34.770  30.414  27.641  1.00  0.00     0.118 C 
BRANCH  26  27
ATOM     27  N   UNL A   1      35.645  31.487  28.128  1.00  0.00    -0.352 N 
ATOM     28  C   UNL A   1      36.927  31.371  28.665  1.00  0.00     0.251 C 
ATOM     29  H   UNL A   1      35.281  32.399  28.070  1.00  0.00     0.163 HD
ATOM     30  O   UNL A   1      37.527  32.326  29.121  1.00  0.00    -0.269 OA
BRANCH  28  31
ATOM     31  C   UNL A   1      37.555  30.031  28.612  1.00  0.00     0.039 A 
ATOM     32  C   UNL A   1      37.750  29.340  29.811  1.00  0.00     0.014 A 
ATOM     33  C   UNL A   1      38.261  29.694  27.467  1.00  0.00     0.014 A 
ATOM     34  C   UNL A   1      38.834  28.472  29.921  1.00  0.00     0.010 A 
ATOM     35  C   UNL A   1      39.431  28.983  27.631  1.00  0.00     0.010 A 
ATOM     36  C   UNL A   1      39.745  28.399  28.867  1.00  0.00    -0.014 A 
BRANCH  36  37
ATOM     37  C   UNL A   1      41.084  27.818  28.975  1.00  0.00     0.031 A 
ATOM     38  C   UNL A   1      41.298  26.396  28.595  1.00  0.00     0.074 A 
ATOM     39  C   UNL A   1      42.153  28.576  29.320  1.00  0.00     0.049 A 
ATOM     40  N   UNL A   1      42.286  25.668  29.002  1.00  0.00    -0.248 NA
ATOM     41  C   UNL A   1      40.357  25.651  27.762  1.00  0.00     0.031 C 
ATOM     42  C   UNL A   1      43.560  28.218  29.145  1.00  0.00     0.029 A 
ATOM     43  N   UNL A   1      42.206  29.748  30.080  1.00  0.00    -0.354 N 
ATOM     44  C   UNL A   1      42.281  24.506  28.261  1.00  0.00     0.074 A 
ATOM     45  C   UNL A   1      41.014  24.507  27.574  1.00  0.00     0.031 C 
ATOM     46  C   UNL A   1      44.299  28.932  30.007  1.00  0.00     0.029 A 
ATOM     47  C   UNL A   1      43.380  29.676  30.850  1.00  0.00     0.049 A 
ATOM     48  H   UNL A   1      41.549  30.481  30.076  1.00  0.00     0.167 HD
ATOM     49  C   UNL A   1      43.405  23.738  28.197  1.00  0.00     0.031 A 
ATOM     50  C   UNL A   1      43.421  29.718  32.214  1.00  0.00     0.031 A 
ATOM     51  C   UNL A   1      44.442  24.228  29.103  1.00  0.00     0.049 A 
ATOM     52  C   UNL A   1      44.061  28.491  32.825  1.00  0.00     0.074 A 
ATOM     53  C   UNL A   1      45.593  24.972  28.903  1.00  0.00     0.029 A 
ATOM     54  N   UNL A   1      44.218  24.204  30.474  1.00  0.00    -0.354 N 
ATOM     55  N   UNL A   1      44.319  27.403  32.156  1.00  0.00    -0.248 NA
ATOM     56  C   UNL A   1      44.398  28.362  34.241  1.00  0.00     0.031 C 
ATOM     57  C   UNL A   1      46.013  25.470  30.162  1.00  0.00     0.029 A 
ATOM     58  C   UNL A   1      45.137  25.003  31.127  1.00  0.00     0.049 A 
ATOM     59  H   UNL A   1      43.506  23.689  30.919  1.00  0.00     0.167 HD
ATOM     60  C   UNL A   1      44.790  26.439  33.005  1.00  0.00     0.074 A 
ATOM     61  C   UNL A   1      44.844  27.094  34.299  1.00  0.00     0.031 C 
ATOM     62  C   UNL A   1      45.073  25.176  32.573  1.00  0.00     0.031 A 
BRANCH  49  63
ATOM     63  C   UNL A   1      43.672  22.714  27.107  1.00  0.00    -0.014 A 
ATOM     64  C   UNL A   1      42.809  21.605  26.974  1.00  0.00     0.010 A 
ATOM     65  C   UNL A   1      44.779  22.731  26.239  1.00  0.00     0.010 A 
ATOM     66  C   UNL A   1      43.091  20.537  26.106  1.00  0.00     0.020 A 
ATOM     67  C   UNL A   1      45.092  21.660  25.388  1.00  0.00     0.020 A 
ATOM     68  C   UNL A   1      44.251  20.558  25.338  1.00  0.00     0.054 A 
BRANCH  68  69
ATOM     69  S   UNL A   1      44.651  19.140  24.286  1.00  0.00     0.124 S 
ATOM     70  O   UNL A   1      44.453  19.681  22.943  1.00  0.00    -0.237 OA
ATOM     71  O   UNL A   1      46.034  18.855  24.654  1.00  0.00    -0.237 OA
ATOM     72  O   UNL A   1      43.680  18.124  24.689  1.00  0.00    -0.744 OA
ENDBRANCH  68  69
ENDBRANCH  49  63
BRANCH  50  73
ATOM     73  C   UNL A   1      42.327  30.507  32.839  1.00  0.00    -0.014 A 
ATOM     74  C   UNL A   1      42.594  31.864  33.114  1.00  0.00     0.010 A 
ATOM     75  C   UNL A   1      40.993  30.079  32.725  1.00  0.00     0.010 A 
ATOM     76  C   UNL A   1      41.567  32.807  33.070  1.00  0.00     0.020 A 
ATOM     77  C   UNL A   1      39.960  31.026  32.683  1.00  0.00     0.020 A 
ATOM     78  C   UNL A   1      40.270  32.386  32.779  1.00  0.00     0.054 A 
BRANCH  78  79
ATOM     79  S   UNL A   1      39.059  33.652  32.297  1.00  0.00     0.124 S 
ATOM     80  O   UNL A   1      39.555  34.082  30.994  1.00  0.00    -0.237 OA
ATOM     81  O   UNL A   1      37.819  32.878  32.273  1.00  0.00    -0.237 OA
ATOM     82  O   UNL A   1      39.160  34.636  33.369  1.00  0.00    -0.744 OA
ENDBRANCH  78  79
ENDBRANCH  50  73
BRANCH  62  83
ATOM     83  C   UNL A   1      45.394  24.001  33.459  1.00  0.00    -0.014 A 
ATOM     84  C   UNL A   1      46.625  23.821  34.109  1.00  0.00     0.010 A 
ATOM     85  C   UNL A   1      44.364  23.079  33.765  1.00  0.00     0.010 A 
ATOM     86  C   UNL A   1      46.845  22.729  34.961  1.00  0.00     0.020 A 
ATOM     87  C   UNL A   1      44.558  22.011  34.646  1.00  0.00     0.020 A 
ATOM     88  C   UNL A   1      45.812  21.826  35.217  1.00  0.00     0.054 A 
BRANCH  88  89
ATOM     89  S   UNL A   1      46.088  20.439  36.348  1.00  0.00     0.124 S 
ATOM     90  O   UNL A   1      47.523  20.210  36.197  1.00  0.00    -0.237 OA
ATOM     91  O   UNL A   1      45.675  20.981  37.641  1.00  0.00    -0.237 OA
ATOM     92  O   UNL A   1      45.225  19.389  35.817  1.00  0.00    -0.744 OA
ENDBRANCH  88  89
ENDBRANCH  62  83
ENDBRANCH  36  37
ENDBRANCH  28  31
ENDBRANCH  26  27
ENDBRANCH   1  26
TORSDOF 16
ENDMDL
