MODEL 1
REMARK VINA RESULT:     -12.3      0.000      0.000
REMARK SMILES O=C(NCCCNC(=O)c1ccc(-c2c3nc(c(-c4ccc(S(=O)(=O)[O-])cc4)c4ccc([nH]4)c(-c4ccc(S(=O)(=O)[O-])cc4)c4nc(c(-c5ccc(S(=O)(=O)[O-])cc5)c5ccc2[nH]5)C=C4)C=C3)cc1)C1=Cc2c(ccc(Cl)c2Sc2ccccc2)O[C@H]1C(F)(F)F
REMARK SMILES IDX 5 1 4 2 3 3 1 4 2 5 70 7 71 8 87 9 72 10 86 11 73 12 78 13
REMARK SMILES IDX 74 14 76 15 75 16 77 17 88 18 89 19 90 20 91 21 79 22 80 23
REMARK SMILES IDX 81 24 85 25 82 26 84 27 83 28 6 29 7 30 8 31 9 33 10 34
REMARK SMILES IDX 11 35 69 36 12 37 68 38 13 39 14 40 15 41 62 42 16 43 67 44
REMARK SMILES IDX 61 45 63 46 17 47 66 48 60 49 59 50 18 52 48 53 29 54 47 55
REMARK SMILES IDX 30 56 33 57 46 58 64 59 31 60 32 61 45 63 65 64 34 65 19 66
REMARK SMILES IDX 20 67 28 68 21 69 27 70 22 71 23 72 24 73 25 74 26 75 49 76
REMARK SMILES IDX 50 77 58 78 51 79 57 80 52 81 53 82 54 83 55 84 56 85 35 86
REMARK SMILES IDX 36 87 44 88 37 89 43 90 38 91 39 92 40 93 41 94 42 95
REMARK H PARENT 3 6 7 32 63 51 33 62
REMARK Flexibility Score: inf
ROOT
ATOM      1  C   UNL A   1      37.208  23.064  25.749  1.00  0.00     0.042 C 
ENDROOT
BRANCH   1   2
ATOM      2  C   UNL A   1      36.015  23.616  24.993  1.00  0.00     0.118 C 
BRANCH   2   3
ATOM      3  N   UNL A   1      34.925  24.004  25.874  1.00  0.00    -0.352 N 
ATOM      4  O   UNL A   1      32.955  24.812  26.563  1.00  0.00    -0.270 OA
ATOM      5  C   UNL A   1      33.662  24.441  25.628  1.00  0.00     0.251 C 
ATOM      6  H   UNL A   1      35.145  23.937  26.832  1.00  0.00     0.163 HD
BRANCH   5   7
ATOM      7  C   UNL A   1      33.126  24.530  24.258  1.00  0.00     0.067 C 
ATOM      8  C   UNL A   1      33.211  25.647  23.523  1.00  0.00     0.026 C 
ATOM      9  C   UNL A   1      32.206  23.446  23.800  1.00  0.00     0.314 C 
ATOM     10  C   UNL A   1      31.880  26.276  23.379  1.00  0.00     0.033 A 
ATOM     11  O   UNL A   1      30.938  23.996  23.320  1.00  0.00    -0.475 OA
ATOM     12  C   UNL A   1      30.788  25.368  23.352  1.00  0.00     0.129 A 
ATOM     13  C   UNL A   1      31.681  27.680  23.483  1.00  0.00     0.042 A 
ATOM     14  C   UNL A   1      29.486  25.833  23.453  1.00  0.00     0.049 A 
ATOM     15  C   UNL A   1      30.337  28.108  23.626  1.00  0.00     0.055 A 
ATOM     16  C   UNL A   1      29.265  27.197  23.622  1.00  0.00     0.025 A 
ATOM     17  Cl  UNL A   1      29.902  29.767  23.902  1.00  0.00    -0.083 Cl
BRANCH   9  18
ATOM     18  C   UNL A   1      32.870  22.581  22.717  1.00  0.00     0.429 C 
ATOM     19  F   UNL A   1      33.246  23.316  21.639  1.00  0.00    -0.167 F 
ATOM     20  F   UNL A   1      33.980  21.953  23.171  1.00  0.00    -0.167 F 
ATOM     21  F   UNL A   1      32.030  21.620  22.267  1.00  0.00    -0.167 F 
ENDBRANCH   9  18
BRANCH  13  22
ATOM     22  S   UNL A   1      32.990  28.947  23.552  1.00  0.00    -0.088 SA
BRANCH  22  23
ATOM     23  C   UNL A   1      33.355  29.276  25.259  1.00  0.00     0.012 A 
ATOM     24  C   UNL A   1      34.391  28.592  25.909  1.00  0.00     0.015 A 
ATOM     25  C   UNL A   1      32.665  30.284  25.943  1.00  0.00     0.015 A 
ATOM     26  C   UNL A   1      34.808  28.994  27.180  1.00  0.00     0.001 A 
ATOM     27  C   UNL A   1      33.088  30.689  27.212  1.00  0.00     0.001 A 
ATOM     28  C   UNL A   1      34.173  30.060  27.820  1.00  0.00     0.000 A 
ENDBRANCH  22  23
ENDBRANCH  13  22
ENDBRANCH   5   7
ENDBRANCH   2   3
ENDBRANCH   1   2
BRANCH   1  29
ATOM     29  C   UNL A   1      38.074  24.158  26.354  1.00  0.00     0.118 C 
BRANCH  29  30
ATOM     30  N   UNL A   1      39.494  24.074  26.039  1.00  0.00    -0.352 N 
ATOM     31  C   UNL A   1      40.555  24.803  26.549  1.00  0.00     0.251 C 
ATOM     32  H   UNL A   1      39.734  23.402  25.362  1.00  0.00     0.163 HD
ATOM     33  O   UNL A   1      41.682  24.597  26.132  1.00  0.00    -0.269 OA
BRANCH  31  34
ATOM     34  C   UNL A   1      40.319  25.870  27.559  1.00  0.00     0.039 A 
ATOM     35  C   UNL A   1      39.418  25.630  28.602  1.00  0.00     0.014 A 
ATOM     36  C   UNL A   1      40.998  27.086  27.508  1.00  0.00     0.014 A 
ATOM     37  C   UNL A   1      39.276  26.568  29.630  1.00  0.00     0.010 A 
ATOM     38  C   UNL A   1      40.967  27.945  28.599  1.00  0.00     0.010 A 
ATOM     39  C   UNL A   1      40.086  27.714  29.663  1.00  0.00    -0.014 A 
BRANCH  39  40
ATOM     40  C   UNL A   1      40.002  28.710  30.764  1.00  0.00     0.031 A 
ATOM     41  C   UNL A   1      40.894  28.565  31.975  1.00  0.00     0.074 A 
ATOM     42  C   UNL A   1      39.078  29.691  30.721  1.00  0.00     0.049 A 
ATOM     43  N   UNL A   1      40.913  29.268  33.079  1.00  0.00    -0.248 NA
ATOM     44  C   UNL A   1      41.855  27.449  31.966  1.00  0.00     0.031 C 
ATOM     45  C   UNL A   1      38.101  29.898  29.648  1.00  0.00     0.029 A 
ATOM     46  N   UNL A   1      38.806  30.702  31.609  1.00  0.00    -0.354 N 
ATOM     47  C   UNL A   1      41.846  28.650  33.904  1.00  0.00     0.074 A 
ATOM     48  C   UNL A   1      42.320  27.478  33.205  1.00  0.00     0.031 C 
ATOM     49  C   UNL A   1      37.372  30.993  29.917  1.00  0.00     0.029 A 
ATOM     50  C   UNL A   1      37.803  31.547  31.196  1.00  0.00     0.049 A 
ATOM     51  H   UNL A   1      39.286  30.813  32.462  1.00  0.00     0.167 HD
ATOM     52  C   UNL A   1      42.300  29.038  35.120  1.00  0.00     0.031 A 
ATOM     53  C   UNL A   1      37.294  32.652  31.777  1.00  0.00     0.031 A 
ATOM     54  C   UNL A   1      41.872  30.238  35.784  1.00  0.00     0.049 A 
ATOM     55  C   UNL A   1      37.873  33.116  33.085  1.00  0.00     0.074 A 
ATOM     56  C   UNL A   1      42.325  30.773  36.976  1.00  0.00     0.029 A 
ATOM     57  N   UNL A   1      40.904  31.103  35.297  1.00  0.00    -0.354 N 
ATOM     58  N   UNL A   1      38.804  32.552  33.821  1.00  0.00    -0.248 NA
ATOM     59  C   UNL A   1      37.355  34.378  33.627  1.00  0.00     0.031 C 
ATOM     60  C   UNL A   1      41.606  31.948  37.227  1.00  0.00     0.029 A 
ATOM     61  C   UNL A   1      40.741  32.167  36.165  1.00  0.00     0.049 A 
ATOM     62  H   UNL A   1      40.406  30.977  34.457  1.00  0.00     0.167 HD
ATOM     63  C   UNL A   1      38.999  33.406  34.900  1.00  0.00     0.074 A 
ATOM     64  C   UNL A   1      38.106  34.531  34.709  1.00  0.00     0.031 C 
ATOM     65  C   UNL A   1      39.843  33.273  35.954  1.00  0.00     0.031 A 
BRANCH  52  66
ATOM     66  C   UNL A   1      43.321  28.155  35.792  1.00  0.00    -0.014 A 
ATOM     67  C   UNL A   1      44.702  28.365  35.609  1.00  0.00     0.010 A 
ATOM     68  C   UNL A   1      42.898  27.099  36.619  1.00  0.00     0.010 A 
ATOM     69  C   UNL A   1      45.634  27.500  36.185  1.00  0.00     0.020 A 
ATOM     70  C   UNL A   1      43.830  26.251  37.226  1.00  0.00     0.020 A 
ATOM     71  C   UNL A   1      45.192  26.443  36.985  1.00  0.00     0.054 A 
BRANCH  71  72
ATOM     72  S   UNL A   1      46.424  25.335  37.723  1.00  0.00     0.124 S 
ATOM     73  O   UNL A   1      47.314  25.082  36.593  1.00  0.00    -0.237 OA
ATOM     74  O   UNL A   1      46.988  26.150  38.796  1.00  0.00    -0.237 OA
ATOM     75  O   UNL A   1      45.636  24.188  38.166  1.00  0.00    -0.744 OA
ENDBRANCH  71  72
ENDBRANCH  52  66
BRANCH  53  76
ATOM     76  C   UNL A   1      36.220  33.424  31.094  1.00  0.00    -0.014 A 
ATOM     77  C   UNL A   1      35.054  33.788  31.791  1.00  0.00     0.010 A 
ATOM     78  C   UNL A   1      36.367  33.825  29.753  1.00  0.00     0.010 A 
ATOM     79  C   UNL A   1      34.048  34.524  31.157  1.00  0.00     0.020 A 
ATOM     80  C   UNL A   1      35.375  34.584  29.124  1.00  0.00     0.020 A 
ATOM     81  C   UNL A   1      34.216  34.920  29.829  1.00  0.00     0.054 A 
BRANCH  81  82
ATOM     82  S   UNL A   1      32.928  35.932  29.047  1.00  0.00     0.124 S 
ATOM     83  O   UNL A   1      32.145  36.371  30.197  1.00  0.00    -0.237 OA
ATOM     84  O   UNL A   1      33.705  36.970  28.375  1.00  0.00    -0.237 OA
ATOM     85  O   UNL A   1      32.254  34.993  28.151  1.00  0.00    -0.744 OA
ENDBRANCH  81  82
ENDBRANCH  53  76
BRANCH  65  86
ATOM     86  C   UNL A   1      39.864  34.394  36.958  1.00  0.00    -0.014 A 
ATOM     87  C   UNL A   1      39.034  34.372  38.093  1.00  0.00     0.010 A 
ATOM     88  C   UNL A   1      40.747  35.472  36.770  1.00  0.00     0.010 A 
ATOM     89  C   UNL A   1      39.049  35.437  38.996  1.00  0.00     0.020 A 
ATOM     90  C   UNL A   1      40.785  36.525  37.687  1.00  0.00     0.020 A 
ATOM     91  C   UNL A   1      39.919  36.511  38.782  1.00  0.00     0.054 A 
BRANCH  91  92
ATOM     92  S   UNL A   1      39.928  37.881  39.971  1.00  0.00     0.124 S 
ATOM     93  O   UNL A   1      41.181  38.556  39.644  1.00  0.00    -0.237 OA
ATOM     94  O   UNL A   1      38.711  38.612  39.629  1.00  0.00    -0.237 OA
ATOM     95  O   UNL A   1      39.900  37.210  41.269  1.00  0.00    -0.744 OA
ENDBRANCH  91  92
ENDBRANCH  65  86
ENDBRANCH  39  40
ENDBRANCH  31  34
ENDBRANCH  29  30
ENDBRANCH   1  29
TORSDOF 16
ENDMDL
MODEL 2
REMARK VINA RESULT:     -12.3      4.753     10.566
REMARK SMILES O=C(NCCCNC(=O)c1ccc(-c2c3nc(c(-c4ccc(S(=O)(=O)[O-])cc4)c4ccc([nH]4)c(-c4ccc(S(=O)(=O)[O-])cc4)c4nc(c(-c5ccc(S(=O)(=O)[O-])cc5)c5ccc2[nH]5)C=C4)C=C3)cc1)C1=Cc2c(ccc(Cl)c2Sc2ccccc2)O[C@H]1C(F)(F)F
REMARK SMILES IDX 5 1 4 2 3 3 1 4 2 5 70 7 71 8 87 9 72 10 86 11 73 12 78 13
REMARK SMILES IDX 74 14 76 15 75 16 77 17 88 18 89 19 90 20 91 21 79 22 80 23
REMARK SMILES IDX 81 24 85 25 82 26 84 27 83 28 6 29 7 30 8 31 9 33 10 34
REMARK SMILES IDX 11 35 69 36 12 37 68 38 13 39 14 40 15 41 62 42 16 43 67 44
REMARK SMILES IDX 61 45 63 46 17 47 66 48 60 49 59 50 18 52 48 53 29 54 47 55
REMARK SMILES IDX 30 56 33 57 46 58 64 59 31 60 32 61 45 63 65 64 34 65 19 66
REMARK SMILES IDX 20 67 28 68 21 69 27 70 22 71 23 72 24 73 25 74 26 75 49 76
REMARK SMILES IDX 50 77 58 78 51 79 57 80 52 81 53 82 54 83 55 84 56 85 35 86
REMARK SMILES IDX 36 87 44 88 37 89 43 90 38 91 39 92 40 93 41 94 42 95
REMARK H PARENT 3 6 7 32 63 51 33 62
REMARK Flexibility Score: inf
ROOT
ATOM      1  C   UNL A   1      33.647  27.682  26.517  1.00  0.00     0.042 C 
ENDROOT
BRANCH   1   2
ATOM      2  C   UNL A   1      32.256  27.274  26.072  1.00  0.00     0.118 C 
BRANCH   2   3
ATOM      3  N   UNL A   1      31.746  26.130  26.810  1.00  0.00    -0.352 N 
ATOM      4  O   UNL A   1      30.916  24.095  27.237  1.00  0.00    -0.270 OA
ATOM      5  C   UNL A   1      31.443  24.859  26.431  1.00  0.00     0.251 C 
ATOM      6  H   UNL A   1      31.590  26.309  27.765  1.00  0.00     0.163 HD
BRANCH   5   7
ATOM      7  C   UNL A   1      31.685  24.382  25.058  1.00  0.00     0.067 C 
ATOM      8  C   UNL A   1      31.900  23.090  24.772  1.00  0.00     0.026 C 
ATOM      9  C   UNL A   1      31.993  25.402  24.012  1.00  0.00     0.314 C 
ATOM     10  C   UNL A   1      33.313  22.871  24.394  1.00  0.00     0.033 A 
ATOM     11  O   UNL A   1      33.252  25.097  23.330  1.00  0.00    -0.475 OA
ATOM     12  C   UNL A   1      33.932  23.964  23.729  1.00  0.00     0.129 A 
ATOM     13  C   UNL A   1      34.064  21.754  24.850  1.00  0.00     0.042 A 
ATOM     14  C   UNL A   1      35.303  23.978  23.528  1.00  0.00     0.049 A 
ATOM     15  C   UNL A   1      35.468  21.828  24.662  1.00  0.00     0.055 A 
ATOM     16  C   UNL A   1      36.071  22.927  24.023  1.00  0.00     0.025 A 
ATOM     17  Cl  UNL A   1      36.565  20.628  25.271  1.00  0.00    -0.083 Cl
BRANCH   9  18
ATOM     18  C   UNL A   1      30.841  25.521  23.002  1.00  0.00     0.429 C 
ATOM     19  F   UNL A   1      31.292  25.620  21.725  1.00  0.00    -0.167 F 
ATOM     20  F   UNL A   1      30.009  24.454  23.045  1.00  0.00    -0.167 F 
ATOM     21  F   UNL A   1      30.085  26.619  23.241  1.00  0.00    -0.167 F 
ENDBRANCH   9  18
BRANCH  13  22
ATOM     22  S   UNL A   1      33.400  20.304  25.734  1.00  0.00    -0.088 SA
BRANCH  22  23
ATOM     23  C   UNL A   1      33.362  18.933  24.604  1.00  0.00     0.012 A 
ATOM     24  C   UNL A   1      32.475  18.930  23.520  1.00  0.00     0.015 A 
ATOM     25  C   UNL A   1      34.281  17.885  24.742  1.00  0.00     0.015 A 
ATOM     26  C   UNL A   1      32.588  17.956  22.524  1.00  0.00     0.001 A 
ATOM     27  C   UNL A   1      34.395  16.915  23.741  1.00  0.00     0.001 A 
ATOM     28  C   UNL A   1      33.565  16.965  22.623  1.00  0.00     0.000 A 
ENDBRANCH  22  23
ENDBRANCH  13  22
ENDBRANCH   5   7
ENDBRANCH   2   3
ENDBRANCH   1   2
BRANCH   1  29
ATOM     29  C   UNL A   1      34.034  29.069  26.031  1.00  0.00     0.118 C 
BRANCH  29  30
ATOM     30  N   UNL A   1      33.787  30.151  26.975  1.00  0.00    -0.352 N 
ATOM     31  C   UNL A   1      34.608  30.662  27.965  1.00  0.00     0.251 C 
ATOM     32  H   UNL A   1      32.905  30.581  26.898  1.00  0.00     0.163 HD
ATOM     33  O   UNL A   1      34.202  31.566  28.676  1.00  0.00    -0.269 OA
BRANCH  31  34
ATOM     34  C   UNL A   1      35.956  30.079  28.200  1.00  0.00     0.039 A 
ATOM     35  C   UNL A   1      36.928  30.190  27.200  1.00  0.00     0.014 A 
ATOM     36  C   UNL A   1      36.283  29.457  29.404  1.00  0.00     0.014 A 
ATOM     37  C   UNL A   1      38.236  29.762  27.447  1.00  0.00     0.010 A 
ATOM     38  C   UNL A   1      37.609  29.170  29.700  1.00  0.00     0.010 A 
ATOM     39  C   UNL A   1      38.601  29.291  28.719  1.00  0.00    -0.014 A 
BRANCH  39  40
ATOM     40  C   UNL A   1      39.992  28.874  29.039  1.00  0.00     0.031 A 
ATOM     41  C   UNL A   1      40.929  29.846  29.716  1.00  0.00     0.074 A 
ATOM     42  C   UNL A   1      40.442  27.663  28.652  1.00  0.00     0.049 A 
ATOM     43  N   UNL A   1      42.200  29.713  29.996  1.00  0.00    -0.248 NA
ATOM     44  C   UNL A   1      40.377  31.164  30.077  1.00  0.00     0.031 C 
ATOM     45  C   UNL A   1      39.666  26.657  27.920  1.00  0.00     0.029 A 
ATOM     46  N   UNL A   1      41.669  27.070  28.821  1.00  0.00    -0.354 N 
ATOM     47  C   UNL A   1      42.602  30.939  30.517  1.00  0.00     0.074 A 
ATOM     48  C   UNL A   1      41.462  31.823  30.449  1.00  0.00     0.031 C 
ATOM     49  C   UNL A   1      40.418  25.558  27.746  1.00  0.00     0.029 A 
ATOM     50  C   UNL A   1      41.739  25.791  28.320  1.00  0.00     0.049 A 
ATOM     51  H   UNL A   1      42.427  27.518  29.260  1.00  0.00     0.167 HD
ATOM     52  C   UNL A   1      43.801  31.292  31.041  1.00  0.00     0.031 A 
ATOM     53  C   UNL A   1      42.750  24.900  28.332  1.00  0.00     0.031 A 
ATOM     54  C   UNL A   1      44.913  30.391  31.164  1.00  0.00     0.049 A 
ATOM     55  C   UNL A   1      44.044  25.281  28.998  1.00  0.00     0.074 A 
ATOM     56  C   UNL A   1      46.144  30.614  31.753  1.00  0.00     0.029 A 
ATOM     57  N   UNL A   1      44.917  29.081  30.707  1.00  0.00    -0.354 N 
ATOM     58  N   UNL A   1      44.384  26.425  29.544  1.00  0.00    -0.248 NA
ATOM     59  C   UNL A   1      45.080  24.242  29.073  1.00  0.00     0.031 C 
ATOM     60  C   UNL A   1      46.906  29.447  31.624  1.00  0.00     0.029 A 
ATOM     61  C   UNL A   1      46.130  28.484  30.997  1.00  0.00     0.049 A 
ATOM     62  H   UNL A   1      44.168  28.642  30.244  1.00  0.00     0.167 HD
ATOM     63  C   UNL A   1      45.664  26.235  30.051  1.00  0.00     0.074 A 
ATOM     64  C   UNL A   1      46.027  24.861  29.763  1.00  0.00     0.031 C 
ATOM     65  C   UNL A   1      46.469  27.116  30.698  1.00  0.00     0.031 A 
BRANCH  52  66
ATOM     66  C   UNL A   1      43.953  32.710  31.529  1.00  0.00    -0.014 A 
ATOM     67  C   UNL A   1      43.808  33.033  32.892  1.00  0.00     0.010 A 
ATOM     68  C   UNL A   1      44.243  33.738  30.614  1.00  0.00     0.010 A 
ATOM     69  C   UNL A   1      43.887  34.360  33.320  1.00  0.00     0.020 A 
ATOM     70  C   UNL A   1      44.357  35.065  31.044  1.00  0.00     0.020 A 
ATOM     71  C   UNL A   1      44.154  35.370  32.391  1.00  0.00     0.054 A 
BRANCH  71  72
ATOM     72  S   UNL A   1      44.253  37.084  32.973  1.00  0.00     0.124 S 
ATOM     73  O   UNL A   1      42.951  37.259  33.612  1.00  0.00    -0.237 OA
ATOM     74  O   UNL A   1      45.398  37.051  33.880  1.00  0.00    -0.237 OA
ATOM     75  O   UNL A   1      44.455  37.855  31.749  1.00  0.00    -0.744 OA
ENDBRANCH  71  72
ENDBRANCH  52  66
BRANCH  53  76
ATOM     76  C   UNL A   1      42.555  23.545  27.748  1.00  0.00    -0.014 A 
ATOM     77  C   UNL A   1      43.027  23.253  26.456  1.00  0.00     0.010 A 
ATOM     78  C   UNL A   1      41.922  22.529  28.488  1.00  0.00     0.010 A 
ATOM     79  C   UNL A   1      42.858  21.978  25.908  1.00  0.00     0.020 A 
ATOM     80  C   UNL A   1      41.774  21.245  27.954  1.00  0.00     0.020 A 
ATOM     81  C   UNL A   1      42.235  20.981  26.662  1.00  0.00     0.054 A 
BRANCH  81  82
ATOM     82  S   UNL A   1      42.085  19.315  25.956  1.00  0.00     0.124 S 
ATOM     83  O   UNL A   1      42.932  19.408  24.772  1.00  0.00    -0.237 OA
ATOM     84  O   UNL A   1      42.593  18.469  27.034  1.00  0.00    -0.237 OA
ATOM     85  O   UNL A   1      40.653  19.183  25.695  1.00  0.00    -0.744 OA
ENDBRANCH  81  82
ENDBRANCH  53  76
BRANCH  65  86
ATOM     86  C   UNL A   1      47.801  26.604  31.171  1.00  0.00    -0.014 A 
ATOM     87  C   UNL A   1      48.957  26.738  30.381  1.00  0.00     0.010 A 
ATOM     88  C   UNL A   1      47.899  26.000  32.437  1.00  0.00     0.010 A 
ATOM     89  C   UNL A   1      50.178  26.229  30.828  1.00  0.00     0.020 A 
ATOM     90  C   UNL A   1      49.125  25.516  32.900  1.00  0.00     0.020 A 
ATOM     91  C   UNL A   1      50.252  25.614  32.082  1.00  0.00     0.054 A 
BRANCH  91  92
ATOM     92  S   UNL A   1      51.849  24.966  32.646  1.00  0.00     0.124 S 
ATOM     93  O   UNL A   1      51.656  23.525  32.506  1.00  0.00    -0.237 OA
ATOM     94  O   UNL A   1      52.792  25.570  31.709  1.00  0.00    -0.237 OA
ATOM     95  O   UNL A   1      51.951  25.451  34.021  1.00  0.00    -0.744 OA
ENDBRANCH  91  92
ENDBRANCH  65  86
ENDBRANCH  39  40
ENDBRANCH  31  34
ENDBRANCH  29  30
ENDBRANCH   1  29
TORSDOF 16
ENDMDL
MODEL 3
REMARK VINA RESULT:     -12.3      3.334      4.373
REMARK SMILES O=C(NCCCNC(=O)c1ccc(-c2c3nc(c(-c4ccc(S(=O)(=O)[O-])cc4)c4ccc([nH]4)c(-c4ccc(S(=O)(=O)[O-])cc4)c4nc(c(-c5ccc(S(=O)(=O)[O-])cc5)c5ccc2[nH]5)C=C4)C=C3)cc1)C1=Cc2c(ccc(Cl)c2Sc2ccccc2)O[C@H]1C(F)(F)F
REMARK SMILES IDX 5 1 4 2 3 3 1 4 2 5 70 7 71 8 87 9 72 10 86 11 73 12 78 13
REMARK SMILES IDX 74 14 76 15 75 16 77 17 88 18 89 19 90 20 91 21 79 22 80 23
REMARK SMILES IDX 81 24 85 25 82 26 84 27 83 28 6 29 7 30 8 31 9 33 10 34
REMARK SMILES IDX 11 35 69 36 12 37 68 38 13 39 14 40 15 41 62 42 16 43 67 44
REMARK SMILES IDX 61 45 63 46 17 47 66 48 60 49 59 50 18 52 48 53 29 54 47 55
REMARK SMILES IDX 30 56 33 57 46 58 64 59 31 60 32 61 45 63 65 64 34 65 19 66
REMARK SMILES IDX 20 67 28 68 21 69 27 70 22 71 23 72 24 73 25 74 26 75 49 76
REMARK SMILES IDX 50 77 58 78 51 79 57 80 52 81 53 82 54 83 55 84 56 85 35 86
REMARK SMILES IDX 36 87 44 88 37 89 43 90 38 91 39 92 40 93 41 94 42 95
REMARK H PARENT 3 6 7 32 63 51 33 62
REMARK Flexibility Score: inf
ROOT
ATOM      1  C   UNL A   1      35.579  23.023  24.781  1.00  0.00     0.042 C 
ENDROOT
BRANCH   1   2
ATOM      2  C   UNL A   1      34.792  23.667  23.655  1.00  0.00     0.118 C 
BRANCH   2   3
ATOM      3  N   UNL A   1      33.731  22.809  23.154  1.00  0.00    -0.352 N 
ATOM      4  O   UNL A   1      31.738  21.808  22.971  1.00  0.00    -0.270 OA
ATOM      5  C   UNL A   1      32.414  22.702  23.475  1.00  0.00     0.251 C 
ATOM      6  H   UNL A   1      34.021  22.188  22.447  1.00  0.00     0.163 HD
BRANCH   5   7
ATOM      7  C   UNL A   1      31.780  23.602  24.454  1.00  0.00     0.067 C 
ATOM      8  C   UNL A   1      31.161  24.735  24.095  1.00  0.00     0.026 C 
ATOM      9  C   UNL A   1      32.099  23.393  25.898  1.00  0.00     0.314 C 
ATOM     10  C   UNL A   1      31.953  25.913  24.511  1.00  0.00     0.033 A 
ATOM     11  O   UNL A   1      32.604  24.623  26.511  1.00  0.00    -0.475 OA
ATOM     12  C   UNL A   1      32.701  25.740  25.707  1.00  0.00     0.129 A 
ATOM     13  C   UNL A   1      32.135  27.049  23.676  1.00  0.00     0.042 A 
ATOM     14  C   UNL A   1      33.655  26.674  26.079  1.00  0.00     0.049 A 
ATOM     15  C   UNL A   1      33.149  27.957  24.071  1.00  0.00     0.055 A 
ATOM     16  C   UNL A   1      33.899  27.762  25.246  1.00  0.00     0.025 A 
ATOM     17  Cl  UNL A   1      33.612  29.328  23.112  1.00  0.00    -0.083 Cl
BRANCH   9  18
ATOM     18  C   UNL A   1      30.874  22.867  26.662  1.00  0.00     0.429 C 
ATOM     19  F   UNL A   1      29.927  23.826  26.828  1.00  0.00    -0.167 F 
ATOM     20  F   UNL A   1      30.278  21.831  26.026  1.00  0.00    -0.167 F 
ATOM     21  F   UNL A   1      31.213  22.428  27.898  1.00  0.00    -0.167 F 
ENDBRANCH   9  18
BRANCH  13  22
ATOM     22  S   UNL A   1      31.261  27.379  22.109  1.00  0.00    -0.088 SA
BRANCH  22  23
ATOM     23  C   UNL A   1      29.921  28.495  22.445  1.00  0.00     0.012 A 
ATOM     24  C   UNL A   1      29.970  29.821  21.996  1.00  0.00     0.015 A 
ATOM     25  C   UNL A   1      28.766  28.032  23.088  1.00  0.00     0.015 A 
ATOM     26  C   UNL A   1      28.837  30.634  22.081  1.00  0.00     0.001 A 
ATOM     27  C   UNL A   1      27.631  28.845  23.167  1.00  0.00     0.001 A 
ATOM     28  C   UNL A   1      27.661  30.136  22.643  1.00  0.00     0.000 A 
ENDBRANCH  22  23
ENDBRANCH  13  22
ENDBRANCH   5   7
ENDBRANCH   2   3
ENDBRANCH   1   2
BRANCH   1  29
ATOM     29  C   UNL A   1      36.947  23.656  24.974  1.00  0.00     0.118 C 
BRANCH  29  30
ATOM     30  N   UNL A   1      38.022  22.729  25.302  1.00  0.00    -0.352 N 
ATOM     31  C   UNL A   1      39.133  22.916  26.108  1.00  0.00     0.251 C 
ATOM     32  H   UNL A   1      37.948  21.839  24.889  1.00  0.00     0.163 HD
ATOM     33  O   UNL A   1      39.940  22.011  26.237  1.00  0.00    -0.269 OA
BRANCH  31  34
ATOM     34  C   UNL A   1      39.373  24.227  26.766  1.00  0.00     0.039 A 
ATOM     35  C   UNL A   1      38.912  24.425  28.072  1.00  0.00     0.014 A 
ATOM     36  C   UNL A   1      40.075  25.248  26.127  1.00  0.00     0.014 A 
ATOM     37  C   UNL A   1      39.236  25.603  28.755  1.00  0.00     0.010 A 
ATOM     38  C   UNL A   1      40.520  26.345  26.852  1.00  0.00     0.010 A 
ATOM     39  C   UNL A   1      40.086  26.554  28.167  1.00  0.00    -0.014 A 
BRANCH  39  40
ATOM     40  C   UNL A   1      40.496  27.794  28.878  1.00  0.00     0.031 A 
ATOM     41  C   UNL A   1      41.862  27.874  29.519  1.00  0.00     0.074 A 
ATOM     42  C   UNL A   1      39.623  28.812  29.023  1.00  0.00     0.049 A 
ATOM     43  N   UNL A   1      42.375  28.822  30.260  1.00  0.00    -0.248 NA
ATOM     44  C   UNL A   1      42.747  26.709  29.349  1.00  0.00     0.031 C 
ATOM     45  C   UNL A   1      38.245  28.834  28.522  1.00  0.00     0.029 A 
ATOM     46  N   UNL A   1      39.766  30.031  29.638  1.00  0.00    -0.354 N 
ATOM     47  C   UNL A   1      43.614  28.346  30.678  1.00  0.00     0.074 A 
ATOM     48  C   UNL A   1      43.744  27.001  30.168  1.00  0.00     0.031 C 
ATOM     49  C   UNL A   1      37.689  30.022  28.809  1.00  0.00     0.029 A 
ATOM     50  C   UNL A   1      38.654  30.834  29.542  1.00  0.00     0.049 A 
ATOM     51  H   UNL A   1      40.589  30.306  30.104  1.00  0.00     0.167 HD
ATOM     52  C   UNL A   1      44.576  28.980  31.390  1.00  0.00     0.031 A 
ATOM     53  C   UNL A   1      38.438  32.088  29.985  1.00  0.00     0.031 A 
ATOM     54  C   UNL A   1      44.467  30.340  31.841  1.00  0.00     0.049 A 
ATOM     55  C   UNL A   1      39.551  32.807  30.697  1.00  0.00     0.074 A 
ATOM     56  C   UNL A   1      45.410  31.110  32.496  1.00  0.00     0.029 A 
ATOM     57  N   UNL A   1      43.349  31.140  31.661  1.00  0.00    -0.354 N 
ATOM     58  N   UNL A   1      40.742  32.362  31.027  1.00  0.00    -0.248 NA
ATOM     59  C   UNL A   1      39.303  34.205  31.072  1.00  0.00     0.031 C 
ATOM     60  C   UNL A   1      44.850  32.369  32.742  1.00  0.00     0.029 A 
ATOM     61  C   UNL A   1      43.576  32.396  32.195  1.00  0.00     0.049 A 
ATOM     62  H   UNL A   1      42.517  30.856  31.219  1.00  0.00     0.167 HD
ATOM     63  C   UNL A   1      41.393  33.434  31.625  1.00  0.00     0.074 A 
ATOM     64  C   UNL A   1      40.471  34.552  31.593  1.00  0.00     0.031 C 
ATOM     65  C   UNL A   1      42.642  33.491  32.153  1.00  0.00     0.031 A 
BRANCH  52  66
ATOM     66  C   UNL A   1      45.829  28.203  31.706  1.00  0.00    -0.014 A 
ATOM     67  C   UNL A   1      45.930  27.428  32.877  1.00  0.00     0.010 A 
ATOM     68  C   UNL A   1      46.922  28.248  30.823  1.00  0.00     0.010 A 
ATOM     69  C   UNL A   1      47.120  26.765  33.189  1.00  0.00     0.020 A 
ATOM     70  C   UNL A   1      48.104  27.558  31.115  1.00  0.00     0.020 A 
ATOM     71  C   UNL A   1      48.203  26.841  32.309  1.00  0.00     0.054 A 
BRANCH  71  72
ATOM     72  S   UNL A   1      49.735  25.971  32.738  1.00  0.00     0.124 S 
ATOM     73  O   UNL A   1      49.798  24.947  31.699  1.00  0.00    -0.237 OA
ATOM     74  O   UNL A   1      50.742  27.024  32.644  1.00  0.00    -0.237 OA
ATOM     75  O   UNL A   1      49.484  25.473  34.088  1.00  0.00    -0.744 OA
ENDBRANCH  71  72
ENDBRANCH  52  66
BRANCH  53  76
ATOM     76  C   UNL A   1      37.138  32.760  29.714  1.00  0.00    -0.014 A 
ATOM     77  C   UNL A   1      36.077  32.651  30.631  1.00  0.00     0.010 A 
ATOM     78  C   UNL A   1      36.960  33.536  28.554  1.00  0.00     0.010 A 
ATOM     79  C   UNL A   1      34.858  33.292  30.386  1.00  0.00     0.020 A 
ATOM     80  C   UNL A   1      35.752  34.199  28.318  1.00  0.00     0.020 A 
ATOM     81  C   UNL A   1      34.704  34.064  29.233  1.00  0.00     0.054 A 
BRANCH  81  82
ATOM     82  S   UNL A   1      33.137  34.941  28.969  1.00  0.00     0.124 S 
ATOM     83  O   UNL A   1      33.591  36.235  28.472  1.00  0.00    -0.237 OA
ATOM     84  O   UNL A   1      32.459  34.089  27.995  1.00  0.00    -0.237 OA
ATOM     85  O   UNL A   1      32.528  34.958  30.298  1.00  0.00    -0.744 OA
ENDBRANCH  81  82
ENDBRANCH  53  76
BRANCH  65  86
ATOM     86  C   UNL A   1      43.092  34.818  32.700  1.00  0.00    -0.014 A 
ATOM     87  C   UNL A   1      43.690  35.784  31.873  1.00  0.00     0.010 A 
ATOM     88  C   UNL A   1      42.890  35.107  34.062  1.00  0.00     0.010 A 
ATOM     89  C   UNL A   1      44.127  36.998  32.409  1.00  0.00     0.020 A 
ATOM     90  C   UNL A   1      43.299  36.331  34.595  1.00  0.00     0.020 A 
ATOM     91  C   UNL A   1      43.936  37.260  33.769  1.00  0.00     0.054 A 
BRANCH  91  92
ATOM     92  S   UNL A   1      44.504  38.844  34.444  1.00  0.00     0.124 S 
ATOM     93  O   UNL A   1      43.364  39.714  34.171  1.00  0.00    -0.237 OA
ATOM     94  O   UNL A   1      44.734  38.531  35.852  1.00  0.00    -0.237 OA
ATOM     95  O   UNL A   1      45.710  39.134  33.673  1.00  0.00    -0.744 OA
ENDBRANCH  91  92
ENDBRANCH  65  86
ENDBRANCH  39  40
ENDBRANCH  31  34
ENDBRANCH  29  30
ENDBRANCH   1  29
TORSDOF 16
ENDMDL
