MODEL 1
REMARK VINA RESULT:     -13.4      0.000      0.000
REMARK SMILES Cc1cc2nc(NC(=O)[C@H]3[C@@H](C(=O)NCCCNC(=O)c4ccc(-c5c6nc(c(-c7ccc(S(=O)(=O)[O-])cc7)c7ccc([nH]7)c(-c7ccc(S(=O)(=O)[O-])cc7)c7nc(c(-c8ccc(S(=O)(=O)[O-])cc8)c8ccc5[nH]8)C=C7)C=C6)cc4)[C@@H]4C=C[C@H]3C4)sc2cc1C
REMARK SMILES IDX 16 1 15 2 14 3 12 4 13 5 11 7 10 8 84 9 81 10 83 11 85 12
REMARK SMILES IDX 82 13 8 14 7 15 9 17 6 18 1 19 2 20 3 21 89 22 4 23 88 24
REMARK SMILES IDX 90 25 5 26 87 27 86 28 17 29 18 30 19 31 20 33 21 34 22 35
REMARK SMILES IDX 80 36 23 37 79 38 24 39 25 40 26 41 73 42 27 43 78 44 72 45
REMARK SMILES IDX 74 46 28 47 77 48 71 49 70 50 29 52 59 53 40 54 58 55 41 56
REMARK SMILES IDX 44 57 57 58 75 59 42 60 43 61 56 63 76 64 45 65 30 66 31 67
REMARK SMILES IDX 39 68 32 69 38 70 33 71 34 72 35 73 36 74 37 75 60 76 61 77
REMARK SMILES IDX 69 78 62 79 68 80 63 81 64 82 65 83 66 84 67 85 46 86 47 87
REMARK SMILES IDX 55 88 48 89 54 90 49 91 50 92 51 93 52 94 53 95
REMARK H PARENT 14 6 7 16 18 32 74 51 44 62
REMARK Flexibility Score: inf
ROOT
ATOM      1  C   UNL A   1      38.816  22.435  25.654  1.00  0.00     0.042 C 
ENDROOT
BRANCH   1   2
ATOM      2  C   UNL A   1      37.460  21.784  25.932  1.00  0.00     0.117 C 
BRANCH   2   3
ATOM      3  N   UNL A   1      36.469  22.737  26.401  1.00  0.00    -0.356 N 
ATOM      4  C   UNL A   1      35.134  22.821  26.142  1.00  0.00     0.224 C 
ATOM      5  O   UNL A   1      34.507  23.735  26.678  1.00  0.00    -0.275 OA
ATOM      6  H   UNL A   1      36.818  23.435  27.003  1.00  0.00     0.163 HD
BRANCH   4   7
ATOM      7  C   UNL A   1      34.471  21.742  25.297  1.00  0.00     0.098 C 
ATOM      8  C   UNL A   1      34.347  22.031  23.752  1.00  0.00     0.099 C 
ATOM      9  C   UNL A   1      32.820  22.012  23.545  1.00  0.00     0.025 C 
ATOM     10  C   UNL A   1      32.987  21.593  25.742  1.00  0.00     0.025 C 
ATOM     11  C   UNL A   1      32.317  20.597  23.789  1.00  0.00    -0.027 C 
ATOM     12  C   UNL A   1      32.298  22.627  24.852  1.00  0.00     0.017 C 
ATOM     13  C   UNL A   1      32.410  20.355  25.105  1.00  0.00    -0.027 C 
BRANCH   8  14
ATOM     14  C   UNL A   1      35.296  23.132  23.245  1.00  0.00     0.230 C 
ATOM     15  N   UNL A   1      35.088  24.466  23.153  1.00  0.00    -0.302 N 
ATOM     16  H   UNL A   1      35.884  24.995  22.921  1.00  0.00     0.172 HD
ATOM     17  O   UNL A   1      36.456  22.772  22.965  1.00  0.00    -0.274 OA
BRANCH  15  18
ATOM     18  C   UNL A   1      33.953  25.188  23.330  1.00  0.00     0.190 A 
ATOM     19  C   UNL A   1      30.961  29.979  25.036  1.00  0.00     0.044 C 
ATOM     20  C   UNL A   1      31.138  28.690  24.278  1.00  0.00    -0.046 A 
ATOM     21  C   UNL A   1      32.135  27.832  24.765  1.00  0.00     0.033 A 
ATOM     22  C   UNL A   1      30.480  28.362  23.080  1.00  0.00    -0.047 A 
ATOM     23  C   UNL A   1      32.566  26.729  24.012  1.00  0.00     0.084 A 
ATOM     24  C   UNL A   1      30.892  27.233  22.326  1.00  0.00     0.025 A 
ATOM     25  C   UNL A   1      29.316  29.144  22.534  1.00  0.00     0.044 C 
ATOM     26  N   UNL A   1      33.604  25.902  24.356  1.00  0.00    -0.220 NA
ATOM     27  C   UNL A   1      31.973  26.464  22.783  1.00  0.00     0.057 A 
ATOM     28  S   UNL A   1      32.827  25.150  22.045  1.00  0.00    -0.097 S 
ENDBRANCH  15  18
ENDBRANCH   8  14
ENDBRANCH   4   7
ENDBRANCH   2   3
ENDBRANCH   1   2
BRANCH   1  29
ATOM     29  C   UNL A   1      40.001  21.751  26.341  1.00  0.00     0.118 C 
BRANCH  29  30
ATOM     30  N   UNL A   1      41.283  21.962  25.694  1.00  0.00    -0.352 N 
ATOM     31  C   UNL A   1      42.252  22.924  25.729  1.00  0.00     0.251 C 
ATOM     32  H   UNL A   1      41.512  21.229  25.078  1.00  0.00     0.163 HD
ATOM     33  O   UNL A   1      43.282  22.659  25.100  1.00  0.00    -0.269 OA
BRANCH  31  34
ATOM     34  C   UNL A   1      42.143  24.251  26.394  1.00  0.00     0.039 A 
ATOM     35  C   UNL A   1      42.640  24.580  27.654  1.00  0.00     0.014 A 
ATOM     36  C   UNL A   1      41.419  25.232  25.683  1.00  0.00     0.014 A 
ATOM     37  C   UNL A   1      42.339  25.817  28.226  1.00  0.00     0.010 A 
ATOM     38  C   UNL A   1      41.130  26.472  26.243  1.00  0.00     0.010 A 
ATOM     39  C   UNL A   1      41.550  26.747  27.537  1.00  0.00    -0.014 A 
BRANCH  39  40
ATOM     40  C   UNL A   1      41.277  28.034  28.177  1.00  0.00     0.031 A 
ATOM     41  C   UNL A   1      42.330  29.062  27.975  1.00  0.00     0.074 A 
ATOM     42  C   UNL A   1      40.137  28.351  28.827  1.00  0.00     0.049 A 
ATOM     43  N   UNL A   1      43.132  29.553  28.859  1.00  0.00    -0.248 NA
ATOM     44  C   UNL A   1      42.595  29.518  26.602  1.00  0.00     0.031 C 
ATOM     45  C   UNL A   1      38.886  27.586  28.857  1.00  0.00     0.029 A 
ATOM     46  N   UNL A   1      39.823  29.479  29.534  1.00  0.00    -0.354 N 
ATOM     47  C   UNL A   1      43.859  30.542  28.203  1.00  0.00     0.074 A 
ATOM     48  C   UNL A   1      43.610  30.362  26.796  1.00  0.00     0.031 C 
ATOM     49  C   UNL A   1      37.893  28.367  29.341  1.00  0.00     0.029 A 
ATOM     50  C   UNL A   1      38.471  29.610  29.824  1.00  0.00     0.049 A 
ATOM     51  H   UNL A   1      40.498  30.141  29.814  1.00  0.00     0.167 HD
ATOM     52  C   UNL A   1      44.406  31.586  28.885  1.00  0.00     0.031 A 
ATOM     53  C   UNL A   1      37.857  30.659  30.422  1.00  0.00     0.031 A 
ATOM     54  C   UNL A   1      44.408  31.354  30.304  1.00  0.00     0.049 A 
ATOM     55  C   UNL A   1      38.859  31.374  31.240  1.00  0.00     0.074 A 
ATOM     56  C   UNL A   1      45.189  30.679  31.214  1.00  0.00     0.029 A 
ATOM     57  N   UNL A   1      43.216  31.639  30.914  1.00  0.00    -0.354 N 
ATOM     58  N   UNL A   1      39.448  30.846  32.276  1.00  0.00    -0.248 NA
ATOM     59  C   UNL A   1      39.441  32.618  30.749  1.00  0.00     0.031 C 
ATOM     60  C   UNL A   1      44.357  30.428  32.345  1.00  0.00     0.029 A 
ATOM     61  C   UNL A   1      43.102  30.987  32.114  1.00  0.00     0.049 A 
ATOM     62  H   UNL A   1      42.529  32.237  30.539  1.00  0.00     0.167 HD
ATOM     63  C   UNL A   1      40.688  31.448  32.302  1.00  0.00     0.074 A 
ATOM     64  C   UNL A   1      40.567  32.633  31.465  1.00  0.00     0.031 C 
ATOM     65  C   UNL A   1      41.798  30.775  32.713  1.00  0.00     0.031 A 
BRANCH  52  66
ATOM     66  C   UNL A   1      44.538  32.989  28.333  1.00  0.00    -0.014 A 
ATOM     67  C   UNL A   1      43.459  33.893  28.258  1.00  0.00     0.010 A 
ATOM     68  C   UNL A   1      45.827  33.525  28.125  1.00  0.00     0.010 A 
ATOM     69  C   UNL A   1      43.642  35.247  27.966  1.00  0.00     0.020 A 
ATOM     70  C   UNL A   1      46.027  34.891  27.867  1.00  0.00     0.020 A 
ATOM     71  C   UNL A   1      44.927  35.741  27.780  1.00  0.00     0.054 A 
BRANCH  71  72
ATOM     72  S   UNL A   1      45.128  37.517  27.490  1.00  0.00     0.124 S 
ATOM     73  O   UNL A   1      45.395  38.011  28.842  1.00  0.00    -0.237 OA
ATOM     74  O   UNL A   1      46.270  37.555  26.576  1.00  0.00    -0.237 OA
ATOM     75  O   UNL A   1      43.855  37.922  26.916  1.00  0.00    -0.744 OA
ENDBRANCH  71  72
ENDBRANCH  52  66
BRANCH  53  76
ATOM     76  C   UNL A   1      36.561  31.289  30.064  1.00  0.00    -0.014 A 
ATOM     77  C   UNL A   1      36.321  31.662  28.727  1.00  0.00     0.010 A 
ATOM     78  C   UNL A   1      35.733  31.837  31.064  1.00  0.00     0.010 A 
ATOM     79  C   UNL A   1      35.358  32.626  28.408  1.00  0.00     0.020 A 
ATOM     80  C   UNL A   1      34.765  32.804  30.751  1.00  0.00     0.020 A 
ATOM     81  C   UNL A   1      34.614  33.222  29.427  1.00  0.00     0.054 A 
BRANCH  81  82
ATOM     82  S   UNL A   1      33.529  34.616  29.001  1.00  0.00     0.124 S 
ATOM     83  O   UNL A   1      32.614  34.006  28.041  1.00  0.00    -0.237 OA
ATOM     84  O   UNL A   1      32.943  34.964  30.293  1.00  0.00    -0.237 OA
ATOM     85  O   UNL A   1      34.444  35.611  28.448  1.00  0.00    -0.744 OA
ENDBRANCH  81  82
ENDBRANCH  53  76
BRANCH  65  86
ATOM     86  C   UNL A   1      41.648  29.639  33.686  1.00  0.00    -0.014 A 
ATOM     87  C   UNL A   1      41.797  29.955  35.049  1.00  0.00     0.010 A 
ATOM     88  C   UNL A   1      41.494  28.289  33.319  1.00  0.00     0.010 A 
ATOM     89  C   UNL A   1      41.851  28.957  36.018  1.00  0.00     0.020 A 
ATOM     90  C   UNL A   1      41.523  27.278  34.295  1.00  0.00     0.020 A 
ATOM     91  C   UNL A   1      41.731  27.621  35.636  1.00  0.00     0.054 A 
BRANCH  91  92
ATOM     92  S   UNL A   1      41.882  26.354  36.924  1.00  0.00     0.124 S 
ATOM     93  O   UNL A   1      42.258  25.172  36.151  1.00  0.00    -0.237 OA
ATOM     94  O   UNL A   1      42.932  26.893  37.785  1.00  0.00    -0.237 OA
ATOM     95  O   UNL A   1      40.553  26.302  37.528  1.00  0.00    -0.744 OA
ENDBRANCH  91  92
ENDBRANCH  65  86
ENDBRANCH  39  40
ENDBRANCH  31  34
ENDBRANCH  29  30
ENDBRANCH   1  29
TORSDOF 15
ENDMDL
MODEL 2
REMARK VINA RESULT:     -13.3      4.015      7.908
REMARK SMILES Cc1cc2nc(NC(=O)[C@H]3[C@@H](C(=O)NCCCNC(=O)c4ccc(-c5c6nc(c(-c7ccc(S(=O)(=O)[O-])cc7)c7ccc([nH]7)c(-c7ccc(S(=O)(=O)[O-])cc7)c7nc(c(-c8ccc(S(=O)(=O)[O-])cc8)c8ccc5[nH]8)C=C7)C=C6)cc4)[C@@H]4C=C[C@H]3C4)sc2cc1C
REMARK SMILES IDX 16 1 15 2 14 3 12 4 13 5 11 7 10 8 84 9 81 10 83 11 85 12
REMARK SMILES IDX 82 13 8 14 7 15 9 17 6 18 1 19 2 20 3 21 89 22 4 23 88 24
REMARK SMILES IDX 90 25 5 26 87 27 86 28 17 29 18 30 19 31 20 33 21 34 22 35
REMARK SMILES IDX 80 36 23 37 79 38 24 39 25 40 26 41 73 42 27 43 78 44 72 45
REMARK SMILES IDX 74 46 28 47 77 48 71 49 70 50 29 52 59 53 40 54 58 55 41 56
REMARK SMILES IDX 44 57 57 58 75 59 42 60 43 61 56 63 76 64 45 65 30 66 31 67
REMARK SMILES IDX 39 68 32 69 38 70 33 71 34 72 35 73 36 74 37 75 60 76 61 77
REMARK SMILES IDX 69 78 62 79 68 80 63 81 64 82 65 83 66 84 67 85 46 86 47 87
REMARK SMILES IDX 55 88 48 89 54 90 49 91 50 92 51 93 52 94 53 95
REMARK H PARENT 14 6 7 16 18 32 74 51 44 62
REMARK Flexibility Score: inf
ROOT
ATOM      1  C   UNL A   1      42.402  20.470  26.144  1.00  0.00     0.042 C 
ENDROOT
BRANCH   1   2
ATOM      2  C   UNL A   1      42.859  21.770  25.480  1.00  0.00     0.117 C 
BRANCH   2   3
ATOM      3  N   UNL A   1      44.301  21.940  25.522  1.00  0.00    -0.356 N 
ATOM      4  C   UNL A   1      45.073  22.724  26.325  1.00  0.00     0.224 C 
ATOM      5  O   UNL A   1      46.293  22.681  26.160  1.00  0.00    -0.275 OA
ATOM      6  H   UNL A   1      44.801  21.402  24.865  1.00  0.00     0.163 HD
BRANCH   4   7
ATOM      7  C   UNL A   1      44.414  23.529  27.436  1.00  0.00     0.098 C 
ATOM      8  C   UNL A   1      44.279  25.082  27.199  1.00  0.00     0.099 C 
ATOM      9  C   UNL A   1      45.110  25.656  28.365  1.00  0.00     0.025 C 
ATOM     10  C   UNL A   1      45.300  23.448  28.712  1.00  0.00     0.025 C 
ATOM     11  C   UNL A   1      44.401  25.327  29.670  1.00  0.00    -0.027 C 
ATOM     12  C   UNL A   1      46.244  24.630  28.501  1.00  0.00     0.017 C 
ATOM     13  C   UNL A   1      44.526  24.008  29.879  1.00  0.00    -0.027 C 
BRANCH   8  14
ATOM     14  C   UNL A   1      44.414  25.502  25.725  1.00  0.00     0.230 C 
ATOM     15  N   UNL A   1      45.477  26.034  25.080  1.00  0.00    -0.302 N 
ATOM     16  H   UNL A   1      45.378  26.104  24.103  1.00  0.00     0.172 HD
ATOM     17  O   UNL A   1      43.446  25.234  24.986  1.00  0.00    -0.274 OA
BRANCH  15  18
ATOM     18  C   UNL A   1      46.659  26.487  25.569  1.00  0.00     0.190 A 
ATOM     19  C   UNL A   1      50.128  28.644  29.827  1.00  0.00     0.044 C 
ATOM     20  C   UNL A   1      49.862  27.966  28.510  1.00  0.00    -0.046 A 
ATOM     21  C   UNL A   1      48.594  28.196  27.954  1.00  0.00     0.033 A 
ATOM     22  C   UNL A   1      50.723  27.045  27.887  1.00  0.00    -0.047 A 
ATOM     23  C   UNL A   1      48.134  27.434  26.869  1.00  0.00     0.084 A 
ATOM     24  C   UNL A   1      50.274  26.289  26.774  1.00  0.00     0.025 A 
ATOM     25  C   UNL A   1      52.143  26.814  28.326  1.00  0.00     0.044 C 
ATOM     26  N   UNL A   1      46.876  27.513  26.332  1.00  0.00    -0.220 NA
ATOM     27  C   UNL A   1      48.959  26.459  26.318  1.00  0.00     0.057 A 
ATOM     28  S   UNL A   1      48.050  25.601  25.118  1.00  0.00    -0.097 S 
ENDBRANCH  15  18
ENDBRANCH   8  14
ENDBRANCH   4   7
ENDBRANCH   2   3
ENDBRANCH   1   2
BRANCH   1  29
ATOM     29  C   UNL A   1      41.321  20.650  27.214  1.00  0.00     0.118 C 
BRANCH  29  30
ATOM     30  N   UNL A   1      40.026  21.063  26.707  1.00  0.00    -0.352 N 
ATOM     31  C   UNL A   1      39.380  22.252  26.519  1.00  0.00     0.251 C 
ATOM     32  H   UNL A   1      39.475  20.296  26.429  1.00  0.00     0.163 HD
ATOM     33  O   UNL A   1      38.298  22.177  25.928  1.00  0.00    -0.269 OA
BRANCH  31  34
ATOM     34  C   UNL A   1      39.835  23.580  27.010  1.00  0.00     0.039 A 
ATOM     35  C   UNL A   1      40.853  23.807  27.935  1.00  0.00     0.014 A 
ATOM     36  C   UNL A   1      39.120  24.692  26.517  1.00  0.00     0.014 A 
ATOM     37  C   UNL A   1      41.081  25.094  28.425  1.00  0.00     0.010 A 
ATOM     38  C   UNL A   1      39.354  25.978  26.990  1.00  0.00     0.010 A 
ATOM     39  C   UNL A   1      40.305  26.174  27.982  1.00  0.00    -0.014 A 
BRANCH  39  40
ATOM     40  C   UNL A   1      40.597  27.503  28.517  1.00  0.00     0.031 A 
ATOM     41  C   UNL A   1      41.882  28.088  28.058  1.00  0.00     0.074 A 
ATOM     42  C   UNL A   1      39.761  28.229  29.290  1.00  0.00     0.049 A 
ATOM     43  N   UNL A   1      42.943  28.309  28.760  1.00  0.00    -0.248 NA
ATOM     44  C   UNL A   1      42.045  28.356  26.621  1.00  0.00     0.031 C 
ATOM     45  C   UNL A   1      38.350  27.952  29.581  1.00  0.00     0.029 A 
ATOM     46  N   UNL A   1      39.972  29.428  29.913  1.00  0.00    -0.354 N 
ATOM     47  C   UNL A   1      43.836  28.949  27.906  1.00  0.00     0.074 A 
ATOM     48  C   UNL A   1      43.301  28.801  26.576  1.00  0.00     0.031 C 
ATOM     49  C   UNL A   1      37.778  29.054  30.120  1.00  0.00     0.029 A 
ATOM     50  C   UNL A   1      38.815  30.037  30.381  1.00  0.00     0.049 A 
ATOM     51  H   UNL A   1      40.867  29.825  30.021  1.00  0.00     0.167 HD
ATOM     52  C   UNL A   1      44.812  29.767  28.388  1.00  0.00     0.031 A 
ATOM     53  C   UNL A   1      38.703  31.262  30.949  1.00  0.00     0.031 A 
ATOM     54  C   UNL A   1      44.980  29.617  29.807  1.00  0.00     0.049 A 
ATOM     55  C   UNL A   1      40.013  31.620  31.534  1.00  0.00     0.074 A 
ATOM     56  C   UNL A   1      45.632  28.756  30.660  1.00  0.00     0.029 A 
ATOM     57  N   UNL A   1      44.079  30.330  30.551  1.00  0.00    -0.354 N 
ATOM     58  N   UNL A   1      40.559  30.970  32.523  1.00  0.00    -0.248 NA
ATOM     59  C   UNL A   1      40.886  32.557  30.836  1.00  0.00     0.031 C 
ATOM     60  C   UNL A   1      44.973  28.866  31.920  1.00  0.00     0.029 A 
ATOM     61  C   UNL A   1      43.960  29.817  31.817  1.00  0.00     0.049 A 
ATOM     62  H   UNL A   1      43.579  31.111  30.219  1.00  0.00     0.167 HD
ATOM     63  C   UNL A   1      41.914  31.100  32.305  1.00  0.00     0.074 A 
ATOM     64  C   UNL A   1      42.056  32.212  31.375  1.00  0.00     0.031 C 
ATOM     65  C   UNL A   1      42.785  30.102  32.618  1.00  0.00     0.031 A 
BRANCH  52  66
ATOM     66  C   UNL A   1      45.311  31.008  27.679  1.00  0.00    -0.014 A 
ATOM     67  C   UNL A   1      44.660  32.256  27.757  1.00  0.00     0.010 A 
ATOM     68  C   UNL A   1      46.612  31.006  27.131  1.00  0.00     0.010 A 
ATOM     69  C   UNL A   1      45.252  33.433  27.294  1.00  0.00     0.020 A 
ATOM     70  C   UNL A   1      47.231  32.189  26.696  1.00  0.00     0.020 A 
ATOM     71  C   UNL A   1      46.540  33.396  26.772  1.00  0.00     0.054 A 
BRANCH  71  72
ATOM     72  S   UNL A   1      47.303  34.956  26.263  1.00  0.00     0.124 S 
ATOM     73  O   UNL A   1      46.145  35.849  26.209  1.00  0.00    -0.237 OA
ATOM     74  O   UNL A   1      48.241  35.215  27.356  1.00  0.00    -0.237 OA
ATOM     75  O   UNL A   1      47.911  34.643  24.979  1.00  0.00    -0.744 OA
ENDBRANCH  71  72
ENDBRANCH  52  66
BRANCH  53  76
ATOM     76  C   UNL A   1      37.654  32.287  30.720  1.00  0.00    -0.014 A 
ATOM     77  C   UNL A   1      36.366  32.088  31.253  1.00  0.00     0.010 A 
ATOM     78  C   UNL A   1      37.809  33.253  29.705  1.00  0.00     0.010 A 
ATOM     79  C   UNL A   1      35.254  32.753  30.724  1.00  0.00     0.020 A 
ATOM     80  C   UNL A   1      36.698  33.924  29.170  1.00  0.00     0.020 A 
ATOM     81  C   UNL A   1      35.421  33.636  29.657  1.00  0.00     0.054 A 
BRANCH  81  82
ATOM     82  S   UNL A   1      33.937  34.315  28.859  1.00  0.00     0.124 S 
ATOM     83  O   UNL A   1      33.474  33.180  28.065  1.00  0.00    -0.237 OA
ATOM     84  O   UNL A   1      33.098  34.666  30.001  1.00  0.00    -0.237 OA
ATOM     85  O   UNL A   1      34.444  35.450  28.091  1.00  0.00    -0.744 OA
ENDBRANCH  81  82
ENDBRANCH  53  76
BRANCH  65  86
ATOM     86  C   UNL A   1      42.431  29.138  33.716  1.00  0.00    -0.014 A 
ATOM     87  C   UNL A   1      42.912  29.447  35.001  1.00  0.00     0.010 A 
ATOM     88  C   UNL A   1      41.771  27.912  33.518  1.00  0.00     0.010 A 
ATOM     89  C   UNL A   1      42.793  28.539  36.051  1.00  0.00     0.020 A 
ATOM     90  C   UNL A   1      41.625  27.002  34.579  1.00  0.00     0.020 A 
ATOM     91  C   UNL A   1      42.165  27.313  35.832  1.00  0.00     0.054 A 
BRANCH  91  92
ATOM     92  S   UNL A   1      42.101  26.136  37.210  1.00  0.00     0.124 S 
ATOM     93  O   UNL A   1      42.525  24.892  36.572  1.00  0.00    -0.237 OA
ATOM     94  O   UNL A   1      43.052  26.703  38.163  1.00  0.00    -0.237 OA
ATOM     95  O   UNL A   1      40.704  26.168  37.638  1.00  0.00    -0.744 OA
ENDBRANCH  91  92
ENDBRANCH  65  86
ENDBRANCH  39  40
ENDBRANCH  31  34
ENDBRANCH  29  30
ENDBRANCH   1  29
TORSDOF 15
ENDMDL
MODEL 3
REMARK VINA RESULT:     -13.2      2.808      9.644
REMARK SMILES Cc1cc2nc(NC(=O)[C@H]3[C@@H](C(=O)NCCCNC(=O)c4ccc(-c5c6nc(c(-c7ccc(S(=O)(=O)[O-])cc7)c7ccc([nH]7)c(-c7ccc(S(=O)(=O)[O-])cc7)c7nc(c(-c8ccc(S(=O)(=O)[O-])cc8)c8ccc5[nH]8)C=C7)C=C6)cc4)[C@@H]4C=C[C@H]3C4)sc2cc1C
REMARK SMILES IDX 16 1 15 2 14 3 12 4 13 5 11 7 10 8 84 9 81 10 83 11 85 12
REMARK SMILES IDX 82 13 8 14 7 15 9 17 6 18 1 19 2 20 3 21 89 22 4 23 88 24
REMARK SMILES IDX 90 25 5 26 87 27 86 28 17 29 18 30 19 31 20 33 21 34 22 35
REMARK SMILES IDX 80 36 23 37 79 38 24 39 25 40 26 41 73 42 27 43 78 44 72 45
REMARK SMILES IDX 74 46 28 47 77 48 71 49 70 50 29 52 59 53 40 54 58 55 41 56
REMARK SMILES IDX 44 57 57 58 75 59 42 60 43 61 56 63 76 64 45 65 30 66 31 67
REMARK SMILES IDX 39 68 32 69 38 70 33 71 34 72 35 73 36 74 37 75 60 76 61 77
REMARK SMILES IDX 69 78 62 79 68 80 63 81 64 82 65 83 66 84 67 85 46 86 47 87
REMARK SMILES IDX 55 88 48 89 54 90 49 91 50 92 51 93 52 94 53 95
REMARK H PARENT 14 6 7 16 18 32 74 51 44 62
REMARK Flexibility Score: inf
ROOT
ATOM      1  C   UNL A   1      34.437  30.767  27.895  1.00  0.00     0.042 C 
ENDROOT
BRANCH   1   2
ATOM      2  C   UNL A   1      33.602  30.345  26.685  1.00  0.00     0.117 C 
BRANCH   2   3
ATOM      3  N   UNL A   1      34.150  29.183  26.007  1.00  0.00    -0.356 N 
ATOM      4  C   UNL A   1      33.578  28.336  25.107  1.00  0.00     0.224 C 
ATOM      5  O   UNL A   1      34.271  27.417  24.669  1.00  0.00    -0.275 OA
ATOM      6  H   UNL A   1      35.086  28.975  26.234  1.00  0.00     0.163 HD
BRANCH   4   7
ATOM      7  C   UNL A   1      32.164  28.617  24.615  1.00  0.00     0.098 C 
ATOM      8  C   UNL A   1      30.992  27.905  25.392  1.00  0.00     0.099 C 
ATOM      9  C   UNL A   1      30.350  27.045  24.285  1.00  0.00     0.025 C 
ATOM     10  C   UNL A   1      32.012  28.059  23.170  1.00  0.00     0.025 C 
ATOM     11  C   UNL A   1      29.723  27.973  23.256  1.00  0.00    -0.027 C 
ATOM     12  C   UNL A   1      31.565  26.624  23.445  1.00  0.00     0.017 C 
ATOM     13  C   UNL A   1      30.720  28.569  22.585  1.00  0.00    -0.027 C 
BRANCH   8  14
ATOM     14  C   UNL A   1      31.387  27.398  26.791  1.00  0.00     0.230 C 
ATOM     15  N   UNL A   1      31.955  26.222  27.146  1.00  0.00    -0.302 N 
ATOM     16  H   UNL A   1      32.239  26.166  28.087  1.00  0.00     0.172 HD
ATOM     17  O   UNL A   1      31.259  28.211  27.727  1.00  0.00    -0.274 OA
BRANCH  15  18
ATOM     18  C   UNL A   1      32.194  25.109  26.409  1.00  0.00     0.190 A 
ATOM     19  C   UNL A   1      35.393  20.405  24.843  1.00  0.00     0.044 C 
ATOM     20  C   UNL A   1      34.130  21.221  24.917  1.00  0.00    -0.046 A 
ATOM     21  C   UNL A   1      34.307  22.591  25.165  1.00  0.00     0.033 A 
ATOM     22  C   UNL A   1      32.826  20.695  24.885  1.00  0.00    -0.047 A 
ATOM     23  C   UNL A   1      33.217  23.408  25.501  1.00  0.00     0.084 A 
ATOM     24  C   UNL A   1      31.717  21.521  25.200  1.00  0.00     0.025 A 
ATOM     25  C   UNL A   1      32.518  19.272  24.509  1.00  0.00     0.044 C 
ATOM     26  N   UNL A   1      33.308  24.727  25.864  1.00  0.00    -0.220 NA
ATOM     27  C   UNL A   1      31.941  22.859  25.559  1.00  0.00     0.057 A 
ATOM     28  S   UNL A   1      30.858  24.075  26.151  1.00  0.00    -0.097 S 
ENDBRANCH  15  18
ENDBRANCH   8  14
ENDBRANCH   4   7
ENDBRANCH   2   3
ENDBRANCH   1   2
BRANCH   1  29
ATOM     29  C   UNL A   1      34.242  32.224  28.324  1.00  0.00     0.118 C 
BRANCH  29  30
ATOM     30  N   UNL A   1      34.208  32.437  29.759  1.00  0.00    -0.352 N 
ATOM     31  C   UNL A   1      35.060  32.215  30.804  1.00  0.00     0.251 C 
ATOM     32  H   UNL A   1      33.361  32.842  30.053  1.00  0.00     0.163 HD
ATOM     33  O   UNL A   1      34.689  32.667  31.892  1.00  0.00    -0.269 OA
BRANCH  31  34
ATOM     34  C   UNL A   1      36.331  31.443  30.746  1.00  0.00     0.039 A 
ATOM     35  C   UNL A   1      37.512  31.855  30.131  1.00  0.00     0.014 A 
ATOM     36  C   UNL A   1      36.293  30.160  31.331  1.00  0.00     0.014 A 
ATOM     37  C   UNL A   1      38.588  30.973  30.018  1.00  0.00     0.010 A 
ATOM     38  C   UNL A   1      37.369  29.283  31.234  1.00  0.00     0.010 A 
ATOM     39  C   UNL A   1      38.502  29.673  30.534  1.00  0.00    -0.014 A 
BRANCH  39  40
ATOM     40  C   UNL A   1      39.664  28.796  30.401  1.00  0.00     0.031 A 
ATOM     41  C   UNL A   1      40.419  28.571  31.659  1.00  0.00     0.074 A 
ATOM     42  C   UNL A   1      40.014  28.138  29.275  1.00  0.00     0.049 A 
ATOM     43  N   UNL A   1      41.607  28.984  31.950  1.00  0.00    -0.248 NA
ATOM     44  C   UNL A   1      39.726  27.900  32.770  1.00  0.00     0.031 C 
ATOM     45  C   UNL A   1      39.227  27.992  28.046  1.00  0.00     0.029 A 
ATOM     46  N   UNL A   1      41.122  27.376  29.020  1.00  0.00    -0.354 N 
ATOM     47  C   UNL A   1      41.903  28.441  33.197  1.00  0.00     0.074 A 
ATOM     48  C   UNL A   1      40.661  27.930  33.721  1.00  0.00     0.031 C 
ATOM     49  C   UNL A   1      39.767  27.017  27.279  1.00  0.00     0.029 A 
ATOM     50  C   UNL A   1      41.029  26.605  27.869  1.00  0.00     0.049 A 
ATOM     51  H   UNL A   1      41.917  27.376  29.603  1.00  0.00     0.167 HD
ATOM     52  C   UNL A   1      43.189  28.228  33.588  1.00  0.00     0.031 A 
ATOM     53  C   UNL A   1      41.922  25.691  27.418  1.00  0.00     0.031 A 
ATOM     54  C   UNL A   1      44.125  28.905  32.732  1.00  0.00     0.049 A 
ATOM     55  C   UNL A   1      43.249  26.031  27.973  1.00  0.00     0.074 A 
ATOM     56  C   UNL A   1      44.641  30.174  32.604  1.00  0.00     0.029 A 
ATOM     57  N   UNL A   1      44.412  28.225  31.578  1.00  0.00    -0.354 N 
ATOM     58  N   UNL A   1      43.891  27.127  27.678  1.00  0.00    -0.248 NA
ATOM     59  C   UNL A   1      43.777  25.275  29.102  1.00  0.00     0.031 C 
ATOM     60  C   UNL A   1      45.109  30.282  31.261  1.00  0.00     0.029 A 
ATOM     61  C   UNL A   1      44.902  29.066  30.613  1.00  0.00     0.049 A 
ATOM     62  H   UNL A   1      44.282  27.257  31.457  1.00  0.00     0.167 HD
ATOM     63  C   UNL A   1      44.621  27.406  28.814  1.00  0.00     0.074 A 
ATOM     64  C   UNL A   1      44.651  26.165  29.575  1.00  0.00     0.031 C 
ATOM     65  C   UNL A   1      44.855  28.686  29.214  1.00  0.00     0.031 A 
BRANCH  52  66
ATOM     66  C   UNL A   1      43.635  27.074  34.459  1.00  0.00    -0.014 A 
ATOM     67  C   UNL A   1      43.143  25.761  34.311  1.00  0.00     0.010 A 
ATOM     68  C   UNL A   1      44.775  27.234  35.278  1.00  0.00     0.010 A 
ATOM     69  C   UNL A   1      43.729  24.670  34.960  1.00  0.00     0.020 A 
ATOM     70  C   UNL A   1      45.393  26.140  35.905  1.00  0.00     0.020 A 
ATOM     71  C   UNL A   1      44.857  24.864  35.748  1.00  0.00     0.054 A 
BRANCH  71  72
ATOM     72  S   UNL A   1      45.635  23.414  36.501  1.00  0.00     0.124 S 
ATOM     73  O   UNL A   1      47.006  23.519  35.999  1.00  0.00    -0.237 OA
ATOM     74  O   UNL A   1      45.472  23.681  37.930  1.00  0.00    -0.237 OA
ATOM     75  O   UNL A   1      44.864  22.296  35.982  1.00  0.00    -0.744 OA
ENDBRANCH  71  72
ENDBRANCH  52  66
BRANCH  53  76
ATOM     76  C   UNL A   1      41.649  24.355  26.832  1.00  0.00    -0.014 A 
ATOM     77  C   UNL A   1      40.757  23.483  27.486  1.00  0.00     0.010 A 
ATOM     78  C   UNL A   1      42.513  23.812  25.859  1.00  0.00     0.010 A 
ATOM     79  C   UNL A   1      40.795  22.104  27.254  1.00  0.00     0.020 A 
ATOM     80  C   UNL A   1      42.555  22.429  25.622  1.00  0.00     0.020 A 
ATOM     81  C   UNL A   1      41.723  21.580  26.353  1.00  0.00     0.054 A 
BRANCH  81  82
ATOM     82  S   UNL A   1      41.889  19.775  26.237  1.00  0.00     0.124 S 
ATOM     83  O   UNL A   1      42.237  19.414  27.608  1.00  0.00    -0.237 OA
ATOM     84  O   UNL A   1      40.557  19.364  25.799  1.00  0.00    -0.237 OA
ATOM     85  O   UNL A   1      42.951  19.586  25.251  1.00  0.00    -0.744 OA
ENDBRANCH  81  82
ENDBRANCH  53  76
BRANCH  65  86
ATOM     86  C   UNL A   1      44.878  29.782  28.186  1.00  0.00    -0.014 A 
ATOM     87  C   UNL A   1      46.122  30.395  27.950  1.00  0.00     0.010 A 
ATOM     88  C   UNL A   1      43.737  30.305  27.551  1.00  0.00     0.010 A 
ATOM     89  C   UNL A   1      46.225  31.531  27.151  1.00  0.00     0.020 A 
ATOM     90  C   UNL A   1      43.837  31.437  26.724  1.00  0.00     0.020 A 
ATOM     91  C   UNL A   1      45.080  32.058  26.555  1.00  0.00     0.054 A 
BRANCH  91  92
ATOM     92  S   UNL A   1      45.252  33.581  25.586  1.00  0.00     0.124 S 
ATOM     93  O   UNL A   1      44.512  34.546  26.395  1.00  0.00    -0.237 OA
ATOM     94  O   UNL A   1      46.700  33.778  25.551  1.00  0.00    -0.237 OA
ATOM     95  O   UNL A   1      44.643  33.253  24.299  1.00  0.00    -0.744 OA
ENDBRANCH  91  92
ENDBRANCH  65  86
ENDBRANCH  39  40
ENDBRANCH  31  34
ENDBRANCH  29  30
ENDBRANCH   1  29
TORSDOF 15
ENDMDL
