MODEL 1
REMARK VINA RESULT:     -11.1      0.000      0.000
REMARK SMILES C[C@@H](Oc1ccccc1Cl)C(=O)Nc1ccc(C(=O)NCCCNC(=O)c2ccc(-c3c4nc(c(-c5ccc(S(=O)(=O)[O-])cc5)c5ccc([nH]5)c(-c5ccc(S(=O)(=O)[O-])cc5)c5nc(c(-c6ccc(S(=O)(=O)[O-])cc6)c6ccc3[nH]6)C=C5)C=C4)cc2)cc1
REMARK SMILES IDX 21 1 20 2 18 3 19 4 17 6 14 7 15 8 88 9 16 10 87 11 13 12
REMARK SMILES IDX 11 13 12 14 2 16 1 17 3 18 4 19 5 20 9 21 6 22 8 23 10 24
REMARK SMILES IDX 7 25 22 26 23 27 24 28 25 29 26 31 27 32 28 33 86 34 29 35
REMARK SMILES IDX 85 36 30 37 31 38 32 39 79 40 33 41 84 42 78 43 80 44 34 45
REMARK SMILES IDX 83 46 77 47 76 48 35 50 65 51 46 52 64 53 47 54 50 55 63 56
REMARK SMILES IDX 81 57 48 58 49 59 62 61 82 62 51 63 36 64 37 65 45 66 38 67
REMARK SMILES IDX 44 68 39 69 40 70 41 71 42 72 43 73 66 74 67 75 75 76 68 77
REMARK SMILES IDX 74 78 69 79 70 80 71 81 72 82 73 83 52 84 53 85 61 86 54 87
REMARK SMILES IDX 60 88 55 89 56 90 57 91 58 92 59 93
REMARK H PARENT 20 5 13 15 24 30 80 49 50 60
REMARK Flexibility Score: inf
ROOT
ATOM      1  C   UNL A   1      35.054  22.076  24.310  1.00  0.00     0.118 C 
ENDROOT
BRANCH   1   2
ATOM      2  N   UNL A   1      34.057  21.158  24.838  1.00  0.00    -0.352 N 
ATOM      3  C   UNL A   1      32.697  21.287  24.977  1.00  0.00     0.251 C 
ATOM      4  O   UNL A   1      32.048  20.306  25.341  1.00  0.00    -0.269 OA
ATOM      5  H   UNL A   1      34.420  20.297  25.148  1.00  0.00     0.163 HD
BRANCH   3   6
ATOM      6  C   UNL A   1      31.980  22.539  24.624  1.00  0.00     0.039 A 
ATOM      7  C   UNL A   1      30.347  24.748  24.109  1.00  0.00     0.041 A 
ATOM      8  C   UNL A   1      30.704  24.447  25.421  1.00  0.00     0.027 A 
ATOM      9  C   UNL A   1      30.941  24.058  23.054  1.00  0.00     0.027 A 
ATOM     10  C   UNL A   1      31.495  23.325  25.678  1.00  0.00     0.016 A 
ATOM     11  C   UNL A   1      31.776  22.971  23.312  1.00  0.00     0.016 A 
BRANCH   7  12
ATOM     12  N   UNL A   1      29.397  25.747  23.894  1.00  0.00    -0.323 N 
ATOM     13  C   UNL A   1      29.588  27.100  23.786  1.00  0.00     0.265 C 
ATOM     14  O   UNL A   1      28.580  27.806  23.642  1.00  0.00    -0.270 OA
ATOM     15  H   UNL A   1      28.465  25.440  23.807  1.00  0.00     0.170 HD
BRANCH  13  16
ATOM     16  C   UNL A   1      30.996  27.756  23.761  1.00  0.00     0.259 C 
ATOM     17  C   UNL A   1      31.477  27.892  22.319  1.00  0.00     0.064 C 
BRANCH  16  18
ATOM     18  O   UNL A   1      31.073  29.008  24.447  1.00  0.00    -0.479 OA
BRANCH  18  19
ATOM     19  C   UNL A   1      32.110  29.113  25.334  1.00  0.00     0.139 A 
ATOM     20  C   UNL A   1      32.981  28.031  25.499  1.00  0.00     0.048 A 
ATOM     21  C   UNL A   1      32.213  30.221  26.183  1.00  0.00     0.083 A 
ATOM     22  C   UNL A   1      33.970  28.073  26.486  1.00  0.00     0.004 A 
ATOM     23  C   UNL A   1      33.204  30.260  27.168  1.00  0.00     0.024 A 
ATOM     24  Cl  UNL A   1      31.144  31.568  26.064  1.00  0.00    -0.080 Cl
ATOM     25  C   UNL A   1      34.082  29.188  27.318  1.00  0.00     0.002 A 
ENDBRANCH  18  19
ENDBRANCH  16  18
ENDBRANCH  13  16
ENDBRANCH   7  12
ENDBRANCH   3   6
ENDBRANCH   1   2
BRANCH   1  26
ATOM     26  C   UNL A   1      35.343  23.213  25.288  1.00  0.00     0.042 C 
BRANCH  26  27
ATOM     27  C   UNL A   1      36.769  23.747  25.187  1.00  0.00     0.118 C 
BRANCH  27  28
ATOM     28  N   UNL A   1      37.760  22.748  25.561  1.00  0.00    -0.352 N 
ATOM     29  C   UNL A   1      38.966  22.897  26.195  1.00  0.00     0.251 C 
ATOM     30  H   UNL A   1      37.527  21.821  25.322  1.00  0.00     0.163 HD
ATOM     31  O   UNL A   1      39.745  21.942  26.237  1.00  0.00    -0.269 OA
BRANCH  29  32
ATOM     32  C   UNL A   1      39.350  24.187  26.810  1.00  0.00     0.039 A 
ATOM     33  C   UNL A   1      38.964  24.447  28.128  1.00  0.00     0.014 A 
ATOM     34  C   UNL A   1      40.055  25.155  26.088  1.00  0.00     0.014 A 
ATOM     35  C   UNL A   1      39.334  25.649  28.738  1.00  0.00     0.010 A 
ATOM     36  C   UNL A   1      40.487  26.319  26.721  1.00  0.00     0.010 A 
ATOM     37  C   UNL A   1      40.127  26.581  28.051  1.00  0.00    -0.014 A 
BRANCH  37  38
ATOM     38  C   UNL A   1      40.592  27.831  28.709  1.00  0.00     0.031 A 
ATOM     39  C   UNL A   1      41.977  27.914  29.293  1.00  0.00     0.074 A 
ATOM     40  C   UNL A   1      39.745  28.872  28.833  1.00  0.00     0.049 A 
ATOM     41  N   UNL A   1      42.537  28.897  29.952  1.00  0.00    -0.248 NA
ATOM     42  C   UNL A   1      42.839  26.730  29.137  1.00  0.00     0.031 C 
ATOM     43  C   UNL A   1      38.364  28.904  28.342  1.00  0.00     0.029 A 
ATOM     44  N   UNL A   1      39.916  30.104  29.415  1.00  0.00    -0.354 N 
ATOM     45  C   UNL A   1      43.805  28.446  30.303  1.00  0.00     0.074 A 
ATOM     46  C   UNL A   1      43.915  27.085  29.827  1.00  0.00     0.031 C 
ATOM     47  C   UNL A   1      37.825  30.101  28.621  1.00  0.00     0.029 A 
ATOM     48  C   UNL A   1      38.802  30.907  29.348  1.00  0.00     0.049 A 
ATOM     49  H   UNL A   1      40.758  30.385  29.842  1.00  0.00     0.167 HD
ATOM     50  C   UNL A   1      44.794  29.111  30.946  1.00  0.00     0.031 A 
ATOM     51  C   UNL A   1      38.584  32.148  29.824  1.00  0.00     0.031 A 
ATOM     52  C   UNL A   1      44.684  30.469  31.412  1.00  0.00     0.049 A 
ATOM     53  C   UNL A   1      39.692  32.859  30.552  1.00  0.00     0.074 A 
ATOM     54  C   UNL A   1      45.649  31.248  32.025  1.00  0.00     0.029 A 
ATOM     55  N   UNL A   1      43.539  31.247  31.322  1.00  0.00    -0.354 N 
ATOM     56  N   UNL A   1      40.907  32.439  30.813  1.00  0.00    -0.248 NA
ATOM     57  C   UNL A   1      39.402  34.213  31.041  1.00  0.00     0.031 C 
ATOM     58  C   UNL A   1      45.071  32.479  32.357  1.00  0.00     0.029 A 
ATOM     59  C   UNL A   1      43.765  32.488  31.893  1.00  0.00     0.049 A 
ATOM     60  H   UNL A   1      42.692  30.960  30.911  1.00  0.00     0.167 HD
ATOM     61  C   UNL A   1      41.535  33.487  31.476  1.00  0.00     0.074 A 
ATOM     62  C   UNL A   1      40.571  34.566  31.559  1.00  0.00     0.031 C 
ATOM     63  C   UNL A   1      42.795  33.551  31.973  1.00  0.00     0.031 A 
BRANCH  50  64
ATOM     64  C   UNL A   1      46.086  28.374  31.192  1.00  0.00    -0.014 A 
ATOM     65  C   UNL A   1      47.145  28.432  30.268  1.00  0.00     0.010 A 
ATOM     66  C   UNL A   1      46.261  27.647  32.385  1.00  0.00     0.010 A 
ATOM     67  C   UNL A   1      48.336  27.745  30.510  1.00  0.00     0.020 A 
ATOM     68  C   UNL A   1      47.463  26.981  32.645  1.00  0.00     0.020 A 
ATOM     69  C   UNL A   1      48.487  27.021  31.697  1.00  0.00     0.054 A 
BRANCH  69  70
ATOM     70  S   UNL A   1      50.054  26.156  31.993  1.00  0.00     0.124 S 
ATOM     71  O   UNL A   1      51.035  27.183  31.650  1.00  0.00    -0.237 OA
ATOM     72  O   UNL A   1      49.971  25.817  33.412  1.00  0.00    -0.237 OA
ATOM     73  O   UNL A   1      50.000  25.017  31.079  1.00  0.00    -0.744 OA
ENDBRANCH  69  70
ENDBRANCH  50  64
BRANCH  51  74
ATOM     74  C   UNL A   1      37.261  32.801  29.622  1.00  0.00    -0.014 A 
ATOM     75  C   UNL A   1      36.352  32.920  30.688  1.00  0.00     0.010 A 
ATOM     76  C   UNL A   1      36.908  33.322  28.363  1.00  0.00     0.010 A 
ATOM     77  C   UNL A   1      35.107  33.528  30.494  1.00  0.00     0.020 A 
ATOM     78  C   UNL A   1      35.678  33.957  28.173  1.00  0.00     0.020 A 
ATOM     79  C   UNL A   1      34.780  34.045  29.238  1.00  0.00     0.054 A 
BRANCH  79  80
ATOM     80  S   UNL A   1      33.180  34.874  29.024  1.00  0.00     0.124 S 
ATOM     81  O   UNL A   1      32.538  34.040  28.013  1.00  0.00    -0.237 OA
ATOM     82  O   UNL A   1      32.604  34.800  30.364  1.00  0.00    -0.237 OA
ATOM     83  O   UNL A   1      33.548  36.219  28.586  1.00  0.00    -0.744 OA
ENDBRANCH  79  80
ENDBRANCH  51  74
BRANCH  63  84
ATOM     84  C   UNL A   1      43.217  34.839  32.628  1.00  0.00    -0.014 A 
ATOM     85  C   UNL A   1      43.866  35.851  31.898  1.00  0.00     0.010 A 
ATOM     86  C   UNL A   1      42.910  35.063  33.983  1.00  0.00     0.010 A 
ATOM     87  C   UNL A   1      44.229  37.049  32.518  1.00  0.00     0.020 A 
ATOM     88  C   UNL A   1      43.244  36.271  34.599  1.00  0.00     0.020 A 
ATOM     89  C   UNL A   1      43.914  37.252  33.866  1.00  0.00     0.054 A 
BRANCH  89  90
ATOM     90  S   UNL A   1      44.355  38.834  34.636  1.00  0.00     0.124 S 
ATOM     91  O   UNL A   1      43.272  39.704  34.186  1.00  0.00    -0.237 OA
ATOM     92  O   UNL A   1      44.351  38.510  36.059  1.00  0.00    -0.237 OA
ATOM     93  O   UNL A   1      45.671  39.138  34.076  1.00  0.00    -0.744 OA
ENDBRANCH  89  90
ENDBRANCH  63  84
ENDBRANCH  37  38
ENDBRANCH  29  32
ENDBRANCH  27  28
ENDBRANCH  26  27
ENDBRANCH   1  26
TORSDOF 17
ENDMDL
MODEL 2
REMARK VINA RESULT:     -10.7      3.647      7.876
REMARK SMILES C[C@@H](Oc1ccccc1Cl)C(=O)Nc1ccc(C(=O)NCCCNC(=O)c2ccc(-c3c4nc(c(-c5ccc(S(=O)(=O)[O-])cc5)c5ccc([nH]5)c(-c5ccc(S(=O)(=O)[O-])cc5)c5nc(c(-c6ccc(S(=O)(=O)[O-])cc6)c6ccc3[nH]6)C=C5)C=C4)cc2)cc1
REMARK SMILES IDX 21 1 20 2 18 3 19 4 17 6 14 7 15 8 88 9 16 10 87 11 13 12
REMARK SMILES IDX 11 13 12 14 2 16 1 17 3 18 4 19 5 20 9 21 6 22 8 23 10 24
REMARK SMILES IDX 7 25 22 26 23 27 24 28 25 29 26 31 27 32 28 33 86 34 29 35
REMARK SMILES IDX 85 36 30 37 31 38 32 39 79 40 33 41 84 42 78 43 80 44 34 45
REMARK SMILES IDX 83 46 77 47 76 48 35 50 65 51 46 52 64 53 47 54 50 55 63 56
REMARK SMILES IDX 81 57 48 58 49 59 62 61 82 62 51 63 36 64 37 65 45 66 38 67
REMARK SMILES IDX 44 68 39 69 40 70 41 71 42 72 43 73 66 74 67 75 75 76 68 77
REMARK SMILES IDX 74 78 69 79 70 80 71 81 72 82 73 83 52 84 53 85 61 86 54 87
REMARK SMILES IDX 60 88 55 89 56 90 57 91 58 92 59 93
REMARK H PARENT 20 5 13 15 24 30 80 49 50 60
REMARK Flexibility Score: inf
ROOT
ATOM      1  C   UNL A   1      32.447  29.698  25.660  1.00  0.00     0.118 C 
ENDROOT
BRANCH   1   2
ATOM      2  N   UNL A   1      31.400  30.092  24.731  1.00  0.00    -0.352 N 
ATOM      3  C   UNL A   1      30.629  29.346  23.874  1.00  0.00     0.251 C 
ATOM      4  O   UNL A   1      29.710  29.903  23.274  1.00  0.00    -0.269 OA
ATOM      5  H   UNL A   1      31.211  31.058  24.714  1.00  0.00     0.163 HD
BRANCH   3   6
ATOM      6  C   UNL A   1      30.815  27.880  23.714  1.00  0.00     0.039 A 
ATOM      7  C   UNL A   1      31.108  25.177  23.067  1.00  0.00     0.041 A 
ATOM      8  C   UNL A   1      32.070  26.093  22.650  1.00  0.00     0.027 A 
ATOM      9  C   UNL A   1      30.103  25.580  23.944  1.00  0.00     0.027 A 
ATOM     10  C   UNL A   1      31.906  27.448  22.948  1.00  0.00     0.016 A 
ATOM     11  C   UNL A   1      29.972  26.926  24.287  1.00  0.00     0.016 A 
BRANCH   7  12
ATOM     12  N   UNL A   1      31.186  23.869  22.589  1.00  0.00    -0.323 N 
ATOM     13  C   UNL A   1      31.727  22.767  23.198  1.00  0.00     0.265 C 
ATOM     14  O   UNL A   1      31.728  21.707  22.556  1.00  0.00    -0.270 OA
ATOM     15  H   UNL A   1      30.802  23.717  21.694  1.00  0.00     0.170 HD
BRANCH  13  16
ATOM     16  C   UNL A   1      32.256  22.781  24.658  1.00  0.00     0.259 C 
ATOM     17  C   UNL A   1      31.117  22.468  25.623  1.00  0.00     0.064 C 
BRANCH  16  18
ATOM     18  O   UNL A   1      33.372  21.919  24.887  1.00  0.00    -0.479 OA
BRANCH  18  19
ATOM     19  C   UNL A   1      34.589  22.546  24.901  1.00  0.00     0.139 A 
ATOM     20  C   UNL A   1      35.318  22.650  23.711  1.00  0.00     0.048 A 
ATOM     21  C   UNL A   1      35.175  22.942  26.109  1.00  0.00     0.083 A 
ATOM     22  C   UNL A   1      36.613  23.178  23.729  1.00  0.00     0.004 A 
ATOM     23  C   UNL A   1      36.468  23.470  26.122  1.00  0.00     0.024 A 
ATOM     24  Cl  UNL A   1      34.349  22.798  27.616  1.00  0.00    -0.080 Cl
ATOM     25  C   UNL A   1      37.186  23.589  24.933  1.00  0.00     0.002 A 
ENDBRANCH  18  19
ENDBRANCH  16  18
ENDBRANCH  13  16
ENDBRANCH   7  12
ENDBRANCH   3   6
ENDBRANCH   1   2
BRANCH   1  26
ATOM     26  C   UNL A   1      32.321  30.434  26.993  1.00  0.00     0.042 C 
BRANCH  26  27
ATOM     27  C   UNL A   1      33.487  31.376  27.275  1.00  0.00     0.118 C 
BRANCH  27  28
ATOM     28  N   UNL A   1      33.041  32.729  27.580  1.00  0.00    -0.352 N 
ATOM     29  C   UNL A   1      33.496  33.615  28.521  1.00  0.00     0.251 C 
ATOM     30  H   UNL A   1      32.298  33.057  27.023  1.00  0.00     0.163 HD
ATOM     31  O   UNL A   1      32.845  34.638  28.748  1.00  0.00    -0.269 OA
BRANCH  29  32
ATOM     32  C   UNL A   1      34.741  33.353  29.277  1.00  0.00     0.039 A 
ATOM     33  C   UNL A   1      34.699  32.470  30.360  1.00  0.00     0.014 A 
ATOM     34  C   UNL A   1      35.939  33.994  28.948  1.00  0.00     0.014 A 
ATOM     35  C   UNL A   1      35.866  32.188  31.075  1.00  0.00     0.010 A 
ATOM     36  C   UNL A   1      37.116  33.654  29.614  1.00  0.00     0.010 A 
ATOM     37  C   UNL A   1      37.092  32.752  30.687  1.00  0.00    -0.014 A 
BRANCH  37  38
ATOM     38  C   UNL A   1      38.356  32.406  31.389  1.00  0.00     0.031 A 
ATOM     39  C   UNL A   1      39.296  31.385  30.805  1.00  0.00     0.074 A 
ATOM     40  C   UNL A   1      38.629  32.969  32.583  1.00  0.00     0.049 A 
ATOM     41  N   UNL A   1      40.413  30.914  31.300  1.00  0.00    -0.248 NA
ATOM     42  C   UNL A   1      38.922  30.797  29.508  1.00  0.00     0.031 C 
ATOM     43  C   UNL A   1      37.781  33.945  33.273  1.00  0.00     0.029 A 
ATOM     44  N   UNL A   1      39.694  32.798  33.433  1.00  0.00    -0.354 N 
ATOM     45  C   UNL A   1      40.865  29.968  30.387  1.00  0.00     0.074 A 
ATOM     46  C   UNL A   1      39.877  29.895  29.332  1.00  0.00     0.031 C 
ATOM     47  C   UNL A   1      38.371  34.304  34.424  1.00  0.00     0.029 A 
ATOM     48  C   UNL A   1      39.613  33.554  34.579  1.00  0.00     0.049 A 
ATOM     49  H   UNL A   1      40.444  32.190  33.240  1.00  0.00     0.167 HD
ATOM     50  C   UNL A   1      42.006  29.239  30.414  1.00  0.00     0.031 A 
ATOM     51  C   UNL A   1      40.439  33.630  35.640  1.00  0.00     0.031 A 
ATOM     52  C   UNL A   1      42.990  29.320  31.461  1.00  0.00     0.049 A 
ATOM     53  C   UNL A   1      41.692  32.796  35.656  1.00  0.00     0.074 A 
ATOM     54  C   UNL A   1      44.205  28.663  31.551  1.00  0.00     0.029 A 
ATOM     55  N   UNL A   1      42.872  30.099  32.602  1.00  0.00    -0.354 N 
ATOM     56  N   UNL A   1      42.134  31.958  34.749  1.00  0.00    -0.248 NA
ATOM     57  C   UNL A   1      42.560  32.926  36.833  1.00  0.00     0.031 C 
ATOM     58  C   UNL A   1      44.796  29.003  32.773  1.00  0.00     0.029 A 
ATOM     59  C   UNL A   1      43.978  29.919  33.415  1.00  0.00     0.049 A 
ATOM     60  H   UNL A   1      42.114  30.693  32.804  1.00  0.00     0.167 HD
ATOM     61  C   UNL A   1      43.345  31.478  35.236  1.00  0.00     0.074 A 
ATOM     62  C   UNL A   1      43.573  32.135  36.507  1.00  0.00     0.031 C 
ATOM     63  C   UNL A   1      44.190  30.575  34.681  1.00  0.00     0.031 A 
BRANCH  50  64
ATOM     64  C   UNL A   1      42.250  28.281  29.276  1.00  0.00    -0.014 A 
ATOM     65  C   UNL A   1      42.960  28.679  28.128  1.00  0.00     0.010 A 
ATOM     66  C   UNL A   1      41.801  26.950  29.372  1.00  0.00     0.010 A 
ATOM     67  C   UNL A   1      43.179  27.779  27.082  1.00  0.00     0.020 A 
ATOM     68  C   UNL A   1      42.044  26.039  28.340  1.00  0.00     0.020 A 
ATOM     69  C   UNL A   1      42.717  26.464  27.194  1.00  0.00     0.054 A 
BRANCH  69  70
ATOM     70  S   UNL A   1      43.036  25.314  25.828  1.00  0.00     0.124 S 
ATOM     71  O   UNL A   1      42.300  25.936  24.731  1.00  0.00    -0.237 OA
ATOM     72  O   UNL A   1      44.492  25.353  25.709  1.00  0.00    -0.237 OA
ATOM     73  O   UNL A   1      42.488  24.046  26.307  1.00  0.00    -0.744 OA
ENDBRANCH  69  70
ENDBRANCH  50  64
BRANCH  51  74
ATOM     74  C   UNL A   1      40.111  34.536  36.775  1.00  0.00    -0.014 A 
ATOM     75  C   UNL A   1      40.580  35.861  36.791  1.00  0.00     0.010 A 
ATOM     76  C   UNL A   1      39.315  34.081  37.843  1.00  0.00     0.010 A 
ATOM     77  C   UNL A   1      40.277  36.709  37.862  1.00  0.00     0.020 A 
ATOM     78  C   UNL A   1      38.984  34.934  38.900  1.00  0.00     0.020 A 
ATOM     79  C   UNL A   1      39.478  36.239  38.908  1.00  0.00     0.054 A 
BRANCH  79  80
ATOM     80  S   UNL A   1      39.055  37.372  40.261  1.00  0.00     0.124 S 
ATOM     81  O   UNL A   1      38.233  38.367  39.580  1.00  0.00    -0.237 OA
ATOM     82  O   UNL A   1      38.349  36.498  41.194  1.00  0.00    -0.237 OA
ATOM     83  O   UNL A   1      40.356  37.847  40.729  1.00  0.00    -0.744 OA
ENDBRANCH  79  80
ENDBRANCH  51  74
BRANCH  63  84
ATOM     84  C   UNL A   1      45.457  30.261  35.431  1.00  0.00    -0.014 A 
ATOM     85  C   UNL A   1      45.539  29.152  36.292  1.00  0.00     0.010 A 
ATOM     86  C   UNL A   1      46.601  31.056  35.229  1.00  0.00     0.010 A 
ATOM     87  C   UNL A   1      46.731  28.863  36.962  1.00  0.00     0.020 A 
ATOM     88  C   UNL A   1      47.802  30.753  35.874  1.00  0.00     0.020 A 
ATOM     89  C   UNL A   1      47.856  29.665  36.747  1.00  0.00     0.054 A 
BRANCH  89  90
ATOM     90  S   UNL A   1      49.403  29.242  37.593  1.00  0.00     0.124 S 
ATOM     91  O   UNL A   1      49.727  30.491  38.277  1.00  0.00    -0.237 OA
ATOM     92  O   UNL A   1      49.004  28.137  38.459  1.00  0.00    -0.237 OA
ATOM     93  O   UNL A   1      50.306  28.877  36.502  1.00  0.00    -0.744 OA
ENDBRANCH  89  90
ENDBRANCH  63  84
ENDBRANCH  37  38
ENDBRANCH  29  32
ENDBRANCH  27  28
ENDBRANCH  26  27
ENDBRANCH   1  26
TORSDOF 17
ENDMDL
MODEL 3
REMARK VINA RESULT:     -10.6      4.031      9.456
REMARK SMILES C[C@@H](Oc1ccccc1Cl)C(=O)Nc1ccc(C(=O)NCCCNC(=O)c2ccc(-c3c4nc(c(-c5ccc(S(=O)(=O)[O-])cc5)c5ccc([nH]5)c(-c5ccc(S(=O)(=O)[O-])cc5)c5nc(c(-c6ccc(S(=O)(=O)[O-])cc6)c6ccc3[nH]6)C=C5)C=C4)cc2)cc1
REMARK SMILES IDX 21 1 20 2 18 3 19 4 17 6 14 7 15 8 88 9 16 10 87 11 13 12
REMARK SMILES IDX 11 13 12 14 2 16 1 17 3 18 4 19 5 20 9 21 6 22 8 23 10 24
REMARK SMILES IDX 7 25 22 26 23 27 24 28 25 29 26 31 27 32 28 33 86 34 29 35
REMARK SMILES IDX 85 36 30 37 31 38 32 39 79 40 33 41 84 42 78 43 80 44 34 45
REMARK SMILES IDX 83 46 77 47 76 48 35 50 65 51 46 52 64 53 47 54 50 55 63 56
REMARK SMILES IDX 81 57 48 58 49 59 62 61 82 62 51 63 36 64 37 65 45 66 38 67
REMARK SMILES IDX 44 68 39 69 40 70 41 71 42 72 43 73 66 74 67 75 75 76 68 77
REMARK SMILES IDX 74 78 69 79 70 80 71 81 72 82 73 83 52 84 53 85 61 86 54 87
REMARK SMILES IDX 60 88 55 89 56 90 57 91 58 92 59 93
REMARK H PARENT 20 5 13 15 24 30 80 49 50 60
REMARK Flexibility Score: inf
ROOT
ATOM      1  C   UNL A   1      34.241  30.022  27.133  1.00  0.00     0.118 C 
ENDROOT
BRANCH   1   2
ATOM      2  N   UNL A   1      33.020  29.426  27.651  1.00  0.00    -0.352 N 
ATOM      3  C   UNL A   1      32.039  28.694  27.027  1.00  0.00     0.251 C 
ATOM      4  O   UNL A   1      31.156  28.187  27.718  1.00  0.00    -0.269 OA
ATOM      5  H   UNL A   1      32.872  29.571  28.613  1.00  0.00     0.163 HD
BRANCH   3   6
ATOM      6  C   UNL A   1      32.058  28.429  25.565  1.00  0.00     0.039 A 
ATOM      7  C   UNL A   1      32.201  27.605  22.899  1.00  0.00     0.041 A 
ATOM      8  C   UNL A   1      31.224  27.069  23.733  1.00  0.00     0.027 A 
ATOM      9  C   UNL A   1      32.985  28.668  23.344  1.00  0.00     0.027 A 
ATOM     10  C   UNL A   1      31.174  27.460  25.073  1.00  0.00     0.016 A 
ATOM     11  C   UNL A   1      32.895  29.095  24.669  1.00  0.00     0.016 A 
BRANCH   7  12
ATOM     12  N   UNL A   1      32.361  27.055  21.627  1.00  0.00    -0.323 N 
ATOM     13  C   UNL A   1      32.814  25.807  21.285  1.00  0.00     0.265 C 
ATOM     14  O   UNL A   1      32.919  25.553  20.076  1.00  0.00    -0.270 OA
ATOM     15  H   UNL A   1      32.115  27.640  20.874  1.00  0.00     0.170 HD
BRANCH  13  16
ATOM     16  C   UNL A   1      33.120  24.702  22.331  1.00  0.00     0.259 C 
ATOM     17  C   UNL A   1      32.975  23.326  21.687  1.00  0.00     0.064 C 
BRANCH  16  18
ATOM     18  O   UNL A   1      34.389  24.835  22.973  1.00  0.00    -0.479 OA
BRANCH  18  19
ATOM     19  C   UNL A   1      34.505  24.166  24.162  1.00  0.00     0.139 A 
ATOM     20  C   UNL A   1      33.668  24.515  25.227  1.00  0.00     0.048 A 
ATOM     21  C   UNL A   1      35.545  23.252  24.369  1.00  0.00     0.083 A 
ATOM     22  C   UNL A   1      33.853  23.928  26.483  1.00  0.00     0.004 A 
ATOM     23  C   UNL A   1      35.726  22.667  25.624  1.00  0.00     0.024 A 
ATOM     24  Cl  UNL A   1      36.640  22.812  23.111  1.00  0.00    -0.080 Cl
ATOM     25  C   UNL A   1      34.880  23.004  26.680  1.00  0.00     0.002 A 
ENDBRANCH  18  19
ENDBRANCH  16  18
ENDBRANCH  13  16
ENDBRANCH   7  12
ENDBRANCH   3   6
ENDBRANCH   1   2
BRANCH   1  26
ATOM     26  C   UNL A   1      34.216  31.545  27.251  1.00  0.00     0.042 C 
BRANCH  26  27
ATOM     27  C   UNL A   1      32.853  32.096  27.661  1.00  0.00     0.118 C 
BRANCH  27  28
ATOM     28  N   UNL A   1      32.859  33.547  27.782  1.00  0.00    -0.352 N 
ATOM     29  C   UNL A   1      33.593  34.359  28.609  1.00  0.00     0.251 C 
ATOM     30  H   UNL A   1      32.242  34.018  27.177  1.00  0.00     0.163 HD
ATOM     31  O   UNL A   1      33.299  35.554  28.691  1.00  0.00    -0.269 OA
BRANCH  29  32
ATOM     32  C   UNL A   1      34.713  33.819  29.411  1.00  0.00     0.039 A 
ATOM     33  C   UNL A   1      34.426  32.967  30.481  1.00  0.00     0.014 A 
ATOM     34  C   UNL A   1      36.038  34.171  29.139  1.00  0.00     0.014 A 
ATOM     35  C   UNL A   1      35.467  32.425  31.240  1.00  0.00     0.010 A 
ATOM     36  C   UNL A   1      37.078  33.572  29.847  1.00  0.00     0.010 A 
ATOM     37  C   UNL A   1      36.804  32.696  30.908  1.00  0.00    -0.014 A 
BRANCH  37  38
ATOM     38  C   UNL A   1      37.926  32.071  31.657  1.00  0.00     0.031 A 
ATOM     39  C   UNL A   1      38.327  32.599  33.008  1.00  0.00     0.074 A 
ATOM     40  C   UNL A   1      38.623  31.064  31.093  1.00  0.00     0.049 A 
ATOM     41  N   UNL A   1      39.313  32.220  33.783  1.00  0.00    -0.248 NA
ATOM     42  C   UNL A   1      37.533  33.714  33.552  1.00  0.00     0.031 C 
ATOM     43  C   UNL A   1      38.357  30.485  29.772  1.00  0.00     0.029 A 
ATOM     44  N   UNL A   1      39.701  30.350  31.554  1.00  0.00    -0.354 N 
ATOM     45  C   UNL A   1      39.267  33.057  34.892  1.00  0.00     0.074 A 
ATOM     46  C   UNL A   1      38.189  33.995  34.669  1.00  0.00     0.031 C 
ATOM     47  C   UNL A   1      39.230  29.492  29.543  1.00  0.00     0.029 A 
ATOM     48  C   UNL A   1      40.145  29.390  30.676  1.00  0.00     0.049 A 
ATOM     49  H   UNL A   1      40.118  30.512  32.431  1.00  0.00     0.167 HD
ATOM     50  C   UNL A   1      40.041  33.036  36.003  1.00  0.00     0.031 A 
ATOM     51  C   UNL A   1      41.178  28.529  30.764  1.00  0.00     0.031 A 
ATOM     52  C   UNL A   1      41.109  32.096  36.226  1.00  0.00     0.049 A 
ATOM     53  C   UNL A   1      42.035  28.537  32.001  1.00  0.00     0.074 A 
ATOM     54  C   UNL A   1      41.914  31.958  37.343  1.00  0.00     0.029 A 
ATOM     55  N   UNL A   1      41.524  31.139  35.312  1.00  0.00    -0.354 N 
ATOM     56  N   UNL A   1      41.932  29.292  33.069  1.00  0.00    -0.248 NA
ATOM     57  C   UNL A   1      43.140  27.571  32.048  1.00  0.00     0.031 C 
ATOM     58  C   UNL A   1      42.853  30.954  37.083  1.00  0.00     0.029 A 
ATOM     59  C   UNL A   1      42.592  30.424  35.829  1.00  0.00     0.049 A 
ATOM     60  H   UNL A   1      41.120  30.988  34.428  1.00  0.00     0.167 HD
ATOM     61  C   UNL A   1      42.945  28.876  33.925  1.00  0.00     0.074 A 
ATOM     62  C   UNL A   1      43.636  27.791  33.258  1.00  0.00     0.031 C 
ATOM     63  C   UNL A   1      43.274  29.350  35.152  1.00  0.00     0.031 A 
BRANCH  50  64
ATOM     64  C   UNL A   1      39.765  34.068  37.067  1.00  0.00    -0.014 A 
ATOM     65  C   UNL A   1      38.983  33.761  38.195  1.00  0.00     0.010 A 
ATOM     66  C   UNL A   1      40.331  35.353  36.960  1.00  0.00     0.010 A 
ATOM     67  C   UNL A   1      38.737  34.728  39.173  1.00  0.00     0.020 A 
ATOM     68  C   UNL A   1      40.112  36.314  37.951  1.00  0.00     0.020 A 
ATOM     69  C   UNL A   1      39.302  36.000  39.043  1.00  0.00     0.054 A 
BRANCH  69  70
ATOM     70  S   UNL A   1      38.981  37.227  40.340  1.00  0.00     0.124 S 
ATOM     71  O   UNL A   1      38.179  38.218  39.626  1.00  0.00    -0.237 OA
ATOM     72  O   UNL A   1      38.266  36.449  41.348  1.00  0.00    -0.237 OA
ATOM     73  O   UNL A   1      40.317  37.674  40.733  1.00  0.00    -0.744 OA
ENDBRANCH  69  70
ENDBRANCH  50  64
BRANCH  51  74
ATOM     74  C   UNL A   1      41.455  27.582  29.650  1.00  0.00    -0.014 A 
ATOM     75  C   UNL A   1      40.563  26.534  29.364  1.00  0.00     0.010 A 
ATOM     76  C   UNL A   1      42.608  27.731  28.857  1.00  0.00     0.010 A 
ATOM     77  C   UNL A   1      40.828  25.640  28.321  1.00  0.00     0.020 A 
ATOM     78  C   UNL A   1      42.862  26.859  27.795  1.00  0.00     0.020 A 
ATOM     79  C   UNL A   1      41.975  25.811  27.542  1.00  0.00     0.054 A 
BRANCH  79  80
ATOM     80  S   UNL A   1      42.273  24.671  26.162  1.00  0.00     0.124 S 
ATOM     81  O   UNL A   1      43.723  24.507  26.210  1.00  0.00    -0.237 OA
ATOM     82  O   UNL A   1      41.492  23.498  26.548  1.00  0.00    -0.237 OA
ATOM     83  O   UNL A   1      41.761  25.396  25.001  1.00  0.00    -0.744 OA
ENDBRANCH  79  80
ENDBRANCH  51  74
BRANCH  63  84
ATOM     84  C   UNL A   1      44.417  28.681  35.869  1.00  0.00    -0.014 A 
ATOM     85  C   UNL A   1      45.733  29.163  35.752  1.00  0.00     0.010 A 
ATOM     86  C   UNL A   1      44.161  27.587  36.717  1.00  0.00     0.010 A 
ATOM     87  C   UNL A   1      46.777  28.543  36.444  1.00  0.00     0.020 A 
ATOM     88  C   UNL A   1      45.198  26.983  37.433  1.00  0.00     0.020 A 
ATOM     89  C   UNL A   1      46.502  27.457  37.281  1.00  0.00     0.054 A 
BRANCH  89  90
ATOM     90  S   UNL A   1      47.867  26.699  38.203  1.00  0.00     0.124 S 
ATOM     91  O   UNL A   1      48.132  25.495  37.420  1.00  0.00    -0.237 OA
ATOM     92  O   UNL A   1      48.903  27.726  38.146  1.00  0.00    -0.237 OA
ATOM     93  O   UNL A   1      47.302  26.465  39.531  1.00  0.00    -0.744 OA
ENDBRANCH  89  90
ENDBRANCH  63  84
ENDBRANCH  37  38
ENDBRANCH  29  32
ENDBRANCH  27  28
ENDBRANCH  26  27
ENDBRANCH   1  26
TORSDOF 17
ENDMDL
