MODEL 1
REMARK VINA RESULT:     -11.1      0.000      0.000
REMARK SMILES C[C@@H](C(=O)NCCCNC(=O)c1ccc(-c2c3nc(c(-c4ccc(S(=O)(=O)[O-])cc4)c4ccc([nH]4)c(-c4ccc(S(=O)(=O)[O-])cc4)c4nc(c(-c5ccc(S(=O)(=O)[O-])cc5)c5ccc2[nH]5)C=C4)C=C3)cc1)c1cc(C(=O)c2ccccc2)ccc1O
REMARK SMILES IDX 7 1 6 2 5 3 3 4 4 5 2 7 1 8 72 9 73 10 85 11 74 12 84 13
REMARK SMILES IDX 83 14 86 15 75 17 76 18 77 19 78 20 82 21 79 22 81 23 80 24
REMARK SMILES IDX 8 25 9 26 10 27 11 29 12 30 13 31 71 32 14 33 70 34 15 35
REMARK SMILES IDX 16 36 17 37 64 38 18 39 69 40 63 41 65 42 19 43 68 44 62 45
REMARK SMILES IDX 61 46 20 48 50 49 31 50 49 51 32 52 35 53 48 54 66 55 33 56
REMARK SMILES IDX 34 57 47 59 67 60 36 61 21 62 22 63 30 64 23 65 29 66 24 67
REMARK SMILES IDX 25 68 26 69 27 70 28 71 51 72 52 73 60 74 53 75 59 76 54 77
REMARK SMILES IDX 55 78 56 79 57 80 58 81 37 82 38 83 46 84 39 85 45 86 40 87
REMARK SMILES IDX 41 88 42 89 43 90 44 91
REMARK H PARENT 5 6 86 16 9 28 65 47 35 58
REMARK Flexibility Score: inf
ROOT
ATOM      1  C   UNL A   1      33.249  27.611  26.667  1.00  0.00     0.042 C 
ENDROOT
BRANCH   1   2
ATOM      2  C   UNL A   1      31.956  27.222  25.950  1.00  0.00     0.117 C 
BRANCH   2   3
ATOM      3  N   UNL A   1      31.311  26.086  26.578  1.00  0.00    -0.356 N 
ATOM      4  C   UNL A   1      31.077  24.826  26.118  1.00  0.00     0.227 C 
ATOM      5  O   UNL A   1      30.383  24.103  26.842  1.00  0.00    -0.274 OA
ATOM      6  H   UNL A   1      30.986  26.253  27.492  1.00  0.00     0.163 HD
BRANCH   4   7
ATOM      7  C   UNL A   1      31.655  24.343  24.776  1.00  0.00     0.109 C 
ATOM      8  C   UNL A   1      30.564  23.923  23.789  1.00  0.00     0.023 C 
BRANCH   7   9
ATOM      9  C   UNL A   1      32.657  23.192  24.918  1.00  0.00     0.007 A 
ATOM     10  C   UNL A   1      33.985  23.386  24.487  1.00  0.00     0.020 A 
ATOM     11  C   UNL A   1      32.307  21.913  25.375  1.00  0.00     0.119 A 
ATOM     12  C   UNL A   1      34.919  22.335  24.517  1.00  0.00     0.023 A 
ATOM     13  C   UNL A   1      33.224  20.869  25.417  1.00  0.00     0.047 A 
ATOM     14  C   UNL A   1      34.536  21.081  25.005  1.00  0.00     0.016 A 
BRANCH  11  15
ATOM     15  O   UNL A   1      31.052  21.616  25.826  1.00  0.00    -0.508 OA
ATOM     16  H   UNL A   1      30.337  21.567  25.222  1.00  0.00     0.293 HD
ENDBRANCH  11  15
BRANCH  12  17
ATOM     17  C   UNL A   1      36.311  22.596  24.050  1.00  0.00     0.193 C 
ATOM     18  O   UNL A   1      36.541  22.753  22.854  1.00  0.00    -0.289 OA
BRANCH  17  19
ATOM     19  C   UNL A   1      37.433  22.703  25.014  1.00  0.00     0.022 A 
ATOM     20  C   UNL A   1      37.643  23.926  25.662  1.00  0.00     0.012 A 
ATOM     21  C   UNL A   1      38.272  21.615  25.279  1.00  0.00     0.012 A 
ATOM     22  C   UNL A   1      38.658  24.042  26.611  1.00  0.00     0.001 A 
ATOM     23  C   UNL A   1      39.285  21.736  26.232  1.00  0.00     0.001 A 
ATOM     24  C   UNL A   1      39.472  22.946  26.903  1.00  0.00     0.000 A 
ENDBRANCH  17  19
ENDBRANCH  12  17
ENDBRANCH   7   9
ENDBRANCH   4   7
ENDBRANCH   2   3
ENDBRANCH   1   2
BRANCH   1  25
ATOM     25  C   UNL A   1      34.078  28.691  25.970  1.00  0.00     0.118 C 
BRANCH  25  26
ATOM     26  N   UNL A   1      33.769  30.033  26.435  1.00  0.00    -0.352 N 
ATOM     27  C   UNL A   1      34.351  30.792  27.418  1.00  0.00     0.251 C 
ATOM     28  H   UNL A   1      33.019  30.468  25.969  1.00  0.00     0.163 HD
ATOM     29  O   UNL A   1      33.806  31.849  27.745  1.00  0.00    -0.269 OA
BRANCH  27  30
ATOM     30  C   UNL A   1      35.593  30.367  28.103  1.00  0.00     0.039 A 
ATOM     31  C   UNL A   1      36.818  30.661  27.493  1.00  0.00     0.014 A 
ATOM     32  C   UNL A   1      35.576  29.636  29.297  1.00  0.00     0.014 A 
ATOM     33  C   UNL A   1      38.015  30.271  28.099  1.00  0.00     0.010 A 
ATOM     34  C   UNL A   1      36.776  29.300  29.932  1.00  0.00     0.010 A 
ATOM     35  C   UNL A   1      38.008  29.614  29.339  1.00  0.00    -0.014 A 
BRANCH  35  36
ATOM     36  C   UNL A   1      39.287  29.279  30.022  1.00  0.00     0.031 A 
ATOM     37  C   UNL A   1      39.725  30.018  31.257  1.00  0.00     0.074 A 
ATOM     38  C   UNL A   1      40.072  28.312  29.508  1.00  0.00     0.049 A 
ATOM     39  N   UNL A   1      40.797  29.838  31.987  1.00  0.00    -0.248 NA
ATOM     40  C   UNL A   1      38.858  31.110  31.725  1.00  0.00     0.031 C 
ATOM     41  C   UNL A   1      39.789  27.552  28.287  1.00  0.00     0.029 A 
ATOM     42  N   UNL A   1      41.268  27.800  29.947  1.00  0.00    -0.354 N 
ATOM     43  C   UNL A   1      40.738  30.792  32.995  1.00  0.00     0.074 A 
ATOM     44  C   UNL A   1      39.547  31.579  32.757  1.00  0.00     0.031 C 
ATOM     45  C   UNL A   1      40.767  26.654  28.092  1.00  0.00     0.029 A 
ATOM     46  C   UNL A   1      41.760  26.790  29.154  1.00  0.00     0.049 A 
ATOM     47  H   UNL A   1      41.730  28.125  30.753  1.00  0.00     0.167 HD
ATOM     48  C   UNL A   1      41.584  30.985  34.037  1.00  0.00     0.031 A 
ATOM     49  C   UNL A   1      42.880  26.051  29.266  1.00  0.00     0.031 A 
ATOM     50  C   UNL A   1      42.770  30.204  34.277  1.00  0.00     0.049 A 
ATOM     51  C   UNL A   1      43.798  26.276  30.434  1.00  0.00     0.074 A 
ATOM     52  C   UNL A   1      43.666  30.298  35.329  1.00  0.00     0.029 A 
ATOM     53  N   UNL A   1      43.228  29.185  33.456  1.00  0.00    -0.354 N 
ATOM     54  N   UNL A   1      43.688  27.145  31.410  1.00  0.00    -0.248 NA
ATOM     55  C   UNL A   1      44.979  25.409  30.523  1.00  0.00     0.031 C 
ATOM     56  C   UNL A   1      44.686  29.362  35.122  1.00  0.00     0.029 A 
ATOM     57  C   UNL A   1      44.401  28.654  33.967  1.00  0.00     0.049 A 
ATOM     58  H   UNL A   1      42.784  28.883  32.631  1.00  0.00     0.167 HD
ATOM     59  C   UNL A   1      44.783  26.919  32.238  1.00  0.00     0.074 A 
ATOM     60  C   UNL A   1      45.525  25.817  31.660  1.00  0.00     0.031 C 
ATOM     61  C   UNL A   1      45.141  27.569  33.373  1.00  0.00     0.031 A 
BRANCH  48  62
ATOM     62  C   UNL A   1      41.254  32.094  35.001  1.00  0.00    -0.014 A 
ATOM     63  C   UNL A   1      41.743  33.397  34.796  1.00  0.00     0.010 A 
ATOM     64  C   UNL A   1      40.415  31.844  36.103  1.00  0.00     0.010 A 
ATOM     65  C   UNL A   1      41.432  34.421  35.696  1.00  0.00     0.020 A 
ATOM     66  C   UNL A   1      40.082  32.871  36.992  1.00  0.00     0.020 A 
ATOM     67  C   UNL A   1      40.609  34.150  36.792  1.00  0.00     0.054 A 
BRANCH  67  68
ATOM     68  S   UNL A   1      40.207  35.500  37.935  1.00  0.00     0.124 S 
ATOM     69  O   UNL A   1      39.082  34.939  38.679  1.00  0.00    -0.237 OA
ATOM     70  O   UNL A   1      41.446  35.658  38.694  1.00  0.00    -0.237 OA
ATOM     71  O   UNL A   1      39.876  36.615  37.052  1.00  0.00    -0.744 OA
ENDBRANCH  67  68
ENDBRANCH  48  62
BRANCH  49  72
ATOM     72  C   UNL A   1      43.184  25.014  28.245  1.00  0.00    -0.014 A 
ATOM     73  C   UNL A   1      43.985  25.320  27.131  1.00  0.00     0.010 A 
ATOM     74  C   UNL A   1      42.692  23.705  28.396  1.00  0.00     0.010 A 
ATOM     75  C   UNL A   1      44.278  24.340  26.179  1.00  0.00     0.020 A 
ATOM     76  C   UNL A   1      43.002  22.716  27.458  1.00  0.00     0.020 A 
ATOM     77  C   UNL A   1      43.784  23.042  26.350  1.00  0.00     0.054 A 
BRANCH  77  78
ATOM     78  S   UNL A   1      44.228  21.767  25.138  1.00  0.00     0.124 S 
ATOM     79  O   UNL A   1      45.643  21.553  25.427  1.00  0.00    -0.237 OA
ATOM     80  O   UNL A   1      43.336  20.666  25.493  1.00  0.00    -0.237 OA
ATOM     81  O   UNL A   1      43.938  22.402  23.855  1.00  0.00    -0.744 OA
ENDBRANCH  77  78
ENDBRANCH  49  72
BRANCH  61  82
ATOM     82  C   UNL A   1      46.390  27.095  34.066  1.00  0.00    -0.014 A 
ATOM     83  C   UNL A   1      46.338  26.077  35.036  1.00  0.00     0.010 A 
ATOM     84  C   UNL A   1      47.633  27.665  33.735  1.00  0.00     0.010 A 
ATOM     85  C   UNL A   1      47.500  25.670  35.696  1.00  0.00     0.020 A 
ATOM     86  C   UNL A   1      48.800  27.243  34.376  1.00  0.00     0.020 A 
ATOM     87  C   UNL A   1      48.723  26.263  35.367  1.00  0.00     0.054 A 
BRANCH  87  88
ATOM     88  S   UNL A   1      50.223  25.713  36.229  1.00  0.00     0.124 S 
ATOM     89  O   UNL A   1      49.672  24.882  37.295  1.00  0.00    -0.237 OA
ATOM     90  O   UNL A   1      50.951  24.995  35.186  1.00  0.00    -0.237 OA
ATOM     91  O   UNL A   1      50.845  26.960  36.668  1.00  0.00    -0.744 OA
ENDBRANCH  87  88
ENDBRANCH  61  82
ENDBRANCH  35  36
ENDBRANCH  27  30
ENDBRANCH  25  26
ENDBRANCH   1  25
TORSDOF 17
ENDMDL
MODEL 2
REMARK VINA RESULT:     -11.1      3.855      6.978
REMARK SMILES C[C@@H](C(=O)NCCCNC(=O)c1ccc(-c2c3nc(c(-c4ccc(S(=O)(=O)[O-])cc4)c4ccc([nH]4)c(-c4ccc(S(=O)(=O)[O-])cc4)c4nc(c(-c5ccc(S(=O)(=O)[O-])cc5)c5ccc2[nH]5)C=C4)C=C3)cc1)c1cc(C(=O)c2ccccc2)ccc1O
REMARK SMILES IDX 7 1 6 2 5 3 3 4 4 5 2 7 1 8 72 9 73 10 85 11 74 12 84 13
REMARK SMILES IDX 83 14 86 15 75 17 76 18 77 19 78 20 82 21 79 22 81 23 80 24
REMARK SMILES IDX 8 25 9 26 10 27 11 29 12 30 13 31 71 32 14 33 70 34 15 35
REMARK SMILES IDX 16 36 17 37 64 38 18 39 69 40 63 41 65 42 19 43 68 44 62 45
REMARK SMILES IDX 61 46 20 48 50 49 31 50 49 51 32 52 35 53 48 54 66 55 33 56
REMARK SMILES IDX 34 57 47 59 67 60 36 61 21 62 22 63 30 64 23 65 29 66 24 67
REMARK SMILES IDX 25 68 26 69 27 70 28 71 51 72 52 73 60 74 53 75 59 76 54 77
REMARK SMILES IDX 55 78 56 79 57 80 58 81 37 82 38 83 46 84 39 85 45 86 40 87
REMARK SMILES IDX 41 88 42 89 43 90 44 91
REMARK H PARENT 5 6 86 16 9 28 65 47 35 58
REMARK Flexibility Score: inf
ROOT
ATOM      1  C   UNL A   1      33.917  33.879  28.912  1.00  0.00     0.042 C 
ENDROOT
BRANCH   1   2
ATOM      2  C   UNL A   1      34.769  34.971  29.561  1.00  0.00     0.117 C 
BRANCH   2   3
ATOM      3  N   UNL A   1      34.669  34.946  31.007  1.00  0.00    -0.356 N 
ATOM      4  C   UNL A   1      35.154  34.059  31.918  1.00  0.00     0.227 C 
ATOM      5  O   UNL A   1      34.797  34.233  33.089  1.00  0.00    -0.274 OA
ATOM      6  H   UNL A   1      34.166  35.696  31.396  1.00  0.00     0.163 HD
BRANCH   4   7
ATOM      7  C   UNL A   1      36.095  32.915  31.502  1.00  0.00     0.109 C 
ATOM      8  C   UNL A   1      35.480  31.535  31.744  1.00  0.00     0.023 C 
BRANCH   7   9
ATOM      9  C   UNL A   1      37.466  32.967  32.187  1.00  0.00     0.007 A 
ATOM     10  C   UNL A   1      37.862  31.891  33.006  1.00  0.00     0.020 A 
ATOM     11  C   UNL A   1      38.323  34.076  32.117  1.00  0.00     0.119 A 
ATOM     12  C   UNL A   1      39.070  31.931  33.725  1.00  0.00     0.023 A 
ATOM     13  C   UNL A   1      39.525  34.122  32.816  1.00  0.00     0.047 A 
ATOM     14  C   UNL A   1      39.910  33.044  33.606  1.00  0.00     0.016 A 
BRANCH  11  15
ATOM     15  O   UNL A   1      38.045  35.168  31.346  1.00  0.00    -0.508 OA
ATOM     16  H   UNL A   1      38.269  35.169  30.436  1.00  0.00     0.293 HD
ENDBRANCH  11  15
BRANCH  12  17
ATOM     17  C   UNL A   1      39.441  30.765  34.576  1.00  0.00     0.193 C 
ATOM     18  O   UNL A   1      38.810  30.525  35.602  1.00  0.00    -0.289 OA
BRANCH  17  19
ATOM     19  C   UNL A   1      40.547  29.856  34.188  1.00  0.00     0.022 A 
ATOM     20  C   UNL A   1      40.273  28.810  33.299  1.00  0.00     0.012 A 
ATOM     21  C   UNL A   1      41.841  30.027  34.693  1.00  0.00     0.012 A 
ATOM     22  C   UNL A   1      41.304  27.971  32.877  1.00  0.00     0.001 A 
ATOM     23  C   UNL A   1      42.869  29.186  34.265  1.00  0.00     0.001 A 
ATOM     24  C   UNL A   1      42.602  28.165  33.353  1.00  0.00     0.000 A 
ENDBRANCH  17  19
ENDBRANCH  12  17
ENDBRANCH   7   9
ENDBRANCH   4   7
ENDBRANCH   2   3
ENDBRANCH   1   2
BRANCH   1  25
ATOM     25  C   UNL A   1      34.700  32.835  28.114  1.00  0.00     0.118 C 
BRANCH  25  26
ATOM     26  N   UNL A   1      33.939  31.622  27.868  1.00  0.00    -0.352 N 
ATOM     27  C   UNL A   1      34.344  30.314  27.791  1.00  0.00     0.251 C 
ATOM     28  H   UNL A   1      32.974  31.761  27.733  1.00  0.00     0.163 HD
ATOM     29  O   UNL A   1      33.533  29.468  27.407  1.00  0.00    -0.269 OA
BRANCH  27  30
ATOM     30  C   UNL A   1      35.725  29.901  28.134  1.00  0.00     0.039 A 
ATOM     31  C   UNL A   1      36.713  30.015  27.150  1.00  0.00     0.014 A 
ATOM     32  C   UNL A   1      36.052  29.350  29.378  1.00  0.00     0.014 A 
ATOM     33  C   UNL A   1      38.027  29.628  27.426  1.00  0.00     0.010 A 
ATOM     34  C   UNL A   1      37.379  29.020  29.673  1.00  0.00     0.010 A 
ATOM     35  C   UNL A   1      38.379  29.155  28.700  1.00  0.00    -0.014 A 
BRANCH  35  36
ATOM     36  C   UNL A   1      39.796  28.827  29.017  1.00  0.00     0.031 A 
ATOM     37  C   UNL A   1      40.695  29.832  29.685  1.00  0.00     0.074 A 
ATOM     38  C   UNL A   1      40.282  27.618  28.676  1.00  0.00     0.049 A 
ATOM     39  N   UNL A   1      41.946  29.701  30.051  1.00  0.00    -0.248 NA
ATOM     40  C   UNL A   1      40.124  31.158  29.966  1.00  0.00     0.031 C 
ATOM     41  C   UNL A   1      39.531  26.571  27.978  1.00  0.00     0.029 A 
ATOM     42  N   UNL A   1      41.523  27.062  28.870  1.00  0.00    -0.354 N 
ATOM     43  C   UNL A   1      42.313  30.924  30.599  1.00  0.00     0.074 A 
ATOM     44  C   UNL A   1      41.167  31.799  30.477  1.00  0.00     0.031 C 
ATOM     45  C   UNL A   1      40.316  25.492  27.829  1.00  0.00     0.029 A 
ATOM     46  C   UNL A   1      41.632  25.777  28.394  1.00  0.00     0.049 A 
ATOM     47  H   UNL A   1      42.264  27.539  29.309  1.00  0.00     0.167 HD
ATOM     48  C   UNL A   1      43.489  31.283  31.171  1.00  0.00     0.031 A 
ATOM     49  C   UNL A   1      42.670  24.920  28.410  1.00  0.00     0.031 A 
ATOM     50  C   UNL A   1      44.632  30.415  31.294  1.00  0.00     0.049 A 
ATOM     51  C   UNL A   1      43.960  25.335  29.058  1.00  0.00     0.074 A 
ATOM     52  C   UNL A   1      45.852  30.676  31.896  1.00  0.00     0.029 A 
ATOM     53  N   UNL A   1      44.699  29.118  30.808  1.00  0.00    -0.354 N 
ATOM     54  N   UNL A   1      44.264  26.478  29.626  1.00  0.00    -0.248 NA
ATOM     55  C   UNL A   1      45.039  24.340  29.083  1.00  0.00     0.031 C 
ATOM     56  C   UNL A   1      46.670  29.551  31.738  1.00  0.00     0.029 A 
ATOM     57  C   UNL A   1      45.943  28.573  31.079  1.00  0.00     0.049 A 
ATOM     58  H   UNL A   1      43.970  28.654  30.338  1.00  0.00     0.167 HD
ATOM     59  C   UNL A   1      45.569  26.333  30.087  1.00  0.00     0.074 A 
ATOM     60  C   UNL A   1      45.983  24.985  29.754  1.00  0.00     0.031 C 
ATOM     61  C   UNL A   1      46.351  27.237  30.726  1.00  0.00     0.031 A 
BRANCH  48  62
ATOM     62  C   UNL A   1      43.598  32.686  31.709  1.00  0.00    -0.014 A 
ATOM     63  C   UNL A   1      43.408  32.949  33.078  1.00  0.00     0.010 A 
ATOM     64  C   UNL A   1      43.934  33.747  30.849  1.00  0.00     0.010 A 
ATOM     65  C   UNL A   1      43.511  34.253  33.570  1.00  0.00     0.020 A 
ATOM     66  C   UNL A   1      44.061  35.049  31.341  1.00  0.00     0.020 A 
ATOM     67  C   UNL A   1      43.830  35.297  32.697  1.00  0.00     0.054 A 
BRANCH  67  68
ATOM     68  S   UNL A   1      43.975  36.978  33.364  1.00  0.00     0.124 S 
ATOM     69  O   UNL A   1      45.154  36.862  34.218  1.00  0.00    -0.237 OA
ATOM     70  O   UNL A   1      44.148  37.788  32.161  1.00  0.00    -0.237 OA
ATOM     71  O   UNL A   1      42.711  37.180  34.069  1.00  0.00    -0.744 OA
ENDBRANCH  67  68
ENDBRANCH  48  62
BRANCH  49  72
ATOM     72  C   UNL A   1      42.521  23.570  27.804  1.00  0.00    -0.014 A 
ATOM     73  C   UNL A   1      42.917  23.335  26.476  1.00  0.00     0.010 A 
ATOM     74  C   UNL A   1      42.003  22.505  28.563  1.00  0.00     0.010 A 
ATOM     75  C   UNL A   1      42.785  22.063  25.913  1.00  0.00     0.020 A 
ATOM     76  C   UNL A   1      41.892  21.226  28.011  1.00  0.00     0.020 A 
ATOM     77  C   UNL A   1      42.274  21.015  26.686  1.00  0.00     0.054 A 
BRANCH  77  78
ATOM     78  S   UNL A   1      42.170  19.356  25.959  1.00  0.00     0.124 S 
ATOM     79  O   UNL A   1      42.723  18.524  27.023  1.00  0.00    -0.237 OA
ATOM     80  O   UNL A   1      40.738  19.203  25.715  1.00  0.00    -0.237 OA
ATOM     81  O   UNL A   1      42.990  19.462  24.754  1.00  0.00    -0.744 OA
ENDBRANCH  77  78
ENDBRANCH  49  72
BRANCH  61  82
ATOM     82  C   UNL A   1      47.735  26.789  31.113  1.00  0.00    -0.014 A 
ATOM     83  C   UNL A   1      47.958  26.063  32.298  1.00  0.00     0.010 A 
ATOM     84  C   UNL A   1      48.825  27.086  30.275  1.00  0.00     0.010 A 
ATOM     85  C   UNL A   1      49.252  25.684  32.661  1.00  0.00     0.020 A 
ATOM     86  C   UNL A   1      50.118  26.686  30.623  1.00  0.00     0.020 A 
ATOM     87  C   UNL A   1      50.325  26.005  31.825  1.00  0.00     0.054 A 
BRANCH  87  88
ATOM     88  S   UNL A   1      51.998  25.494  32.309  1.00  0.00     0.124 S 
ATOM     89  O   UNL A   1      51.833  24.055  32.492  1.00  0.00    -0.237 OA
ATOM     90  O   UNL A   1      52.805  25.892  31.159  1.00  0.00    -0.237 OA
ATOM     91  O   UNL A   1      52.250  26.253  33.532  1.00  0.00    -0.744 OA
ENDBRANCH  87  88
ENDBRANCH  61  82
ENDBRANCH  35  36
ENDBRANCH  27  30
ENDBRANCH  25  26
ENDBRANCH   1  25
TORSDOF 17
ENDMDL
MODEL 3
REMARK VINA RESULT:     -11.1      1.318      2.478
REMARK SMILES C[C@@H](C(=O)NCCCNC(=O)c1ccc(-c2c3nc(c(-c4ccc(S(=O)(=O)[O-])cc4)c4ccc([nH]4)c(-c4ccc(S(=O)(=O)[O-])cc4)c4nc(c(-c5ccc(S(=O)(=O)[O-])cc5)c5ccc2[nH]5)C=C4)C=C3)cc1)c1cc(C(=O)c2ccccc2)ccc1O
REMARK SMILES IDX 7 1 6 2 5 3 3 4 4 5 2 7 1 8 72 9 73 10 85 11 74 12 84 13
REMARK SMILES IDX 83 14 86 15 75 17 76 18 77 19 78 20 82 21 79 22 81 23 80 24
REMARK SMILES IDX 8 25 9 26 10 27 11 29 12 30 13 31 71 32 14 33 70 34 15 35
REMARK SMILES IDX 16 36 17 37 64 38 18 39 69 40 63 41 65 42 19 43 68 44 62 45
REMARK SMILES IDX 61 46 20 48 50 49 31 50 49 51 32 52 35 53 48 54 66 55 33 56
REMARK SMILES IDX 34 57 47 59 67 60 36 61 21 62 22 63 30 64 23 65 29 66 24 67
REMARK SMILES IDX 25 68 26 69 27 70 28 71 51 72 52 73 60 74 53 75 59 76 54 77
REMARK SMILES IDX 55 78 56 79 57 80 58 81 37 82 38 83 46 84 39 85 45 86 40 87
REMARK SMILES IDX 41 88 42 89 43 90 44 91
REMARK H PARENT 5 6 86 16 9 28 65 47 35 58
REMARK Flexibility Score: inf
ROOT
ATOM      1  C   UNL A   1      33.517  27.587  26.609  1.00  0.00     0.042 C 
ENDROOT
BRANCH   1   2
ATOM      2  C   UNL A   1      32.043  27.808  26.951  1.00  0.00     0.117 C 
BRANCH   2   3
ATOM      3  N   UNL A   1      31.283  26.576  26.886  1.00  0.00    -0.356 N 
ATOM      4  C   UNL A   1      30.384  26.130  25.966  1.00  0.00     0.227 C 
ATOM      5  O   UNL A   1      29.794  25.081  26.247  1.00  0.00    -0.274 OA
ATOM      6  H   UNL A   1      31.443  25.957  27.633  1.00  0.00     0.163 HD
BRANCH   4   7
ATOM      7  C   UNL A   1      30.132  26.896  24.655  1.00  0.00     0.109 C 
ATOM      8  C   UNL A   1      28.861  26.428  23.942  1.00  0.00     0.023 C 
BRANCH   7   9
ATOM      9  C   UNL A   1      31.302  26.825  23.669  1.00  0.00     0.007 A 
ATOM     10  C   UNL A   1      31.761  25.563  23.241  1.00  0.00     0.020 A 
ATOM     11  C   UNL A   1      32.011  27.953  23.227  1.00  0.00     0.119 A 
ATOM     12  C   UNL A   1      32.885  25.443  22.406  1.00  0.00     0.023 A 
ATOM     13  C   UNL A   1      33.119  27.847  22.393  1.00  0.00     0.047 A 
ATOM     14  C   UNL A   1      33.548  26.594  21.966  1.00  0.00     0.016 A 
BRANCH  11  15
ATOM     15  O   UNL A   1      31.649  29.224  23.570  1.00  0.00    -0.508 OA
ATOM     16  H   UNL A   1      32.208  29.739  24.120  1.00  0.00     0.293 HD
ENDBRANCH  11  15
BRANCH  12  17
ATOM     17  C   UNL A   1      33.326  24.083  21.983  1.00  0.00     0.193 C 
ATOM     18  O   UNL A   1      33.295  23.766  20.797  1.00  0.00    -0.289 OA
BRANCH  17  19
ATOM     19  C   UNL A   1      33.838  23.103  22.972  1.00  0.00     0.022 A 
ATOM     20  C   UNL A   1      32.976  22.098  23.425  1.00  0.00     0.012 A 
ATOM     21  C   UNL A   1      35.151  23.171  23.451  1.00  0.00     0.012 A 
ATOM     22  C   UNL A   1      33.445  21.133  24.316  1.00  0.00     0.001 A 
ATOM     23  C   UNL A   1      35.615  22.200  24.341  1.00  0.00     0.001 A 
ATOM     24  C   UNL A   1      34.765  21.179  24.766  1.00  0.00     0.000 A 
ENDBRANCH  17  19
ENDBRANCH  12  17
ENDBRANCH   7   9
ENDBRANCH   4   7
ENDBRANCH   2   3
ENDBRANCH   1   2
BRANCH   1  25
ATOM     25  C   UNL A   1      34.211  28.771  25.934  1.00  0.00     0.118 C 
BRANCH  25  26
ATOM     26  N   UNL A   1      33.744  30.057  26.423  1.00  0.00    -0.352 N 
ATOM     27  C   UNL A   1      34.227  30.860  27.424  1.00  0.00     0.251 C 
ATOM     28  H   UNL A   1      32.949  30.409  25.961  1.00  0.00     0.163 HD
ATOM     29  O   UNL A   1      33.559  31.839  27.767  1.00  0.00    -0.269 OA
BRANCH  27  30
ATOM     30  C   UNL A   1      35.509  30.573  28.108  1.00  0.00     0.039 A 
ATOM     31  C   UNL A   1      35.492  29.701  29.202  1.00  0.00     0.014 A 
ATOM     32  C   UNL A   1      36.709  31.188  27.736  1.00  0.00     0.014 A 
ATOM     33  C   UNL A   1      36.676  29.408  29.885  1.00  0.00     0.010 A 
ATOM     34  C   UNL A   1      37.903  30.848  28.382  1.00  0.00     0.010 A 
ATOM     35  C   UNL A   1      37.898  29.955  29.463  1.00  0.00    -0.014 A 
BRANCH  35  36
ATOM     36  C   UNL A   1      39.168  29.572  30.138  1.00  0.00     0.031 A 
ATOM     37  C   UNL A   1      39.636  30.288  31.376  1.00  0.00     0.074 A 
ATOM     38  C   UNL A   1      39.917  28.582  29.614  1.00  0.00     0.049 A 
ATOM     39  N   UNL A   1      40.704  30.067  32.100  1.00  0.00    -0.248 NA
ATOM     40  C   UNL A   1      38.808  31.406  31.854  1.00  0.00     0.031 C 
ATOM     41  C   UNL A   1      39.603  27.841  28.390  1.00  0.00     0.029 A 
ATOM     42  N   UNL A   1      41.097  28.027  30.045  1.00  0.00    -0.354 N 
ATOM     43  C   UNL A   1      40.682  31.017  33.114  1.00  0.00     0.074 A 
ATOM     44  C   UNL A   1      39.517  31.845  32.886  1.00  0.00     0.031 C 
ATOM     45  C   UNL A   1      40.550  26.910  28.185  1.00  0.00     0.029 A 
ATOM     46  C   UNL A   1      41.551  27.006  29.243  1.00  0.00     0.049 A 
ATOM     47  H   UNL A   1      41.573  28.331  30.851  1.00  0.00     0.167 HD
ATOM     48  C   UNL A   1      41.539  31.174  34.153  1.00  0.00     0.031 A 
ATOM     49  C   UNL A   1      42.645  26.229  29.346  1.00  0.00     0.031 A 
ATOM     50  C   UNL A   1      42.698  30.351  34.383  1.00  0.00     0.049 A 
ATOM     51  C   UNL A   1      43.575  26.415  30.512  1.00  0.00     0.074 A 
ATOM     52  C   UNL A   1      43.601  30.408  35.432  1.00  0.00     0.029 A 
ATOM     53  N   UNL A   1      43.118  29.322  33.554  1.00  0.00    -0.354 N 
ATOM     54  N   UNL A   1      43.499  27.280  31.494  1.00  0.00    -0.248 NA
ATOM     55  C   UNL A   1      44.727  25.507  30.590  1.00  0.00     0.031 C 
ATOM     56  C   UNL A   1      44.588  29.439  35.215  1.00  0.00     0.029 A 
ATOM     57  C   UNL A   1      44.274  28.748  34.056  1.00  0.00     0.049 A 
ATOM     58  H   UNL A   1      42.660  29.040  32.729  1.00  0.00     0.167 HD
ATOM     59  C   UNL A   1      44.589  27.013  32.316  1.00  0.00     0.074 A 
ATOM     60  C   UNL A   1      45.291  25.889  31.728  1.00  0.00     0.031 C 
ATOM     61  C   UNL A   1      44.974  27.643  33.452  1.00  0.00     0.031 A 
BRANCH  48  62
ATOM     62  C   UNL A   1      41.251  32.287  35.126  1.00  0.00    -0.014 A 
ATOM     63  C   UNL A   1      41.845  33.553  34.969  1.00  0.00     0.010 A 
ATOM     64  C   UNL A   1      40.347  32.082  36.185  1.00  0.00     0.010 A 
ATOM     65  C   UNL A   1      41.572  34.581  35.876  1.00  0.00     0.020 A 
ATOM     66  C   UNL A   1      40.054  33.115  37.080  1.00  0.00     0.020 A 
ATOM     67  C   UNL A   1      40.683  34.354  36.931  1.00  0.00     0.054 A 
BRANCH  67  68
ATOM     68  S   UNL A   1      40.334  35.710  38.084  1.00  0.00     0.124 S 
ATOM     69  O   UNL A   1      41.663  36.000  38.616  1.00  0.00    -0.237 OA
ATOM     70  O   UNL A   1      39.768  36.736  37.212  1.00  0.00    -0.237 OA
ATOM     71  O   UNL A   1      39.396  35.122  39.037  1.00  0.00    -0.744 OA
ENDBRANCH  67  68
ENDBRANCH  48  62
BRANCH  49  72
ATOM     72  C   UNL A   1      42.910  25.188  28.318  1.00  0.00    -0.014 A 
ATOM     73  C   UNL A   1      43.731  25.468  27.211  1.00  0.00     0.010 A 
ATOM     74  C   UNL A   1      42.358  23.901  28.453  1.00  0.00     0.010 A 
ATOM     75  C   UNL A   1      43.986  24.485  26.252  1.00  0.00     0.020 A 
ATOM     76  C   UNL A   1      42.631  22.908  27.508  1.00  0.00     0.020 A 
ATOM     77  C   UNL A   1      43.434  23.209  26.408  1.00  0.00     0.054 A 
BRANCH  77  78
ATOM     78  S   UNL A   1      43.828  21.926  25.187  1.00  0.00     0.124 S 
ATOM     79  O   UNL A   1      42.837  20.899  25.495  1.00  0.00    -0.237 OA
ATOM     80  O   UNL A   1      43.642  22.625  23.918  1.00  0.00    -0.237 OA
ATOM     81  O   UNL A   1      45.212  21.576  25.497  1.00  0.00    -0.744 OA
ENDBRANCH  77  78
ENDBRANCH  49  72
BRANCH  61  82
ATOM     82  C   UNL A   1      46.209  27.121  34.138  1.00  0.00    -0.014 A 
ATOM     83  C   UNL A   1      46.125  26.107  35.109  1.00  0.00     0.010 A 
ATOM     84  C   UNL A   1      47.470  27.643  33.797  1.00  0.00     0.010 A 
ATOM     85  C   UNL A   1      47.275  25.657  35.762  1.00  0.00     0.020 A 
ATOM     86  C   UNL A   1      48.625  27.178  34.430  1.00  0.00     0.020 A 
ATOM     87  C   UNL A   1      48.518  26.202  35.423  1.00  0.00     0.054 A 
BRANCH  87  88
ATOM     88  S   UNL A   1      50.001  25.596  36.275  1.00  0.00     0.124 S 
ATOM     89  O   UNL A   1      49.823  24.149  36.201  1.00  0.00    -0.237 OA
ATOM     90  O   UNL A   1      51.087  26.139  35.461  1.00  0.00    -0.237 OA
ATOM     91  O   UNL A   1      49.889  26.170  37.614  1.00  0.00    -0.744 OA
ENDBRANCH  87  88
ENDBRANCH  61  82
ENDBRANCH  35  36
ENDBRANCH  27  30
ENDBRANCH  25  26
ENDBRANCH   1  25
TORSDOF 17
ENDMDL
