MODEL 1
REMARK VINA RESULT:     -12.6      0.000      0.000
REMARK SMILES O=C(NCCCNC(=O)[C@H](c1c[nH]c2ccc(Cl)cc12)[NH+]1CCN(c2cccc(Cl)c2)CC1)c1ccc(-c2c3nc(c(-c4ccc(S(=O)(=O)[O-])cc4)c4ccc([nH]4)c(-c4ccc(S(=O)(=O)[O-])cc4)c4nc(c(-c5ccc(S(=O)(=O)[O-])cc5)c5ccc2[nH]5)C=C4)C=C3)cc1
REMARK SMILES IDX 4 1 3 2 1 3 2 4 34 6 35 7 93 8 36 9 92 10 37 11 38 12 39 13
REMARK SMILES IDX 86 14 40 15 91 16 85 17 87 18 41 19 90 20 84 21 83 22 42 24
REMARK SMILES IDX 72 25 53 26 71 27 54 28 57 29 70 30 88 31 55 32 56 33 69 35
REMARK SMILES IDX 89 36 58 37 43 38 44 39 52 40 45 41 51 42 46 43 47 44 48 45
REMARK SMILES IDX 49 46 50 47 73 48 74 49 82 50 75 51 81 52 76 53 77 54 78 55
REMARK SMILES IDX 79 56 80 57 59 58 60 59 68 60 61 61 67 62 62 63 63 64 64 65
REMARK SMILES IDX 65 66 66 67 5 68 6 69 7 70 8 71 9 73 10 74 21 75 22 76 33 77
REMARK SMILES IDX 23 79 32 80 24 81 25 82 26 83 31 84 27 85 29 86 28 87 30 88
REMARK SMILES IDX 11 89 12 90 20 91 13 92 14 93 19 94 15 96 17 97 16 98 18 99
REMARK H PARENT 3 5 87 23 57 34 7 72 21 78 13 95
REMARK Flexibility Score: inf
ROOT
ATOM      1  C   UNL A   1      33.672  28.400  27.418  1.00  0.00     0.118 C 
ENDROOT
BRANCH   1   2
ATOM      2  N   UNL A   1      33.580  29.847  27.551  1.00  0.00    -0.352 N 
ATOM      3  O   UNL A   1      34.091  31.858  28.422  1.00  0.00    -0.269 OA
ATOM      4  C   UNL A   1      34.459  30.724  28.142  1.00  0.00     0.251 C 
ATOM      5  H   UNL A   1      32.773  30.255  27.162  1.00  0.00     0.163 HD
BRANCH   4   6
ATOM      6  C   UNL A   1      35.842  30.288  28.431  1.00  0.00     0.039 A 
ATOM      7  C   UNL A   1      36.830  30.415  27.454  1.00  0.00     0.014 A 
ATOM      8  C   UNL A   1      36.168  29.777  29.691  1.00  0.00     0.014 A 
ATOM      9  C   UNL A   1      38.085  29.874  27.669  1.00  0.00     0.010 A 
ATOM     10  C   UNL A   1      37.479  29.364  29.954  1.00  0.00     0.010 A 
ATOM     11  C   UNL A   1      38.444  29.395  28.938  1.00  0.00    -0.014 A 
BRANCH  11  12
ATOM     12  C   UNL A   1      39.871  29.056  29.169  1.00  0.00     0.031 A 
ATOM     13  C   UNL A   1      40.442  27.722  28.782  1.00  0.00     0.074 A 
ATOM     14  C   UNL A   1      40.667  30.022  29.674  1.00  0.00     0.049 A 
ATOM     15  N   UNL A   1      41.685  27.319  28.846  1.00  0.00    -0.248 NA
ATOM     16  C   UNL A   1      39.510  26.709  28.264  1.00  0.00     0.031 C 
ATOM     17  C   UNL A   1      40.208  31.349  30.105  1.00  0.00     0.029 A 
ATOM     18  N   UNL A   1      42.023  30.068  29.865  1.00  0.00    -0.354 N 
ATOM     19  C   UNL A   1      41.687  26.006  28.392  1.00  0.00     0.074 A 
ATOM     20  C   UNL A   1      40.313  25.669  28.082  1.00  0.00     0.031 C 
ATOM     21  C   UNL A   1      41.268  32.102  30.425  1.00  0.00     0.029 A 
ATOM     22  C   UNL A   1      42.470  31.289  30.315  1.00  0.00     0.049 A 
ATOM     23  H   UNL A   1      42.618  29.302  29.698  1.00  0.00     0.167 HD
ATOM     24  C   UNL A   1      42.739  25.166  28.241  1.00  0.00     0.031 A 
ATOM     25  C   UNL A   1      43.709  31.709  30.626  1.00  0.00     0.031 A 
ATOM     26  C   UNL A   1      44.101  25.514  28.564  1.00  0.00     0.049 A 
ATOM     27  C   UNL A   1      44.849  30.750  30.467  1.00  0.00     0.074 A 
ATOM     28  C   UNL A   1      45.240  24.735  28.452  1.00  0.00     0.029 A 
ATOM     29  N   UNL A   1      44.509  26.744  29.060  1.00  0.00    -0.354 N 
ATOM     30  N   UNL A   1      44.827  29.515  30.023  1.00  0.00    -0.248 NA
ATOM     31  C   UNL A   1      46.179  31.236  30.848  1.00  0.00     0.031 C 
ATOM     32  C   UNL A   1      46.328  25.476  28.924  1.00  0.00     0.029 A 
ATOM     33  C   UNL A   1      45.879  26.739  29.273  1.00  0.00     0.049 A 
ATOM     34  H   UNL A   1      43.914  27.508  29.235  1.00  0.00     0.167 HD
ATOM     35  C   UNL A   1      46.142  29.076  30.070  1.00  0.00     0.074 A 
ATOM     36  C   UNL A   1      46.938  30.193  30.545  1.00  0.00     0.031 C 
ATOM     37  C   UNL A   1      46.648  27.857  29.762  1.00  0.00     0.031 A 
BRANCH  24  38
ATOM     38  C   UNL A   1      42.462  23.781  27.717  1.00  0.00    -0.014 A 
ATOM     39  C   UNL A   1      42.501  23.506  26.338  1.00  0.00     0.010 A 
ATOM     40  C   UNL A   1      42.223  22.724  28.616  1.00  0.00     0.010 A 
ATOM     41  C   UNL A   1      42.280  22.209  25.866  1.00  0.00     0.020 A 
ATOM     42  C   UNL A   1      42.027  21.420  28.150  1.00  0.00     0.020 A 
ATOM     43  C   UNL A   1      42.045  21.173  26.776  1.00  0.00     0.054 A 
BRANCH  43  44
ATOM     44  S   UNL A   1      41.799  19.494  26.133  1.00  0.00     0.124 S 
ATOM     45  O   UNL A   1      42.251  18.674  27.254  1.00  0.00    -0.237 OA
ATOM     46  O   UNL A   1      40.362  19.461  25.870  1.00  0.00    -0.237 OA
ATOM     47  O   UNL A   1      42.648  19.449  24.946  1.00  0.00    -0.744 OA
ENDBRANCH  43  44
ENDBRANCH  24  38
BRANCH  25  48
ATOM     48  C   UNL A   1      43.913  33.083  31.164  1.00  0.00    -0.014 A 
ATOM     49  C   UNL A   1      43.883  33.337  32.545  1.00  0.00     0.010 A 
ATOM     50  C   UNL A   1      44.156  34.150  30.278  1.00  0.00     0.010 A 
ATOM     51  C   UNL A   1      44.066  34.637  33.028  1.00  0.00     0.020 A 
ATOM     52  C   UNL A   1      44.377  35.442  30.757  1.00  0.00     0.020 A 
ATOM     53  C   UNL A   1      44.312  35.680  32.130  1.00  0.00     0.054 A 
BRANCH  53  54
ATOM     54  S   UNL A   1      44.578  37.353  32.776  1.00  0.00     0.124 S 
ATOM     55  O   UNL A   1      43.754  37.346  33.981  1.00  0.00    -0.237 OA
ATOM     56  O   UNL A   1      46.022  37.382  32.996  1.00  0.00    -0.237 OA
ATOM     57  O   UNL A   1      44.103  38.216  31.697  1.00  0.00    -0.744 OA
ENDBRANCH  53  54
ENDBRANCH  25  48
BRANCH  37  58
ATOM     58  C   UNL A   1      48.135  27.685  29.914  1.00  0.00    -0.014 A 
ATOM     59  C   UNL A   1      49.013  27.983  28.855  1.00  0.00     0.010 A 
ATOM     60  C   UNL A   1      48.660  27.222  31.132  1.00  0.00     0.010 A 
ATOM     61  C   UNL A   1      50.385  27.769  28.996  1.00  0.00     0.020 A 
ATOM     62  C   UNL A   1      50.036  27.036  31.288  1.00  0.00     0.020 A 
ATOM     63  C   UNL A   1      50.887  27.290  30.210  1.00  0.00     0.054 A 
BRANCH  63  64
ATOM     64  S   UNL A   1      52.673  27.026  30.372  1.00  0.00     0.124 S 
ATOM     65  O   UNL A   1      52.730  25.897  31.297  1.00  0.00    -0.237 OA
ATOM     66  O   UNL A   1      53.080  26.736  28.999  1.00  0.00    -0.237 OA
ATOM     67  O   UNL A   1      53.164  28.295  30.905  1.00  0.00    -0.744 OA
ENDBRANCH  63  64
ENDBRANCH  37  58
ENDBRANCH  11  12
ENDBRANCH   4   6
ENDBRANCH   1   2
BRANCH   1  68
ATOM     68  C   UNL A   1      34.053  27.995  26.006  1.00  0.00     0.042 C 
BRANCH  68  69
ATOM     69  C   UNL A   1      33.835  26.510  25.751  1.00  0.00     0.118 C 
BRANCH  69  70
ATOM     70  N   UNL A   1      32.447  26.144  25.961  1.00  0.00    -0.351 N 
ATOM     71  C   UNL A   1      31.409  26.200  25.061  1.00  0.00     0.283 C 
ATOM     72  H   UNL A   1      32.220  25.814  26.860  1.00  0.00     0.163 HD
ATOM     73  O   UNL A   1      30.275  26.171  25.544  1.00  0.00    -0.268 OA
BRANCH  71  74
ATOM     74  C   UNL A   1      31.730  26.321  23.540  1.00  0.00     0.307 C 
BRANCH  74  75
ATOM     75  N   UNL A   1      31.289  25.164  22.713  1.00  0.00    -0.318 N 
ATOM     76  C   UNL A   1      32.247  24.493  21.824  1.00  0.00     0.284 C 
ATOM     77  C   UNL A   1      30.544  24.129  23.458  1.00  0.00     0.284 C 
ATOM     78  H   UNL A   1      30.677  25.686  22.087  1.00  0.00     0.349 HD
ATOM     79  C   UNL A   1      33.227  23.528  22.503  1.00  0.00     0.178 C 
ATOM     80  C   UNL A   1      31.388  23.037  24.166  1.00  0.00     0.178 C 
ATOM     81  N   UNL A   1      32.511  22.553  23.339  1.00  0.00    -0.360 N 
BRANCH  81  82
ATOM     82  C   UNL A   1      33.221  21.473  23.855  1.00  0.00     0.038 A 
ATOM     83  C   UNL A   1      34.506  21.688  24.371  1.00  0.00     0.026 A 
ATOM     84  C   UNL A   1      32.709  20.170  23.888  1.00  0.00     0.046 A 
ATOM     85  C   UNL A   1      35.251  20.648  24.930  1.00  0.00     0.004 A 
ATOM     86  C   UNL A   1      33.457  19.126  24.435  1.00  0.00     0.043 A 
ATOM     87  C   UNL A   1      34.723  19.361  24.964  1.00  0.00     0.020 A 
ATOM     88  Cl  UNL A   1      32.810  17.530  24.459  1.00  0.00    -0.084 Cl
ENDBRANCH  81  82
ENDBRANCH  74  75
BRANCH  74  89
ATOM     89  C   UNL A   1      31.388  27.696  23.008  1.00  0.00     0.044 A 
ATOM     90  C   UNL A   1      32.206  28.595  22.345  1.00  0.00     0.094 A 
ATOM     91  C   UNL A   1      30.068  28.288  22.987  1.00  0.00     0.011 A 
ATOM     92  N   UNL A   1      31.498  29.739  22.088  1.00  0.00    -0.361 N 
ATOM     93  C   UNL A   1      30.177  29.558  22.419  1.00  0.00     0.046 A 
ATOM     94  C   UNL A   1      28.782  27.841  23.367  1.00  0.00     0.031 A 
ATOM     95  H   UNL A   1      31.878  30.568  21.719  1.00  0.00     0.166 HD
ATOM     96  C   UNL A   1      29.084  30.413  22.240  1.00  0.00     0.028 A 
ATOM     97  C   UNL A   1      27.674  28.663  23.142  1.00  0.00     0.041 A 
ATOM     98  C   UNL A   1      27.820  29.935  22.599  1.00  0.00     0.022 A 
ATOM     99  Cl  UNL A   1      26.101  28.074  23.522  1.00  0.00    -0.084 Cl
ENDBRANCH  74  89
ENDBRANCH  71  74
ENDBRANCH  69  70
ENDBRANCH  68  69
ENDBRANCH   1  68
TORSDOF 16
ENDMDL
MODEL 2
REMARK VINA RESULT:     -12.4      2.429      8.357
REMARK SMILES O=C(NCCCNC(=O)[C@H](c1c[nH]c2ccc(Cl)cc12)[NH+]1CCN(c2cccc(Cl)c2)CC1)c1ccc(-c2c3nc(c(-c4ccc(S(=O)(=O)[O-])cc4)c4ccc([nH]4)c(-c4ccc(S(=O)(=O)[O-])cc4)c4nc(c(-c5ccc(S(=O)(=O)[O-])cc5)c5ccc2[nH]5)C=C4)C=C3)cc1
REMARK SMILES IDX 4 1 3 2 1 3 2 4 34 6 35 7 93 8 36 9 92 10 37 11 38 12 39 13
REMARK SMILES IDX 86 14 40 15 91 16 85 17 87 18 41 19 90 20 84 21 83 22 42 24
REMARK SMILES IDX 72 25 53 26 71 27 54 28 57 29 70 30 88 31 55 32 56 33 69 35
REMARK SMILES IDX 89 36 58 37 43 38 44 39 52 40 45 41 51 42 46 43 47 44 48 45
REMARK SMILES IDX 49 46 50 47 73 48 74 49 82 50 75 51 81 52 76 53 77 54 78 55
REMARK SMILES IDX 79 56 80 57 59 58 60 59 68 60 61 61 67 62 62 63 63 64 64 65
REMARK SMILES IDX 65 66 66 67 5 68 6 69 7 70 8 71 9 73 10 74 21 75 22 76 33 77
REMARK SMILES IDX 23 79 32 80 24 81 25 82 26 83 31 84 27 85 29 86 28 87 30 88
REMARK SMILES IDX 11 89 12 90 20 91 13 92 14 93 19 94 15 96 17 97 16 98 18 99
REMARK H PARENT 3 5 87 23 57 34 7 72 21 78 13 95
REMARK Flexibility Score: inf
ROOT
ATOM      1  C   UNL A   1      35.237  29.358  27.636  1.00  0.00     0.118 C 
ENDROOT
BRANCH   1   2
ATOM      2  N   UNL A   1      35.246  29.990  28.947  1.00  0.00    -0.352 N 
ATOM      3  O   UNL A   1      35.975  30.332  31.049  1.00  0.00    -0.269 OA
ATOM      4  C   UNL A   1      36.240  30.009  29.898  1.00  0.00     0.251 C 
ATOM      5  H   UNL A   1      34.422  30.473  29.188  1.00  0.00     0.163 HD
BRANCH   4   6
ATOM      6  C   UNL A   1      37.621  29.639  29.517  1.00  0.00     0.039 A 
ATOM      7  C   UNL A   1      38.061  29.846  28.211  1.00  0.00     0.014 A 
ATOM      8  C   UNL A   1      38.494  29.110  30.473  1.00  0.00     0.014 A 
ATOM      9  C   UNL A   1      39.298  29.368  27.816  1.00  0.00     0.010 A 
ATOM     10  C   UNL A   1      39.797  28.760  30.104  1.00  0.00     0.010 A 
ATOM     11  C   UNL A   1      40.204  28.871  28.766  1.00  0.00    -0.014 A 
BRANCH  11  12
ATOM     12  C   UNL A   1      41.594  28.603  28.320  1.00  0.00     0.031 A 
ATOM     13  C   UNL A   1      42.656  29.663  28.354  1.00  0.00     0.074 A 
ATOM     14  C   UNL A   1      41.896  27.340  27.951  1.00  0.00     0.049 A 
ATOM     15  N   UNL A   1      43.930  29.549  28.075  1.00  0.00    -0.248 NA
ATOM     16  C   UNL A   1      42.247  31.022  28.740  1.00  0.00     0.031 C 
ATOM     17  C   UNL A   1      40.932  26.236  27.861  1.00  0.00     0.029 A 
ATOM     18  N   UNL A   1      43.093  26.754  27.632  1.00  0.00    -0.354 N 
ATOM     19  C   UNL A   1      44.473  30.817  28.239  1.00  0.00     0.074 A 
ATOM     20  C   UNL A   1      43.384  31.694  28.613  1.00  0.00     0.031 C 
ATOM     21  C   UNL A   1      41.585  25.098  27.598  1.00  0.00     0.029 A 
ATOM     22  C   UNL A   1      42.996  25.400  27.407  1.00  0.00     0.049 A 
ATOM     23  H   UNL A   1      43.939  27.253  27.570  1.00  0.00     0.167 HD
ATOM     24  C   UNL A   1      45.763  31.207  28.096  1.00  0.00     0.031 A 
ATOM     25  C   UNL A   1      43.932  24.498  27.063  1.00  0.00     0.031 A 
ATOM     26  C   UNL A   1      46.835  30.323  27.713  1.00  0.00     0.049 A 
ATOM     27  C   UNL A   1      45.346  24.965  26.895  1.00  0.00     0.074 A 
ATOM     28  C   UNL A   1      48.176  30.620  27.538  1.00  0.00     0.029 A 
ATOM     29  N   UNL A   1      46.691  28.969  27.449  1.00  0.00    -0.354 N 
ATOM     30  N   UNL A   1      45.837  26.170  27.067  1.00  0.00    -0.248 NA
ATOM     31  C   UNL A   1      46.330  23.957  26.489  1.00  0.00     0.031 C 
ATOM     32  C   UNL A   1      48.833  29.457  27.122  1.00  0.00     0.029 A 
ATOM     33  C   UNL A   1      47.915  28.420  27.097  1.00  0.00     0.049 A 
ATOM     34  H   UNL A   1      45.843  28.470  27.503  1.00  0.00     0.167 HD
ATOM     35  C   UNL A   1      47.193  26.063  26.791  1.00  0.00     0.074 A 
ATOM     36  C   UNL A   1      47.448  24.668  26.482  1.00  0.00     0.031 C 
ATOM     37  C   UNL A   1      48.141  27.032  26.778  1.00  0.00     0.031 A 
BRANCH  24  38
ATOM     38  C   UNL A   1      46.088  32.658  28.342  1.00  0.00    -0.014 A 
ATOM     39  C   UNL A   1      46.534  33.100  29.600  1.00  0.00     0.010 A 
ATOM     40  C   UNL A   1      46.009  33.585  27.284  1.00  0.00     0.010 A 
ATOM     41  C   UNL A   1      46.869  34.441  29.806  1.00  0.00     0.020 A 
ATOM     42  C   UNL A   1      46.368  34.923  27.477  1.00  0.00     0.020 A 
ATOM     43  C   UNL A   1      46.785  35.344  28.741  1.00  0.00     0.054 A 
BRANCH  43  44
ATOM     44  S   UNL A   1      47.263  37.071  29.030  1.00  0.00     0.124 S 
ATOM     45  O   UNL A   1      45.976  37.692  29.332  1.00  0.00    -0.237 OA
ATOM     46  O   UNL A   1      48.186  36.962  30.157  1.00  0.00    -0.237 OA
ATOM     47  O   UNL A   1      47.870  37.479  27.766  1.00  0.00    -0.744 OA
ENDBRANCH  43  44
ENDBRANCH  24  38
BRANCH  25  48
ATOM     48  C   UNL A   1      43.541  23.083  26.810  1.00  0.00    -0.014 A 
ATOM     49  C   UNL A   1      43.799  22.466  25.576  1.00  0.00     0.010 A 
ATOM     50  C   UNL A   1      42.914  22.340  27.828  1.00  0.00     0.010 A 
ATOM     51  C   UNL A   1      43.414  21.139  25.356  1.00  0.00     0.020 A 
ATOM     52  C   UNL A   1      42.561  21.005  27.627  1.00  0.00     0.020 A 
ATOM     53  C   UNL A   1      42.798  20.419  26.384  1.00  0.00     0.054 A 
BRANCH  53  54
ATOM     54  S   UNL A   1      42.334  18.690  26.091  1.00  0.00     0.124 S 
ATOM     55  O   UNL A   1      42.584  18.085  27.395  1.00  0.00    -0.237 OA
ATOM     56  O   UNL A   1      40.930  18.800  25.702  1.00  0.00    -0.237 OA
ATOM     57  O   UNL A   1      43.237  18.270  25.021  1.00  0.00    -0.744 OA
ENDBRANCH  53  54
ENDBRANCH  25  48
BRANCH  37  58
ATOM     58  C   UNL A   1      49.542  26.600  26.438  1.00  0.00    -0.014 A 
ATOM     59  C   UNL A   1      50.060  26.772  25.141  1.00  0.00     0.010 A 
ATOM     60  C   UNL A   1      50.350  26.018  27.429  1.00  0.00     0.010 A 
ATOM     61  C   UNL A   1      51.344  26.319  24.829  1.00  0.00     0.020 A 
ATOM     62  C   UNL A   1      51.646  25.592  27.129  1.00  0.00     0.020 A 
ATOM     63  C   UNL A   1      52.126  25.725  25.825  1.00  0.00     0.054 A 
BRANCH  63  64
ATOM     64  S   UNL A   1      53.791  25.151  25.398  1.00  0.00     0.124 S 
ATOM     65  O   UNL A   1      53.632  23.699  25.446  1.00  0.00    -0.237 OA
ATOM     66  O   UNL A   1      53.995  25.717  24.067  1.00  0.00    -0.237 OA
ATOM     67  O   UNL A   1      54.634  25.721  26.447  1.00  0.00    -0.744 OA
ENDBRANCH  63  64
ENDBRANCH  37  58
ENDBRANCH  11  12
ENDBRANCH   4   6
ENDBRANCH   1   2
BRANCH   1  68
ATOM     68  C   UNL A   1      33.938  29.624  26.900  1.00  0.00     0.042 C 
BRANCH  68  69
ATOM     69  C   UNL A   1      33.773  28.734  25.675  1.00  0.00     0.118 C 
BRANCH  69  70
ATOM     70  N   UNL A   1      33.292  27.418  26.049  1.00  0.00    -0.351 N 
ATOM     71  C   UNL A   1      32.300  26.676  25.452  1.00  0.00     0.283 C 
ATOM     72  H   UNL A   1      33.729  27.004  26.827  1.00  0.00     0.163 HD
ATOM     73  O   UNL A   1      31.830  25.760  26.131  1.00  0.00    -0.268 OA
BRANCH  71  74
ATOM     74  C   UNL A   1      31.834  27.053  24.013  1.00  0.00     0.307 C 
BRANCH  74  75
ATOM     75  N   UNL A   1      32.570  26.366  22.916  1.00  0.00    -0.318 N 
ATOM     76  C   UNL A   1      33.977  25.987  23.105  1.00  0.00     0.284 C 
ATOM     77  C   UNL A   1      31.855  25.216  22.327  1.00  0.00     0.284 C 
ATOM     78  H   UNL A   1      32.599  27.156  22.273  1.00  0.00     0.349 HD
ATOM     79  C   UNL A   1      34.224  24.729  23.947  1.00  0.00     0.178 C 
ATOM     80  C   UNL A   1      32.041  23.845  23.031  1.00  0.00     0.178 C 
ATOM     81  N   UNL A   1      33.436  23.596  23.442  1.00  0.00    -0.360 N 
BRANCH  81  82
ATOM     82  C   UNL A   1      33.699  22.326  23.949  1.00  0.00     0.038 A 
ATOM     83  C   UNL A   1      32.628  21.456  24.192  1.00  0.00     0.026 A 
ATOM     84  C   UNL A   1      34.993  21.869  24.228  1.00  0.00     0.046 A 
ATOM     85  C   UNL A   1      32.835  20.161  24.670  1.00  0.00     0.004 A 
ATOM     86  C   UNL A   1      35.201  20.578  24.718  1.00  0.00     0.043 A 
ATOM     87  C   UNL A   1      34.128  19.719  24.932  1.00  0.00     0.020 A 
ATOM     88  Cl  UNL A   1      36.801  20.041  25.059  1.00  0.00    -0.084 Cl
ENDBRANCH  81  82
ENDBRANCH  74  75
BRANCH  74  89
ATOM     89  C   UNL A   1      30.324  27.064  23.904  1.00  0.00     0.044 A 
ATOM     90  C   UNL A   1      29.421  26.084  24.283  1.00  0.00     0.094 A 
ATOM     91  C   UNL A   1      29.517  28.189  23.483  1.00  0.00     0.011 A 
ATOM     92  N   UNL A   1      28.155  26.492  23.958  1.00  0.00    -0.361 N 
ATOM     93  C   UNL A   1      28.179  27.794  23.520  1.00  0.00     0.046 A 
ATOM     94  C   UNL A   1      29.804  29.522  23.111  1.00  0.00     0.031 A 
ATOM     95  H   UNL A   1      27.347  25.935  24.028  1.00  0.00     0.166 HD
ATOM     96  C   UNL A   1      27.120  28.642  23.175  1.00  0.00     0.028 A 
ATOM     97  C   UNL A   1      28.751  30.396  22.818  1.00  0.00     0.041 A 
ATOM     98  C   UNL A   1      27.430  29.962  22.837  1.00  0.00     0.022 A 
ATOM     99  Cl  UNL A   1      29.104  32.042  22.456  1.00  0.00    -0.084 Cl
ENDBRANCH  74  89
ENDBRANCH  71  74
ENDBRANCH  69  70
ENDBRANCH  68  69
ENDBRANCH   1  68
TORSDOF 16
ENDMDL
MODEL 3
REMARK VINA RESULT:     -12.3      3.354      8.348
REMARK SMILES O=C(NCCCNC(=O)[C@H](c1c[nH]c2ccc(Cl)cc12)[NH+]1CCN(c2cccc(Cl)c2)CC1)c1ccc(-c2c3nc(c(-c4ccc(S(=O)(=O)[O-])cc4)c4ccc([nH]4)c(-c4ccc(S(=O)(=O)[O-])cc4)c4nc(c(-c5ccc(S(=O)(=O)[O-])cc5)c5ccc2[nH]5)C=C4)C=C3)cc1
REMARK SMILES IDX 4 1 3 2 1 3 2 4 34 6 35 7 93 8 36 9 92 10 37 11 38 12 39 13
REMARK SMILES IDX 86 14 40 15 91 16 85 17 87 18 41 19 90 20 84 21 83 22 42 24
REMARK SMILES IDX 72 25 53 26 71 27 54 28 57 29 70 30 88 31 55 32 56 33 69 35
REMARK SMILES IDX 89 36 58 37 43 38 44 39 52 40 45 41 51 42 46 43 47 44 48 45
REMARK SMILES IDX 49 46 50 47 73 48 74 49 82 50 75 51 81 52 76 53 77 54 78 55
REMARK SMILES IDX 79 56 80 57 59 58 60 59 68 60 61 61 67 62 62 63 63 64 64 65
REMARK SMILES IDX 65 66 66 67 5 68 6 69 7 70 8 71 9 73 10 74 21 75 22 76 33 77
REMARK SMILES IDX 23 79 32 80 24 81 25 82 26 83 31 84 27 85 29 86 28 87 30 88
REMARK SMILES IDX 11 89 12 90 20 91 13 92 14 93 19 94 15 96 17 97 16 98 18 99
REMARK H PARENT 3 5 87 23 57 34 7 72 21 78 13 95
REMARK Flexibility Score: inf
ROOT
ATOM      1  C   UNL A   1      34.370  28.826  26.361  1.00  0.00     0.118 C 
ENDROOT
BRANCH   1   2
ATOM      2  N   UNL A   1      33.944  30.197  26.604  1.00  0.00    -0.352 N 
ATOM      3  O   UNL A   1      33.713  32.086  27.806  1.00  0.00    -0.269 OA
ATOM      4  C   UNL A   1      34.377  31.087  27.559  1.00  0.00     0.251 C 
ATOM      5  H   UNL A   1      33.246  30.535  25.997  1.00  0.00     0.163 HD
BRANCH   4   6
ATOM      6  C   UNL A   1      35.645  30.827  28.276  1.00  0.00     0.039 A 
ATOM      7  C   UNL A   1      35.744  29.737  29.140  1.00  0.00     0.014 A 
ATOM      8  C   UNL A   1      36.752  31.655  28.067  1.00  0.00     0.014 A 
ATOM      9  C   UNL A   1      36.874  29.578  29.922  1.00  0.00     0.010 A 
ATOM     10  C   UNL A   1      37.946  31.404  28.752  1.00  0.00     0.010 A 
ATOM     11  C   UNL A   1      38.010  30.372  29.699  1.00  0.00    -0.014 A 
BRANCH  11  12
ATOM     12  C   UNL A   1      39.264  29.993  30.397  1.00  0.00     0.031 A 
ATOM     13  C   UNL A   1      39.688  30.652  31.678  1.00  0.00     0.074 A 
ATOM     14  C   UNL A   1      39.982  28.974  29.880  1.00  0.00     0.049 A 
ATOM     15  N   UNL A   1      40.712  30.366  32.441  1.00  0.00    -0.248 NA
ATOM     16  C   UNL A   1      38.872  31.774  32.168  1.00  0.00     0.031 C 
ATOM     17  C   UNL A   1      39.671  28.278  28.625  1.00  0.00     0.029 A 
ATOM     18  N   UNL A   1      41.083  28.311  30.355  1.00  0.00    -0.354 N 
ATOM     19  C   UNL A   1      40.675  31.274  33.491  1.00  0.00     0.074 A 
ATOM     20  C   UNL A   1      39.541  32.143  33.252  1.00  0.00     0.031 C 
ATOM     21  C   UNL A   1      40.501  27.238  28.477  1.00  0.00     0.029 A 
ATOM     22  C   UNL A   1      41.461  27.246  29.570  1.00  0.00     0.049 A 
ATOM     23  H   UNL A   1      41.556  28.571  31.178  1.00  0.00     0.167 HD
ATOM     24  C   UNL A   1      41.505  31.367  34.557  1.00  0.00     0.031 A 
ATOM     25  C   UNL A   1      42.481  26.380  29.699  1.00  0.00     0.031 A 
ATOM     26  C   UNL A   1      42.637  30.500  34.776  1.00  0.00     0.049 A 
ATOM     27  C   UNL A   1      43.394  26.522  30.879  1.00  0.00     0.074 A 
ATOM     28  C   UNL A   1      43.543  30.513  35.822  1.00  0.00     0.029 A 
ATOM     29  N   UNL A   1      43.016  29.464  33.935  1.00  0.00    -0.354 N 
ATOM     30  N   UNL A   1      43.330  27.383  31.866  1.00  0.00    -0.248 NA
ATOM     31  C   UNL A   1      44.512  25.577  30.965  1.00  0.00     0.031 C 
ATOM     32  C   UNL A   1      44.496  29.516  35.590  1.00  0.00     0.029 A 
ATOM     33  C   UNL A   1      44.150  28.840  34.432  1.00  0.00     0.049 A 
ATOM     34  H   UNL A   1      42.547  29.207  33.108  1.00  0.00     0.167 HD
ATOM     35  C   UNL A   1      44.402  27.083  32.695  1.00  0.00     0.074 A 
ATOM     36  C   UNL A   1      45.069  25.934  32.113  1.00  0.00     0.031 C 
ATOM     37  C   UNL A   1      44.808  27.709  33.827  1.00  0.00     0.031 A 
BRANCH  24  38
ATOM     38  C   UNL A   1      41.234  32.454  35.566  1.00  0.00    -0.014 A 
ATOM     39  C   UNL A   1      41.758  33.748  35.397  1.00  0.00     0.010 A 
ATOM     40  C   UNL A   1      40.389  32.199  36.664  1.00  0.00     0.010 A 
ATOM     41  C   UNL A   1      41.468  34.758  36.319  1.00  0.00     0.020 A 
ATOM     42  C   UNL A   1      40.075  33.213  37.575  1.00  0.00     0.020 A 
ATOM     43  C   UNL A   1      40.627  34.483  37.402  1.00  0.00     0.054 A 
BRANCH  43  44
ATOM     44  S   UNL A   1      40.240  35.826  38.560  1.00  0.00     0.124 S 
ATOM     45  O   UNL A   1      39.658  36.829  37.673  1.00  0.00    -0.237 OA
ATOM     46  O   UNL A   1      39.306  35.190  39.486  1.00  0.00    -0.237 OA
ATOM     47  O   UNL A   1      41.538  36.177  39.131  1.00  0.00    -0.744 OA
ENDBRANCH  43  44
ENDBRANCH  24  38
BRANCH  25  48
ATOM     48  C   UNL A   1      42.710  25.344  28.653  1.00  0.00    -0.014 A 
ATOM     49  C   UNL A   1      42.053  24.104  28.699  1.00  0.00     0.010 A 
ATOM     50  C   UNL A   1      43.591  25.611  27.588  1.00  0.00     0.010 A 
ATOM     51  C   UNL A   1      42.291  23.141  27.713  1.00  0.00     0.020 A 
ATOM     52  C   UNL A   1      43.804  24.668  26.581  1.00  0.00     0.020 A 
ATOM     53  C   UNL A   1      43.165  23.431  26.661  1.00  0.00     0.054 A 
BRANCH  53  54
ATOM     54  S   UNL A   1      43.438  22.182  25.374  1.00  0.00     0.124 S 
ATOM     55  O   UNL A   1      44.746  21.650  25.743  1.00  0.00    -0.237 OA
ATOM     56  O   UNL A   1      42.309  21.277  25.567  1.00  0.00    -0.237 OA
ATOM     57  O   UNL A   1      43.403  22.955  24.135  1.00  0.00    -0.744 OA
ENDBRANCH  53  54
ENDBRANCH  25  48
BRANCH  37  58
ATOM     58  C   UNL A   1      46.021  27.140  34.513  1.00  0.00    -0.014 A 
ATOM     59  C   UNL A   1      47.312  27.611  34.213  1.00  0.00     0.010 A 
ATOM     60  C   UNL A   1      45.864  26.125  35.472  1.00  0.00     0.010 A 
ATOM     61  C   UNL A   1      48.430  27.037  34.821  1.00  0.00     0.020 A 
ATOM     62  C   UNL A   1      46.979  25.570  36.106  1.00  0.00     0.020 A 
ATOM     63  C   UNL A   1      48.256  26.015  35.759  1.00  0.00     0.054 A 
BRANCH  63  64
ATOM     64  S   UNL A   1      49.722  25.290  36.540  1.00  0.00     0.124 S 
ATOM     65  O   UNL A   1      50.807  25.927  35.799  1.00  0.00    -0.237 OA
ATOM     66  O   UNL A   1      49.583  25.707  37.934  1.00  0.00    -0.237 OA
ATOM     67  O   UNL A   1      49.566  23.856  36.307  1.00  0.00    -0.744 OA
ENDBRANCH  63  64
ENDBRANCH  37  58
ENDBRANCH  11  12
ENDBRANCH   4   6
ENDBRANCH   1   2
BRANCH   1  68
ATOM     68  C   UNL A   1      33.395  27.828  26.958  1.00  0.00     0.042 C 
BRANCH  68  69
ATOM     69  C   UNL A   1      31.947  28.273  26.812  1.00  0.00     0.118 C 
BRANCH  69  70
ATOM     70  N   UNL A   1      31.051  27.133  26.793  1.00  0.00    -0.351 N 
ATOM     71  C   UNL A   1      30.782  26.283  25.747  1.00  0.00     0.283 C 
ATOM     72  H   UNL A   1      30.575  26.944  27.634  1.00  0.00     0.163 HD
ATOM     73  O   UNL A   1      29.752  25.612  25.848  1.00  0.00    -0.268 OA
BRANCH  71  74
ATOM     74  C   UNL A   1      31.755  26.248  24.529  1.00  0.00     0.307 C 
BRANCH  74  75
ATOM     75  N   UNL A   1      31.864  24.926  23.852  1.00  0.00    -0.318 N 
ATOM     76  C   UNL A   1      32.886  24.717  22.817  1.00  0.00     0.284 C 
ATOM     77  C   UNL A   1      31.889  23.770  24.769  1.00  0.00     0.284 C 
ATOM     78  H   UNL A   1      30.984  24.978  23.340  1.00  0.00     0.349 HD
ATOM     79  C   UNL A   1      34.314  24.481  23.326  1.00  0.00     0.178 C 
ATOM     80  C   UNL A   1      33.274  23.362  25.338  1.00  0.00     0.178 C 
ATOM     81  N   UNL A   1      34.346  23.404  24.324  1.00  0.00    -0.360 N 
BRANCH  81  82
ATOM     82  C   UNL A   1      35.582  22.912  24.731  1.00  0.00     0.038 A 
ATOM     83  C   UNL A   1      35.897  21.570  24.477  1.00  0.00     0.026 A 
ATOM     84  C   UNL A   1      36.539  23.698  25.385  1.00  0.00     0.046 A 
ATOM     85  C   UNL A   1      37.135  21.031  24.835  1.00  0.00     0.004 A 
ATOM     86  C   UNL A   1      37.772  23.158  25.755  1.00  0.00     0.043 A 
ATOM     87  C   UNL A   1      38.078  21.830  25.474  1.00  0.00     0.020 A 
ATOM     88  Cl  UNL A   1      38.930  24.144  26.563  1.00  0.00    -0.084 Cl
ENDBRANCH  81  82
ENDBRANCH  74  75
BRANCH  74  89
ATOM     89  C   UNL A   1      31.561  27.450  23.629  1.00  0.00     0.044 A 
ATOM     90  C   UNL A   1      32.496  28.101  22.841  1.00  0.00     0.094 A 
ATOM     91  C   UNL A   1      30.295  28.079  23.324  1.00  0.00     0.011 A 
ATOM     92  N   UNL A   1      31.898  29.170  22.229  1.00  0.00    -0.361 N 
ATOM     93  C   UNL A   1      30.544  29.148  22.462  1.00  0.00     0.046 A 
ATOM     94  C   UNL A   1      28.952  27.812  23.676  1.00  0.00     0.031 A 
ATOM     95  H   UNL A   1      32.368  29.853  21.699  1.00  0.00     0.166 HD
ATOM     96  C   UNL A   1      29.536  29.979  21.960  1.00  0.00     0.028 A 
ATOM     97  C   UNL A   1      27.930  28.600  23.136  1.00  0.00     0.041 A 
ATOM     98  C   UNL A   1      28.215  29.675  22.301  1.00  0.00     0.022 A 
ATOM     99  Cl  UNL A   1      26.292  28.210  23.496  1.00  0.00    -0.084 Cl
ENDBRANCH  74  89
ENDBRANCH  71  74
ENDBRANCH  69  70
ENDBRANCH  68  69
ENDBRANCH   1  68
TORSDOF 16
ENDMDL
