MODEL 1
REMARK VINA RESULT:     -12.5      0.000      0.000
REMARK SMILES O=C(NCCCNC(=O)[C@H]1Cc2ccc(Cl)cc2C[N@@H+]1Cc1ccc(Cl)cc1)c1ccc(-c2c3nc(c(-c4ccc(S(=O)(=O)[O-])cc4)c4ccc([nH]4)c(-c4ccc(S(=O)(=O)[O-])cc4)c4nc(c(-c5ccc(S(=O)(=O)[O-])cc5)c5ccc2[nH]5)C=C4)C=C3)cc1
REMARK SMILES IDX 4 1 3 2 1 3 2 4 29 6 30 7 88 8 31 9 87 10 32 11 33 12 34 13
REMARK SMILES IDX 81 14 35 15 86 16 80 17 82 18 36 19 85 20 79 21 78 22 37 24
REMARK SMILES IDX 67 25 48 26 66 27 49 28 52 29 65 30 83 31 50 32 51 33 64 35
REMARK SMILES IDX 84 36 53 37 38 38 39 39 47 40 40 41 46 42 41 43 42 44 43 45
REMARK SMILES IDX 44 46 45 47 68 48 69 49 77 50 70 51 76 52 71 53 72 54 73 55
REMARK SMILES IDX 74 56 75 57 54 58 55 59 63 60 56 61 62 62 57 63 58 64 59 65
REMARK SMILES IDX 60 66 61 67 5 68 6 69 7 70 8 71 9 73 10 74 11 75 20 76 12 77
REMARK SMILES IDX 19 78 13 80 18 81 14 82 17 83 15 84 16 85 21 86 22 87 23 88
REMARK SMILES IDX 28 89 24 90 27 91 25 92 26 93
REMARK H PARENT 3 5 82 23 52 34 7 72 20 79
REMARK Flexibility Score: inf
ROOT
ATOM      1  C   UNL A   1      37.250  22.848  25.090  1.00  0.00     0.118 C 
ENDROOT
BRANCH   1   2
ATOM      2  N   UNL A   1      38.397  22.159  25.665  1.00  0.00    -0.352 N 
ATOM      3  O   UNL A   1      40.543  21.921  26.238  1.00  0.00    -0.269 OA
ATOM      4  C   UNL A   1      39.557  22.653  26.203  1.00  0.00     0.251 C 
ATOM      5  H   UNL A   1      38.327  21.178  25.668  1.00  0.00     0.163 HD
BRANCH   4   6
ATOM      6  C   UNL A   1      39.630  24.017  26.775  1.00  0.00     0.039 A 
ATOM      7  C   UNL A   1      40.231  25.031  26.020  1.00  0.00     0.014 A 
ATOM      8  C   UNL A   1      39.258  24.273  28.098  1.00  0.00     0.014 A 
ATOM      9  C   UNL A   1      40.481  26.280  26.597  1.00  0.00     0.010 A 
ATOM     10  C   UNL A   1      39.418  25.545  28.640  1.00  0.00     0.010 A 
ATOM     11  C   UNL A   1      40.088  26.539  27.918  1.00  0.00    -0.014 A 
BRANCH  11  12
ATOM     12  C   UNL A   1      40.497  27.782  28.618  1.00  0.00     0.031 A 
ATOM     13  C   UNL A   1      41.913  27.902  29.129  1.00  0.00     0.074 A 
ATOM     14  C   UNL A   1      39.617  28.783  28.811  1.00  0.00     0.049 A 
ATOM     15  N   UNL A   1      42.454  28.854  29.843  1.00  0.00    -0.248 NA
ATOM     16  C   UNL A   1      42.835  26.792  28.821  1.00  0.00     0.031 C 
ATOM     17  C   UNL A   1      38.223  28.781  28.362  1.00  0.00     0.029 A 
ATOM     18  N   UNL A   1      39.769  30.000  29.424  1.00  0.00    -0.354 N 
ATOM     19  C   UNL A   1      43.759  28.443  30.093  1.00  0.00     0.074 A 
ATOM     20  C   UNL A   1      43.919  27.136  29.500  1.00  0.00     0.031 C 
ATOM     21  C   UNL A   1      37.662  29.961  28.675  1.00  0.00     0.029 A 
ATOM     22  C   UNL A   1      38.641  30.785  29.380  1.00  0.00     0.049 A 
ATOM     23  H   UNL A   1      40.608  30.286  29.854  1.00  0.00     0.167 HD
ATOM     24  C   UNL A   1      44.749  29.111  30.729  1.00  0.00     0.031 A 
ATOM     25  C   UNL A   1      38.423  32.032  29.845  1.00  0.00     0.031 A 
ATOM     26  C   UNL A   1      44.604  30.440  31.255  1.00  0.00     0.049 A 
ATOM     27  C   UNL A   1      39.548  32.765  30.526  1.00  0.00     0.074 A 
ATOM     28  C   UNL A   1      45.555  31.218  31.890  1.00  0.00     0.029 A 
ATOM     29  N   UNL A   1      43.448  31.200  31.174  1.00  0.00    -0.354 N 
ATOM     30  N   UNL A   1      40.772  32.357  30.757  1.00  0.00    -0.248 NA
ATOM     31  C   UNL A   1      39.270  34.131  30.995  1.00  0.00     0.031 C 
ATOM     32  C   UNL A   1      44.966  32.439  32.221  1.00  0.00     0.029 A 
ATOM     33  C   UNL A   1      43.664  32.441  31.742  1.00  0.00     0.049 A 
ATOM     34  H   UNL A   1      42.600  30.901  30.772  1.00  0.00     0.167 HD
ATOM     35  C   UNL A   1      41.420  33.426  31.365  1.00  0.00     0.074 A 
ATOM     36  C   UNL A   1      40.454  34.501  31.464  1.00  0.00     0.031 C 
ATOM     37  C   UNL A   1      42.700  33.509  31.801  1.00  0.00     0.031 A 
BRANCH  24  38
ATOM     38  C   UNL A   1      46.094  28.446  30.863  1.00  0.00    -0.014 A 
ATOM     39  C   UNL A   1      47.044  28.573  29.834  1.00  0.00     0.010 A 
ATOM     40  C   UNL A   1      46.372  27.601  31.952  1.00  0.00     0.010 A 
ATOM     41  C   UNL A   1      48.233  27.839  29.871  1.00  0.00     0.020 A 
ATOM     42  C   UNL A   1      47.573  26.887  32.008  1.00  0.00     0.020 A 
ATOM     43  C   UNL A   1      48.483  26.992  30.954  1.00  0.00     0.054 A 
BRANCH  43  44
ATOM     44  S   UNL A   1      50.014  26.019  30.971  1.00  0.00     0.124 S 
ATOM     45  O   UNL A   1      50.026  25.439  29.633  1.00  0.00    -0.237 OA
ATOM     46  O   UNL A   1      51.035  27.032  31.230  1.00  0.00    -0.237 OA
ATOM     47  O   UNL A   1      49.803  25.072  32.064  1.00  0.00    -0.744 OA
ENDBRANCH  43  44
ENDBRANCH  24  38
BRANCH  25  48
ATOM     48  C   UNL A   1      37.105  32.682  29.614  1.00  0.00    -0.014 A 
ATOM     49  C   UNL A   1      36.845  33.382  28.421  1.00  0.00     0.010 A 
ATOM     50  C   UNL A   1      36.121  32.655  30.619  1.00  0.00     0.010 A 
ATOM     51  C   UNL A   1      35.640  34.071  28.252  1.00  0.00     0.020 A 
ATOM     52  C   UNL A   1      34.904  33.322  30.442  1.00  0.00     0.020 A 
ATOM     53  C   UNL A   1      34.682  34.045  29.269  1.00  0.00     0.054 A 
BRANCH  53  54
ATOM     54  S   UNL A   1      33.134  34.964  29.040  1.00  0.00     0.124 S 
ATOM     55  O   UNL A   1      32.570  34.936  30.386  1.00  0.00    -0.237 OA
ATOM     56  O   UNL A   1      33.601  36.270  28.580  1.00  0.00    -0.237 OA
ATOM     57  O   UNL A   1      32.416  34.177  28.042  1.00  0.00    -0.744 OA
ENDBRANCH  53  54
ENDBRANCH  25  48
BRANCH  37  58
ATOM     58  C   UNL A   1      43.174  34.809  32.391  1.00  0.00    -0.014 A 
ATOM     59  C   UNL A   1      42.921  35.080  33.749  1.00  0.00     0.010 A 
ATOM     60  C   UNL A   1      43.716  35.816  31.576  1.00  0.00     0.010 A 
ATOM     61  C   UNL A   1      43.169  36.349  34.275  1.00  0.00     0.020 A 
ATOM     62  C   UNL A   1      43.988  37.080  32.106  1.00  0.00     0.020 A 
ATOM     63  C   UNL A   1      43.688  37.346  33.445  1.00  0.00     0.054 A 
BRANCH  63  64
ATOM     64  S   UNL A   1      43.961  39.002  34.131  1.00  0.00     0.124 S 
ATOM     65  O   UNL A   1      43.971  38.743  35.567  1.00  0.00    -0.237 OA
ATOM     66  O   UNL A   1      45.245  39.386  33.550  1.00  0.00    -0.237 OA
ATOM     67  O   UNL A   1      42.814  39.765  33.643  1.00  0.00    -0.744 OA
ENDBRANCH  63  64
ENDBRANCH  37  58
ENDBRANCH  11  12
ENDBRANCH   4   6
ENDBRANCH   1   2
BRANCH   1  68
ATOM     68  C   UNL A   1      36.129  23.004  26.114  1.00  0.00     0.042 C 
BRANCH  68  69
ATOM     69  C   UNL A   1      35.213  24.181  25.799  1.00  0.00     0.118 C 
BRANCH  69  70
ATOM     70  N   UNL A   1      35.025  24.347  24.365  1.00  0.00    -0.351 N 
ATOM     71  C   UNL A   1      34.068  24.827  23.533  1.00  0.00     0.278 C 
ATOM     72  H   UNL A   1      35.805  24.021  23.862  1.00  0.00     0.163 HD
ATOM     73  O   UNL A   1      34.306  24.536  22.351  1.00  0.00    -0.268 OA
BRANCH  71  74
ATOM     74  C   UNL A   1      32.788  25.653  23.912  1.00  0.00     0.279 C 
ATOM     75  C   UNL A   1      32.564  26.815  22.939  1.00  0.00     0.111 C 
ATOM     76  N   UNL A   1      31.560  24.793  23.965  1.00  0.00    -0.317 N 
ATOM     77  C   UNL A   1      31.273  27.565  23.064  1.00  0.00    -0.033 A 
ATOM     78  C   UNL A   1      30.335  25.564  24.265  1.00  0.00     0.300 C 
ATOM     79  H   UNL A   1      31.509  24.425  23.015  1.00  0.00     0.349 HD
ATOM     80  C   UNL A   1      31.139  28.849  22.520  1.00  0.00     0.006 A 
ATOM     81  C   UNL A   1      30.162  26.882  23.554  1.00  0.00     0.011 A 
ATOM     82  C   UNL A   1      29.886  29.456  22.464  1.00  0.00     0.021 A 
ATOM     83  C   UNL A   1      28.902  27.496  23.490  1.00  0.00     0.030 A 
ATOM     84  C   UNL A   1      28.770  28.770  22.937  1.00  0.00     0.041 A 
ATOM     85  Cl  UNL A   1      27.215  29.501  22.841  1.00  0.00    -0.084 Cl
BRANCH  76  86
ATOM     86  C   UNL A   1      31.636  23.600  24.855  1.00  0.00     0.299 C 
BRANCH  86  87
ATOM     87  C   UNL A   1      31.909  22.244  24.213  1.00  0.00     0.006 A 
ATOM     88  C   UNL A   1      31.824  22.064  22.822  1.00  0.00     0.011 A 
ATOM     89  C   UNL A   1      32.267  21.133  24.992  1.00  0.00     0.011 A 
ATOM     90  C   UNL A   1      31.981  20.800  22.245  1.00  0.00     0.021 A 
ATOM     91  C   UNL A   1      32.442  19.870  24.419  1.00  0.00     0.021 A 
ATOM     92  C   UNL A   1      32.275  19.705  23.049  1.00  0.00     0.041 A 
ATOM     93  Cl  UNL A   1      32.445  18.144  22.346  1.00  0.00    -0.084 Cl
ENDBRANCH  86  87
ENDBRANCH  76  86
ENDBRANCH  71  74
ENDBRANCH  69  70
ENDBRANCH  68  69
ENDBRANCH   1  68
TORSDOF 15
ENDMDL
MODEL 2
REMARK VINA RESULT:     -12.2      3.564      4.266
REMARK SMILES O=C(NCCCNC(=O)[C@H]1Cc2ccc(Cl)cc2C[N@@H+]1Cc1ccc(Cl)cc1)c1ccc(-c2c3nc(c(-c4ccc(S(=O)(=O)[O-])cc4)c4ccc([nH]4)c(-c4ccc(S(=O)(=O)[O-])cc4)c4nc(c(-c5ccc(S(=O)(=O)[O-])cc5)c5ccc2[nH]5)C=C4)C=C3)cc1
REMARK SMILES IDX 4 1 3 2 1 3 2 4 29 6 30 7 88 8 31 9 87 10 32 11 33 12 34 13
REMARK SMILES IDX 81 14 35 15 86 16 80 17 82 18 36 19 85 20 79 21 78 22 37 24
REMARK SMILES IDX 67 25 48 26 66 27 49 28 52 29 65 30 83 31 50 32 51 33 64 35
REMARK SMILES IDX 84 36 53 37 38 38 39 39 47 40 40 41 46 42 41 43 42 44 43 45
REMARK SMILES IDX 44 46 45 47 68 48 69 49 77 50 70 51 76 52 71 53 72 54 73 55
REMARK SMILES IDX 74 56 75 57 54 58 55 59 63 60 56 61 62 62 57 63 58 64 59 65
REMARK SMILES IDX 60 66 61 67 5 68 6 69 7 70 8 71 9 73 10 74 11 75 20 76 12 77
REMARK SMILES IDX 19 78 13 80 18 81 14 82 17 83 15 84 16 85 21 86 22 87 23 88
REMARK SMILES IDX 28 89 24 90 27 91 25 92 26 93
REMARK H PARENT 3 5 82 23 52 34 7 72 20 79
REMARK Flexibility Score: inf
ROOT
ATOM      1  C   UNL A   1      38.693  24.109  26.828  1.00  0.00     0.118 C 
ENDROOT
BRANCH   1   2
ATOM      2  N   UNL A   1      39.896  24.675  26.233  1.00  0.00    -0.352 N 
ATOM      3  O   UNL A   1      41.185  26.314  25.430  1.00  0.00    -0.269 OA
ATOM      4  C   UNL A   1      40.426  25.937  26.319  1.00  0.00     0.251 C 
ATOM      5  H   UNL A   1      40.414  24.048  25.679  1.00  0.00     0.163 HD
BRANCH   4   6
ATOM      6  C   UNL A   1      40.139  26.823  27.471  1.00  0.00     0.039 A 
ATOM      7  C   UNL A   1      40.574  28.153  27.421  1.00  0.00     0.014 A 
ATOM      8  C   UNL A   1      39.589  26.323  28.655  1.00  0.00     0.014 A 
ATOM      9  C   UNL A   1      40.484  28.962  28.557  1.00  0.00     0.010 A 
ATOM     10  C   UNL A   1      39.410  27.158  29.754  1.00  0.00     0.010 A 
ATOM     11  C   UNL A   1      39.913  28.464  29.737  1.00  0.00    -0.014 A 
BRANCH  11  12
ATOM     12  C   UNL A   1      39.966  29.230  31.007  1.00  0.00     0.031 A 
ATOM     13  C   UNL A   1      41.121  28.999  31.952  1.00  0.00     0.074 A 
ATOM     14  C   UNL A   1      38.992  30.105  31.322  1.00  0.00     0.049 A 
ATOM     15  N   UNL A   1      41.317  29.489  33.149  1.00  0.00    -0.248 NA
ATOM     16  C   UNL A   1      42.181  28.075  31.508  1.00  0.00     0.031 C 
ATOM     17  C   UNL A   1      37.829  30.411  30.487  1.00  0.00     0.029 A 
ATOM     18  N   UNL A   1      38.834  30.907  32.423  1.00  0.00    -0.354 N 
ATOM     19  C   UNL A   1      42.497  28.911  33.604  1.00  0.00     0.074 A 
ATOM     20  C   UNL A   1      42.949  27.996  32.583  1.00  0.00     0.031 C 
ATOM     21  C   UNL A   1      37.101  31.368  31.086  1.00  0.00     0.029 A 
ATOM     22  C   UNL A   1      37.723  31.714  32.363  1.00  0.00     0.049 A 
ATOM     23  H   UNL A   1      39.459  30.906  33.184  1.00  0.00     0.167 HD
ATOM     24  C   UNL A   1      43.164  29.146  34.757  1.00  0.00     0.031 A 
ATOM     25  C   UNL A   1      37.263  32.636  33.232  1.00  0.00     0.031 A 
ATOM     26  C   UNL A   1      42.746  30.110  35.738  1.00  0.00     0.049 A 
ATOM     27  C   UNL A   1      38.037  32.901  34.496  1.00  0.00     0.074 A 
ATOM     28  C   UNL A   1      43.368  30.447  36.926  1.00  0.00     0.029 A 
ATOM     29  N   UNL A   1      41.623  30.913  35.627  1.00  0.00    -0.354 N 
ATOM     30  N   UNL A   1      39.147  32.339  34.911  1.00  0.00    -0.248 NA
ATOM     31  C   UNL A   1      37.509  33.932  35.402  1.00  0.00     0.031 C 
ATOM     32  C   UNL A   1      42.605  31.435  37.549  1.00  0.00     0.029 A 
ATOM     33  C   UNL A   1      41.538  31.751  36.723  1.00  0.00     0.049 A 
ATOM     34  H   UNL A   1      40.981  30.891  34.880  1.00  0.00     0.167 HD
ATOM     35  C   UNL A   1      39.469  32.972  36.106  1.00  0.00     0.074 A 
ATOM     36  C   UNL A   1      38.440  33.962  36.347  1.00  0.00     0.031 C 
ATOM     37  C   UNL A   1      40.523  32.753  36.928  1.00  0.00     0.031 A 
BRANCH  24  38
ATOM     38  C   UNL A   1      44.440  28.389  35.017  1.00  0.00    -0.014 A 
ATOM     39  C   UNL A   1      45.660  28.878  34.514  1.00  0.00     0.010 A 
ATOM     40  C   UNL A   1      44.415  27.138  35.657  1.00  0.00     0.010 A 
ATOM     41  C   UNL A   1      46.825  28.112  34.613  1.00  0.00     0.020 A 
ATOM     42  C   UNL A   1      45.584  26.381  35.783  1.00  0.00     0.020 A 
ATOM     43  C   UNL A   1      46.775  26.864  35.236  1.00  0.00     0.054 A 
BRANCH  43  44
ATOM     44  S   UNL A   1      48.288  25.865  35.325  1.00  0.00     0.124 S 
ATOM     45  O   UNL A   1      48.125  25.172  36.598  1.00  0.00    -0.237 OA
ATOM     46  O   UNL A   1      48.189  25.027  34.131  1.00  0.00    -0.237 OA
ATOM     47  O   UNL A   1      49.356  26.862  35.285  1.00  0.00    -0.744 OA
ENDBRANCH  43  44
ENDBRANCH  24  38
BRANCH  25  48
ATOM     48  C   UNL A   1      36.045  33.422  32.894  1.00  0.00    -0.014 A 
ATOM     49  C   UNL A   1      36.130  34.576  32.094  1.00  0.00     0.010 A 
ATOM     50  C   UNL A   1      34.797  33.049  33.425  1.00  0.00     0.010 A 
ATOM     51  C   UNL A   1      34.998  35.362  31.860  1.00  0.00     0.020 A 
ATOM     52  C   UNL A   1      33.657  33.818  33.171  1.00  0.00     0.020 A 
ATOM     53  C   UNL A   1      33.770  34.983  32.411  1.00  0.00     0.054 A 
BRANCH  53  54
ATOM     54  S   UNL A   1      32.316  36.027  32.115  1.00  0.00     0.124 S 
ATOM     55  O   UNL A   1      32.575  37.156  33.004  1.00  0.00    -0.237 OA
ATOM     56  O   UNL A   1      32.414  36.317  30.685  1.00  0.00    -0.237 OA
ATOM     57  O   UNL A   1      31.198  35.171  32.497  1.00  0.00    -0.744 OA
ENDBRANCH  53  54
ENDBRANCH  25  48
BRANCH  37  58
ATOM     58  C   UNL A   1      40.668  33.613  38.153  1.00  0.00    -0.014 A 
ATOM     59  C   UNL A   1      40.046  33.214  39.351  1.00  0.00     0.010 A 
ATOM     60  C   UNL A   1      41.273  34.879  38.078  1.00  0.00     0.010 A 
ATOM     61  C   UNL A   1      39.995  34.081  40.444  1.00  0.00     0.020 A 
ATOM     62  C   UNL A   1      41.245  35.739  39.179  1.00  0.00     0.020 A 
ATOM     63  C   UNL A   1      40.583  35.345  40.345  1.00  0.00     0.054 A 
BRANCH  63  64
ATOM     64  S   UNL A   1      40.468  36.477  41.757  1.00  0.00     0.124 S 
ATOM     65  O   UNL A   1      41.777  37.122  41.740  1.00  0.00    -0.237 OA
ATOM     66  O   UNL A   1      39.339  37.331  41.396  1.00  0.00    -0.237 OA
ATOM     67  O   UNL A   1      40.226  35.585  42.889  1.00  0.00    -0.744 OA
ENDBRANCH  63  64
ENDBRANCH  37  58
ENDBRANCH  11  12
ENDBRANCH   4   6
ENDBRANCH   1   2
BRANCH   1  68
ATOM     68  C   UNL A   1      37.901  23.300  25.805  1.00  0.00     0.042 C 
BRANCH  68  69
ATOM     69  C   UNL A   1      36.472  23.807  25.644  1.00  0.00     0.118 C 
BRANCH  69  70
ATOM     70  N   UNL A   1      35.996  23.648  24.278  1.00  0.00    -0.351 N 
ATOM     71  C   UNL A   1      34.849  23.866  23.588  1.00  0.00     0.278 C 
ATOM     72  H   UNL A   1      36.700  23.281  23.695  1.00  0.00     0.163 HD
ATOM     73  O   UNL A   1      34.890  23.348  22.462  1.00  0.00    -0.268 OA
BRANCH  71  74
ATOM     74  C   UNL A   1      33.578  24.656  24.060  1.00  0.00     0.279 C 
ATOM     75  C   UNL A   1      33.119  25.663  23.001  1.00  0.00     0.111 C 
ATOM     76  N   UNL A   1      32.444  23.738  24.411  1.00  0.00    -0.317 N 
ATOM     77  C   UNL A   1      31.805  26.342  23.234  1.00  0.00    -0.033 A 
ATOM     78  C   UNL A   1      31.219  24.467  24.803  1.00  0.00     0.300 C 
ATOM     79  H   UNL A   1      32.282  23.244  23.533  1.00  0.00     0.349 HD
ATOM     80  C   UNL A   1      31.488  27.532  22.565  1.00  0.00     0.006 A 
ATOM     81  C   UNL A   1      30.837  25.665  23.973  1.00  0.00     0.011 A 
ATOM     82  C   UNL A   1      30.196  28.049  22.634  1.00  0.00     0.021 A 
ATOM     83  C   UNL A   1      29.537  26.188  24.033  1.00  0.00     0.030 A 
ATOM     84  C   UNL A   1      29.222  27.366  23.356  1.00  0.00     0.041 A 
ATOM     85  Cl  UNL A   1      27.616  27.982  23.418  1.00  0.00    -0.084 Cl
BRANCH  76  86
ATOM     86  C   UNL A   1      32.747  22.681  25.417  1.00  0.00     0.299 C 
BRANCH  86  87
ATOM     87  C   UNL A   1      33.024  21.269  24.911  1.00  0.00     0.006 A 
ATOM     88  C   UNL A   1      34.157  20.551  25.331  1.00  0.00     0.011 A 
ATOM     89  C   UNL A   1      32.146  20.635  24.018  1.00  0.00     0.011 A 
ATOM     90  C   UNL A   1      34.457  19.296  24.794  1.00  0.00     0.021 A 
ATOM     91  C   UNL A   1      32.434  19.373  23.490  1.00  0.00     0.021 A 
ATOM     92  C   UNL A   1      33.601  18.718  23.864  1.00  0.00     0.041 A 
ATOM     93  Cl  UNL A   1      33.981  17.185  23.183  1.00  0.00    -0.084 Cl
ENDBRANCH  86  87
ENDBRANCH  76  86
ENDBRANCH  71  74
ENDBRANCH  69  70
ENDBRANCH  68  69
ENDBRANCH   1  68
TORSDOF 15
ENDMDL
MODEL 3
REMARK VINA RESULT:     -12.2      2.635      9.663
REMARK SMILES O=C(NCCCNC(=O)[C@H]1Cc2ccc(Cl)cc2C[N@@H+]1Cc1ccc(Cl)cc1)c1ccc(-c2c3nc(c(-c4ccc(S(=O)(=O)[O-])cc4)c4ccc([nH]4)c(-c4ccc(S(=O)(=O)[O-])cc4)c4nc(c(-c5ccc(S(=O)(=O)[O-])cc5)c5ccc2[nH]5)C=C4)C=C3)cc1
REMARK SMILES IDX 4 1 3 2 1 3 2 4 29 6 30 7 88 8 31 9 87 10 32 11 33 12 34 13
REMARK SMILES IDX 81 14 35 15 86 16 80 17 82 18 36 19 85 20 79 21 78 22 37 24
REMARK SMILES IDX 67 25 48 26 66 27 49 28 52 29 65 30 83 31 50 32 51 33 64 35
REMARK SMILES IDX 84 36 53 37 38 38 39 39 47 40 40 41 46 42 41 43 42 44 43 45
REMARK SMILES IDX 44 46 45 47 68 48 69 49 77 50 70 51 76 52 71 53 72 54 73 55
REMARK SMILES IDX 74 56 75 57 54 58 55 59 63 60 56 61 62 62 57 63 58 64 59 65
REMARK SMILES IDX 60 66 61 67 5 68 6 69 7 70 8 71 9 73 10 74 11 75 20 76 12 77
REMARK SMILES IDX 19 78 13 80 18 81 14 82 17 83 15 84 16 85 21 86 22 87 23 88
REMARK SMILES IDX 28 89 24 90 27 91 25 92 26 93
REMARK H PARENT 3 5 82 23 52 34 7 72 20 79
REMARK Flexibility Score: inf
ROOT
ATOM      1  C   UNL A   1      33.574  29.500  25.942  1.00  0.00     0.118 C 
ENDROOT
BRANCH   1   2
ATOM      2  N   UNL A   1      33.722  30.717  26.728  1.00  0.00    -0.352 N 
ATOM      3  O   UNL A   1      34.183  31.902  28.565  1.00  0.00    -0.269 OA
ATOM      4  C   UNL A   1      34.512  30.986  27.816  1.00  0.00     0.251 C 
ATOM      5  H   UNL A   1      33.163  31.469  26.430  1.00  0.00     0.163 HD
BRANCH   4   6
ATOM      6  C   UNL A   1      35.761  30.232  28.075  1.00  0.00     0.039 A 
ATOM      7  C   UNL A   1      35.904  29.570  29.300  1.00  0.00     0.014 A 
ATOM      8  C   UNL A   1      36.847  30.300  27.198  1.00  0.00     0.014 A 
ATOM      9  C   UNL A   1      37.134  29.006  29.651  1.00  0.00     0.010 A 
ATOM     10  C   UNL A   1      38.041  29.654  27.506  1.00  0.00     0.010 A 
ATOM     11  C   UNL A   1      38.215  29.057  28.760  1.00  0.00    -0.014 A 
BRANCH  11  12
ATOM     12  C   UNL A   1      39.578  28.634  29.170  1.00  0.00     0.031 A 
ATOM     13  C   UNL A   1      40.399  29.554  30.041  1.00  0.00     0.074 A 
ATOM     14  C   UNL A   1      40.082  27.454  28.760  1.00  0.00     0.049 A 
ATOM     15  N   UNL A   1      41.638  29.426  30.438  1.00  0.00    -0.248 NA
ATOM     16  C   UNL A   1      39.754  30.797  30.503  1.00  0.00     0.031 C 
ATOM     17  C   UNL A   1      39.381  26.483  27.918  1.00  0.00     0.029 A 
ATOM     18  N   UNL A   1      41.297  26.868  29.007  1.00  0.00    -0.354 N 
ATOM     19  C   UNL A   1      41.924  30.577  31.163  1.00  0.00     0.074 A 
ATOM     20  C   UNL A   1      40.752  31.418  31.112  1.00  0.00     0.031 C 
ATOM     21  C   UNL A   1      40.162  25.401  27.757  1.00  0.00     0.029 A 
ATOM     22  C   UNL A   1      41.431  25.619  28.449  1.00  0.00     0.049 A 
ATOM     23  H   UNL A   1      42.006  27.301  29.536  1.00  0.00     0.167 HD
ATOM     24  C   UNL A   1      43.051  30.891  31.841  1.00  0.00     0.031 A 
ATOM     25  C   UNL A   1      42.455  24.743  28.499  1.00  0.00     0.031 A 
ATOM     26  C   UNL A   1      44.189  30.019  31.946  1.00  0.00     0.049 A 
ATOM     27  C   UNL A   1      43.688  25.104  29.282  1.00  0.00     0.074 A 
ATOM     28  C   UNL A   1      45.369  30.230  32.636  1.00  0.00     0.029 A 
ATOM     29  N   UNL A   1      44.272  28.758  31.377  1.00  0.00    -0.354 N 
ATOM     30  N   UNL A   1      43.941  26.200  29.956  1.00  0.00    -0.248 NA
ATOM     31  C   UNL A   1      44.768  24.107  29.327  1.00  0.00     0.031 C 
ATOM     32  C   UNL A   1      46.180  29.108  32.459  1.00  0.00     0.029 A 
ATOM     33  C   UNL A   1      45.482  28.177  31.705  1.00  0.00     0.049 A 
ATOM     34  H   UNL A   1      43.575  28.340  30.822  1.00  0.00     0.167 HD
ATOM     35  C   UNL A   1      45.191  26.011  30.534  1.00  0.00     0.074 A 
ATOM     36  C   UNL A   1      45.643  24.694  30.133  1.00  0.00     0.031 C 
ATOM     37  C   UNL A   1      45.899  26.852  31.324  1.00  0.00     0.031 A 
BRANCH  24  38
ATOM     38  C   UNL A   1      43.111  32.211  32.563  1.00  0.00    -0.014 A 
ATOM     39  C   UNL A   1      42.660  32.304  33.893  1.00  0.00     0.010 A 
ATOM     40  C   UNL A   1      43.504  33.381  31.890  1.00  0.00     0.010 A 
ATOM     41  C   UNL A   1      42.565  33.547  34.524  1.00  0.00     0.020 A 
ATOM     42  C   UNL A   1      43.437  34.624  32.528  1.00  0.00     0.020 A 
ATOM     43  C   UNL A   1      42.943  34.700  33.832  1.00  0.00     0.054 A 
BRANCH  43  44
ATOM     44  S   UNL A   1      42.780  36.310  34.652  1.00  0.00     0.124 S 
ATOM     45  O   UNL A   1      43.176  37.235  33.596  1.00  0.00    -0.237 OA
ATOM     46  O   UNL A   1      41.365  36.340  35.020  1.00  0.00    -0.237 OA
ATOM     47  O   UNL A   1      43.702  36.213  35.781  1.00  0.00    -0.744 OA
ENDBRANCH  43  44
ENDBRANCH  24  38
BRANCH  25  48
ATOM     48  C   UNL A   1      42.318  23.415  27.842  1.00  0.00    -0.014 A 
ATOM     49  C   UNL A   1      41.777  22.318  28.538  1.00  0.00     0.010 A 
ATOM     50  C   UNL A   1      42.787  23.227  26.530  1.00  0.00     0.010 A 
ATOM     51  C   UNL A   1      41.740  21.052  27.947  1.00  0.00     0.020 A 
ATOM     52  C   UNL A   1      42.728  21.967  25.926  1.00  0.00     0.020 A 
ATOM     53  C   UNL A   1      42.227  20.882  26.648  1.00  0.00     0.054 A 
BRANCH  53  54
ATOM     54  S   UNL A   1      42.191  19.227  25.906  1.00  0.00     0.124 S 
ATOM     55  O   UNL A   1      40.775  19.077  25.582  1.00  0.00    -0.237 OA
ATOM     56  O   UNL A   1      43.088  19.369  24.761  1.00  0.00    -0.237 OA
ATOM     57  O   UNL A   1      42.684  18.364  26.975  1.00  0.00    -0.744 OA
ENDBRANCH  53  54
ENDBRANCH  25  48
BRANCH  37  58
ATOM     58  C   UNL A   1      47.225  26.386  31.862  1.00  0.00    -0.014 A 
ATOM     59  C   UNL A   1      48.353  26.408  31.021  1.00  0.00     0.010 A 
ATOM     60  C   UNL A   1      47.318  25.782  33.127  1.00  0.00     0.010 A 
ATOM     61  C   UNL A   1      49.546  25.802  31.422  1.00  0.00     0.020 A 
ATOM     62  C   UNL A   1      48.517  25.197  33.540  1.00  0.00     0.020 A 
ATOM     63  C   UNL A   1      49.615  25.187  32.674  1.00  0.00     0.054 A 
BRANCH  63  64
ATOM     64  S   UNL A   1      51.155  24.363  33.162  1.00  0.00     0.124 S 
ATOM     65  O   UNL A   1      51.353  23.412  32.073  1.00  0.00    -0.237 OA
ATOM     66  O   UNL A   1      52.110  25.467  33.217  1.00  0.00    -0.237 OA
ATOM     67  O   UNL A   1      50.828  23.770  34.457  1.00  0.00    -0.744 OA
ENDBRANCH  63  64
ENDBRANCH  37  58
ENDBRANCH  11  12
ENDBRANCH   4   6
ENDBRANCH   1   2
BRANCH   1  68
ATOM     68  C   UNL A   1      32.552  28.557  26.571  1.00  0.00     0.042 C 
BRANCH  68  69
ATOM     69  C   UNL A   1      32.943  27.091  26.418  1.00  0.00     0.118 C 
BRANCH  69  70
ATOM     70  N   UNL A   1      31.850  26.203  26.786  1.00  0.00    -0.351 N 
ATOM     71  C   UNL A   1      31.345  25.016  26.369  1.00  0.00     0.278 C 
ATOM     72  H   UNL A   1      31.338  26.562  27.546  1.00  0.00     0.163 HD
ATOM     73  O   UNL A   1      30.242  24.784  26.887  1.00  0.00    -0.268 OA
BRANCH  71  74
ATOM     74  C   UNL A   1      31.990  23.994  25.366  1.00  0.00     0.279 C 
ATOM     75  C   UNL A   1      31.683  22.548  25.766  1.00  0.00     0.111 C 
ATOM     76  N   UNL A   1      31.543  24.236  23.954  1.00  0.00    -0.317 N 
ATOM     77  C   UNL A   1      32.067  21.478  24.790  1.00  0.00    -0.033 A 
ATOM     78  C   UNL A   1      32.095  23.248  23.004  1.00  0.00     0.300 C 
ATOM     79  H   UNL A   1      30.531  24.118  24.022  1.00  0.00     0.349 HD
ATOM     80  C   UNL A   1      32.199  20.147  25.207  1.00  0.00     0.006 A 
ATOM     81  C   UNL A   1      32.094  21.804  23.436  1.00  0.00     0.011 A 
ATOM     82  C   UNL A   1      32.360  19.134  24.264  1.00  0.00     0.021 A 
ATOM     83  C   UNL A   1      32.251  20.778  22.492  1.00  0.00     0.030 A 
ATOM     84  C   UNL A   1      32.371  19.452  22.909  1.00  0.00     0.041 A 
ATOM     85  Cl  UNL A   1      32.535  18.202  21.738  1.00  0.00    -0.084 Cl
BRANCH  76  86
ATOM     86  C   UNL A   1      31.753  25.614  23.430  1.00  0.00     0.299 C 
BRANCH  86  87
ATOM     87  C   UNL A   1      30.554  26.557  23.390  1.00  0.00     0.006 A 
ATOM     88  C   UNL A   1      29.297  26.159  23.877  1.00  0.00     0.011 A 
ATOM     89  C   UNL A   1      30.672  27.858  22.878  1.00  0.00     0.011 A 
ATOM     90  C   UNL A   1      28.179  26.990  23.752  1.00  0.00     0.021 A 
ATOM     91  C   UNL A   1      29.561  28.698  22.767  1.00  0.00     0.021 A 
ATOM     92  C   UNL A   1      28.313  28.251  23.184  1.00  0.00     0.041 A 
ATOM     93  Cl  UNL A   1      26.935  29.265  23.008  1.00  0.00    -0.084 Cl
ENDBRANCH  86  87
ENDBRANCH  76  86
ENDBRANCH  71  74
ENDBRANCH  69  70
ENDBRANCH  68  69
ENDBRANCH   1  68
TORSDOF 15
ENDMDL
