MODEL 1
REMARK VINA RESULT:     -11.1      0.000      0.000
REMARK SMILES CC(C)Cc1s/c(=N/C(=O)CCC(=O)Nc2nccs2)[nH]c1C(=O)NCCCNC(=O)c1ccc(-c2c3nc(c(-c4ccc(S(=O)(=O)[O-])cc4)c4ccc([nH]4)c(-c4ccc(S(=O)(=O)[O-])cc4)c4nc(c(-c5ccc(S(=O)(=O)[O-])cc5)c5ccc2[nH]5)C=C4)C=C3)cc1
REMARK SMILES IDX 26 1 25 2 23 3 24 4 22 6 5 7 6 8 7 9 21 10 8 11 4 13 2 14
REMARK SMILES IDX 1 15 3 16 9 17 10 18 11 19 12 20 13 21 14 22 15 23 16 25
REMARK SMILES IDX 17 26 20 27 18 28 19 29 27 30 28 31 29 32 30 33 31 35 32 36
REMARK SMILES IDX 33 37 91 38 34 39 90 40 35 41 36 42 37 43 84 44 38 45 89 46
REMARK SMILES IDX 83 47 85 48 39 49 88 50 82 51 81 52 40 54 70 55 51 56 69 57
REMARK SMILES IDX 52 58 55 59 68 60 86 61 53 62 54 63 67 65 87 66 56 67 41 68
REMARK SMILES IDX 42 69 50 70 43 71 49 72 44 73 45 74 46 75 47 76 48 77 71 78
REMARK SMILES IDX 72 79 80 80 73 81 79 82 74 83 75 84 76 85 77 86 78 87 57 88
REMARK SMILES IDX 58 89 66 90 59 91 65 92 60 93 61 94 62 95 63 96 64 97
REMARK H PARENT 25 5 21 12 15 24 29 34 85 53 55 64
REMARK Flexibility Score: inf
ROOT
ATOM      1  C   UNL A   1      33.228  30.275  26.773  1.00  0.00     0.118 C 
ENDROOT
BRANCH   1   2
ATOM      2  N   UNL A   1      32.358  29.370  27.463  1.00  0.00    -0.351 N 
ATOM      3  C   UNL A   1      31.870  28.174  27.048  1.00  0.00     0.268 C 
ATOM      4  O   UNL A   1      31.098  27.599  27.828  1.00  0.00    -0.268 OA
ATOM      5  H   UNL A   1      32.074  29.656  28.362  1.00  0.00     0.163 HD
BRANCH   3   6
ATOM      6  C   UNL A   1      32.105  27.525  25.693  1.00  0.00     0.119 A 
ATOM      7  C   UNL A   1      31.919  27.849  24.382  1.00  0.00     0.038 A 
ATOM      8  S   UNL A   1      32.494  26.511  23.328  1.00  0.00    -0.101 S 
ATOM      9  C   UNL A   1      33.006  25.550  24.712  1.00  0.00     0.190 A 
ATOM     10  N   UNL A   1      32.722  26.270  25.827  1.00  0.00    -0.326 N 
ATOM     11  N   UNL A   1      33.489  24.391  24.472  1.00  0.00    -0.185 NA
ATOM     12  H   UNL A   1      32.947  25.918  26.718  1.00  0.00     0.169 HD
BRANCH   7  13
ATOM     13  C   UNL A   1      31.341  29.009  23.607  1.00  0.00     0.052 C 
BRANCH  13  14
ATOM     14  C   UNL A   1      30.266  28.629  22.569  1.00  0.00    -0.012 C 
ATOM     15  C   UNL A   1      29.160  27.786  23.210  1.00  0.00     0.008 C 
ATOM     16  C   UNL A   1      29.637  29.891  21.966  1.00  0.00     0.008 C 
ENDBRANCH  13  14
ENDBRANCH   7  13
BRANCH  11  17
ATOM     17  C   UNL A   1      33.794  23.577  25.526  1.00  0.00     0.248 C 
ATOM     18  O   UNL A   1      34.045  23.954  26.668  1.00  0.00    -0.273 OA
BRANCH  17  19
ATOM     19  C   UNL A   1      33.862  22.116  25.123  1.00  0.00     0.112 C 
BRANCH  19  20
ATOM     20  C   UNL A   1      34.833  21.273  25.941  1.00  0.00     0.110 C 
BRANCH  20  21
ATOM     21  C   UNL A   1      35.816  20.466  25.110  1.00  0.00     0.226 C 
ATOM     22  O   UNL A   1      35.463  19.382  24.632  1.00  0.00    -0.275 OA
ATOM     23  N   UNL A   1      37.080  20.903  24.856  1.00  0.00    -0.302 N 
ATOM     24  H   UNL A   1      37.615  20.361  24.230  1.00  0.00     0.172 HD
BRANCH  23  25
ATOM     25  C   UNL A   1      37.684  22.008  25.376  1.00  0.00     0.189 A 
ATOM     26  N   UNL A   1      37.240  23.236  25.426  1.00  0.00    -0.229 NA
ATOM     27  S   UNL A   1      39.182  21.712  26.139  1.00  0.00    -0.105 S 
ATOM     28  C   UNL A   1      38.114  24.012  26.161  1.00  0.00     0.125 A 
ATOM     29  C   UNL A   1      39.227  23.355  26.638  1.00  0.00     0.088 A 
ENDBRANCH  23  25
ENDBRANCH  20  21
ENDBRANCH  19  20
ENDBRANCH  17  19
ENDBRANCH  11  17
ENDBRANCH   3   6
ENDBRANCH   1   2
BRANCH   1  30
ATOM     30  C   UNL A   1      34.128  31.168  27.605  1.00  0.00     0.042 C 
BRANCH  30  31
ATOM     31  C   UNL A   1      35.463  30.582  28.030  1.00  0.00     0.118 C 
BRANCH  31  32
ATOM     32  N   UNL A   1      35.520  30.139  29.416  1.00  0.00    -0.352 N 
ATOM     33  C   UNL A   1      36.554  29.686  30.209  1.00  0.00     0.251 C 
ATOM     34  H   UNL A   1      34.652  30.168  29.877  1.00  0.00     0.163 HD
ATOM     35  O   UNL A   1      36.289  29.321  31.354  1.00  0.00    -0.269 OA
BRANCH  33  36
ATOM     36  C   UNL A   1      37.951  29.573  29.714  1.00  0.00     0.039 A 
ATOM     37  C   UNL A   1      38.980  29.366  30.643  1.00  0.00     0.014 A 
ATOM     38  C   UNL A   1      38.281  29.694  28.367  1.00  0.00     0.014 A 
ATOM     39  C   UNL A   1      40.299  29.176  30.209  1.00  0.00     0.010 A 
ATOM     40  C   UNL A   1      39.566  29.379  27.926  1.00  0.00     0.010 A 
ATOM     41  C   UNL A   1      40.598  29.122  28.839  1.00  0.00    -0.014 A 
BRANCH  41  42
ATOM     42  C   UNL A   1      41.967  28.817  28.335  1.00  0.00     0.031 A 
ATOM     43  C   UNL A   1      42.306  27.424  27.855  1.00  0.00     0.074 A 
ATOM     44  C   UNL A   1      42.934  29.757  28.395  1.00  0.00     0.049 A 
ATOM     45  N   UNL A   1      43.466  26.936  27.494  1.00  0.00    -0.248 NA
ATOM     46  C   UNL A   1      41.210  26.441  27.812  1.00  0.00     0.031 C 
ATOM     47  C   UNL A   1      42.764  31.124  28.894  1.00  0.00     0.029 A 
ATOM     48  N   UNL A   1      44.263  29.701  28.045  1.00  0.00    -0.354 N 
ATOM     49  C   UNL A   1      43.247  25.588  27.230  1.00  0.00     0.074 A 
ATOM     50  C   UNL A   1      41.854  25.323  27.510  1.00  0.00     0.031 C 
ATOM     51  C   UNL A   1      43.931  31.782  28.793  1.00  0.00     0.029 A 
ATOM     52  C   UNL A   1      44.946  30.875  28.267  1.00  0.00     0.049 A 
ATOM     53  H   UNL A   1      44.686  28.895  27.672  1.00  0.00     0.167 HD
ATOM     54  C   UNL A   1      44.119  24.657  26.776  1.00  0.00     0.031 A 
ATOM     55  C   UNL A   1      46.244  31.188  28.081  1.00  0.00     0.031 A 
ATOM     56  C   UNL A   1      45.488  24.932  26.434  1.00  0.00     0.049 A 
ATOM     57  C   UNL A   1      47.180  30.144  27.531  1.00  0.00     0.074 A 
ATOM     58  C   UNL A   1      46.418  24.079  25.864  1.00  0.00     0.029 A 
ATOM     59  N   UNL A   1      46.122  26.149  26.622  1.00  0.00    -0.354 N 
ATOM     60  N   UNL A   1      46.924  28.901  27.203  1.00  0.00    -0.248 NA
ATOM     61  C   UNL A   1      48.575  30.552  27.312  1.00  0.00     0.031 C 
ATOM     62  C   UNL A   1      47.630  24.767  25.753  1.00  0.00     0.029 A 
ATOM     63  C   UNL A   1      47.437  26.063  26.202  1.00  0.00     0.049 A 
ATOM     64  H   UNL A   1      45.699  26.955  26.998  1.00  0.00     0.167 HD
ATOM     65  C   UNL A   1      48.119  28.389  26.708  1.00  0.00     0.074 A 
ATOM     66  C   UNL A   1      49.092  29.460  26.765  1.00  0.00     0.031 C 
ATOM     67  C   UNL A   1      48.389  27.143  26.249  1.00  0.00     0.031 A 
BRANCH  54  68
ATOM     68  C   UNL A   1      43.624  23.243  26.607  1.00  0.00    -0.014 A 
ATOM     69  C   UNL A   1      43.624  22.615  25.349  1.00  0.00     0.010 A 
ATOM     70  C   UNL A   1      43.236  22.505  27.741  1.00  0.00     0.010 A 
ATOM     71  C   UNL A   1      43.220  21.283  25.225  1.00  0.00     0.020 A 
ATOM     72  C   UNL A   1      42.858  21.165  27.624  1.00  0.00     0.020 A 
ATOM     73  C   UNL A   1      42.843  20.565  26.364  1.00  0.00     0.054 A 
BRANCH  73  74
ATOM     74  S   UNL A   1      42.383  18.820  26.178  1.00  0.00     0.124 S 
ATOM     75  O   UNL A   1      43.373  18.350  25.213  1.00  0.00    -0.237 OA
ATOM     76  O   UNL A   1      42.534  18.303  27.535  1.00  0.00    -0.237 OA
ATOM     77  O   UNL A   1      41.008  18.875  25.684  1.00  0.00    -0.744 OA
ENDBRANCH  73  74
ENDBRANCH  54  68
BRANCH  55  78
ATOM     78  C   UNL A   1      46.748  32.551  28.412  1.00  0.00    -0.014 A 
ATOM     79  C   UNL A   1      46.859  33.534  27.413  1.00  0.00     0.010 A 
ATOM     80  C   UNL A   1      47.154  32.861  29.722  1.00  0.00     0.010 A 
ATOM     81  C   UNL A   1      47.406  34.788  27.708  1.00  0.00     0.020 A 
ATOM     82  C   UNL A   1      47.672  34.123  30.028  1.00  0.00     0.020 A 
ATOM     83  C   UNL A   1      47.815  35.071  29.014  1.00  0.00     0.054 A 
BRANCH  83  84
ATOM     84  S   UNL A   1      48.514  36.706  29.380  1.00  0.00     0.124 S 
ATOM     85  O   UNL A   1      47.379  37.584  29.120  1.00  0.00    -0.237 OA
ATOM     86  O   UNL A   1      48.906  36.575  30.781  1.00  0.00    -0.237 OA
ATOM     87  O   UNL A   1      49.625  36.818  28.438  1.00  0.00    -0.744 OA
ENDBRANCH  83  84
ENDBRANCH  55  78
BRANCH  67  88
ATOM     88  C   UNL A   1      49.773  26.879  25.722  1.00  0.00    -0.014 A 
ATOM     89  C   UNL A   1      50.165  27.317  24.445  1.00  0.00     0.010 A 
ATOM     90  C   UNL A   1      50.712  26.227  26.543  1.00  0.00     0.010 A 
ATOM     91  C   UNL A   1      51.462  27.077  23.984  1.00  0.00     0.020 A 
ATOM     92  C   UNL A   1      52.018  26.011  26.098  1.00  0.00     0.020 A 
ATOM     93  C   UNL A   1      52.380  26.424  24.814  1.00  0.00     0.054 A 
BRANCH  93  94
ATOM     94  S   UNL A   1      54.070  26.161  24.210  1.00  0.00     0.124 S 
ATOM     95  O   UNL A   1      53.871  26.120  22.764  1.00  0.00    -0.237 OA
ATOM     96  O   UNL A   1      54.778  27.334  24.715  1.00  0.00    -0.237 OA
ATOM     97  O   UNL A   1      54.461  24.892  24.821  1.00  0.00    -0.744 OA
ENDBRANCH  93  94
ENDBRANCH  67  88
ENDBRANCH  41  42
ENDBRANCH  33  36
ENDBRANCH  31  32
ENDBRANCH  30  31
ENDBRANCH   1  30
TORSDOF 20
ENDMDL
MODEL 2
REMARK VINA RESULT:     -10.8      1.339      2.119
REMARK SMILES CC(C)Cc1s/c(=N/C(=O)CCC(=O)Nc2nccs2)[nH]c1C(=O)NCCCNC(=O)c1ccc(-c2c3nc(c(-c4ccc(S(=O)(=O)[O-])cc4)c4ccc([nH]4)c(-c4ccc(S(=O)(=O)[O-])cc4)c4nc(c(-c5ccc(S(=O)(=O)[O-])cc5)c5ccc2[nH]5)C=C4)C=C3)cc1
REMARK SMILES IDX 26 1 25 2 23 3 24 4 22 6 5 7 6 8 7 9 21 10 8 11 4 13 2 14
REMARK SMILES IDX 1 15 3 16 9 17 10 18 11 19 12 20 13 21 14 22 15 23 16 25
REMARK SMILES IDX 17 26 20 27 18 28 19 29 27 30 28 31 29 32 30 33 31 35 32 36
REMARK SMILES IDX 33 37 91 38 34 39 90 40 35 41 36 42 37 43 84 44 38 45 89 46
REMARK SMILES IDX 83 47 85 48 39 49 88 50 82 51 81 52 40 54 70 55 51 56 69 57
REMARK SMILES IDX 52 58 55 59 68 60 86 61 53 62 54 63 67 65 87 66 56 67 41 68
REMARK SMILES IDX 42 69 50 70 43 71 49 72 44 73 45 74 46 75 47 76 48 77 71 78
REMARK SMILES IDX 72 79 80 80 73 81 79 82 74 83 75 84 76 85 77 86 78 87 57 88
REMARK SMILES IDX 58 89 66 90 59 91 65 92 60 93 61 94 62 95 63 96 64 97
REMARK H PARENT 25 5 21 12 15 24 29 34 85 53 55 64
REMARK Flexibility Score: inf
ROOT
ATOM      1  C   UNL A   1      33.371  30.192  26.552  1.00  0.00     0.118 C 
ENDROOT
BRANCH   1   2
ATOM      2  N   UNL A   1      32.683  29.056  27.088  1.00  0.00    -0.351 N 
ATOM      3  C   UNL A   1      32.357  27.890  26.476  1.00  0.00     0.268 C 
ATOM      4  O   UNL A   1      31.722  27.074  27.158  1.00  0.00    -0.268 OA
ATOM      5  H   UNL A   1      32.409  29.132  28.031  1.00  0.00     0.163 HD
BRANCH   3   6
ATOM      6  C   UNL A   1      32.613  27.534  25.020  1.00  0.00     0.119 A 
ATOM      7  C   UNL A   1      32.291  28.035  23.794  1.00  0.00     0.038 A 
ATOM      8  S   UNL A   1      33.020  27.022  22.501  1.00  0.00    -0.101 S 
ATOM      9  C   UNL A   1      33.778  25.950  23.675  1.00  0.00     0.190 A 
ATOM     10  N   UNL A   1      33.446  26.407  24.908  1.00  0.00    -0.326 N 
ATOM     11  N   UNL A   1      34.438  24.956  23.217  1.00  0.00    -0.185 NA
ATOM     12  H   UNL A   1      33.785  25.957  25.715  1.00  0.00     0.169 HD
BRANCH   7  13
ATOM     13  C   UNL A   1      31.471  29.185  23.257  1.00  0.00     0.052 C 
BRANCH  13  14
ATOM     14  C   UNL A   1      29.951  29.064  23.483  1.00  0.00    -0.012 C 
ATOM     15  C   UNL A   1      29.191  30.118  22.672  1.00  0.00     0.008 C 
ATOM     16  C   UNL A   1      29.459  27.672  23.066  1.00  0.00     0.008 C 
ENDBRANCH  13  14
ENDBRANCH   7  13
BRANCH  11  17
ATOM     17  C   UNL A   1      34.946  24.044  24.099  1.00  0.00     0.248 C 
ATOM     18  O   UNL A   1      35.677  24.305  25.050  1.00  0.00    -0.273 OA
BRANCH  17  19
ATOM     19  C   UNL A   1      34.565  22.621  23.738  1.00  0.00     0.112 C 
BRANCH  19  20
ATOM     20  C   UNL A   1      35.391  21.543  24.429  1.00  0.00     0.110 C 
BRANCH  20  21
ATOM     21  C   UNL A   1      34.767  20.994  25.700  1.00  0.00     0.226 C 
ATOM     22  O   UNL A   1      34.928  21.596  26.767  1.00  0.00    -0.275 OA
ATOM     23  N   UNL A   1      34.015  19.858  25.707  1.00  0.00    -0.302 N 
ATOM     24  H   UNL A   1      33.572  19.630  26.556  1.00  0.00     0.172 HD
BRANCH  23  25
ATOM     25  C   UNL A   1      33.812  19.006  24.664  1.00  0.00     0.189 A 
ATOM     26  N   UNL A   1      34.521  17.968  24.304  1.00  0.00    -0.229 NA
ATOM     27  S   UNL A   1      32.386  19.296  23.771  1.00  0.00    -0.105 S 
ATOM     28  C   UNL A   1      33.881  17.308  23.275  1.00  0.00     0.125 A 
ATOM     29  C   UNL A   1      32.700  17.878  22.853  1.00  0.00     0.088 A 
ENDBRANCH  23  25
ENDBRANCH  20  21
ENDBRANCH  19  20
ENDBRANCH  17  19
ENDBRANCH  11  17
ENDBRANCH   3   6
ENDBRANCH   1   2
BRANCH   1  30
ATOM     30  C   UNL A   1      34.182  31.048  27.506  1.00  0.00     0.042 C 
BRANCH  30  31
ATOM     31  C   UNL A   1      35.517  30.485  27.958  1.00  0.00     0.118 C 
BRANCH  31  32
ATOM     32  N   UNL A   1      35.572  30.095  29.359  1.00  0.00    -0.352 N 
ATOM     33  C   UNL A   1      36.609  29.698  30.178  1.00  0.00     0.251 C 
ATOM     34  H   UNL A   1      34.699  30.118  29.811  1.00  0.00     0.163 HD
ATOM     35  O   UNL A   1      36.342  29.369  31.333  1.00  0.00    -0.269 OA
BRANCH  33  36
ATOM     36  C   UNL A   1      38.013  29.604  29.701  1.00  0.00     0.039 A 
ATOM     37  C   UNL A   1      39.042  29.520  30.648  1.00  0.00     0.014 A 
ATOM     38  C   UNL A   1      38.349  29.625  28.350  1.00  0.00     0.014 A 
ATOM     39  C   UNL A   1      40.372  29.351  30.238  1.00  0.00     0.010 A 
ATOM     40  C   UNL A   1      39.649  29.329  27.942  1.00  0.00     0.010 A 
ATOM     41  C   UNL A   1      40.683  29.194  28.879  1.00  0.00    -0.014 A 
BRANCH  41  42
ATOM     42  C   UNL A   1      42.068  28.905  28.408  1.00  0.00     0.031 A 
ATOM     43  C   UNL A   1      42.441  27.514  27.951  1.00  0.00     0.074 A 
ATOM     44  C   UNL A   1      43.019  29.862  28.480  1.00  0.00     0.049 A 
ATOM     45  N   UNL A   1      43.616  27.041  27.621  1.00  0.00    -0.248 NA
ATOM     46  C   UNL A   1      41.362  26.512  27.895  1.00  0.00     0.031 C 
ATOM     47  C   UNL A   1      42.816  31.232  28.960  1.00  0.00     0.029 A 
ATOM     48  N   UNL A   1      44.356  29.824  28.160  1.00  0.00    -0.354 N 
ATOM     49  C   UNL A   1      43.424  25.687  27.367  1.00  0.00     0.074 A 
ATOM     50  C   UNL A   1      42.030  25.402  27.619  1.00  0.00     0.031 C 
ATOM     51  C   UNL A   1      43.974  31.907  28.878  1.00  0.00     0.029 A 
ATOM     52  C   UNL A   1      45.014  31.012  28.384  1.00  0.00     0.049 A 
ATOM     53  H   UNL A   1      44.800  29.021  27.805  1.00  0.00     0.167 HD
ATOM     54  C   UNL A   1      44.321  24.766  26.942  1.00  0.00     0.031 A 
ATOM     55  C   UNL A   1      46.311  31.344  28.223  1.00  0.00     0.031 A 
ATOM     56  C   UNL A   1      45.693  25.060  26.629  1.00  0.00     0.049 A 
ATOM     57  C   UNL A   1      47.276  30.310  27.705  1.00  0.00     0.074 A 
ATOM     58  C   UNL A   1      46.649  24.216  26.088  1.00  0.00     0.029 A 
ATOM     59  N   UNL A   1      46.303  26.289  26.817  1.00  0.00    -0.354 N 
ATOM     60  N   UNL A   1      47.048  29.059  27.386  1.00  0.00    -0.248 NA
ATOM     61  C   UNL A   1      48.669  30.738  27.514  1.00  0.00     0.031 C 
ATOM     62  C   UNL A   1      47.852  24.922  25.996  1.00  0.00     0.029 A 
ATOM     63  C   UNL A   1      47.629  26.220  26.427  1.00  0.00     0.049 A 
ATOM     64  H   UNL A   1      45.859  27.092  27.174  1.00  0.00     0.167 HD
ATOM     65  C   UNL A   1      48.262  28.562  26.923  1.00  0.00     0.074 A 
ATOM     66  C   UNL A   1      49.215  29.649  26.990  1.00  0.00     0.031 C 
ATOM     67  C   UNL A   1      48.561  27.315  26.484  1.00  0.00     0.031 A 
BRANCH  54  68
ATOM     68  C   UNL A   1      43.854  23.342  26.778  1.00  0.00    -0.014 A 
ATOM     69  C   UNL A   1      42.949  22.762  27.684  1.00  0.00     0.010 A 
ATOM     70  C   UNL A   1      44.262  22.605  25.650  1.00  0.00     0.010 A 
ATOM     71  C   UNL A   1      42.480  21.462  27.478  1.00  0.00     0.020 A 
ATOM     72  C   UNL A   1      43.773  21.315  25.427  1.00  0.00     0.020 A 
ATOM     73  C   UNL A   1      42.893  20.747  26.349  1.00  0.00     0.054 A 
BRANCH  73  74
ATOM     74  S   UNL A   1      42.218  19.085  26.078  1.00  0.00     0.124 S 
ATOM     75  O   UNL A   1      42.937  18.662  24.878  1.00  0.00    -0.237 OA
ATOM     76  O   UNL A   1      42.584  18.387  27.308  1.00  0.00    -0.237 OA
ATOM     77  O   UNL A   1      40.787  19.317  25.898  1.00  0.00    -0.744 OA
ENDBRANCH  73  74
ENDBRANCH  54  68
BRANCH  55  78
ATOM     78  C   UNL A   1      46.786  32.718  28.551  1.00  0.00    -0.014 A 
ATOM     79  C   UNL A   1      46.823  33.717  27.561  1.00  0.00     0.010 A 
ATOM     80  C   UNL A   1      47.237  33.026  29.847  1.00  0.00     0.010 A 
ATOM     81  C   UNL A   1      47.342  34.983  27.849  1.00  0.00     0.020 A 
ATOM     82  C   UNL A   1      47.728  34.300  30.147  1.00  0.00     0.020 A 
ATOM     83  C   UNL A   1      47.797  35.264  29.140  1.00  0.00     0.054 A 
BRANCH  83  84
ATOM     84  S   UNL A   1      48.459  36.916  29.498  1.00  0.00     0.124 S 
ATOM     85  O   UNL A   1      47.240  37.692  29.700  1.00  0.00    -0.237 OA
ATOM     86  O   UNL A   1      49.266  36.681  30.692  1.00  0.00    -0.237 OA
ATOM     87  O   UNL A   1      49.222  37.243  28.295  1.00  0.00    -0.744 OA
ENDBRANCH  83  84
ENDBRANCH  55  78
BRANCH  67  88
ATOM     88  C   UNL A   1      49.961  27.068  25.990  1.00  0.00    -0.014 A 
ATOM     89  C   UNL A   1      50.951  26.538  26.836  1.00  0.00     0.010 A 
ATOM     90  C   UNL A   1      50.273  27.322  24.642  1.00  0.00     0.010 A 
ATOM     91  C   UNL A   1      52.239  26.299  26.350  1.00  0.00     0.020 A 
ATOM     92  C   UNL A   1      51.551  27.057  24.145  1.00  0.00     0.020 A 
ATOM     93  C   UNL A   1      52.531  26.561  25.007  1.00  0.00     0.054 A 
BRANCH  93  94
ATOM     94  S   UNL A   1      54.199  26.204  24.390  1.00  0.00     0.124 S 
ATOM     95  O   UNL A   1      54.998  27.217  25.072  1.00  0.00    -0.237 OA
ATOM     96  O   UNL A   1      54.416  24.829  24.830  1.00  0.00    -0.237 OA
ATOM     97  O   UNL A   1      54.076  26.377  22.943  1.00  0.00    -0.744 OA
ENDBRANCH  93  94
ENDBRANCH  67  88
ENDBRANCH  41  42
ENDBRANCH  33  36
ENDBRANCH  31  32
ENDBRANCH  30  31
ENDBRANCH   1  30
TORSDOF 20
ENDMDL
MODEL 3
REMARK VINA RESULT:     -10.8      6.067     10.665
REMARK SMILES CC(C)Cc1s/c(=N/C(=O)CCC(=O)Nc2nccs2)[nH]c1C(=O)NCCCNC(=O)c1ccc(-c2c3nc(c(-c4ccc(S(=O)(=O)[O-])cc4)c4ccc([nH]4)c(-c4ccc(S(=O)(=O)[O-])cc4)c4nc(c(-c5ccc(S(=O)(=O)[O-])cc5)c5ccc2[nH]5)C=C4)C=C3)cc1
REMARK SMILES IDX 26 1 25 2 23 3 24 4 22 6 5 7 6 8 7 9 21 10 8 11 4 13 2 14
REMARK SMILES IDX 1 15 3 16 9 17 10 18 11 19 12 20 13 21 14 22 15 23 16 25
REMARK SMILES IDX 17 26 20 27 18 28 19 29 27 30 28 31 29 32 30 33 31 35 32 36
REMARK SMILES IDX 33 37 91 38 34 39 90 40 35 41 36 42 37 43 84 44 38 45 89 46
REMARK SMILES IDX 83 47 85 48 39 49 88 50 82 51 81 52 40 54 70 55 51 56 69 57
REMARK SMILES IDX 52 58 55 59 68 60 86 61 53 62 54 63 67 65 87 66 56 67 41 68
REMARK SMILES IDX 42 69 50 70 43 71 49 72 44 73 45 74 46 75 47 76 48 77 71 78
REMARK SMILES IDX 72 79 80 80 73 81 79 82 74 83 75 84 76 85 77 86 78 87 57 88
REMARK SMILES IDX 58 89 66 90 59 91 65 92 60 93 61 94 62 95 63 96 64 97
REMARK H PARENT 25 5 21 12 15 24 29 34 85 53 55 64
REMARK Flexibility Score: inf
ROOT
ATOM      1  C   UNL A   1      33.805  29.874  26.796  1.00  0.00     0.118 C 
ENDROOT
BRANCH   1   2
ATOM      2  N   UNL A   1      32.767  29.085  27.390  1.00  0.00    -0.351 N 
ATOM      3  C   UNL A   1      31.918  28.209  26.797  1.00  0.00     0.268 C 
ATOM      4  O   UNL A   1      31.077  27.677  27.536  1.00  0.00    -0.268 OA
ATOM      5  H   UNL A   1      32.654  29.195  28.362  1.00  0.00     0.163 HD
BRANCH   3   6
ATOM      6  C   UNL A   1      31.841  27.892  25.312  1.00  0.00     0.119 A 
ATOM      7  C   UNL A   1      31.223  28.402  24.209  1.00  0.00     0.038 A 
ATOM      8  S   UNL A   1      31.669  27.446  22.753  1.00  0.00    -0.101 S 
ATOM      9  C   UNL A   1      32.719  26.385  23.688  1.00  0.00     0.190 A 
ATOM     10  N   UNL A   1      32.667  26.805  24.978  1.00  0.00    -0.326 N 
ATOM     11  N   UNL A   1      33.292  25.430  23.061  1.00  0.00    -0.185 NA
ATOM     12  H   UNL A   1      33.201  26.354  25.671  1.00  0.00     0.169 HD
BRANCH   7  13
ATOM     13  C   UNL A   1      30.258  29.525  23.910  1.00  0.00     0.052 C 
BRANCH  13  14
ATOM     14  C   UNL A   1      29.331  29.285  22.703  1.00  0.00    -0.012 C 
ATOM     15  C   UNL A   1      27.860  29.328  23.125  1.00  0.00     0.008 C 
ATOM     16  C   UNL A   1      29.568  30.352  21.628  1.00  0.00     0.008 C 
ENDBRANCH  13  14
ENDBRANCH   7  13
BRANCH  11  17
ATOM     17  C   UNL A   1      34.025  24.525  23.774  1.00  0.00     0.248 C 
ATOM     18  O   UNL A   1      34.676  24.774  24.786  1.00  0.00    -0.273 OA
BRANCH  17  19
ATOM     19  C   UNL A   1      34.016  23.148  23.138  1.00  0.00     0.112 C 
BRANCH  19  20
ATOM     20  C   UNL A   1      32.637  22.642  22.729  1.00  0.00     0.110 C 
BRANCH  20  21
ATOM     21  C   UNL A   1      32.341  21.216  23.160  1.00  0.00     0.226 C 
ATOM     22  O   UNL A   1      32.149  20.348  22.301  1.00  0.00    -0.275 OA
ATOM     23  N   UNL A   1      32.291  20.850  24.470  1.00  0.00    -0.302 N 
ATOM     24  H   UNL A   1      32.187  19.888  24.654  1.00  0.00     0.172 HD
BRANCH  23  25
ATOM     25  C   UNL A   1      32.370  21.673  25.553  1.00  0.00     0.189 A 
ATOM     26  N   UNL A   1      31.502  22.551  25.980  1.00  0.00    -0.229 NA
ATOM     27  S   UNL A   1      33.759  21.448  26.521  1.00  0.00    -0.105 S 
ATOM     28  C   UNL A   1      31.923  23.066  27.189  1.00  0.00     0.125 A 
ATOM     29  C   UNL A   1      33.128  22.581  27.649  1.00  0.00     0.088 A 
ENDBRANCH  23  25
ENDBRANCH  20  21
ENDBRANCH  19  20
ENDBRANCH  17  19
ENDBRANCH  11  17
ENDBRANCH   3   6
ENDBRANCH   1   2
BRANCH   1  30
ATOM     30  C   UNL A   1      33.954  31.312  27.253  1.00  0.00     0.042 C 
BRANCH  30  31
ATOM     31  C   UNL A   1      32.676  32.045  27.618  1.00  0.00     0.118 C 
BRANCH  31  32
ATOM     32  N   UNL A   1      32.791  33.497  27.639  1.00  0.00    -0.352 N 
ATOM     33  C   UNL A   1      33.648  34.356  28.293  1.00  0.00     0.251 C 
ATOM     34  H   UNL A   1      32.127  33.954  27.075  1.00  0.00     0.163 HD
ATOM     35  O   UNL A   1      33.469  35.566  28.160  1.00  0.00    -0.269 OA
BRANCH  33  36
ATOM     36  C   UNL A   1      34.734  33.876  29.187  1.00  0.00     0.039 A 
ATOM     37  C   UNL A   1      34.406  33.019  30.246  1.00  0.00     0.014 A 
ATOM     38  C   UNL A   1      36.061  34.266  29.030  1.00  0.00     0.014 A 
ATOM     39  C   UNL A   1      35.412  32.483  31.062  1.00  0.00     0.010 A 
ATOM     40  C   UNL A   1      37.071  33.636  29.756  1.00  0.00     0.010 A 
ATOM     41  C   UNL A   1      36.763  32.740  30.789  1.00  0.00    -0.014 A 
BRANCH  41  42
ATOM     42  C   UNL A   1      37.867  32.104  31.564  1.00  0.00     0.031 A 
ATOM     43  C   UNL A   1      38.227  32.623  32.938  1.00  0.00     0.074 A 
ATOM     44  C   UNL A   1      38.610  31.126  31.004  1.00  0.00     0.049 A 
ATOM     45  N   UNL A   1      39.226  32.282  33.712  1.00  0.00    -0.248 NA
ATOM     46  C   UNL A   1      37.381  33.692  33.497  1.00  0.00     0.031 C 
ATOM     47  C   UNL A   1      38.415  30.570  29.662  1.00  0.00     0.029 A 
ATOM     48  N   UNL A   1      39.693  30.432  31.489  1.00  0.00    -0.354 N 
ATOM     49  C   UNL A   1      39.153  33.122  34.819  1.00  0.00     0.074 A 
ATOM     50  C   UNL A   1      38.039  34.016  34.600  1.00  0.00     0.031 C 
ATOM     51  C   UNL A   1      39.325  29.607  29.444  1.00  0.00     0.029 A 
ATOM     52  C   UNL A   1      40.200  29.505  30.607  1.00  0.00     0.049 A 
ATOM     53  H   UNL A   1      40.071  30.586  32.385  1.00  0.00     0.167 HD
ATOM     54  C   UNL A   1      39.930  33.136  35.928  1.00  0.00     0.031 A 
ATOM     55  C   UNL A   1      41.256  28.673  30.714  1.00  0.00     0.031 A 
ATOM     56  C   UNL A   1      40.997  32.206  36.178  1.00  0.00     0.049 A 
ATOM     57  C   UNL A   1      42.072  28.680  31.979  1.00  0.00     0.074 A 
ATOM     58  C   UNL A   1      41.768  32.072  37.321  1.00  0.00     0.029 A 
ATOM     59  N   UNL A   1      41.439  31.248  35.282  1.00  0.00    -0.354 N 
ATOM     60  N   UNL A   1      41.925  29.423  33.049  1.00  0.00    -0.248 NA
ATOM     61  C   UNL A   1      43.188  27.726  32.054  1.00  0.00     0.031 C 
ATOM     62  C   UNL A   1      42.711  31.066  37.095  1.00  0.00     0.029 A 
ATOM     63  C   UNL A   1      42.488  30.536  35.835  1.00  0.00     0.049 A 
ATOM     64  H   UNL A   1      41.062  31.096  34.385  1.00  0.00     0.167 HD
ATOM     65  C   UNL A   1      42.908  29.001  33.938  1.00  0.00     0.074 A 
ATOM     66  C   UNL A   1      43.633  27.930  33.287  1.00  0.00     0.031 C 
ATOM     67  C   UNL A   1      43.189  29.461  35.181  1.00  0.00     0.031 A 
BRANCH  54  68
ATOM     68  C   UNL A   1      39.655  34.186  36.974  1.00  0.00    -0.014 A 
ATOM     69  C   UNL A   1      38.963  33.875  38.157  1.00  0.00     0.010 A 
ATOM     70  C   UNL A   1      40.174  35.484  36.806  1.00  0.00     0.010 A 
ATOM     71  C   UNL A   1      38.773  34.848  39.142  1.00  0.00     0.020 A 
ATOM     72  C   UNL A   1      40.010  36.452  37.800  1.00  0.00     0.020 A 
ATOM     73  C   UNL A   1      39.301  36.130  38.958  1.00  0.00     0.054 A 
BRANCH  73  74
ATOM     74  S   UNL A   1      39.091  37.353  40.282  1.00  0.00     0.124 S 
ATOM     75  O   UNL A   1      40.461  37.822  40.477  1.00  0.00    -0.237 OA
ATOM     76  O   UNL A   1      38.177  38.321  39.681  1.00  0.00    -0.237 OA
ATOM     77  O   UNL A   1      38.534  36.576  41.387  1.00  0.00    -0.744 OA
ENDBRANCH  73  74
ENDBRANCH  54  68
BRANCH  55  78
ATOM     78  C   UNL A   1      41.610  27.755  29.595  1.00  0.00    -0.014 A 
ATOM     79  C   UNL A   1      42.715  28.028  28.768  1.00  0.00     0.010 A 
ATOM     80  C   UNL A   1      40.823  26.620  29.327  1.00  0.00     0.010 A 
ATOM     81  C   UNL A   1      43.000  27.210  27.671  1.00  0.00     0.020 A 
ATOM     82  C   UNL A   1      41.124  25.782  28.249  1.00  0.00     0.020 A 
ATOM     83  C   UNL A   1      42.198  26.095  27.415  1.00  0.00     0.054 A 
BRANCH  83  84
ATOM     84  S   UNL A   1      42.589  25.039  25.991  1.00  0.00     0.124 S 
ATOM     85  O   UNL A   1      42.396  23.703  26.545  1.00  0.00    -0.237 OA
ATOM     86  O   UNL A   1      41.602  25.463  25.002  1.00  0.00    -0.237 OA
ATOM     87  O   UNL A   1      43.970  25.395  25.674  1.00  0.00    -0.744 OA
ENDBRANCH  83  84
ENDBRANCH  55  78
BRANCH  67  88
ATOM     88  C   UNL A   1      44.290  28.777  35.945  1.00  0.00    -0.014 A 
ATOM     89  C   UNL A   1      45.615  29.243  35.892  1.00  0.00     0.010 A 
ATOM     90  C   UNL A   1      43.980  27.682  36.773  1.00  0.00     0.010 A 
ATOM     91  C   UNL A   1      46.618  28.603  36.625  1.00  0.00     0.020 A 
ATOM     92  C   UNL A   1      44.974  27.058  37.530  1.00  0.00     0.020 A 
ATOM     93  C   UNL A   1      46.290  27.513  37.439  1.00  0.00     0.054 A 
BRANCH  93  94
ATOM     94  S   UNL A   1      47.602  26.726  38.413  1.00  0.00     0.124 S 
ATOM     95  O   UNL A   1      46.834  25.928  39.365  1.00  0.00    -0.237 OA
ATOM     96  O   UNL A   1      48.339  25.968  37.406  1.00  0.00    -0.237 OA
ATOM     97  O   UNL A   1      48.328  27.855  38.990  1.00  0.00    -0.744 OA
ENDBRANCH  93  94
ENDBRANCH  67  88
ENDBRANCH  41  42
ENDBRANCH  33  36
ENDBRANCH  31  32
ENDBRANCH  30  31
ENDBRANCH   1  30
TORSDOF 20
ENDMDL
