MODEL 1
REMARK VINA RESULT:      -9.7      0.000      0.000
REMARK SMILES CCN(C(=O)N1C[C@@H](C)[C@H](C(=O)OC)C1)C(C)(C)C(=O)NCCCNC(=O)c1ccc(-c2c3nc(c(-c4ccc(S(=O)(=O)[O-])cc4)c4ccc([nH]4)c(-c4ccc(S(=O)(=O)[O-])cc4)c4nc(c(-c5ccc(S(=O)(=O)[O-])cc5)c5ccc2[nH]5)C=C4)C=C3)cc1
REMARK SMILES IDX 22 1 21 2 19 3 20 4 16 6 17 7 18 8 3 9 2 10 1 11 4 12 5 13
REMARK SMILES IDX 6 14 7 15 15 16 8 17 10 18 9 19 11 20 12 21 13 22 14 23
REMARK SMILES IDX 23 24 24 25 25 26 26 27 27 29 28 30 29 31 87 32 30 33 86 34
REMARK SMILES IDX 31 35 32 36 33 37 80 38 34 39 85 40 79 41 81 42 35 43 84 44
REMARK SMILES IDX 78 45 77 46 36 48 66 49 47 50 65 51 48 52 51 53 64 54 82 55
REMARK SMILES IDX 49 56 50 57 63 59 83 60 52 61 37 62 38 63 46 64 39 65 45 66
REMARK SMILES IDX 40 67 41 68 42 69 43 70 44 71 67 72 68 73 76 74 69 75 75 76
REMARK SMILES IDX 70 77 71 78 72 79 73 80 74 81 53 82 54 83 62 84 55 85 61 86
REMARK SMILES IDX 56 87 57 88 58 89 59 90 60 91
REMARK H PARENT 21 5 25 28 81 47 51 58
REMARK Flexibility Score: inf
ROOT
ATOM      1  C   UNL A   1      34.923  22.095  25.452  1.00  0.00     0.117 C 
ENDROOT
BRANCH   1   2
ATOM      2  N   UNL A   1      34.254  22.527  26.678  1.00  0.00    -0.354 N 
ATOM      3  C   UNL A   1      32.913  22.669  26.980  1.00  0.00     0.245 C 
ATOM      4  O   UNL A   1      32.622  22.618  28.181  1.00  0.00    -0.272 OA
ATOM      5  H   UNL A   1      34.865  22.755  27.416  1.00  0.00     0.163 HD
BRANCH   3   6
ATOM      6  C   UNL A   1      31.820  22.739  25.837  1.00  0.00     0.117 C 
ATOM      7  C   UNL A   1      30.524  23.064  26.626  1.00  0.00     0.045 C 
ATOM      8  C   UNL A   1      31.784  21.387  25.084  1.00  0.00     0.045 C 
BRANCH   6   9
ATOM      9  N   UNL A   1      32.012  23.849  24.813  1.00  0.00    -0.311 N 
BRANCH   9  10
ATOM     10  C   UNL A   1      32.370  23.462  23.429  1.00  0.00     0.119 C 
ATOM     11  C   UNL A   1      33.314  24.390  22.668  1.00  0.00     0.027 C 
ENDBRANCH   9  10
BRANCH   9  12
ATOM     12  C   UNL A   1      32.349  25.113  25.296  1.00  0.00     0.320 C 
ATOM     13  O   UNL A   1      33.448  25.316  25.816  1.00  0.00    -0.248 OA
BRANCH  12  14
ATOM     14  N   UNL A   1      31.445  26.146  25.153  1.00  0.00    -0.323 N 
ATOM     15  C   UNL A   1      30.586  26.572  24.059  1.00  0.00     0.125 C 
ATOM     16  C   UNL A   1      31.429  27.215  26.134  1.00  0.00     0.137 C 
ATOM     17  C   UNL A   1      31.014  28.041  23.864  1.00  0.00     0.021 C 
ATOM     18  C   UNL A   1      31.561  28.463  25.256  1.00  0.00     0.123 C 
ATOM     19  C   UNL A   1      29.881  28.932  23.380  1.00  0.00     0.010 C 
BRANCH  18  20
ATOM     20  C   UNL A   1      33.022  28.876  25.211  1.00  0.00     0.310 C 
ATOM     21  O   UNL A   1      33.758  28.646  24.259  1.00  0.00    -0.252 OA
BRANCH  20  22
ATOM     22  O   UNL A   1      33.396  29.539  26.339  1.00  0.00    -0.469 OA
ATOM     23  C   UNL A   1      34.576  29.052  26.975  1.00  0.00     0.282 C 
ENDBRANCH  20  22
ENDBRANCH  18  20
ENDBRANCH  12  14
ENDBRANCH   9  12
ENDBRANCH   6   9
ENDBRANCH   3   6
ENDBRANCH   1   2
BRANCH   1  24
ATOM     24  C   UNL A   1      35.974  23.054  24.905  1.00  0.00     0.042 C 
BRANCH  24  25
ATOM     25  C   UNL A   1      37.102  23.392  25.864  1.00  0.00     0.118 C 
BRANCH  25  26
ATOM     26  N   UNL A   1      38.013  22.279  26.078  1.00  0.00    -0.352 N 
ATOM     27  C   UNL A   1      39.346  22.268  26.409  1.00  0.00     0.251 C 
ATOM     28  H   UNL A   1      37.610  21.388  25.966  1.00  0.00     0.163 HD
ATOM     29  O   UNL A   1      39.971  21.209  26.349  1.00  0.00    -0.269 OA
BRANCH  27  30
ATOM     30  C   UNL A   1      40.042  23.513  26.811  1.00  0.00     0.039 A 
ATOM     31  C   UNL A   1      39.997  24.619  25.956  1.00  0.00     0.014 A 
ATOM     32  C   UNL A   1      40.759  23.590  28.006  1.00  0.00     0.014 A 
ATOM     33  C   UNL A   1      40.607  25.819  26.337  1.00  0.00     0.010 A 
ATOM     34  C   UNL A   1      41.285  24.810  28.427  1.00  0.00     0.010 A 
ATOM     35  C   UNL A   1      41.222  25.937  27.594  1.00  0.00    -0.014 A 
BRANCH  35  36
ATOM     36  C   UNL A   1      41.807  27.224  28.054  1.00  0.00     0.031 A 
ATOM     37  C   UNL A   1      43.301  27.418  28.060  1.00  0.00     0.074 A 
ATOM     38  C   UNL A   1      41.000  28.193  28.529  1.00  0.00     0.049 A 
ATOM     39  N   UNL A   1      43.997  28.443  28.483  1.00  0.00    -0.248 NA
ATOM     40  C   UNL A   1      44.121  26.308  27.548  1.00  0.00     0.031 C 
ATOM     41  C   UNL A   1      39.539  28.113  28.618  1.00  0.00     0.029 A 
ATOM     42  N   UNL A   1      41.292  29.436  29.034  1.00  0.00    -0.354 N 
ATOM     43  C   UNL A   1      45.331  28.093  28.307  1.00  0.00     0.074 A 
ATOM     44  C   UNL A   1      45.349  26.743  27.788  1.00  0.00     0.031 C 
ATOM     45  C   UNL A   1      39.064  29.265  29.116  1.00  0.00     0.029 A 
ATOM     46  C   UNL A   1      40.183  30.150  29.425  1.00  0.00     0.049 A 
ATOM     47  H   UNL A   1      42.210  29.785  29.109  1.00  0.00     0.167 HD
ATOM     48  C   UNL A   1      46.443  28.834  28.535  1.00  0.00     0.031 A 
ATOM     49  C   UNL A   1      40.076  31.373  29.979  1.00  0.00     0.031 A 
ATOM     50  C   UNL A   1      46.421  30.182  29.039  1.00  0.00     0.049 A 
ATOM     51  C   UNL A   1      41.324  32.174  30.234  1.00  0.00     0.074 A 
ATOM     52  C   UNL A   1      47.488  31.037  29.249  1.00  0.00     0.029 A 
ATOM     53  N   UNL A   1      45.277  30.869  29.414  1.00  0.00    -0.354 N 
ATOM     54  N   UNL A   1      42.573  31.850  29.996  1.00  0.00    -0.248 NA
ATOM     55  C   UNL A   1      41.148  33.509  30.821  1.00  0.00     0.031 C 
ATOM     56  C   UNL A   1      46.995  32.222  29.804  1.00  0.00     0.029 A 
ATOM     57  C   UNL A   1      45.615  32.129  29.880  1.00  0.00     0.049 A 
ATOM     58  H   UNL A   1      44.360  30.514  29.358  1.00  0.00     0.167 HD
ATOM     59  C   UNL A   1      43.329  32.952  30.380  1.00  0.00     0.074 A 
ATOM     60  C   UNL A   1      42.396  33.956  30.850  1.00  0.00     0.031 C 
ATOM     61  C   UNL A   1      44.674  33.117  30.346  1.00  0.00     0.031 A 
BRANCH  48  62
ATOM     62  C   UNL A   1      47.777  28.197  28.244  1.00  0.00    -0.014 A 
ATOM     63  C   UNL A   1      48.492  27.517  29.247  1.00  0.00     0.010 A 
ATOM     64  C   UNL A   1      48.306  28.242  26.941  1.00  0.00     0.010 A 
ATOM     65  C   UNL A   1      49.730  26.934  28.964  1.00  0.00     0.020 A 
ATOM     66  C   UNL A   1      49.530  27.634  26.646  1.00  0.00     0.020 A 
ATOM     67  C   UNL A   1      50.243  26.998  27.665  1.00  0.00     0.054 A 
BRANCH  67  68
ATOM     68  S   UNL A   1      51.841  26.212  27.322  1.00  0.00     0.124 S 
ATOM     69  O   UNL A   1      52.466  26.215  28.643  1.00  0.00    -0.237 OA
ATOM     70  O   UNL A   1      51.450  24.898  26.817  1.00  0.00    -0.237 OA
ATOM     71  O   UNL A   1      52.459  27.097  26.339  1.00  0.00    -0.744 OA
ENDBRANCH  67  68
ENDBRANCH  48  62
BRANCH  49  72
ATOM     72  C   UNL A   1      38.733  31.923  30.318  1.00  0.00    -0.014 A 
ATOM     73  C   UNL A   1      38.082  31.538  31.502  1.00  0.00     0.010 A 
ATOM     74  C   UNL A   1      38.106  32.847  29.463  1.00  0.00     0.010 A 
ATOM     75  C   UNL A   1      36.821  32.051  31.818  1.00  0.00     0.020 A 
ATOM     76  C   UNL A   1      36.857  33.386  29.789  1.00  0.00     0.020 A 
ATOM     77  C   UNL A   1      36.217  32.975  30.960  1.00  0.00     0.054 A 
BRANCH  77  78
ATOM     78  S   UNL A   1      34.604  33.669  31.416  1.00  0.00     0.124 S 
ATOM     79  O   UNL A   1      34.072  32.642  32.304  1.00  0.00    -0.237 OA
ATOM     80  O   UNL A   1      34.973  34.931  32.054  1.00  0.00    -0.237 OA
ATOM     81  O   UNL A   1      33.916  33.807  30.133  1.00  0.00    -0.744 OA
ENDBRANCH  77  78
ENDBRANCH  49  72
BRANCH  61  82
ATOM     82  C   UNL A   1      45.221  34.445  30.800  1.00  0.00    -0.014 A 
ATOM     83  C   UNL A   1      45.390  35.512  29.899  1.00  0.00     0.010 A 
ATOM     84  C   UNL A   1      45.518  34.644  32.161  1.00  0.00     0.010 A 
ATOM     85  C   UNL A   1      45.877  36.743  30.346  1.00  0.00     0.020 A 
ATOM     86  C   UNL A   1      45.975  35.882  32.617  1.00  0.00     0.020 A 
ATOM     87  C   UNL A   1      46.166  36.920  31.704  1.00  0.00     0.054 A 
BRANCH  87  88
ATOM     88  S   UNL A   1      46.753  38.541  32.266  1.00  0.00     0.124 S 
ATOM     89  O   UNL A   1      47.375  38.212  33.546  1.00  0.00    -0.237 OA
ATOM     90  O   UNL A   1      47.675  38.935  31.203  1.00  0.00    -0.237 OA
ATOM     91  O   UNL A   1      45.534  39.342  32.353  1.00  0.00    -0.744 OA
ENDBRANCH  87  88
ENDBRANCH  61  82
ENDBRANCH  35  36
ENDBRANCH  27  30
ENDBRANCH  25  26
ENDBRANCH  24  25
ENDBRANCH   1  24
TORSDOF 19
ENDMDL
MODEL 2
REMARK VINA RESULT:      -9.5      2.275      8.687
REMARK SMILES CCN(C(=O)N1C[C@@H](C)[C@H](C(=O)OC)C1)C(C)(C)C(=O)NCCCNC(=O)c1ccc(-c2c3nc(c(-c4ccc(S(=O)(=O)[O-])cc4)c4ccc([nH]4)c(-c4ccc(S(=O)(=O)[O-])cc4)c4nc(c(-c5ccc(S(=O)(=O)[O-])cc5)c5ccc2[nH]5)C=C4)C=C3)cc1
REMARK SMILES IDX 22 1 21 2 19 3 20 4 16 6 17 7 18 8 3 9 2 10 1 11 4 12 5 13
REMARK SMILES IDX 6 14 7 15 15 16 8 17 10 18 9 19 11 20 12 21 13 22 14 23
REMARK SMILES IDX 23 24 24 25 25 26 26 27 27 29 28 30 29 31 87 32 30 33 86 34
REMARK SMILES IDX 31 35 32 36 33 37 80 38 34 39 85 40 79 41 81 42 35 43 84 44
REMARK SMILES IDX 78 45 77 46 36 48 66 49 47 50 65 51 48 52 51 53 64 54 82 55
REMARK SMILES IDX 49 56 50 57 63 59 83 60 52 61 37 62 38 63 46 64 39 65 45 66
REMARK SMILES IDX 40 67 41 68 42 69 43 70 44 71 67 72 68 73 76 74 69 75 75 76
REMARK SMILES IDX 70 77 71 78 72 79 73 80 74 81 53 82 54 83 62 84 55 85 61 86
REMARK SMILES IDX 56 87 57 88 58 89 59 90 60 91
REMARK H PARENT 21 5 25 28 81 47 51 58
REMARK Flexibility Score: inf
ROOT
ATOM      1  C   UNL A   1      36.630  20.883  25.411  1.00  0.00     0.117 C 
ENDROOT
BRANCH   1   2
ATOM      2  N   UNL A   1      35.998  21.896  26.255  1.00  0.00    -0.354 N 
ATOM      3  C   UNL A   1      34.688  22.335  26.322  1.00  0.00     0.245 C 
ATOM      4  O   UNL A   1      34.349  22.857  27.390  1.00  0.00    -0.272 OA
ATOM      5  H   UNL A   1      36.610  22.343  26.884  1.00  0.00     0.163 HD
BRANCH   3   6
ATOM      6  C   UNL A   1      33.665  22.039  25.150  1.00  0.00     0.117 C 
ATOM      7  C   UNL A   1      33.211  20.587  25.456  1.00  0.00     0.045 C 
ATOM      8  C   UNL A   1      34.385  22.207  23.791  1.00  0.00     0.045 C 
BRANCH   6   9
ATOM      9  N   UNL A   1      32.414  22.907  25.137  1.00  0.00    -0.311 N 
BRANCH   9  10
ATOM     10  C   UNL A   1      31.179  22.350  25.735  1.00  0.00     0.119 C 
ATOM     11  C   UNL A   1      30.499  23.178  26.823  1.00  0.00     0.027 C 
ENDBRANCH   9  10
BRANCH   9  12
ATOM     12  C   UNL A   1      32.335  23.899  24.160  1.00  0.00     0.320 C 
ATOM     13  O   UNL A   1      31.584  23.769  23.191  1.00  0.00    -0.248 OA
BRANCH  12  14
ATOM     14  N   UNL A   1      33.084  25.047  24.311  1.00  0.00    -0.323 N 
ATOM     15  C   UNL A   1      33.481  25.830  25.472  1.00  0.00     0.125 C 
ATOM     16  C   UNL A   1      33.400  25.847  23.143  1.00  0.00     0.137 C 
ATOM     17  C   UNL A   1      32.949  27.232  25.113  1.00  0.00     0.021 C 
ATOM     18  C   UNL A   1      32.913  27.237  23.560  1.00  0.00     0.123 C 
ATOM     19  C   UNL A   1      33.798  28.356  25.688  1.00  0.00     0.010 C 
BRANCH  18  20
ATOM     20  C   UNL A   1      31.514  27.451  23.007  1.00  0.00     0.310 C 
ATOM     21  O   UNL A   1      31.183  27.131  21.872  1.00  0.00    -0.252 OA
BRANCH  20  22
ATOM     22  O   UNL A   1      30.688  28.019  23.925  1.00  0.00    -0.469 OA
ATOM     23  C   UNL A   1      29.894  29.105  23.449  1.00  0.00     0.282 C 
ENDBRANCH  20  22
ENDBRANCH  18  20
ENDBRANCH  12  14
ENDBRANCH   9  12
ENDBRANCH   6   9
ENDBRANCH   3   6
ENDBRANCH   1   2
BRANCH   1  24
ATOM     24  C   UNL A   1      38.052  21.199  24.960  1.00  0.00     0.042 C 
BRANCH  24  25
ATOM     25  C   UNL A   1      39.066  21.349  26.080  1.00  0.00     0.118 C 
BRANCH  25  26
ATOM     26  N   UNL A   1      40.031  20.261  26.116  1.00  0.00    -0.352 N 
ATOM     27  C   UNL A   1      41.401  20.287  26.203  1.00  0.00     0.251 C 
ATOM     28  H   UNL A   1      39.638  19.359  26.070  1.00  0.00     0.163 HD
ATOM     29  O   UNL A   1      42.034  19.246  26.022  1.00  0.00    -0.269 OA
BRANCH  27  30
ATOM     30  C   UNL A   1      42.124  21.548  26.486  1.00  0.00     0.039 A 
ATOM     31  C   UNL A   1      42.382  22.431  25.433  1.00  0.00     0.014 A 
ATOM     32  C   UNL A   1      42.573  21.855  27.772  1.00  0.00     0.014 A 
ATOM     33  C   UNL A   1      43.021  23.649  25.685  1.00  0.00     0.010 A 
ATOM     34  C   UNL A   1      43.124  23.107  28.038  1.00  0.00     0.010 A 
ATOM     35  C   UNL A   1      43.361  24.015  26.997  1.00  0.00    -0.014 A 
BRANCH  35  36
ATOM     36  C   UNL A   1      43.969  25.338  27.300  1.00  0.00     0.031 A 
ATOM     37  C   UNL A   1      43.133  26.434  27.911  1.00  0.00     0.074 A 
ATOM     38  C   UNL A   1      45.253  25.578  26.967  1.00  0.00     0.049 A 
ATOM     39  N   UNL A   1      43.468  27.668  28.188  1.00  0.00    -0.248 NA
ATOM     40  C   UNL A   1      41.733  26.107  28.228  1.00  0.00     0.031 C 
ATOM     41  C   UNL A   1      46.157  24.615  26.331  1.00  0.00     0.029 A 
ATOM     42  N   UNL A   1      46.021  26.706  27.109  1.00  0.00    -0.354 N 
ATOM     43  C   UNL A   1      42.319  28.269  28.690  1.00  0.00     0.074 A 
ATOM     44  C   UNL A   1      41.265  27.280  28.632  1.00  0.00     0.031 C 
ATOM     45  C   UNL A   1      47.361  25.184  26.166  1.00  0.00     0.029 A 
ATOM     46  C   UNL A   1      47.307  26.563  26.641  1.00  0.00     0.049 A 
ATOM     47  H   UNL A   1      45.684  27.540  27.510  1.00  0.00     0.167 HD
ATOM     48  C   UNL A   1      42.158  29.523  29.178  1.00  0.00     0.031 A 
ATOM     49  C   UNL A   1      48.326  27.443  26.590  1.00  0.00     0.031 A 
ATOM     50  C   UNL A   1      43.211  30.501  29.246  1.00  0.00     0.049 A 
ATOM     51  C   UNL A   1      48.121  28.834  27.126  1.00  0.00     0.074 A 
ATOM     52  C   UNL A   1      43.164  31.779  29.776  1.00  0.00     0.029 A 
ATOM     53  N   UNL A   1      44.499  30.313  28.770  1.00  0.00    -0.354 N 
ATOM     54  N   UNL A   1      47.044  29.360  27.662  1.00  0.00    -0.248 NA
ATOM     55  C   UNL A   1      49.271  29.746  27.063  1.00  0.00     0.031 C 
ATOM     56  C   UNL A   1      44.408  32.383  29.569  1.00  0.00     0.029 A 
ATOM     57  C   UNL A   1      45.249  31.460  28.969  1.00  0.00     0.049 A 
ATOM     58  H   UNL A   1      44.832  29.485  28.351  1.00  0.00     0.167 HD
ATOM     59  C   UNL A   1      47.396  30.656  28.022  1.00  0.00     0.074 A 
ATOM     60  C   UNL A   1      48.788  30.827  27.660  1.00  0.00     0.031 C 
ATOM     61  C   UNL A   1      46.634  31.617  28.601  1.00  0.00     0.031 A 
BRANCH  48  62
ATOM     62  C   UNL A   1      40.787  29.909  29.670  1.00  0.00    -0.014 A 
ATOM     63  C   UNL A   1      39.794  30.358  28.781  1.00  0.00     0.010 A 
ATOM     64  C   UNL A   1      40.471  29.781  31.036  1.00  0.00     0.010 A 
ATOM     65  C   UNL A   1      38.528  30.715  29.253  1.00  0.00     0.020 A 
ATOM     66  C   UNL A   1      39.196  30.108  31.507  1.00  0.00     0.020 A 
ATOM     67  C   UNL A   1      38.237  30.590  30.614  1.00  0.00     0.054 A 
BRANCH  67  68
ATOM     68  S   UNL A   1      36.579  31.039  31.193  1.00  0.00     0.124 S 
ATOM     69  O   UNL A   1      36.275  29.946  32.114  1.00  0.00    -0.237 OA
ATOM     70  O   UNL A   1      36.799  32.342  31.816  1.00  0.00    -0.237 OA
ATOM     71  O   UNL A   1      35.779  31.063  29.971  1.00  0.00    -0.744 OA
ENDBRANCH  67  68
ENDBRANCH  48  62
BRANCH  49  72
ATOM     72  C   UNL A   1      49.639  27.030  26.020  1.00  0.00    -0.014 A 
ATOM     73  C   UNL A   1      50.608  26.414  26.831  1.00  0.00     0.010 A 
ATOM     74  C   UNL A   1      49.920  27.238  24.657  1.00  0.00     0.010 A 
ATOM     75  C   UNL A   1      51.841  26.030  26.296  1.00  0.00     0.020 A 
ATOM     76  C   UNL A   1      51.141  26.829  24.111  1.00  0.00     0.020 A 
ATOM     77  C   UNL A   1      52.099  26.237  24.937  1.00  0.00     0.054 A 
BRANCH  77  78
ATOM     78  S   UNL A   1      53.684  25.682  24.252  1.00  0.00     0.124 S 
ATOM     79  O   UNL A   1      53.514  25.958  22.830  1.00  0.00    -0.237 OA
ATOM     80  O   UNL A   1      54.645  26.532  24.953  1.00  0.00    -0.237 OA
ATOM     81  O   UNL A   1      53.737  24.267  24.615  1.00  0.00    -0.744 OA
ENDBRANCH  77  78
ENDBRANCH  49  72
BRANCH  61  82
ATOM     82  C   UNL A   1      47.297  32.933  28.912  1.00  0.00    -0.014 A 
ATOM     83  C   UNL A   1      47.971  33.142  30.128  1.00  0.00     0.010 A 
ATOM     84  C   UNL A   1      47.290  33.957  27.946  1.00  0.00     0.010 A 
ATOM     85  C   UNL A   1      48.600  34.363  30.385  1.00  0.00     0.020 A 
ATOM     86  C   UNL A   1      47.943  35.168  28.187  1.00  0.00     0.020 A 
ATOM     87  C   UNL A   1      48.582  35.369  29.412  1.00  0.00     0.054 A 
BRANCH  87  88
ATOM     88  S   UNL A   1      49.443  36.928  29.753  1.00  0.00     0.124 S 
ATOM     89  O   UNL A   1      50.742  36.460  30.230  1.00  0.00    -0.237 OA
ATOM     90  O   UNL A   1      49.452  37.582  28.447  1.00  0.00    -0.237 OA
ATOM     91  O   UNL A   1      48.605  37.574  30.761  1.00  0.00    -0.744 OA
ENDBRANCH  87  88
ENDBRANCH  61  82
ENDBRANCH  35  36
ENDBRANCH  27  30
ENDBRANCH  25  26
ENDBRANCH  24  25
ENDBRANCH   1  24
TORSDOF 19
ENDMDL
MODEL 3
REMARK VINA RESULT:      -9.4      4.908      6.203
REMARK SMILES CCN(C(=O)N1C[C@@H](C)[C@H](C(=O)OC)C1)C(C)(C)C(=O)NCCCNC(=O)c1ccc(-c2c3nc(c(-c4ccc(S(=O)(=O)[O-])cc4)c4ccc([nH]4)c(-c4ccc(S(=O)(=O)[O-])cc4)c4nc(c(-c5ccc(S(=O)(=O)[O-])cc5)c5ccc2[nH]5)C=C4)C=C3)cc1
REMARK SMILES IDX 22 1 21 2 19 3 20 4 16 6 17 7 18 8 3 9 2 10 1 11 4 12 5 13
REMARK SMILES IDX 6 14 7 15 15 16 8 17 10 18 9 19 11 20 12 21 13 22 14 23
REMARK SMILES IDX 23 24 24 25 25 26 26 27 27 29 28 30 29 31 87 32 30 33 86 34
REMARK SMILES IDX 31 35 32 36 33 37 80 38 34 39 85 40 79 41 81 42 35 43 84 44
REMARK SMILES IDX 78 45 77 46 36 48 66 49 47 50 65 51 48 52 51 53 64 54 82 55
REMARK SMILES IDX 49 56 50 57 63 59 83 60 52 61 37 62 38 63 46 64 39 65 45 66
REMARK SMILES IDX 40 67 41 68 42 69 43 70 44 71 67 72 68 73 76 74 69 75 75 76
REMARK SMILES IDX 70 77 71 78 72 79 73 80 74 81 53 82 54 83 62 84 55 85 61 86
REMARK SMILES IDX 56 87 57 88 58 89 59 90 60 91
REMARK H PARENT 21 5 25 28 81 47 51 58
REMARK Flexibility Score: inf
ROOT
ATOM      1  C   UNL A   1      37.950  23.098  26.083  1.00  0.00     0.117 C 
ENDROOT
BRANCH   1   2
ATOM      2  N   UNL A   1      36.621  23.313  26.653  1.00  0.00    -0.354 N 
ATOM      3  C   UNL A   1      35.370  22.912  26.221  1.00  0.00     0.245 C 
ATOM      4  O   UNL A   1      34.495  22.842  27.091  1.00  0.00    -0.272 OA
ATOM      5  H   UNL A   1      36.615  23.833  27.489  1.00  0.00     0.163 HD
BRANCH   3   6
ATOM      6  C   UNL A   1      35.136  22.429  24.731  1.00  0.00     0.117 C 
ATOM      7  C   UNL A   1      35.088  20.885  24.878  1.00  0.00     0.045 C 
ATOM      8  C   UNL A   1      36.291  22.947  23.840  1.00  0.00     0.045 C 
BRANCH   6   9
ATOM      9  N   UNL A   1      33.818  22.860  24.101  1.00  0.00    -0.311 N 
BRANCH   9  10
ATOM     10  C   UNL A   1      32.694  21.897  24.120  1.00  0.00     0.119 C 
ATOM     11  C   UNL A   1      31.454  22.290  24.920  1.00  0.00     0.027 C 
ENDBRANCH   9  10
BRANCH   9  12
ATOM     12  C   UNL A   1      33.871  23.857  23.128  1.00  0.00     0.320 C 
ATOM     13  O   UNL A   1      33.840  23.570  21.930  1.00  0.00    -0.248 OA
BRANCH  12  14
ATOM     14  N   UNL A   1      33.924  25.178  23.526  1.00  0.00    -0.323 N 
ATOM     15  C   UNL A   1      33.998  25.821  24.828  1.00  0.00     0.125 C 
ATOM     16  C   UNL A   1      33.625  26.221  22.564  1.00  0.00     0.137 C 
ATOM     17  C   UNL A   1      32.773  26.757  24.797  1.00  0.00     0.021 C 
ATOM     18  C   UNL A   1      32.542  27.028  23.285  1.00  0.00     0.123 C 
ATOM     19  C   UNL A   1      32.976  28.032  25.602  1.00  0.00     0.010 C 
BRANCH  18  20
ATOM     20  C   UNL A   1      31.180  26.555  22.805  1.00  0.00     0.310 C 
ATOM     21  O   UNL A   1      30.661  25.509  23.176  1.00  0.00    -0.252 OA
BRANCH  20  22
ATOM     22  O   UNL A   1      30.614  27.437  21.939  1.00  0.00    -0.469 OA
ATOM     23  C   UNL A   1      29.984  28.569  22.538  1.00  0.00     0.282 C 
ENDBRANCH  20  22
ENDBRANCH  18  20
ENDBRANCH  12  14
ENDBRANCH   9  12
ENDBRANCH   6   9
ENDBRANCH   3   6
ENDBRANCH   1   2
BRANCH   1  24
ATOM     24  C   UNL A   1      38.985  24.167  26.411  1.00  0.00     0.042 C 
BRANCH  24  25
ATOM     25  C   UNL A   1      40.397  23.654  26.632  1.00  0.00     0.118 C 
BRANCH  25  26
ATOM     26  N   UNL A   1      41.367  24.271  25.741  1.00  0.00    -0.352 N 
ATOM     27  C   UNL A   1      41.991  25.493  25.810  1.00  0.00     0.251 C 
ATOM     28  H   UNL A   1      41.617  23.725  24.961  1.00  0.00     0.163 HD
ATOM     29  O   UNL A   1      42.634  25.894  24.839  1.00  0.00    -0.269 OA
BRANCH  27  30
ATOM     30  C   UNL A   1      41.880  26.339  27.020  1.00  0.00     0.039 A 
ATOM     31  C   UNL A   1      42.201  27.697  26.929  1.00  0.00     0.014 A 
ATOM     32  C   UNL A   1      41.487  25.802  28.248  1.00  0.00     0.014 A 
ATOM     33  C   UNL A   1      42.059  28.523  28.047  1.00  0.00     0.010 A 
ATOM     34  C   UNL A   1      41.256  26.642  29.335  1.00  0.00     0.010 A 
ATOM     35  C   UNL A   1      41.546  28.011  29.250  1.00  0.00    -0.014 A 
BRANCH  35  36
ATOM     36  C   UNL A   1      41.309  28.887  30.428  1.00  0.00     0.031 A 
ATOM     37  C   UNL A   1      42.166  28.747  31.660  1.00  0.00     0.074 A 
ATOM     38  C   UNL A   1      40.283  29.760  30.417  1.00  0.00     0.049 A 
ATOM     39  N   UNL A   1      42.072  29.375  32.804  1.00  0.00    -0.248 NA
ATOM     40  C   UNL A   1      43.254  27.757  31.608  1.00  0.00     0.031 C 
ATOM     41  C   UNL A   1      39.352  29.961  29.303  1.00  0.00     0.029 A 
ATOM     42  N   UNL A   1      39.844  30.640  31.375  1.00  0.00    -0.354 N 
ATOM     43  C   UNL A   1      43.071  28.842  33.612  1.00  0.00     0.074 A 
ATOM     44  C   UNL A   1      43.725  27.805  32.846  1.00  0.00     0.031 C 
ATOM     45  C   UNL A   1      38.474  30.923  29.630  1.00  0.00     0.029 A 
ATOM     46  C   UNL A   1      38.747  31.377  30.990  1.00  0.00     0.049 A 
ATOM     47  H   UNL A   1      40.274  30.737  32.255  1.00  0.00     0.167 HD
ATOM     48  C   UNL A   1      43.428  29.198  34.870  1.00  0.00     0.031 A 
ATOM     49  C   UNL A   1      38.035  32.305  31.657  1.00  0.00     0.031 A 
ATOM     50  C   UNL A   1      42.783  30.239  35.626  1.00  0.00     0.049 A 
ATOM     51  C   UNL A   1      38.442  32.675  33.057  1.00  0.00     0.074 A 
ATOM     52  C   UNL A   1      43.107  30.713  36.884  1.00  0.00     0.029 A 
ATOM     53  N   UNL A   1      41.683  30.964  35.195  1.00  0.00    -0.354 N 
ATOM     54  N   UNL A   1      39.434  32.207  33.777  1.00  0.00    -0.248 NA
ATOM     55  C   UNL A   1      37.641  33.707  33.730  1.00  0.00     0.031 C 
ATOM     56  C   UNL A   1      42.168  31.687  37.239  1.00  0.00     0.029 A 
ATOM     57  C   UNL A   1      41.298  31.865  36.175  1.00  0.00     0.049 A 
ATOM     58  H   UNL A   1      41.239  30.855  34.323  1.00  0.00     0.167 HD
ATOM     59  C   UNL A   1      39.391  32.907  34.978  1.00  0.00     0.074 A 
ATOM     60  C   UNL A   1      38.288  33.840  34.880  1.00  0.00     0.031 C 
ATOM     61  C   UNL A   1      40.195  32.787  36.064  1.00  0.00     0.031 A 
BRANCH  48  62
ATOM     62  C   UNL A   1      44.567  28.447  35.510  1.00  0.00    -0.014 A 
ATOM     63  C   UNL A   1      44.339  27.278  36.259  1.00  0.00     0.010 A 
ATOM     64  C   UNL A   1      45.889  28.891  35.326  1.00  0.00     0.010 A 
ATOM     65  C   UNL A   1      45.405  26.595  36.849  1.00  0.00     0.020 A 
ATOM     66  C   UNL A   1      46.962  28.193  35.889  1.00  0.00     0.020 A 
ATOM     67  C   UNL A   1      46.711  27.057  36.662  1.00  0.00     0.054 A 
BRANCH  67  68
ATOM     68  S   UNL A   1      48.076  26.136  37.421  1.00  0.00     0.124 S 
ATOM     69  O   UNL A   1      47.468  25.668  38.665  1.00  0.00    -0.237 OA
ATOM     70  O   UNL A   1      48.352  25.099  36.429  1.00  0.00    -0.237 OA
ATOM     71  O   UNL A   1      49.126  27.138  37.579  1.00  0.00    -0.744 OA
ENDBRANCH  67  68
ENDBRANCH  48  62
BRANCH  49  72
ATOM     72  C   UNL A   1      36.868  32.960  31.002  1.00  0.00    -0.014 A 
ATOM     73  C   UNL A   1      37.055  33.837  29.920  1.00  0.00     0.010 A 
ATOM     74  C   UNL A   1      35.560  32.697  31.449  1.00  0.00     0.010 A 
ATOM     75  C   UNL A   1      35.960  34.454  29.308  1.00  0.00     0.020 A 
ATOM     76  C   UNL A   1      34.459  33.289  30.822  1.00  0.00     0.020 A 
ATOM     77  C   UNL A   1      34.667  34.174  29.762  1.00  0.00     0.054 A 
BRANCH  77  78
ATOM     78  S   UNL A   1      33.257  34.943  28.919  1.00  0.00     0.124 S 
ATOM     79  O   UNL A   1      32.343  35.197  30.027  1.00  0.00    -0.237 OA
ATOM     80  O   UNL A   1      33.861  36.127  28.311  1.00  0.00    -0.237 OA
ATOM     81  O   UNL A   1      32.825  33.918  27.971  1.00  0.00    -0.744 OA
ENDBRANCH  77  78
ENDBRANCH  49  72
BRANCH  61  82
ATOM     82  C   UNL A   1      39.934  33.709  37.225  1.00  0.00    -0.014 A 
ATOM     83  C   UNL A   1      40.487  35.002  37.270  1.00  0.00     0.010 A 
ATOM     84  C   UNL A   1      39.075  33.294  38.260  1.00  0.00     0.010 A 
ATOM     85  C   UNL A   1      40.211  35.850  38.346  1.00  0.00     0.020 A 
ATOM     86  C   UNL A   1      38.774  34.151  39.322  1.00  0.00     0.020 A 
ATOM     87  C   UNL A   1      39.355  35.418  39.365  1.00  0.00     0.054 A 
BRANCH  87  88
ATOM     88  S   UNL A   1      38.979  36.555  40.727  1.00  0.00     0.124 S 
ATOM     89  O   UNL A   1      38.559  37.758  40.013  1.00  0.00    -0.237 OA
ATOM     90  O   UNL A   1      37.920  35.852  41.448  1.00  0.00    -0.237 OA
ATOM     91  O   UNL A   1      40.246  36.667  41.447  1.00  0.00    -0.744 OA
ENDBRANCH  87  88
ENDBRANCH  61  82
ENDBRANCH  35  36
ENDBRANCH  27  30
ENDBRANCH  25  26
ENDBRANCH  24  25
ENDBRANCH   1  24
TORSDOF 19
ENDMDL
