MODEL 1
REMARK VINA RESULT:     -10.4      0.000      0.000
REMARK SMILES O=C(CC1(NS(=O)(=O)C[C@H]2CCCO2)CCC1)NCCCNC(=O)c1ccc(-c2c3nc(c(-c4ccc(S(=O)(=O)[O-])cc4)c4ccc([nH]4)c(-c4ccc(S(=O)(=O)[O-])cc4)c4nc(c(-c5ccc(S(=O)(=O)[O-])cc5)c5ccc2[nH]5)C=C4)C=C3)cc1
REMARK SMILES IDX 19 1 18 2 1 3 2 4 3 6 4 7 15 8 17 9 16 10 5 11 6 13 7 14
REMARK SMILES IDX 8 15 9 16 10 17 11 18 14 19 12 20 13 21 20 22 21 23 22 24
REMARK SMILES IDX 23 25 24 27 25 28 26 29 84 30 27 31 83 32 28 33 29 34 30 35
REMARK SMILES IDX 77 36 31 37 82 38 76 39 78 40 32 41 81 42 75 43 74 44 33 46
REMARK SMILES IDX 63 47 44 48 62 49 45 50 48 51 61 52 79 53 46 54 47 55 60 57
REMARK SMILES IDX 80 58 49 59 34 60 35 61 43 62 36 63 42 64 37 65 38 66 39 67
REMARK SMILES IDX 40 68 41 69 64 70 65 71 73 72 66 73 72 74 67 75 68 76 69 77
REMARK SMILES IDX 70 78 71 79 50 80 51 81 59 82 52 83 58 84 53 85 54 86 55 87
REMARK SMILES IDX 56 88 57 89
REMARK H PARENT 18 5 5 12 22 26 78 45 48 56
REMARK Flexibility Score: inf
ROOT
ATOM      1  C   UNL A   1      35.150  33.851  27.741  1.00  0.00     0.117 C 
ENDROOT
BRANCH   1   2
ATOM      2  N   UNL A   1      34.810  35.014  28.540  1.00  0.00    -0.356 N 
ATOM      3  O   UNL A   1      32.536  34.654  28.506  1.00  0.00    -0.275 OA
ATOM      4  C   UNL A   1      33.507  35.299  28.889  1.00  0.00     0.221 C 
ATOM      5  H   UNL A   1      35.528  35.615  28.842  1.00  0.00     0.163 HD
BRANCH   4   6
ATOM      6  C   UNL A   1      33.356  36.496  29.796  1.00  0.00     0.123 C 
BRANCH   6   7
ATOM      7  C   UNL A   1      33.633  36.254  31.289  1.00  0.00     0.042 C 
ATOM      8  C   UNL A   1      33.680  37.564  32.146  1.00  0.00     0.024 C 
ATOM      9  C   UNL A   1      32.385  35.869  32.172  1.00  0.00     0.024 C 
ATOM     10  C   UNL A   1      32.885  36.844  33.243  1.00  0.00     0.004 C 
BRANCH   7  11
ATOM     11  N   UNL A   1      34.816  35.313  31.463  1.00  0.00    -0.208 NA
ATOM     12  H   UNL A   1      35.566  35.911  31.811  1.00  0.00     0.141 HD
BRANCH  11  13
ATOM     13  S   UNL A   1      34.929  33.919  32.390  1.00  0.00     0.214 S 
ATOM     14  O   UNL A   1      34.735  34.297  33.771  1.00  0.00    -0.212 OA
ATOM     15  O   UNL A   1      34.036  32.963  31.768  1.00  0.00    -0.212 OA
BRANCH  13  16
ATOM     16  C   UNL A   1      36.605  33.335  32.223  1.00  0.00     0.185 C 
BRANCH  16  17
ATOM     17  C   UNL A   1      37.595  34.203  31.464  1.00  0.00     0.134 C 
ATOM     18  C   UNL A   1      38.944  34.426  32.133  1.00  0.00     0.035 C 
ATOM     19  O   UNL A   1      37.844  33.750  30.124  1.00  0.00    -0.377 OA
ATOM     20  C   UNL A   1      39.903  33.629  31.293  1.00  0.00     0.031 C 
ATOM     21  C   UNL A   1      39.262  33.662  29.929  1.00  0.00     0.160 C 
ENDBRANCH  16  17
ENDBRANCH  13  16
ENDBRANCH  11  13
ENDBRANCH   7  11
ENDBRANCH   6   7
ENDBRANCH   4   6
ENDBRANCH   1   2
BRANCH   1  22
ATOM     22  C   UNL A   1      34.638  32.546  28.337  1.00  0.00     0.042 C 
BRANCH  22  23
ATOM     23  C   UNL A   1      35.720  31.522  28.660  1.00  0.00     0.118 C 
BRANCH  23  24
ATOM     24  N   UNL A   1      35.611  30.942  29.989  1.00  0.00    -0.352 N 
ATOM     25  C   UNL A   1      36.529  30.246  30.737  1.00  0.00     0.251 C 
ATOM     26  H   UNL A   1      34.736  31.070  30.423  1.00  0.00     0.163 HD
ATOM     27  O   UNL A   1      36.184  29.774  31.818  1.00  0.00    -0.269 OA
BRANCH  25  28
ATOM     28  C   UNL A   1      37.910  30.025  30.248  1.00  0.00     0.039 A 
ATOM     29  C   UNL A   1      38.940  29.931  31.191  1.00  0.00     0.014 A 
ATOM     30  C   UNL A   1      38.209  29.931  28.886  1.00  0.00     0.014 A 
ATOM     31  C   UNL A   1      40.248  29.667  30.773  1.00  0.00     0.010 A 
ATOM     32  C   UNL A   1      39.500  29.594  28.477  1.00  0.00     0.010 A 
ATOM     33  C   UNL A   1      40.534  29.453  29.415  1.00  0.00    -0.014 A 
BRANCH  33  34
ATOM     34  C   UNL A   1      41.899  29.058  28.973  1.00  0.00     0.031 A 
ATOM     35  C   UNL A   1      43.016  30.067  28.928  1.00  0.00     0.074 A 
ATOM     36  C   UNL A   1      42.125  27.793  28.560  1.00  0.00     0.049 A 
ATOM     37  N   UNL A   1      44.253  29.910  28.531  1.00  0.00    -0.248 NA
ATOM     38  C   UNL A   1      42.697  31.434  29.368  1.00  0.00     0.031 C 
ATOM     39  C   UNL A   1      41.124  26.723  28.522  1.00  0.00     0.029 A 
ATOM     40  N   UNL A   1      43.267  27.191  28.089  1.00  0.00    -0.354 N 
ATOM     41  C   UNL A   1      44.856  31.156  28.662  1.00  0.00     0.074 A 
ATOM     42  C   UNL A   1      43.834  32.070  29.126  1.00  0.00     0.031 C 
ATOM     43  C   UNL A   1      41.702  25.595  28.083  1.00  0.00     0.029 A 
ATOM     44  C   UNL A   1      43.099  25.866  27.761  1.00  0.00     0.049 A 
ATOM     45  H   UNL A   1      44.125  27.665  27.995  1.00  0.00     0.167 HD
ATOM     46  C   UNL A   1      46.145  31.506  28.433  1.00  0.00     0.031 A 
ATOM     47  C   UNL A   1      43.965  24.968  27.248  1.00  0.00     0.031 A 
ATOM     48  C   UNL A   1      47.161  30.596  27.970  1.00  0.00     0.049 A 
ATOM     49  C   UNL A   1      45.383  25.389  26.973  1.00  0.00     0.074 A 
ATOM     50  C   UNL A   1      48.506  30.847  27.756  1.00  0.00     0.029 A 
ATOM     51  N   UNL A   1      46.948  29.265  27.644  1.00  0.00    -0.354 N 
ATOM     52  N   UNL A   1      45.948  26.558  27.164  1.00  0.00    -0.248 NA
ATOM     53  C   UNL A   1      46.284  24.368  26.422  1.00  0.00     0.031 C 
ATOM     54  C   UNL A   1      49.092  29.687  27.240  1.00  0.00     0.029 A 
ATOM     55  C   UNL A   1      48.129  28.691  27.201  1.00  0.00     0.049 A 
ATOM     56  H   UNL A   1      46.086  28.797  27.717  1.00  0.00     0.167 HD
ATOM     57  C   UNL A   1      47.277  26.401  26.786  1.00  0.00     0.074 A 
ATOM     58  C   UNL A   1      47.435  25.023  26.370  1.00  0.00     0.031 C 
ATOM     59  C   UNL A   1      48.277  27.318  26.787  1.00  0.00     0.031 A 
BRANCH  46  60
ATOM     60  C   UNL A   1      46.532  32.946  28.665  1.00  0.00    -0.014 A 
ATOM     61  C   UNL A   1      46.432  33.903  27.639  1.00  0.00     0.010 A 
ATOM     62  C   UNL A   1      46.957  33.357  29.942  1.00  0.00     0.010 A 
ATOM     63  C   UNL A   1      46.789  35.234  27.873  1.00  0.00     0.020 A 
ATOM     64  C   UNL A   1      47.284  34.694  30.189  1.00  0.00     0.020 A 
ATOM     65  C   UNL A   1      47.215  35.620  29.147  1.00  0.00     0.054 A 
BRANCH  65  66
ATOM     66  S   UNL A   1      47.654  37.358  29.425  1.00  0.00     0.124 S 
ATOM     67  O   UNL A   1      46.341  37.975  29.596  1.00  0.00    -0.237 OA
ATOM     68  O   UNL A   1      48.478  37.290  30.630  1.00  0.00    -0.237 OA
ATOM     69  O   UNL A   1      48.365  37.737  28.207  1.00  0.00    -0.744 OA
ENDBRANCH  65  66
ENDBRANCH  46  60
BRANCH  47  70
ATOM     70  C   UNL A   1      43.514  23.577  26.966  1.00  0.00    -0.014 A 
ATOM     71  C   UNL A   1      43.401  23.114  25.643  1.00  0.00     0.010 A 
ATOM     72  C   UNL A   1      43.200  22.702  28.024  1.00  0.00     0.010 A 
ATOM     73  C   UNL A   1      42.964  21.811  25.384  1.00  0.00     0.020 A 
ATOM     74  C   UNL A   1      42.795  21.390  27.769  1.00  0.00     0.020 A 
ATOM     75  C   UNL A   1      42.667  20.956  26.448  1.00  0.00     0.054 A 
BRANCH  75  76
ATOM     76  S   UNL A   1      42.149  19.255  26.086  1.00  0.00     0.124 S 
ATOM     77  O   UNL A   1      42.906  18.959  24.874  1.00  0.00    -0.237 OA
ATOM     78  O   UNL A   1      42.569  18.537  27.287  1.00  0.00    -0.237 OA
ATOM     79  O   UNL A   1      40.703  19.368  25.911  1.00  0.00    -0.744 OA
ENDBRANCH  75  76
ENDBRANCH  47  70
BRANCH  59  80
ATOM     80  C   UNL A   1      49.647  26.856  26.360  1.00  0.00    -0.014 A 
ATOM     81  C   UNL A   1      50.568  26.336  27.286  1.00  0.00     0.010 A 
ATOM     82  C   UNL A   1      49.996  26.895  24.997  1.00  0.00     0.010 A 
ATOM     83  C   UNL A   1      51.825  25.894  26.862  1.00  0.00     0.020 A 
ATOM     84  C   UNL A   1      51.238  26.423  24.564  1.00  0.00     0.020 A 
ATOM     85  C   UNL A   1      52.151  25.939  25.502  1.00  0.00     0.054 A 
BRANCH  85  86
ATOM     86  S   UNL A   1      53.770  25.315  24.972  1.00  0.00     0.124 S 
ATOM     87  O   UNL A   1      54.021  26.106  23.769  1.00  0.00    -0.237 OA
ATOM     88  O   UNL A   1      54.622  25.625  26.118  1.00  0.00    -0.237 OA
ATOM     89  O   UNL A   1      53.536  23.891  24.743  1.00  0.00    -0.744 OA
ENDBRANCH  85  86
ENDBRANCH  59  80
ENDBRANCH  33  34
ENDBRANCH  25  28
ENDBRANCH  23  24
ENDBRANCH  22  23
ENDBRANCH   1  22
TORSDOF 18
ENDMDL
MODEL 2
REMARK VINA RESULT:     -10.2      4.999      7.455
REMARK SMILES O=C(CC1(NS(=O)(=O)C[C@H]2CCCO2)CCC1)NCCCNC(=O)c1ccc(-c2c3nc(c(-c4ccc(S(=O)(=O)[O-])cc4)c4ccc([nH]4)c(-c4ccc(S(=O)(=O)[O-])cc4)c4nc(c(-c5ccc(S(=O)(=O)[O-])cc5)c5ccc2[nH]5)C=C4)C=C3)cc1
REMARK SMILES IDX 19 1 18 2 1 3 2 4 3 6 4 7 15 8 17 9 16 10 5 11 6 13 7 14
REMARK SMILES IDX 8 15 9 16 10 17 11 18 14 19 12 20 13 21 20 22 21 23 22 24
REMARK SMILES IDX 23 25 24 27 25 28 26 29 84 30 27 31 83 32 28 33 29 34 30 35
REMARK SMILES IDX 77 36 31 37 82 38 76 39 78 40 32 41 81 42 75 43 74 44 33 46
REMARK SMILES IDX 63 47 44 48 62 49 45 50 48 51 61 52 79 53 46 54 47 55 60 57
REMARK SMILES IDX 80 58 49 59 34 60 35 61 43 62 36 63 42 64 37 65 38 66 39 67
REMARK SMILES IDX 40 68 41 69 64 70 65 71 73 72 66 73 72 74 67 75 68 76 69 77
REMARK SMILES IDX 70 78 71 79 50 80 51 81 59 82 52 83 58 84 53 85 54 86 55 87
REMARK SMILES IDX 56 88 57 89
REMARK H PARENT 18 5 5 12 22 26 78 45 48 56
REMARK Flexibility Score: inf
ROOT
ATOM      1  C   UNL A   1      31.584  26.608  26.503  1.00  0.00     0.117 C 
ENDROOT
BRANCH   1   2
ATOM      2  N   UNL A   1      31.532  25.597  25.463  1.00  0.00    -0.356 N 
ATOM      3  O   UNL A   1      30.547  23.977  26.768  1.00  0.00    -0.275 OA
ATOM      4  C   UNL A   1      30.974  24.356  25.682  1.00  0.00     0.221 C 
ATOM      5  H   UNL A   1      31.905  25.804  24.575  1.00  0.00     0.163 HD
BRANCH   4   6
ATOM      6  C   UNL A   1      30.929  23.472  24.459  1.00  0.00     0.123 C 
BRANCH   6   7
ATOM      7  C   UNL A   1      32.091  22.479  24.299  1.00  0.00     0.042 C 
ATOM      8  C   UNL A   1      31.909  21.153  25.113  1.00  0.00     0.024 C 
ATOM      9  C   UNL A   1      32.043  21.556  23.022  1.00  0.00     0.024 C 
ATOM     10  C   UNL A   1      32.443  20.370  23.906  1.00  0.00     0.004 C 
BRANCH   7  11
ATOM     11  N   UNL A   1      33.424  23.187  24.488  1.00  0.00    -0.208 NA
ATOM     12  H   UNL A   1      34.088  22.434  24.666  1.00  0.00     0.141 HD
BRANCH  11  13
ATOM     13  S   UNL A   1      34.232  24.217  23.438  1.00  0.00     0.214 S 
ATOM     14  O   UNL A   1      33.412  24.367  22.258  1.00  0.00    -0.212 OA
ATOM     15  O   UNL A   1      34.586  25.379  24.226  1.00  0.00    -0.212 OA
BRANCH  13  16
ATOM     16  C   UNL A   1      35.725  23.374  22.951  1.00  0.00     0.185 C 
BRANCH  16  17
ATOM     17  C   UNL A   1      36.530  22.660  24.026  1.00  0.00     0.134 C 
ATOM     18  C   UNL A   1      37.143  23.544  25.102  1.00  0.00     0.035 C 
ATOM     19  O   UNL A   1      35.802  21.613  24.685  1.00  0.00    -0.377 OA
ATOM     20  C   UNL A   1      36.337  23.232  26.333  1.00  0.00     0.031 C 
ATOM     21  C   UNL A   1      35.913  21.804  26.102  1.00  0.00     0.160 C 
ENDBRANCH  16  17
ENDBRANCH  13  16
ENDBRANCH  11  13
ENDBRANCH   7  11
ENDBRANCH   6   7
ENDBRANCH   4   6
ENDBRANCH   1   2
BRANCH   1  22
ATOM     22  C   UNL A   1      32.398  27.833  26.105  1.00  0.00     0.042 C 
BRANCH  22  23
ATOM     23  C   UNL A   1      33.440  28.269  27.129  1.00  0.00     0.118 C 
BRANCH  23  24
ATOM     24  N   UNL A   1      33.388  29.684  27.461  1.00  0.00    -0.352 N 
ATOM     25  C   UNL A   1      34.346  30.510  27.998  1.00  0.00     0.251 C 
ATOM     26  H   UNL A   1      32.527  30.122  27.268  1.00  0.00     0.163 HD
ATOM     27  O   UNL A   1      34.048  31.671  28.271  1.00  0.00    -0.269 OA
BRANCH  25  28
ATOM     28  C   UNL A   1      35.713  30.016  28.284  1.00  0.00     0.039 A 
ATOM     29  C   UNL A   1      36.649  30.017  27.244  1.00  0.00     0.014 A 
ATOM     30  C   UNL A   1      36.081  29.537  29.544  1.00  0.00     0.014 A 
ATOM     31  C   UNL A   1      37.965  29.612  27.487  1.00  0.00     0.010 A 
ATOM     32  C   UNL A   1      37.411  29.205  29.803  1.00  0.00     0.010 A 
ATOM     33  C   UNL A   1      38.371  29.243  28.779  1.00  0.00    -0.014 A 
BRANCH  33  34
ATOM     34  C   UNL A   1      39.795  28.922  29.073  1.00  0.00     0.031 A 
ATOM     35  C   UNL A   1      40.707  29.955  29.680  1.00  0.00     0.074 A 
ATOM     36  C   UNL A   1      40.284  27.708  28.746  1.00  0.00     0.049 A 
ATOM     37  N   UNL A   1      41.981  29.864  29.964  1.00  0.00    -0.248 NA
ATOM     38  C   UNL A   1      40.117  31.267  29.989  1.00  0.00     0.031 C 
ATOM     39  C   UNL A   1      39.517  26.625  28.125  1.00  0.00     0.029 A 
ATOM     40  N   UNL A   1      41.544  27.179  28.887  1.00  0.00    -0.354 N 
ATOM     41  C   UNL A   1      42.348  31.104  30.473  1.00  0.00     0.074 A 
ATOM     42  C   UNL A   1      41.173  31.947  30.411  1.00  0.00     0.031 C 
ATOM     43  C   UNL A   1      40.312  25.556  27.965  1.00  0.00     0.029 A 
ATOM     44  C   UNL A   1      41.657  25.887  28.425  1.00  0.00     0.049 A 
ATOM     45  H   UNL A   1      42.296  27.678  29.280  1.00  0.00     0.167 HD
ATOM     46  C   UNL A   1      43.548  31.502  30.963  1.00  0.00     0.031 A 
ATOM     47  C   UNL A   1      42.722  25.062  28.368  1.00  0.00     0.031 A 
ATOM     48  C   UNL A   1      44.716  30.664  31.024  1.00  0.00     0.049 A 
ATOM     49  C   UNL A   1      44.050  25.538  28.889  1.00  0.00     0.074 A 
ATOM     50  C   UNL A   1      45.962  30.963  31.549  1.00  0.00     0.029 A 
ATOM     51  N   UNL A   1      44.790  29.365  30.542  1.00  0.00    -0.354 N 
ATOM     52  N   UNL A   1      44.359  26.695  29.426  1.00  0.00    -0.248 NA
ATOM     53  C   UNL A   1      45.173  24.594  28.808  1.00  0.00     0.031 C 
ATOM     54  C   UNL A   1      46.806  29.870  31.325  1.00  0.00     0.029 A 
ATOM     55  C   UNL A   1      46.067  28.862  30.727  1.00  0.00     0.049 A 
ATOM     56  H   UNL A   1      44.044  28.874  30.128  1.00  0.00     0.167 HD
ATOM     57  C   UNL A   1      45.702  26.604  29.773  1.00  0.00     0.074 A 
ATOM     58  C   UNL A   1      46.143  25.276  29.400  1.00  0.00     0.031 C 
ATOM     59  C   UNL A   1      46.498  27.538  30.352  1.00  0.00     0.031 A 
BRANCH  46  60
ATOM     60  C   UNL A   1      43.664  32.922  31.463  1.00  0.00    -0.014 A 
ATOM     61  C   UNL A   1      43.627  33.216  32.838  1.00  0.00     0.010 A 
ATOM     62  C   UNL A   1      43.861  33.971  30.546  1.00  0.00     0.010 A 
ATOM     63  C   UNL A   1      43.741  34.535  33.285  1.00  0.00     0.020 A 
ATOM     64  C   UNL A   1      44.008  35.289  30.991  1.00  0.00     0.020 A 
ATOM     65  C   UNL A   1      43.930  35.564  32.357  1.00  0.00     0.054 A 
BRANCH  65  66
ATOM     66  S   UNL A   1      44.094  37.264  32.967  1.00  0.00     0.124 S 
ATOM     67  O   UNL A   1      42.923  37.387  33.831  1.00  0.00    -0.237 OA
ATOM     68  O   UNL A   1      45.382  37.232  33.656  1.00  0.00    -0.237 OA
ATOM     69  O   UNL A   1      44.059  38.075  31.752  1.00  0.00    -0.744 OA
ENDBRANCH  65  66
ENDBRANCH  46  60
BRANCH  47  70
ATOM     70  C   UNL A   1      42.572  23.695  27.796  1.00  0.00    -0.014 A 
ATOM     71  C   UNL A   1      42.262  22.601  28.624  1.00  0.00     0.010 A 
ATOM     72  C   UNL A   1      42.735  23.479  26.415  1.00  0.00     0.010 A 
ATOM     73  C   UNL A   1      42.137  21.317  28.085  1.00  0.00     0.020 A 
ATOM     74  C   UNL A   1      42.578  22.203  25.867  1.00  0.00     0.020 A 
ATOM     75  C   UNL A   1      42.292  21.127  26.709  1.00  0.00     0.054 A 
BRANCH  75  76
ATOM     76  S   UNL A   1      42.076  19.460  26.027  1.00  0.00     0.124 S 
ATOM     77  O   UNL A   1      42.935  19.500  24.848  1.00  0.00    -0.237 OA
ATOM     78  O   UNL A   1      42.540  18.610  27.121  1.00  0.00    -0.237 OA
ATOM     79  O   UNL A   1      40.642  19.385  25.755  1.00  0.00    -0.744 OA
ENDBRANCH  75  76
ENDBRANCH  47  70
BRANCH  59  80
ATOM     80  C   UNL A   1      47.922  27.149  30.657  1.00  0.00    -0.014 A 
ATOM     81  C   UNL A   1      48.981  27.515  29.807  1.00  0.00     0.010 A 
ATOM     82  C   UNL A   1      48.209  26.451  31.845  1.00  0.00     0.010 A 
ATOM     83  C   UNL A   1      50.296  27.161  30.124  1.00  0.00     0.020 A 
ATOM     84  C   UNL A   1      49.524  26.125  32.181  1.00  0.00     0.020 A 
ATOM     85  C   UNL A   1      50.559  26.469  31.311  1.00  0.00     0.054 A 
BRANCH  85  86
ATOM     86  S   UNL A   1      52.280  26.063  31.721  1.00  0.00     0.124 S 
ATOM     87  O   UNL A   1      52.137  24.767  32.378  1.00  0.00    -0.237 OA
ATOM     88  O   UNL A   1      52.923  26.038  30.409  1.00  0.00    -0.237 OA
ATOM     89  O   UNL A   1      52.697  27.160  32.592  1.00  0.00    -0.744 OA
ENDBRANCH  85  86
ENDBRANCH  59  80
ENDBRANCH  33  34
ENDBRANCH  25  28
ENDBRANCH  23  24
ENDBRANCH  22  23
ENDBRANCH   1  22
TORSDOF 18
ENDMDL
MODEL 3
REMARK VINA RESULT:     -10.1      4.558     10.828
REMARK SMILES O=C(CC1(NS(=O)(=O)C[C@H]2CCCO2)CCC1)NCCCNC(=O)c1ccc(-c2c3nc(c(-c4ccc(S(=O)(=O)[O-])cc4)c4ccc([nH]4)c(-c4ccc(S(=O)(=O)[O-])cc4)c4nc(c(-c5ccc(S(=O)(=O)[O-])cc5)c5ccc2[nH]5)C=C4)C=C3)cc1
REMARK SMILES IDX 19 1 18 2 1 3 2 4 3 6 4 7 15 8 17 9 16 10 5 11 6 13 7 14
REMARK SMILES IDX 8 15 9 16 10 17 11 18 14 19 12 20 13 21 20 22 21 23 22 24
REMARK SMILES IDX 23 25 24 27 25 28 26 29 84 30 27 31 83 32 28 33 29 34 30 35
REMARK SMILES IDX 77 36 31 37 82 38 76 39 78 40 32 41 81 42 75 43 74 44 33 46
REMARK SMILES IDX 63 47 44 48 62 49 45 50 48 51 61 52 79 53 46 54 47 55 60 57
REMARK SMILES IDX 80 58 49 59 34 60 35 61 43 62 36 63 42 64 37 65 38 66 39 67
REMARK SMILES IDX 40 68 41 69 64 70 65 71 73 72 66 73 72 74 67 75 68 76 69 77
REMARK SMILES IDX 70 78 71 79 50 80 51 81 59 82 52 83 58 84 53 85 54 86 55 87
REMARK SMILES IDX 56 88 57 89
REMARK H PARENT 18 5 5 12 22 26 78 45 48 56
REMARK Flexibility Score: inf
ROOT
ATOM      1  C   UNL A   1      36.845  21.083  24.533  1.00  0.00     0.117 C 
ENDROOT
BRANCH   1   2
ATOM      2  N   UNL A   1      35.762  21.258  25.483  1.00  0.00    -0.356 N 
ATOM      3  O   UNL A   1      36.387  23.369  26.155  1.00  0.00    -0.275 OA
ATOM      4  C   UNL A   1      35.606  22.425  26.200  1.00  0.00     0.221 C 
ATOM      5  H   UNL A   1      35.122  20.523  25.620  1.00  0.00     0.163 HD
BRANCH   4   6
ATOM      6  C   UNL A   1      34.374  22.455  27.072  1.00  0.00     0.123 C 
BRANCH   6   7
ATOM      7  C   UNL A   1      33.063  22.862  26.378  1.00  0.00     0.042 C 
ATOM      8  C   UNL A   1      31.912  23.243  27.370  1.00  0.00     0.024 C 
ATOM      9  C   UNL A   1      32.972  24.359  25.892  1.00  0.00     0.024 C 
ATOM     10  C   UNL A   1      31.547  24.419  26.453  1.00  0.00     0.004 C 
BRANCH   7  11
ATOM     11  N   UNL A   1      32.695  21.850  25.304  1.00  0.00    -0.208 NA
ATOM     12  H   UNL A   1      31.764  21.528  25.567  1.00  0.00     0.141 HD
BRANCH  11  13
ATOM     13  S   UNL A   1      32.611  22.058  23.640  1.00  0.00     0.214 S 
ATOM     14  O   UNL A   1      31.383  22.762  23.351  1.00  0.00    -0.212 OA
ATOM     15  O   UNL A   1      33.883  22.631  23.253  1.00  0.00    -0.212 OA
BRANCH  13  16
ATOM     16  C   UNL A   1      32.473  20.428  22.933  1.00  0.00     0.185 C 
BRANCH  16  17
ATOM     17  C   UNL A   1      32.606  19.230  23.860  1.00  0.00     0.134 C 
ATOM     18  C   UNL A   1      32.382  17.864  23.226  1.00  0.00     0.035 C 
ATOM     19  O   UNL A   1      33.857  19.185  24.562  1.00  0.00    -0.377 OA
ATOM     20  C   UNL A   1      33.754  17.247  23.200  1.00  0.00     0.031 C 
ATOM     21  C   UNL A   1      34.430  17.882  24.388  1.00  0.00     0.160 C 
ENDBRANCH  16  17
ENDBRANCH  13  16
ENDBRANCH  11  13
ENDBRANCH   7  11
ENDBRANCH   6   7
ENDBRANCH   4   6
ENDBRANCH   1   2
BRANCH   1  22
ATOM     22  C   UNL A   1      37.870  20.046  24.979  1.00  0.00     0.042 C 
BRANCH  22  23
ATOM     23  C   UNL A   1      39.023  20.603  25.807  1.00  0.00     0.118 C 
BRANCH  23  24
ATOM     24  N   UNL A   1      40.135  19.680  25.968  1.00  0.00    -0.352 N 
ATOM     25  C   UNL A   1      41.447  19.913  26.303  1.00  0.00     0.251 C 
ATOM     26  H   UNL A   1      39.911  18.734  25.812  1.00  0.00     0.163 HD
ATOM     27  O   UNL A   1      42.240  18.975  26.302  1.00  0.00    -0.269 OA
BRANCH  25  28
ATOM     28  C   UNL A   1      41.925  21.277  26.630  1.00  0.00     0.039 A 
ATOM     29  C   UNL A   1      42.276  21.556  27.955  1.00  0.00     0.014 A 
ATOM     30  C   UNL A   1      42.014  22.284  25.665  1.00  0.00     0.014 A 
ATOM     31  C   UNL A   1      42.785  22.814  28.293  1.00  0.00     0.010 A 
ATOM     32  C   UNL A   1      42.591  23.512  25.989  1.00  0.00     0.010 A 
ATOM     33  C   UNL A   1      42.988  23.791  27.306  1.00  0.00    -0.014 A 
BRANCH  33  34
ATOM     34  C   UNL A   1      43.636  25.090  27.635  1.00  0.00     0.031 A 
ATOM     35  C   UNL A   1      42.831  26.230  28.202  1.00  0.00     0.074 A 
ATOM     36  C   UNL A   1      44.949  25.264  27.375  1.00  0.00     0.049 A 
ATOM     37  N   UNL A   1      43.220  27.441  28.507  1.00  0.00    -0.248 NA
ATOM     38  C   UNL A   1      41.400  25.983  28.437  1.00  0.00     0.031 C 
ATOM     39  C   UNL A   1      45.839  24.253  26.797  1.00  0.00     0.029 A 
ATOM     40  N   UNL A   1      45.765  26.353  27.559  1.00  0.00    -0.354 N 
ATOM     41  C   UNL A   1      42.085  28.104  28.959  1.00  0.00     0.074 A 
ATOM     42  C   UNL A   1      40.981  27.174  28.839  1.00  0.00     0.031 C 
ATOM     43  C   UNL A   1      47.078  24.759  26.702  1.00  0.00     0.029 A 
ATOM     44  C   UNL A   1      47.067  26.143  27.164  1.00  0.00     0.049 A 
ATOM     45  H   UNL A   1      45.449  27.206  27.937  1.00  0.00     0.167 HD
ATOM     46  C   UNL A   1      41.971  29.364  29.445  1.00  0.00     0.031 A 
ATOM     47  C   UNL A   1      48.131  26.970  27.161  1.00  0.00     0.031 A 
ATOM     48  C   UNL A   1      43.069  30.288  29.563  1.00  0.00     0.049 A 
ATOM     49  C   UNL A   1      47.972  28.374  27.676  1.00  0.00     0.074 A 
ATOM     50  C   UNL A   1      43.060  31.569  30.090  1.00  0.00     0.029 A 
ATOM     51  N   UNL A   1      44.368  30.038  29.147  1.00  0.00    -0.354 N 
ATOM     52  N   UNL A   1      46.902  28.960  28.159  1.00  0.00    -0.248 NA
ATOM     53  C   UNL A   1      49.168  29.229  27.657  1.00  0.00     0.031 C 
ATOM     54  C   UNL A   1      44.338  32.116  29.932  1.00  0.00     0.029 A 
ATOM     55  C   UNL A   1      45.161  31.151  29.375  1.00  0.00     0.049 A 
ATOM     56  H   UNL A   1      44.680  29.194  28.748  1.00  0.00     0.167 HD
ATOM     57  C   UNL A   1      47.304  30.239  28.528  1.00  0.00     0.074 A 
ATOM     58  C   UNL A   1      48.718  30.336  28.229  1.00  0.00     0.031 C 
ATOM     59  C   UNL A   1      46.568  31.241  29.071  1.00  0.00     0.031 A 
BRANCH  46  60
ATOM     60  C   UNL A   1      40.601  29.828  29.875  1.00  0.00    -0.014 A 
ATOM     61  C   UNL A   1      39.690  30.367  28.950  1.00  0.00     0.010 A 
ATOM     62  C   UNL A   1      40.202  29.676  31.216  1.00  0.00     0.010 A 
ATOM     63  C   UNL A   1      38.423  30.787  29.364  1.00  0.00     0.020 A 
ATOM     64  C   UNL A   1      38.923  30.065  31.629  1.00  0.00     0.020 A 
ATOM     65  C   UNL A   1      38.048  30.635  30.702  1.00  0.00     0.054 A 
BRANCH  65  66
ATOM     66  S   UNL A   1      36.391  31.171  31.206  1.00  0.00     0.124 S 
ATOM     67  O   UNL A   1      35.646  31.063  29.954  1.00  0.00    -0.237 OA
ATOM     68  O   UNL A   1      36.038  30.194  32.233  1.00  0.00    -0.237 OA
ATOM     69  O   UNL A   1      36.597  32.534  31.690  1.00  0.00    -0.744 OA
ENDBRANCH  65  66
ENDBRANCH  46  60
BRANCH  47  70
ATOM     70  C   UNL A   1      49.447  26.487  26.657  1.00  0.00    -0.014 A 
ATOM     71  C   UNL A   1      49.815  26.680  25.313  1.00  0.00     0.010 A 
ATOM     72  C   UNL A   1      50.345  25.834  27.522  1.00  0.00     0.010 A 
ATOM     73  C   UNL A   1      51.045  26.213  24.841  1.00  0.00     0.020 A 
ATOM     74  C   UNL A   1      51.589  25.395  27.062  1.00  0.00     0.020 A 
ATOM     75  C   UNL A   1      51.926  25.576  25.719  1.00  0.00     0.054 A 
BRANCH  75  76
ATOM     76  S   UNL A   1      53.537  25.023  25.094  1.00  0.00     0.124 S 
ATOM     77  O   UNL A   1      54.462  25.694  26.001  1.00  0.00    -0.237 OA
ATOM     78  O   UNL A   1      53.448  23.572  25.239  1.00  0.00    -0.237 OA
ATOM     79  O   UNL A   1      53.552  25.505  23.715  1.00  0.00    -0.744 OA
ENDBRANCH  75  76
ENDBRANCH  47  70
BRANCH  59  80
ATOM     80  C   UNL A   1      47.281  32.523  29.415  1.00  0.00    -0.014 A 
ATOM     81  C   UNL A   1      47.336  33.597  28.509  1.00  0.00     0.010 A 
ATOM     82  C   UNL A   1      47.859  32.673  30.689  1.00  0.00     0.010 A 
ATOM     83  C   UNL A   1      47.984  34.786  28.860  1.00  0.00     0.020 A 
ATOM     84  C   UNL A   1      48.479  33.870  31.055  1.00  0.00     0.020 A 
ATOM     85  C   UNL A   1      48.551  34.915  30.132  1.00  0.00     0.054 A 
BRANCH  85  86
ATOM     86  S   UNL A   1      49.345  36.484  30.579  1.00  0.00     0.124 S 
ATOM     87  O   UNL A   1      48.218  37.260  31.089  1.00  0.00    -0.237 OA
ATOM     88  O   UNL A   1      50.329  36.071  31.577  1.00  0.00    -0.237 OA
ATOM     89  O   UNL A   1      49.908  36.959  29.318  1.00  0.00    -0.744 OA
ENDBRANCH  85  86
ENDBRANCH  59  80
ENDBRANCH  33  34
ENDBRANCH  25  28
ENDBRANCH  23  24
ENDBRANCH  22  23
ENDBRANCH   1  22
TORSDOF 18
ENDMDL
