MODEL 1
REMARK VINA RESULT:     -10.7      0.000      0.000
REMARK SMILES C[C@H](CN(C)C(=O)c1ccc(F)c(F)c1F)C(=O)NCCCNC(=O)c1ccc(-c2c3nc(c(-c4ccc(S(=O)(=O)[O-])cc4)c4ccc([nH]4)c(-c4ccc(S(=O)(=O)[O-])cc4)c4nc(c(-c5ccc(S(=O)(=O)[O-])cc5)c5ccc2[nH]5)C=C4)C=C3)cc1
REMARK SMILES IDX 20 1 19 2 17 3 18 4 2 6 1 7 3 8 4 9 5 10 6 11 7 12 8 13 9 14
REMARK SMILES IDX 15 15 10 16 13 17 16 18 11 19 14 20 12 21 21 22 22 23 23 24
REMARK SMILES IDX 24 25 25 27 26 28 27 29 85 30 28 31 84 32 29 33 30 34 31 35
REMARK SMILES IDX 78 36 32 37 83 38 77 39 79 40 33 41 82 42 76 43 75 44 34 46
REMARK SMILES IDX 64 47 45 48 63 49 46 50 49 51 62 52 80 53 47 54 48 55 61 57
REMARK SMILES IDX 81 58 50 59 35 60 36 61 44 62 37 63 43 64 38 65 39 66 40 67
REMARK SMILES IDX 41 68 42 69 65 70 66 71 74 72 67 73 73 74 68 75 69 76 70 77
REMARK SMILES IDX 71 78 72 79 51 80 52 81 60 82 53 83 59 84 54 85 55 86 56 87
REMARK SMILES IDX 57 88 58 89
REMARK H PARENT 19 5 23 26 79 45 49 56
REMARK Flexibility Score: inf
ROOT
ATOM      1  C   UNL A   1      31.491  27.908  25.924  1.00  0.00     0.117 C 
ENDROOT
BRANCH   1   2
ATOM      2  N   UNL A   1      31.057  26.689  26.571  1.00  0.00    -0.356 N 
ATOM      3  C   UNL A   1      30.819  25.459  26.046  1.00  0.00     0.224 C 
ATOM      4  O   UNL A   1      30.368  24.602  26.817  1.00  0.00    -0.275 OA
ATOM      5  H   UNL A   1      30.910  26.763  27.541  1.00  0.00     0.163 HD
BRANCH   3   6
ATOM      6  C   UNL A   1      31.115  25.088  24.587  1.00  0.00     0.095 C 
ATOM      7  C   UNL A   1      29.978  25.435  23.628  1.00  0.00     0.020 C 
BRANCH   6   8
ATOM      8  C   UNL A   1      31.825  23.723  24.416  1.00  0.00     0.132 C 
BRANCH   8   9
ATOM      9  N   UNL A   1      33.297  23.745  24.297  1.00  0.00    -0.341 N 
ATOM     10  C   UNL A   1      33.890  24.661  23.334  1.00  0.00     0.147 C 
BRANCH   9  11
ATOM     11  C   UNL A   1      34.058  23.412  25.413  1.00  0.00     0.256 C 
ATOM     12  O   UNL A   1      33.586  23.348  26.547  1.00  0.00    -0.269 OA
BRANCH  11  13
ATOM     13  C   UNL A   1      35.492  23.060  25.261  1.00  0.00     0.079 A 
ATOM     14  C   UNL A   1      36.446  23.927  25.811  1.00  0.00     0.020 A 
ATOM     15  C   UNL A   1      35.881  21.779  24.859  1.00  0.00     0.174 A 
ATOM     16  C   UNL A   1      37.770  23.503  25.968  1.00  0.00     0.043 A 
ATOM     17  C   UNL A   1      37.188  21.347  25.055  1.00  0.00     0.195 A 
ATOM     18  F   UNL A   1      35.003  20.912  24.338  1.00  0.00    -0.203 F 
ATOM     19  C   UNL A   1      38.125  22.205  25.611  1.00  0.00     0.161 A 
ATOM     20  F   UNL A   1      37.529  20.089  24.737  1.00  0.00    -0.200 F 
ATOM     21  F   UNL A   1      39.379  21.785  25.823  1.00  0.00    -0.204 F 
ENDBRANCH  11  13
ENDBRANCH   9  11
ENDBRANCH   8   9
ENDBRANCH   6   8
ENDBRANCH   3   6
ENDBRANCH   1   2
BRANCH   1  22
ATOM     22  C   UNL A   1      32.915  27.787  25.394  1.00  0.00     0.042 C 
BRANCH  22  23
ATOM     23  C   UNL A   1      33.984  28.159  26.406  1.00  0.00     0.118 C 
BRANCH  23  24
ATOM     24  N   UNL A   1      33.809  29.521  26.903  1.00  0.00    -0.352 N 
ATOM     25  C   UNL A   1      34.579  30.303  27.738  1.00  0.00     0.251 C 
ATOM     26  H   UNL A   1      32.990  29.963  26.581  1.00  0.00     0.163 HD
ATOM     27  O   UNL A   1      34.083  31.324  28.201  1.00  0.00    -0.269 OA
BRANCH  25  28
ATOM     28  C   UNL A   1      35.973  29.937  28.105  1.00  0.00     0.039 A 
ATOM     29  C   UNL A   1      36.237  29.461  29.397  1.00  0.00     0.014 A 
ATOM     30  C   UNL A   1      37.039  30.121  27.229  1.00  0.00     0.014 A 
ATOM     31  C   UNL A   1      37.543  29.113  29.774  1.00  0.00     0.010 A 
ATOM     32  C   UNL A   1      38.311  29.658  27.557  1.00  0.00     0.010 A 
ATOM     33  C   UNL A   1      38.588  29.168  28.841  1.00  0.00    -0.014 A 
BRANCH  33  34
ATOM     34  C   UNL A   1      39.990  28.776  29.164  1.00  0.00     0.031 A 
ATOM     35  C   UNL A   1      40.936  29.800  29.749  1.00  0.00     0.074 A 
ATOM     36  C   UNL A   1      40.452  27.552  28.836  1.00  0.00     0.049 A 
ATOM     37  N   UNL A   1      42.232  29.736  29.909  1.00  0.00    -0.248 NA
ATOM     38  C   UNL A   1      40.344  31.082  30.172  1.00  0.00     0.031 C 
ATOM     39  C   UNL A   1      39.658  26.473  28.244  1.00  0.00     0.029 A 
ATOM     40  N   UNL A   1      41.715  27.017  28.932  1.00  0.00    -0.354 N 
ATOM     41  C   UNL A   1      42.615  30.981  30.401  1.00  0.00     0.074 A 
ATOM     42  C   UNL A   1      41.422  31.793  30.468  1.00  0.00     0.031 C 
ATOM     43  C   UNL A   1      40.445  25.404  28.047  1.00  0.00     0.029 A 
ATOM     44  C   UNL A   1      41.811  25.736  28.439  1.00  0.00     0.049 A 
ATOM     45  H   UNL A   1      42.478  27.505  29.316  1.00  0.00     0.167 HD
ATOM     46  C   UNL A   1      43.844  31.405  30.780  1.00  0.00     0.031 A 
ATOM     47  C   UNL A   1      42.880  24.927  28.292  1.00  0.00     0.031 A 
ATOM     48  C   UNL A   1      45.024  30.582  30.746  1.00  0.00     0.049 A 
ATOM     49  C   UNL A   1      44.238  25.419  28.717  1.00  0.00     0.074 A 
ATOM     50  C   UNL A   1      46.304  30.896  31.165  1.00  0.00     0.029 A 
ATOM     51  N   UNL A   1      45.065  29.279  30.273  1.00  0.00    -0.354 N 
ATOM     52  N   UNL A   1      44.574  26.585  29.214  1.00  0.00    -0.248 NA
ATOM     53  C   UNL A   1      45.362  24.483  28.569  1.00  0.00     0.031 C 
ATOM     54  C   UNL A   1      47.131  29.801  30.899  1.00  0.00     0.029 A 
ATOM     55  C   UNL A   1      46.351  28.781  30.378  1.00  0.00     0.049 A 
ATOM     56  H   UNL A   1      44.293  28.782  29.917  1.00  0.00     0.167 HD
ATOM     57  C   UNL A   1      45.937  26.508  29.478  1.00  0.00     0.074 A 
ATOM     58  C   UNL A   1      46.364  25.181  29.086  1.00  0.00     0.031 C 
ATOM     59  C   UNL A   1      46.758  27.449  30.005  1.00  0.00     0.031 A 
BRANCH  46  60
ATOM     60  C   UNL A   1      43.980  32.828  31.262  1.00  0.00    -0.014 A 
ATOM     61  C   UNL A   1      44.285  33.876  30.373  1.00  0.00     0.010 A 
ATOM     62  C   UNL A   1      43.760  33.129  32.620  1.00  0.00     0.010 A 
ATOM     63  C   UNL A   1      44.415  35.187  30.841  1.00  0.00     0.020 A 
ATOM     64  C   UNL A   1      43.855  34.444  33.084  1.00  0.00     0.020 A 
ATOM     65  C   UNL A   1      44.200  35.462  32.194  1.00  0.00     0.054 A 
BRANCH  65  66
ATOM     66  S   UNL A   1      44.356  37.177  32.766  1.00  0.00     0.124 S 
ATOM     67  O   UNL A   1      43.243  37.282  33.707  1.00  0.00    -0.237 OA
ATOM     68  O   UNL A   1      45.688  37.195  33.364  1.00  0.00    -0.237 OA
ATOM     69  O   UNL A   1      44.214  37.965  31.544  1.00  0.00    -0.744 OA
ENDBRANCH  65  66
ENDBRANCH  46  60
BRANCH  47  70
ATOM     70  C   UNL A   1      42.707  23.560  27.726  1.00  0.00    -0.014 A 
ATOM     71  C   UNL A   1      43.180  23.259  26.436  1.00  0.00     0.010 A 
ATOM     72  C   UNL A   1      42.083  22.546  28.477  1.00  0.00     0.010 A 
ATOM     73  C   UNL A   1      43.019  21.977  25.901  1.00  0.00     0.020 A 
ATOM     74  C   UNL A   1      41.947  21.255  27.958  1.00  0.00     0.020 A 
ATOM     75  C   UNL A   1      42.407  20.981  26.669  1.00  0.00     0.054 A 
BRANCH  75  76
ATOM     76  S   UNL A   1      42.262  19.311  25.976  1.00  0.00     0.124 S 
ATOM     77  O   UNL A   1      40.825  19.197  25.752  1.00  0.00    -0.237 OA
ATOM     78  O   UNL A   1      43.086  19.396  24.773  1.00  0.00    -0.237 OA
ATOM     79  O   UNL A   1      42.803  18.455  27.030  1.00  0.00    -0.744 OA
ENDBRANCH  75  76
ENDBRANCH  47  70
BRANCH  59  80
ATOM     80  C   UNL A   1      48.192  27.070  30.260  1.00  0.00    -0.014 A 
ATOM     81  C   UNL A   1      49.210  27.373  29.340  1.00  0.00     0.010 A 
ATOM     82  C   UNL A   1      48.533  26.479  31.492  1.00  0.00     0.010 A 
ATOM     83  C   UNL A   1      50.543  27.077  29.642  1.00  0.00     0.020 A 
ATOM     84  C   UNL A   1      49.866  26.209  31.810  1.00  0.00     0.020 A 
ATOM     85  C   UNL A   1      50.863  26.502  30.878  1.00  0.00     0.054 A 
BRANCH  85  86
ATOM     86  S   UNL A   1      52.606  26.198  31.275  1.00  0.00     0.124 S 
ATOM     87  O   UNL A   1      52.985  27.437  31.950  1.00  0.00    -0.237 OA
ATOM     88  O   UNL A   1      52.536  25.014  32.129  1.00  0.00    -0.237 OA
ATOM     89  O   UNL A   1      53.229  25.982  29.972  1.00  0.00    -0.744 OA
ENDBRANCH  85  86
ENDBRANCH  59  80
ENDBRANCH  33  34
ENDBRANCH  25  28
ENDBRANCH  23  24
ENDBRANCH  22  23
ENDBRANCH   1  22
TORSDOF 17
ENDMDL
MODEL 2
REMARK VINA RESULT:     -10.5      4.223     10.711
REMARK SMILES C[C@H](CN(C)C(=O)c1ccc(F)c(F)c1F)C(=O)NCCCNC(=O)c1ccc(-c2c3nc(c(-c4ccc(S(=O)(=O)[O-])cc4)c4ccc([nH]4)c(-c4ccc(S(=O)(=O)[O-])cc4)c4nc(c(-c5ccc(S(=O)(=O)[O-])cc5)c5ccc2[nH]5)C=C4)C=C3)cc1
REMARK SMILES IDX 20 1 19 2 17 3 18 4 2 6 1 7 3 8 4 9 5 10 6 11 7 12 8 13 9 14
REMARK SMILES IDX 15 15 10 16 13 17 16 18 11 19 14 20 12 21 21 22 22 23 23 24
REMARK SMILES IDX 24 25 25 27 26 28 27 29 85 30 28 31 84 32 29 33 30 34 31 35
REMARK SMILES IDX 78 36 32 37 83 38 77 39 79 40 33 41 82 42 76 43 75 44 34 46
REMARK SMILES IDX 64 47 45 48 63 49 46 50 49 51 62 52 80 53 47 54 48 55 61 57
REMARK SMILES IDX 81 58 50 59 35 60 36 61 44 62 37 63 43 64 38 65 39 66 40 67
REMARK SMILES IDX 41 68 42 69 65 70 66 71 74 72 67 73 73 74 68 75 69 76 70 77
REMARK SMILES IDX 71 78 72 79 51 80 52 81 60 82 53 83 59 84 54 85 55 86 56 87
REMARK SMILES IDX 57 88 58 89
REMARK H PARENT 19 5 23 26 79 45 49 56
REMARK Flexibility Score: inf
ROOT
ATOM      1  C   UNL A   1      42.959  21.964  26.404  1.00  0.00     0.117 C 
ENDROOT
BRANCH   1   2
ATOM      2  N   UNL A   1      42.973  22.321  27.807  1.00  0.00    -0.356 N 
ATOM      3  C   UNL A   1      43.874  23.053  28.513  1.00  0.00     0.224 C 
ATOM      4  O   UNL A   1      43.690  23.137  29.733  1.00  0.00    -0.275 OA
ATOM      5  H   UNL A   1      42.214  21.978  28.331  1.00  0.00     0.163 HD
BRANCH   3   6
ATOM      6  C   UNL A   1      45.054  23.794  27.869  1.00  0.00     0.095 C 
ATOM      7  C   UNL A   1      45.953  24.502  28.881  1.00  0.00     0.020 C 
BRANCH   6   8
ATOM      8  C   UNL A   1      44.691  24.542  26.564  1.00  0.00     0.132 C 
BRANCH   8   9
ATOM      9  N   UNL A   1      45.804  25.153  25.810  1.00  0.00    -0.341 N 
ATOM     10  C   UNL A   1      46.613  24.286  24.965  1.00  0.00     0.147 C 
BRANCH   9  11
ATOM     11  C   UNL A   1      45.699  26.489  25.436  1.00  0.00     0.256 C 
ATOM     12  O   UNL A   1      46.179  26.929  24.392  1.00  0.00    -0.269 OA
BRANCH  11  13
ATOM     13  C   UNL A   1      44.936  27.442  26.278  1.00  0.00     0.079 A 
ATOM     14  C   UNL A   1      45.617  28.104  27.310  1.00  0.00     0.020 A 
ATOM     15  C   UNL A   1      43.674  27.901  25.887  1.00  0.00     0.174 A 
ATOM     16  C   UNL A   1      45.042  29.220  27.927  1.00  0.00     0.043 A 
ATOM     17  C   UNL A   1      43.124  29.035  26.474  1.00  0.00     0.195 A 
ATOM     18  F   UNL A   1      42.989  27.309  24.900  1.00  0.00    -0.203 F 
ATOM     19  C   UNL A   1      43.808  29.693  27.486  1.00  0.00     0.161 A 
ATOM     20  F   UNL A   1      41.949  29.510  26.035  1.00  0.00    -0.200 F 
ATOM     21  F   UNL A   1      43.293  30.798  28.038  1.00  0.00    -0.204 F 
ENDBRANCH  11  13
ENDBRANCH   9  11
ENDBRANCH   8   9
ENDBRANCH   6   8
ENDBRANCH   3   6
ENDBRANCH   1   2
BRANCH   1  22
ATOM     22  C   UNL A   1      41.792  21.043  26.071  1.00  0.00     0.042 C 
BRANCH  22  23
ATOM     23  C   UNL A   1      40.528  21.339  26.857  1.00  0.00     0.118 C 
BRANCH  23  24
ATOM     24  N   UNL A   1      39.457  21.832  25.996  1.00  0.00    -0.352 N 
ATOM     25  C   UNL A   1      38.777  23.032  25.967  1.00  0.00     0.251 C 
ATOM     26  H   UNL A   1      39.166  21.190  25.309  1.00  0.00     0.163 HD
ATOM     27  O   UNL A   1      37.748  23.103  25.306  1.00  0.00    -0.269 OA
BRANCH  25  28
ATOM     28  C   UNL A   1      39.242  24.225  26.724  1.00  0.00     0.039 A 
ATOM     29  C   UNL A   1      40.090  25.148  26.092  1.00  0.00     0.014 A 
ATOM     30  C   UNL A   1      38.922  24.420  28.064  1.00  0.00     0.014 A 
ATOM     31  C   UNL A   1      40.549  26.280  26.783  1.00  0.00     0.010 A 
ATOM     32  C   UNL A   1      39.271  25.603  28.709  1.00  0.00     0.010 A 
ATOM     33  C   UNL A   1      40.108  26.541  28.088  1.00  0.00    -0.014 A 
BRANCH  33  34
ATOM     34  C   UNL A   1      40.526  27.744  28.863  1.00  0.00     0.031 A 
ATOM     35  C   UNL A   1      41.828  27.723  29.631  1.00  0.00     0.074 A 
ATOM     36  C   UNL A   1      39.702  28.807  28.976  1.00  0.00     0.049 A 
ATOM     37  N   UNL A   1      42.278  28.565  30.525  1.00  0.00    -0.248 NA
ATOM     38  C   UNL A   1      42.721  26.576  29.388  1.00  0.00     0.031 C 
ATOM     39  C   UNL A   1      38.406  28.953  28.309  1.00  0.00     0.029 A 
ATOM     40  N   UNL A   1      39.824  29.958  29.717  1.00  0.00    -0.354 N 
ATOM     41  C   UNL A   1      43.476  28.026  30.984  1.00  0.00     0.074 A 
ATOM     42  C   UNL A   1      43.659  26.763  30.304  1.00  0.00     0.031 C 
ATOM     43  C   UNL A   1      37.863  30.131  28.657  1.00  0.00     0.029 A 
ATOM     44  C   UNL A   1      38.738  30.797  29.616  1.00  0.00     0.049 A 
ATOM     45  H   UNL A   1      40.613  30.163  30.268  1.00  0.00     0.167 HD
ATOM     46  C   UNL A   1      44.355  28.541  31.875  1.00  0.00     0.031 A 
ATOM     47  C   UNL A   1      38.462  31.959  30.242  1.00  0.00     0.031 A 
ATOM     48  C   UNL A   1      44.189  29.816  32.522  1.00  0.00     0.049 A 
ATOM     49  C   UNL A   1      39.451  32.514  31.232  1.00  0.00     0.074 A 
ATOM     50  C   UNL A   1      45.051  30.457  33.394  1.00  0.00     0.029 A 
ATOM     51  N   UNL A   1      43.091  30.647  32.360  1.00  0.00    -0.354 N 
ATOM     52  N   UNL A   1      40.596  32.008  31.625  1.00  0.00    -0.248 NA
ATOM     53  C   UNL A   1      39.117  33.801  31.858  1.00  0.00     0.031 C 
ATOM     54  C   UNL A   1      44.452  31.652  33.799  1.00  0.00     0.029 A 
ATOM     55  C   UNL A   1      43.247  31.788  33.127  1.00  0.00     0.049 A 
ATOM     56  H   UNL A   1      42.316  30.454  31.784  1.00  0.00     0.167 HD
ATOM     57  C   UNL A   1      41.137  32.934  32.510  1.00  0.00     0.074 A 
ATOM     58  C   UNL A   1      40.196  34.031  32.595  1.00  0.00     0.031 C 
ATOM     59  C   UNL A   1      42.311  32.883  33.184  1.00  0.00     0.031 A 
BRANCH  46  60
ATOM     60  C   UNL A   1      45.580  27.725  32.209  1.00  0.00    -0.014 A 
ATOM     61  C   UNL A   1      46.759  27.832  31.449  1.00  0.00     0.010 A 
ATOM     62  C   UNL A   1      45.563  26.865  33.324  1.00  0.00     0.010 A 
ATOM     63  C   UNL A   1      47.881  27.062  31.769  1.00  0.00     0.020 A 
ATOM     64  C   UNL A   1      46.694  26.119  33.666  1.00  0.00     0.020 A 
ATOM     65  C   UNL A   1      47.840  26.208  32.875  1.00  0.00     0.054 A 
BRANCH  65  66
ATOM     66  S   UNL A   1      49.319  25.237  33.276  1.00  0.00     0.124 S 
ATOM     67  O   UNL A   1      50.086  26.178  34.088  1.00  0.00    -0.237 OA
ATOM     68  O   UNL A   1      48.764  24.093  33.996  1.00  0.00    -0.237 OA
ATOM     69  O   UNL A   1      49.896  24.926  31.971  1.00  0.00    -0.744 OA
ENDBRANCH  65  66
ENDBRANCH  46  60
BRANCH  47  70
ATOM     70  C   UNL A   1      37.194  32.683  29.943  1.00  0.00    -0.014 A 
ATOM     71  C   UNL A   1      35.996  32.312  30.578  1.00  0.00     0.010 A 
ATOM     72  C   UNL A   1      37.180  33.758  29.035  1.00  0.00     0.010 A 
ATOM     73  C   UNL A   1      34.805  32.989  30.299  1.00  0.00     0.020 A 
ATOM     74  C   UNL A   1      35.998  34.458  28.777  1.00  0.00     0.020 A 
ATOM     75  C   UNL A   1      34.814  34.062  29.403  1.00  0.00     0.054 A 
BRANCH  75  76
ATOM     76  S   UNL A   1      33.269  34.963  29.103  1.00  0.00     0.124 S 
ATOM     77  O   UNL A   1      32.579  34.081  28.166  1.00  0.00    -0.237 OA
ATOM     78  O   UNL A   1      32.687  35.045  30.440  1.00  0.00    -0.237 OA
ATOM     79  O   UNL A   1      33.717  36.238  28.549  1.00  0.00    -0.744 OA
ENDBRANCH  75  76
ENDBRANCH  47  70
BRANCH  59  80
ATOM     80  C   UNL A   1      42.694  34.072  34.025  1.00  0.00    -0.014 A 
ATOM     81  C   UNL A   1      42.399  34.130  35.398  1.00  0.00     0.010 A 
ATOM     82  C   UNL A   1      43.445  35.109  33.440  1.00  0.00     0.010 A 
ATOM     83  C   UNL A   1      42.836  35.213  36.167  1.00  0.00     0.020 A 
ATOM     84  C   UNL A   1      43.909  36.178  34.210  1.00  0.00     0.020 A 
ATOM     85  C   UNL A   1      43.593  36.227  35.569  1.00  0.00     0.054 A 
BRANCH  85  86
ATOM     86  S   UNL A   1      44.212  37.582  36.604  1.00  0.00     0.124 S 
ATOM     87  O   UNL A   1      43.259  37.578  37.711  1.00  0.00    -0.237 OA
ATOM     88  O   UNL A   1      45.563  37.138  36.937  1.00  0.00    -0.237 OA
ATOM     89  O   UNL A   1      44.144  38.748  35.728  1.00  0.00    -0.744 OA
ENDBRANCH  85  86
ENDBRANCH  59  80
ENDBRANCH  33  34
ENDBRANCH  25  28
ENDBRANCH  23  24
ENDBRANCH  22  23
ENDBRANCH   1  22
TORSDOF 17
ENDMDL
MODEL 3
REMARK VINA RESULT:     -10.4      3.435      9.473
REMARK SMILES C[C@H](CN(C)C(=O)c1ccc(F)c(F)c1F)C(=O)NCCCNC(=O)c1ccc(-c2c3nc(c(-c4ccc(S(=O)(=O)[O-])cc4)c4ccc([nH]4)c(-c4ccc(S(=O)(=O)[O-])cc4)c4nc(c(-c5ccc(S(=O)(=O)[O-])cc5)c5ccc2[nH]5)C=C4)C=C3)cc1
REMARK SMILES IDX 20 1 19 2 17 3 18 4 2 6 1 7 3 8 4 9 5 10 6 11 7 12 8 13 9 14
REMARK SMILES IDX 15 15 10 16 13 17 16 18 11 19 14 20 12 21 21 22 22 23 23 24
REMARK SMILES IDX 24 25 25 27 26 28 27 29 85 30 28 31 84 32 29 33 30 34 31 35
REMARK SMILES IDX 78 36 32 37 83 38 77 39 79 40 33 41 82 42 76 43 75 44 34 46
REMARK SMILES IDX 64 47 45 48 63 49 46 50 49 51 62 52 80 53 47 54 48 55 61 57
REMARK SMILES IDX 81 58 50 59 35 60 36 61 44 62 37 63 43 64 38 65 39 66 40 67
REMARK SMILES IDX 41 68 42 69 65 70 66 71 74 72 67 73 73 74 68 75 69 76 70 77
REMARK SMILES IDX 71 78 72 79 51 80 52 81 60 82 53 83 59 84 54 85 55 86 56 87
REMARK SMILES IDX 57 88 58 89
REMARK H PARENT 19 5 23 26 79 45 49 56
REMARK Flexibility Score: inf
ROOT
ATOM      1  C   UNL A   1      35.020  22.877  24.047  1.00  0.00     0.117 C 
ENDROOT
BRANCH   1   2
ATOM      2  N   UNL A   1      34.468  23.461  22.843  1.00  0.00    -0.356 N 
ATOM      3  C   UNL A   1      33.260  24.047  22.631  1.00  0.00     0.224 C 
ATOM      4  O   UNL A   1      33.004  24.391  21.471  1.00  0.00    -0.275 OA
ATOM      5  H   UNL A   1      35.058  23.428  22.056  1.00  0.00     0.163 HD
BRANCH   3   6
ATOM      6  C   UNL A   1      32.246  24.327  23.748  1.00  0.00     0.095 C 
ATOM      7  C   UNL A   1      30.858  23.755  23.468  1.00  0.00     0.020 C 
BRANCH   6   8
ATOM      8  C   UNL A   1      32.344  25.752  24.344  1.00  0.00     0.132 C 
BRANCH   8   9
ATOM      9  N   UNL A   1      32.273  26.881  23.394  1.00  0.00    -0.341 N 
ATOM     10  C   UNL A   1      31.029  27.084  22.667  1.00  0.00     0.147 C 
BRANCH   9  11
ATOM     11  C   UNL A   1      33.060  28.003  23.637  1.00  0.00     0.256 C 
ATOM     12  O   UNL A   1      33.749  28.535  22.767  1.00  0.00    -0.269 OA
BRANCH  11  13
ATOM     13  C   UNL A   1      33.051  28.647  24.973  1.00  0.00     0.079 A 
ATOM     14  C   UNL A   1      34.189  28.509  25.780  1.00  0.00     0.020 A 
ATOM     15  C   UNL A   1      32.086  29.602  25.307  1.00  0.00     0.174 A 
ATOM     16  C   UNL A   1      34.359  29.333  26.898  1.00  0.00     0.043 A 
ATOM     17  C   UNL A   1      32.280  30.447  26.395  1.00  0.00     0.195 A 
ATOM     18  F   UNL A   1      30.988  29.778  24.562  1.00  0.00    -0.203 F 
ATOM     19  C   UNL A   1      33.413  30.314  27.182  1.00  0.00     0.161 A 
ATOM     20  F   UNL A   1      31.385  31.411  26.657  1.00  0.00    -0.200 F 
ATOM     21  F   UNL A   1      33.615  31.140  28.216  1.00  0.00    -0.204 F 
ENDBRANCH  11  13
ENDBRANCH   9  11
ENDBRANCH   8   9
ENDBRANCH   6   8
ENDBRANCH   3   6
ENDBRANCH   1   2
BRANCH   1  22
ATOM     22  C   UNL A   1      36.032  23.805  24.708  1.00  0.00     0.042 C 
BRANCH  22  23
ATOM     23  C   UNL A   1      36.435  23.381  26.109  1.00  0.00     0.118 C 
BRANCH  23  24
ATOM     24  N   UNL A   1      37.656  22.581  26.102  1.00  0.00    -0.352 N 
ATOM     25  C   UNL A   1      38.972  22.906  26.356  1.00  0.00     0.251 C 
ATOM     26  H   UNL A   1      37.514  21.633  25.875  1.00  0.00     0.163 HD
ATOM     27  O   UNL A   1      39.843  22.104  26.037  1.00  0.00    -0.269 OA
BRANCH  25  28
ATOM     28  C   UNL A   1      39.364  24.198  26.980  1.00  0.00     0.039 A 
ATOM     29  C   UNL A   1      38.989  24.457  28.307  1.00  0.00     0.014 A 
ATOM     30  C   UNL A   1      40.028  25.191  26.266  1.00  0.00     0.014 A 
ATOM     31  C   UNL A   1      39.340  25.669  28.920  1.00  0.00     0.010 A 
ATOM     32  C   UNL A   1      40.486  26.338  26.910  1.00  0.00     0.010 A 
ATOM     33  C   UNL A   1      40.130  26.606  28.240  1.00  0.00    -0.014 A 
BRANCH  33  34
ATOM     34  C   UNL A   1      40.570  27.895  28.847  1.00  0.00     0.031 A 
ATOM     35  C   UNL A   1      41.936  27.991  29.487  1.00  0.00     0.074 A 
ATOM     36  C   UNL A   1      39.720  28.939  28.928  1.00  0.00     0.049 A 
ATOM     37  N   UNL A   1      42.432  28.934  30.246  1.00  0.00    -0.248 NA
ATOM     38  C   UNL A   1      42.846  26.851  29.279  1.00  0.00     0.031 C 
ATOM     39  C   UNL A   1      38.365  28.979  28.374  1.00  0.00     0.029 A 
ATOM     40  N   UNL A   1      39.864  30.165  29.535  1.00  0.00    -0.354 N 
ATOM     41  C   UNL A   1      43.686  28.480  30.643  1.00  0.00     0.074 A 
ATOM     42  C   UNL A   1      43.855  27.159  30.081  1.00  0.00     0.031 C 
ATOM     43  C   UNL A   1      37.811  30.170  28.650  1.00  0.00     0.029 A 
ATOM     44  C   UNL A   1      38.743  30.957  29.451  1.00  0.00     0.049 A 
ATOM     45  H   UNL A   1      40.692  30.448  29.986  1.00  0.00     0.167 HD
ATOM     46  C   UNL A   1      44.622  29.110  31.392  1.00  0.00     0.031 A 
ATOM     47  C   UNL A   1      38.480  32.170  29.980  1.00  0.00     0.031 A 
ATOM     48  C   UNL A   1      44.467  30.439  31.920  1.00  0.00     0.049 A 
ATOM     49  C   UNL A   1      39.533  32.853  30.813  1.00  0.00     0.074 A 
ATOM     50  C   UNL A   1      45.378  31.192  32.638  1.00  0.00     0.029 A 
ATOM     51  N   UNL A   1      43.327  31.218  31.778  1.00  0.00    -0.354 N 
ATOM     52  N   UNL A   1      40.726  32.423  31.145  1.00  0.00    -0.248 NA
ATOM     53  C   UNL A   1      39.208  34.188  31.334  1.00  0.00     0.031 C 
ATOM     54  C   UNL A   1      44.773  32.405  32.975  1.00  0.00     0.029 A 
ATOM     55  C   UNL A   1      43.509  32.436  32.408  1.00  0.00     0.049 A 
ATOM     56  H   UNL A   1      42.512  30.944  31.300  1.00  0.00     0.167 HD
ATOM     57  C   UNL A   1      41.309  33.451  31.878  1.00  0.00     0.074 A 
ATOM     58  C   UNL A   1      40.339  34.524  31.940  1.00  0.00     0.031 C 
ATOM     59  C   UNL A   1      42.541  33.504  32.442  1.00  0.00     0.031 A 
BRANCH  46  60
ATOM     60  C   UNL A   1      45.902  28.368  31.691  1.00  0.00    -0.014 A 
ATOM     61  C   UNL A   1      46.021  27.543  32.825  1.00  0.00     0.010 A 
ATOM     62  C   UNL A   1      46.989  28.467  30.802  1.00  0.00     0.010 A 
ATOM     63  C   UNL A   1      47.217  26.870  33.089  1.00  0.00     0.020 A 
ATOM     64  C   UNL A   1      48.175  27.767  31.046  1.00  0.00     0.020 A 
ATOM     65  C   UNL A   1      48.287  26.988  32.199  1.00  0.00     0.054 A 
BRANCH  65  66
ATOM     66  S   UNL A   1      49.820  26.086  32.559  1.00  0.00     0.124 S 
ATOM     67  O   UNL A   1      49.520  25.492  33.859  1.00  0.00    -0.237 OA
ATOM     68  O   UNL A   1      49.906  25.146  31.444  1.00  0.00    -0.237 OA
ATOM     69  O   UNL A   1      50.843  27.128  32.572  1.00  0.00    -0.744 OA
ENDBRANCH  65  66
ENDBRANCH  46  60
BRANCH  47  70
ATOM     70  C   UNL A   1      37.164  32.822  29.729  1.00  0.00    -0.014 A 
ATOM     71  C   UNL A   1      36.119  32.696  30.661  1.00  0.00     0.010 A 
ATOM     72  C   UNL A   1      36.954  33.588  28.567  1.00  0.00     0.010 A 
ATOM     73  C   UNL A   1      34.882  33.307  30.428  1.00  0.00     0.020 A 
ATOM     74  C   UNL A   1      35.729  34.225  28.346  1.00  0.00     0.020 A 
ATOM     75  C   UNL A   1      34.697  34.072  29.273  1.00  0.00     0.054 A 
BRANCH  75  76
ATOM     76  S   UNL A   1      33.104  34.904  29.023  1.00  0.00     0.124 S 
ATOM     77  O   UNL A   1      32.446  34.019  28.068  1.00  0.00    -0.237 OA
ATOM     78  O   UNL A   1      32.540  34.916  30.370  1.00  0.00    -0.237 OA
ATOM     79  O   UNL A   1      33.481  36.217  28.504  1.00  0.00    -0.744 OA
ENDBRANCH  75  76
ENDBRANCH  47  70
BRANCH  59  80
ATOM     80  C   UNL A   1      42.952  34.784  33.118  1.00  0.00    -0.014 A 
ATOM     81  C   UNL A   1      42.809  34.964  34.505  1.00  0.00     0.010 A 
ATOM     82  C   UNL A   1      43.579  35.789  32.357  1.00  0.00     0.010 A 
ATOM     83  C   UNL A   1      43.271  36.134  35.115  1.00  0.00     0.020 A 
ATOM     84  C   UNL A   1      44.069  36.946  32.967  1.00  0.00     0.020 A 
ATOM     85  C   UNL A   1      43.904  37.115  34.343  1.00  0.00     0.054 A 
BRANCH  85  86
ATOM     86  S   UNL A   1      44.562  38.589  35.169  1.00  0.00     0.124 S 
ATOM     87  O   UNL A   1      43.861  39.665  34.473  1.00  0.00    -0.237 OA
ATOM     88  O   UNL A   1      44.168  38.378  36.560  1.00  0.00    -0.237 OA
ATOM     89  O   UNL A   1      45.999  38.517  34.917  1.00  0.00    -0.744 OA
ENDBRANCH  85  86
ENDBRANCH  59  80
ENDBRANCH  33  34
ENDBRANCH  25  28
ENDBRANCH  23  24
ENDBRANCH  22  23
ENDBRANCH   1  22
TORSDOF 17
ENDMDL
