MODEL 1
REMARK VINA RESULT:     -11.4      0.000      0.000
REMARK SMILES CC[C@@](C)(NC(=O)Nc1c(C)cccc1Cl)C(=O)NCCCNC(=O)c1ccc(-c2c3nc(c(-c4ccc(S(=O)(=O)[O-])cc4)c4ccc([nH]4)c(-c4ccc(S(=O)(=O)[O-])cc4)c4nc(c(-c5ccc(S(=O)(=O)[O-])cc5)c5ccc2[nH]5)C=C4)C=C3)cc1
REMARK SMILES IDX 21 1 20 2 19 3 17 4 18 5 3 7 4 8 2 9 1 10 5 11 6 12 7 14
REMARK SMILES IDX 8 15 9 17 10 18 15 19 11 20 12 21 14 22 16 23 13 24 22 25
REMARK SMILES IDX 23 26 24 27 25 29 26 30 27 31 85 32 28 33 84 34 29 35 30 36
REMARK SMILES IDX 31 37 78 38 32 39 83 40 77 41 79 42 33 43 82 44 76 45 75 46
REMARK SMILES IDX 34 48 64 49 45 50 63 51 46 52 49 53 62 54 80 55 47 56 48 57
REMARK SMILES IDX 61 59 81 60 50 61 35 62 36 63 44 64 37 65 43 66 38 67 39 68
REMARK SMILES IDX 40 69 41 70 42 71 65 72 66 73 74 74 67 75 73 76 68 77 69 78
REMARK SMILES IDX 70 79 71 80 72 81 51 82 52 83 60 84 53 85 59 86 54 87 55 88
REMARK SMILES IDX 56 89 57 90 58 91
REMARK H PARENT 19 6 5 13 8 16 23 28 79 47 49 58
REMARK Flexibility Score: inf
ROOT
ATOM      1  C   UNL A   1      31.876  27.987  27.046  1.00  0.00     0.042 C 
ENDROOT
BRANCH   1   2
ATOM      2  C   UNL A   1      31.445  27.261  25.747  1.00  0.00     0.117 C 
BRANCH   2   3
ATOM      3  N   UNL A   1      30.464  26.194  25.923  1.00  0.00    -0.354 N 
ATOM      4  C   UNL A   1      30.632  24.826  26.137  1.00  0.00     0.245 C 
ATOM      5  O   UNL A   1      30.312  24.292  27.198  1.00  0.00    -0.272 OA
ATOM      6  H   UNL A   1      29.526  26.490  25.882  1.00  0.00     0.163 HD
BRANCH   4   7
ATOM      7  C   UNL A   1      31.297  24.031  24.997  1.00  0.00     0.117 C 
ATOM      8  C   UNL A   1      31.092  22.577  25.522  1.00  0.00     0.045 C 
BRANCH   7   9
ATOM      9  C   UNL A   1      30.808  24.037  23.526  1.00  0.00     0.035 C 
ATOM     10  C   UNL A   1      31.287  25.121  22.590  1.00  0.00     0.007 C 
ENDBRANCH   7   9
BRANCH   7  11
ATOM     11  N   UNL A   1      32.703  24.439  24.970  1.00  0.00    -0.324 N 
ATOM     12  C   UNL A   1      33.857  23.798  24.742  1.00  0.00     0.320 C 
ATOM     13  H   UNL A   1      32.829  25.396  25.163  1.00  0.00     0.166 HD
ATOM     14  O   UNL A   1      34.873  24.462  24.985  1.00  0.00    -0.248 OA
ATOM     15  N   UNL A   1      34.071  22.611  24.109  1.00  0.00    -0.306 N 
ATOM     16  H   UNL A   1      34.802  22.700  23.456  1.00  0.00     0.171 HD
BRANCH  15  17
ATOM     17  C   UNL A   1      33.556  21.261  24.104  1.00  0.00     0.064 A 
ATOM     18  C   UNL A   1      32.552  20.686  23.267  1.00  0.00    -0.026 A 
ATOM     19  C   UNL A   1      34.421  20.303  24.702  1.00  0.00     0.064 A 
ATOM     20  C   UNL A   1      31.987  21.194  21.950  1.00  0.00     0.046 C 
ATOM     21  C   UNL A   1      32.182  19.329  23.445  1.00  0.00     0.005 A 
ATOM     22  C   UNL A   1      34.161  18.926  24.696  1.00  0.00     0.023 A 
ATOM     23  Cl  UNL A   1      35.962  20.777  25.358  1.00  0.00    -0.082 Cl
ATOM     24  C   UNL A   1      32.991  18.448  24.138  1.00  0.00     0.002 A 
ENDBRANCH  15  17
ENDBRANCH   7  11
ENDBRANCH   4   7
ENDBRANCH   2   3
ENDBRANCH   1   2
BRANCH   1  25
ATOM     25  C   UNL A   1      33.289  28.573  27.177  1.00  0.00     0.118 C 
BRANCH  25  26
ATOM     26  N   UNL A   1      33.343  29.959  27.597  1.00  0.00    -0.352 N 
ATOM     27  C   UNL A   1      34.387  30.716  28.082  1.00  0.00     0.251 C 
ATOM     28  H   UNL A   1      32.489  30.442  27.524  1.00  0.00     0.163 HD
ATOM     29  O   UNL A   1      34.201  31.894  28.342  1.00  0.00    -0.269 OA
BRANCH  27  30
ATOM     30  C   UNL A   1      35.707  30.104  28.367  1.00  0.00     0.039 A 
ATOM     31  C   UNL A   1      36.647  30.092  27.333  1.00  0.00     0.014 A 
ATOM     32  C   UNL A   1      36.029  29.542  29.605  1.00  0.00     0.014 A 
ATOM     33  C   UNL A   1      37.939  29.613  27.565  1.00  0.00     0.010 A 
ATOM     34  C   UNL A   1      37.339  29.117  29.854  1.00  0.00     0.010 A 
ATOM     35  C   UNL A   1      38.316  29.175  28.845  1.00  0.00    -0.014 A 
BRANCH  35  36
ATOM     36  C   UNL A   1      39.741  28.863  29.151  1.00  0.00     0.031 A 
ATOM     37  C   UNL A   1      40.654  29.896  29.753  1.00  0.00     0.074 A 
ATOM     38  C   UNL A   1      40.232  27.649  28.824  1.00  0.00     0.049 A 
ATOM     39  N   UNL A   1      41.931  29.805  30.032  1.00  0.00    -0.248 NA
ATOM     40  C   UNL A   1      40.065  31.205  30.068  1.00  0.00     0.031 C 
ATOM     41  C   UNL A   1      39.463  26.566  28.204  1.00  0.00     0.029 A 
ATOM     42  N   UNL A   1      41.493  27.119  28.957  1.00  0.00    -0.354 N 
ATOM     43  C   UNL A   1      42.301  31.044  30.541  1.00  0.00     0.074 A 
ATOM     44  C   UNL A   1      41.122  31.883  30.495  1.00  0.00     0.031 C 
ATOM     45  C   UNL A   1      40.258  25.498  28.036  1.00  0.00     0.029 A 
ATOM     46  C   UNL A   1      41.606  25.832  28.485  1.00  0.00     0.049 A 
ATOM     47  H   UNL A   1      42.246  27.615  29.354  1.00  0.00     0.167 HD
ATOM     48  C   UNL A   1      43.507  31.443  31.016  1.00  0.00     0.031 A 
ATOM     49  C   UNL A   1      42.673  25.011  28.404  1.00  0.00     0.031 A 
ATOM     50  C   UNL A   1      44.681  30.608  31.056  1.00  0.00     0.049 A 
ATOM     51  C   UNL A   1      44.007  25.492  28.904  1.00  0.00     0.074 A 
ATOM     52  C   UNL A   1      45.933  30.908  31.566  1.00  0.00     0.029 A 
ATOM     53  N   UNL A   1      44.755  29.314  30.560  1.00  0.00    -0.354 N 
ATOM     54  N   UNL A   1      44.318  26.644  29.446  1.00  0.00    -0.248 NA
ATOM     55  C   UNL A   1      45.135  24.557  28.786  1.00  0.00     0.031 C 
ATOM     56  C   UNL A   1      46.780  29.822  31.320  1.00  0.00     0.029 A 
ATOM     57  C   UNL A   1      46.039  28.817  30.720  1.00  0.00     0.049 A 
ATOM     58  H   UNL A   1      44.006  28.822  30.154  1.00  0.00     0.167 HD
ATOM     59  C   UNL A   1      45.672  26.565  29.755  1.00  0.00     0.074 A 
ATOM     60  C   UNL A   1      46.113  25.243  29.359  1.00  0.00     0.031 C 
ATOM     61  C   UNL A   1      46.474  27.503  30.315  1.00  0.00     0.031 A 
BRANCH  48  62
ATOM     62  C   UNL A   1      43.627  32.860  31.521  1.00  0.00    -0.014 A 
ATOM     63  C   UNL A   1      44.041  33.903  30.672  1.00  0.00     0.010 A 
ATOM     64  C   UNL A   1      43.271  33.163  32.848  1.00  0.00     0.010 A 
ATOM     65  C   UNL A   1      44.137  35.213  31.152  1.00  0.00     0.020 A 
ATOM     66  C   UNL A   1      43.336  34.477  33.324  1.00  0.00     0.020 A 
ATOM     67  C   UNL A   1      43.785  35.491  32.476  1.00  0.00     0.054 A 
BRANCH  67  68
ATOM     68  S   UNL A   1      43.900  37.203  33.063  1.00  0.00     0.124 S 
ATOM     69  O   UNL A   1      42.741  37.296  33.950  1.00  0.00    -0.237 OA
ATOM     70  O   UNL A   1      45.201  37.227  33.728  1.00  0.00    -0.237 OA
ATOM     71  O   UNL A   1      43.813  37.998  31.841  1.00  0.00    -0.744 OA
ENDBRANCH  67  68
ENDBRANCH  48  62
BRANCH  49  72
ATOM     72  C   UNL A   1      42.521  23.648  27.821  1.00  0.00    -0.014 A 
ATOM     73  C   UNL A   1      42.712  23.432  26.445  1.00  0.00     0.010 A 
ATOM     74  C   UNL A   1      42.192  22.554  28.644  1.00  0.00     0.010 A 
ATOM     75  C   UNL A   1      42.562  22.154  25.900  1.00  0.00     0.020 A 
ATOM     76  C   UNL A   1      42.073  21.269  28.108  1.00  0.00     0.020 A 
ATOM     77  C   UNL A   1      42.247  21.079  26.737  1.00  0.00     0.054 A 
BRANCH  77  78
ATOM     78  S   UNL A   1      42.110  19.419  26.015  1.00  0.00     0.124 S 
ATOM     79  O   UNL A   1      42.945  19.535  24.824  1.00  0.00    -0.237 OA
ATOM     80  O   UNL A   1      42.639  18.570  27.080  1.00  0.00    -0.237 OA
ATOM     81  O   UNL A   1      40.678  19.272  25.766  1.00  0.00    -0.744 OA
ENDBRANCH  77  78
ENDBRANCH  49  72
BRANCH  61  82
ATOM     82  C   UNL A   1      47.914  27.129  30.556  1.00  0.00    -0.014 A 
ATOM     83  C   UNL A   1      48.887  27.279  29.552  1.00  0.00     0.010 A 
ATOM     84  C   UNL A   1      48.309  26.666  31.826  1.00  0.00     0.010 A 
ATOM     85  C   UNL A   1      50.220  26.942  29.802  1.00  0.00     0.020 A 
ATOM     86  C   UNL A   1      49.647  26.358  32.089  1.00  0.00     0.020 A 
ATOM     87  C   UNL A   1      50.592  26.485  31.069  1.00  0.00     0.054 A 
BRANCH  87  88
ATOM     88  S   UNL A   1      52.336  26.097  31.380  1.00  0.00     0.124 S 
ATOM     89  O   UNL A   1      52.939  26.333  30.070  1.00  0.00    -0.237 OA
ATOM     90  O   UNL A   1      52.698  27.058  32.419  1.00  0.00    -0.237 OA
ATOM     91  O   UNL A   1      52.312  24.701  31.811  1.00  0.00    -0.744 OA
ENDBRANCH  87  88
ENDBRANCH  61  82
ENDBRANCH  35  36
ENDBRANCH  27  30
ENDBRANCH  25  26
ENDBRANCH   1  25
TORSDOF 16
ENDMDL
MODEL 2
REMARK VINA RESULT:     -11.2      3.454      8.060
REMARK SMILES CC[C@@](C)(NC(=O)Nc1c(C)cccc1Cl)C(=O)NCCCNC(=O)c1ccc(-c2c3nc(c(-c4ccc(S(=O)(=O)[O-])cc4)c4ccc([nH]4)c(-c4ccc(S(=O)(=O)[O-])cc4)c4nc(c(-c5ccc(S(=O)(=O)[O-])cc5)c5ccc2[nH]5)C=C4)C=C3)cc1
REMARK SMILES IDX 21 1 20 2 19 3 17 4 18 5 3 7 4 8 2 9 1 10 5 11 6 12 7 14
REMARK SMILES IDX 8 15 9 17 10 18 15 19 11 20 12 21 14 22 16 23 13 24 22 25
REMARK SMILES IDX 23 26 24 27 25 29 26 30 27 31 85 32 28 33 84 34 29 35 30 36
REMARK SMILES IDX 31 37 78 38 32 39 83 40 77 41 79 42 33 43 82 44 76 45 75 46
REMARK SMILES IDX 34 48 64 49 45 50 63 51 46 52 49 53 62 54 80 55 47 56 48 57
REMARK SMILES IDX 61 59 81 60 50 61 35 62 36 63 44 64 37 65 43 66 38 67 39 68
REMARK SMILES IDX 40 69 41 70 42 71 65 72 66 73 74 74 67 75 73 76 68 77 69 78
REMARK SMILES IDX 70 79 71 80 72 81 51 82 52 83 60 84 53 85 59 86 54 87 55 88
REMARK SMILES IDX 56 89 57 90 58 91
REMARK H PARENT 19 6 5 13 8 16 23 28 79 47 49 58
REMARK Flexibility Score: inf
ROOT
ATOM      1  C   UNL A   1      37.779  21.339  24.998  1.00  0.00     0.042 C 
ENDROOT
BRANCH   1   2
ATOM      2  C   UNL A   1      36.323  20.887  25.276  1.00  0.00     0.117 C 
BRANCH   2   3
ATOM      3  N   UNL A   1      35.692  21.496  26.442  1.00  0.00    -0.354 N 
ATOM      4  C   UNL A   1      34.348  21.744  26.727  1.00  0.00     0.245 C 
ATOM      5  O   UNL A   1      33.758  21.156  27.632  1.00  0.00    -0.272 OA
ATOM      6  H   UNL A   1      36.319  21.780  27.146  1.00  0.00     0.163 HD
BRANCH   4   7
ATOM      7  C   UNL A   1      33.628  22.748  25.807  1.00  0.00     0.117 C 
ATOM      8  C   UNL A   1      34.631  23.942  25.868  1.00  0.00     0.045 C 
BRANCH   7   9
ATOM      9  C   UNL A   1      33.332  22.503  24.305  1.00  0.00     0.035 C 
ATOM     10  C   UNL A   1      32.807  21.158  23.863  1.00  0.00     0.007 C 
ENDBRANCH   7   9
BRANCH   7  11
ATOM     11  N   UNL A   1      32.342  23.046  26.441  1.00  0.00    -0.324 N 
ATOM     12  C   UNL A   1      31.515  24.100  26.423  1.00  0.00     0.320 C 
ATOM     13  H   UNL A   1      32.013  22.311  27.006  1.00  0.00     0.166 HD
ATOM     14  O   UNL A   1      30.589  24.042  27.244  1.00  0.00    -0.248 OA
ATOM     15  N   UNL A   1      31.434  25.115  25.520  1.00  0.00    -0.306 N 
ATOM     16  H   UNL A   1      30.497  25.263  25.256  1.00  0.00     0.171 HD
BRANCH  15  17
ATOM     17  C   UNL A   1      32.300  26.043  24.830  1.00  0.00     0.064 A 
ATOM     18  C   UNL A   1      32.698  26.050  23.459  1.00  0.00    -0.026 A 
ATOM     19  C   UNL A   1      32.434  27.305  25.472  1.00  0.00     0.064 A 
ATOM     20  C   UNL A   1      32.087  25.322  22.273  1.00  0.00     0.046 C 
ATOM     21  C   UNL A   1      33.580  27.056  22.989  1.00  0.00     0.005 A 
ATOM     22  C   UNL A   1      33.134  28.381  24.910  1.00  0.00     0.023 A 
ATOM     23  Cl  UNL A   1      31.592  27.647  26.957  1.00  0.00    -0.082 Cl
ATOM     24  C   UNL A   1      33.782  28.225  23.699  1.00  0.00     0.002 A 
ENDBRANCH  15  17
ENDBRANCH   7  11
ENDBRANCH   4   7
ENDBRANCH   2   3
ENDBRANCH   1   2
BRANCH   1  25
ATOM     25  C   UNL A   1      38.857  21.202  26.082  1.00  0.00     0.118 C 
BRANCH  25  26
ATOM     26  N   UNL A   1      39.747  20.070  25.925  1.00  0.00    -0.352 N 
ATOM     27  C   UNL A   1      41.105  19.953  26.127  1.00  0.00     0.251 C 
ATOM     28  H   UNL A   1      39.307  19.242  25.624  1.00  0.00     0.163 HD
ATOM     29  O   UNL A   1      41.643  18.870  25.960  1.00  0.00    -0.269 OA
BRANCH  27  30
ATOM     30  C   UNL A   1      41.932  21.136  26.461  1.00  0.00     0.039 A 
ATOM     31  C   UNL A   1      42.363  21.939  25.402  1.00  0.00     0.014 A 
ATOM     32  C   UNL A   1      42.295  21.461  27.770  1.00  0.00     0.014 A 
ATOM     33  C   UNL A   1      43.066  23.119  25.657  1.00  0.00     0.010 A 
ATOM     34  C   UNL A   1      42.949  22.671  28.029  1.00  0.00     0.010 A 
ATOM     35  C   UNL A   1      43.316  23.528  26.977  1.00  0.00    -0.014 A 
BRANCH  35  36
ATOM     36  C   UNL A   1      43.876  24.880  27.260  1.00  0.00     0.031 A 
ATOM     37  C   UNL A   1      42.997  26.008  27.726  1.00  0.00     0.074 A 
ATOM     38  C   UNL A   1      45.188  25.106  27.035  1.00  0.00     0.049 A 
ATOM     39  N   UNL A   1      43.315  27.255  27.967  1.00  0.00    -0.248 NA
ATOM     40  C   UNL A   1      41.574  25.701  27.934  1.00  0.00     0.031 C 
ATOM     41  C   UNL A   1      46.147  24.110  26.550  1.00  0.00     0.029 A 
ATOM     42  N   UNL A   1      45.943  26.246  27.173  1.00  0.00    -0.354 N 
ATOM     43  C   UNL A   1      42.134  27.887  28.340  1.00  0.00     0.074 A 
ATOM     44  C   UNL A   1      41.085  26.892  28.256  1.00  0.00     0.031 C 
ATOM     45  C   UNL A   1      47.362  24.672  26.458  1.00  0.00     0.029 A 
ATOM     46  C   UNL A   1      47.264  26.081  26.824  1.00  0.00     0.049 A 
ATOM     47  H   UNL A   1      45.574  27.101  27.493  1.00  0.00     0.167 HD
ATOM     48  C   UNL A   1      41.942  29.171  28.731  1.00  0.00     0.031 A 
ATOM     49  C   UNL A   1      48.284  26.962  26.784  1.00  0.00     0.031 A 
ATOM     50  C   UNL A   1      42.987  30.160  28.809  1.00  0.00     0.049 A 
ATOM     51  C   UNL A   1      48.036  28.389  27.187  1.00  0.00     0.074 A 
ATOM     52  C   UNL A   1      42.898  31.473  29.243  1.00  0.00     0.029 A 
ATOM     53  N   UNL A   1      44.308  29.955  28.438  1.00  0.00    -0.354 N 
ATOM     54  N   UNL A   1      46.925  28.947  27.604  1.00  0.00    -0.248 NA
ATOM     55  C   UNL A   1      49.183  29.306  27.120  1.00  0.00     0.031 C 
ATOM     56  C   UNL A   1      44.147  32.078  29.072  1.00  0.00     0.029 A 
ATOM     57  C   UNL A   1      45.035  31.124  28.599  1.00  0.00     0.049 A 
ATOM     58  H   UNL A   1      44.675  29.103  28.109  1.00  0.00     0.167 HD
ATOM     59  C   UNL A   1      47.245  30.275  27.871  1.00  0.00     0.074 A 
ATOM     60  C   UNL A   1      48.657  30.429  27.589  1.00  0.00     0.031 C 
ATOM     61  C   UNL A   1      46.439  31.273  28.308  1.00  0.00     0.031 A 
BRANCH  48  62
ATOM     62  C   UNL A   1      40.538  29.591  29.091  1.00  0.00    -0.014 A 
ATOM     63  C   UNL A   1      40.197  29.933  30.413  1.00  0.00     0.010 A 
ATOM     64  C   UNL A   1      39.560  29.697  28.086  1.00  0.00     0.010 A 
ATOM     65  C   UNL A   1      38.894  30.331  30.728  1.00  0.00     0.020 A 
ATOM     66  C   UNL A   1      38.264  30.125  28.391  1.00  0.00     0.020 A 
ATOM     67  C   UNL A   1      37.935  30.423  29.715  1.00  0.00     0.054 A 
BRANCH  67  68
ATOM     68  S   UNL A   1      36.259  30.963  30.152  1.00  0.00     0.124 S 
ATOM     69  O   UNL A   1      36.472  32.373  30.474  1.00  0.00    -0.237 OA
ATOM     70  O   UNL A   1      35.511  30.707  28.924  1.00  0.00    -0.237 OA
ATOM     71  O   UNL A   1      35.903  30.112  31.285  1.00  0.00    -0.744 OA
ENDBRANCH  67  68
ENDBRANCH  48  62
BRANCH  49  72
ATOM     72  C   UNL A   1      49.636  26.517  26.342  1.00  0.00    -0.014 A 
ATOM     73  C   UNL A   1      50.051  26.702  25.012  1.00  0.00     0.010 A 
ATOM     74  C   UNL A   1      50.520  25.911  27.254  1.00  0.00     0.010 A 
ATOM     75  C   UNL A   1      51.317  26.277  24.598  1.00  0.00     0.020 A 
ATOM     76  C   UNL A   1      51.799  25.514  26.852  1.00  0.00     0.020 A 
ATOM     77  C   UNL A   1      52.184  25.689  25.523  1.00  0.00     0.054 A 
BRANCH  77  78
ATOM     78  S   UNL A   1      53.842  25.194  24.975  1.00  0.00     0.124 S 
ATOM     79  O   UNL A   1      53.920  25.802  23.650  1.00  0.00    -0.237 OA
ATOM     80  O   UNL A   1      54.701  25.789  25.996  1.00  0.00    -0.237 OA
ATOM     81  O   UNL A   1      53.787  23.734  24.993  1.00  0.00    -0.744 OA
ENDBRANCH  77  78
ENDBRANCH  49  72
BRANCH  61  82
ATOM     82  C   UNL A   1      47.068  32.624  28.532  1.00  0.00    -0.014 A 
ATOM     83  C   UNL A   1      47.095  33.596  27.517  1.00  0.00     0.010 A 
ATOM     84  C   UNL A   1      47.599  32.942  29.797  1.00  0.00     0.010 A 
ATOM     85  C   UNL A   1      47.669  34.849  27.751  1.00  0.00     0.020 A 
ATOM     86  C   UNL A   1      48.145  34.205  30.044  1.00  0.00     0.020 A 
ATOM     87  C   UNL A   1      48.189  35.146  29.014  1.00  0.00     0.054 A 
BRANCH  87  88
ATOM     88  S   UNL A   1      48.889  36.794  29.303  1.00  0.00     0.124 S 
ATOM     89  O   UNL A   1      49.463  36.652  30.639  1.00  0.00    -0.237 OA
ATOM     90  O   UNL A   1      49.855  36.927  28.215  1.00  0.00    -0.237 OA
ATOM     91  O   UNL A   1      47.733  37.684  29.214  1.00  0.00    -0.744 OA
ENDBRANCH  87  88
ENDBRANCH  61  82
ENDBRANCH  35  36
ENDBRANCH  27  30
ENDBRANCH  25  26
ENDBRANCH   1  25
TORSDOF 16
ENDMDL
MODEL 3
REMARK VINA RESULT:     -11.2      4.508      9.709
REMARK SMILES CC[C@@](C)(NC(=O)Nc1c(C)cccc1Cl)C(=O)NCCCNC(=O)c1ccc(-c2c3nc(c(-c4ccc(S(=O)(=O)[O-])cc4)c4ccc([nH]4)c(-c4ccc(S(=O)(=O)[O-])cc4)c4nc(c(-c5ccc(S(=O)(=O)[O-])cc5)c5ccc2[nH]5)C=C4)C=C3)cc1
REMARK SMILES IDX 21 1 20 2 19 3 17 4 18 5 3 7 4 8 2 9 1 10 5 11 6 12 7 14
REMARK SMILES IDX 8 15 9 17 10 18 15 19 11 20 12 21 14 22 16 23 13 24 22 25
REMARK SMILES IDX 23 26 24 27 25 29 26 30 27 31 85 32 28 33 84 34 29 35 30 36
REMARK SMILES IDX 31 37 78 38 32 39 83 40 77 41 79 42 33 43 82 44 76 45 75 46
REMARK SMILES IDX 34 48 64 49 45 50 63 51 46 52 49 53 62 54 80 55 47 56 48 57
REMARK SMILES IDX 61 59 81 60 50 61 35 62 36 63 44 64 37 65 43 66 38 67 39 68
REMARK SMILES IDX 40 69 41 70 42 71 65 72 66 73 74 74 67 75 73 76 68 77 69 78
REMARK SMILES IDX 70 79 71 80 72 81 51 82 52 83 60 84 53 85 59 86 54 87 55 88
REMARK SMILES IDX 56 89 57 90 58 91
REMARK H PARENT 19 6 5 13 8 16 23 28 79 47 49 58
REMARK Flexibility Score: inf
ROOT
ATOM      1  C   UNL A   1      31.869  31.661  26.527  1.00  0.00     0.042 C 
ENDROOT
BRANCH   1   2
ATOM      2  C   UNL A   1      32.037  30.139  26.293  1.00  0.00     0.117 C 
BRANCH   2   3
ATOM      3  N   UNL A   1      33.160  29.756  25.444  1.00  0.00    -0.354 N 
ATOM      4  C   UNL A   1      33.213  28.941  24.312  1.00  0.00     0.245 C 
ATOM      5  O   UNL A   1      33.478  29.393  23.200  1.00  0.00    -0.272 OA
ATOM      6  H   UNL A   1      34.026  30.137  25.715  1.00  0.00     0.163 HD
BRANCH   4   7
ATOM      7  C   UNL A   1      32.861  27.456  24.522  1.00  0.00     0.117 C 
ATOM      8  C   UNL A   1      33.823  27.112  25.701  1.00  0.00     0.045 C 
BRANCH   7   9
ATOM      9  C   UNL A   1      31.459  26.939  24.938  1.00  0.00     0.035 C 
ATOM     10  C   UNL A   1      31.162  26.695  26.398  1.00  0.00     0.007 C 
ENDBRANCH   7   9
BRANCH   7  11
ATOM     11  N   UNL A   1      33.207  26.765  23.278  1.00  0.00    -0.324 N 
ATOM     12  C   UNL A   1      33.529  25.502  22.971  1.00  0.00     0.320 C 
ATOM     13  H   UNL A   1      33.203  27.361  22.495  1.00  0.00     0.166 HD
ATOM     14  O   UNL A   1      33.934  25.341  21.812  1.00  0.00    -0.248 OA
ATOM     15  N   UNL A   1      33.297  24.359  23.674  1.00  0.00    -0.306 N 
ATOM     16  H   UNL A   1      32.921  23.666  23.084  1.00  0.00     0.171 HD
BRANCH  15  17
ATOM     17  C   UNL A   1      33.434  23.850  25.019  1.00  0.00     0.064 A 
ATOM     18  C   UNL A   1      32.426  23.342  25.894  1.00  0.00    -0.026 A 
ATOM     19  C   UNL A   1      34.750  23.424  25.352  1.00  0.00     0.064 A 
ATOM     20  C   UNL A   1      31.017  22.874  25.573  1.00  0.00     0.046 C 
ATOM     21  C   UNL A   1      32.782  22.905  27.195  1.00  0.00     0.005 A 
ATOM     22  C   UNL A   1      35.069  22.795  26.563  1.00  0.00     0.023 A 
ATOM     23  Cl  UNL A   1      36.042  23.523  24.190  1.00  0.00    -0.082 Cl
ATOM     24  C   UNL A   1      34.092  22.613  27.524  1.00  0.00     0.002 A 
ENDBRANCH  15  17
ENDBRANCH   7  11
ENDBRANCH   4   7
ENDBRANCH   2   3
ENDBRANCH   1   2
BRANCH   1  25
ATOM     25  C   UNL A   1      32.901  32.440  27.353  1.00  0.00     0.118 C 
BRANCH  25  26
ATOM     26  N   UNL A   1      32.504  33.783  27.725  1.00  0.00    -0.352 N 
ATOM     27  C   UNL A   1      33.103  34.706  28.555  1.00  0.00     0.251 C 
ATOM     28  H   UNL A   1      31.663  34.090  27.314  1.00  0.00     0.163 HD
ATOM     29  O   UNL A   1      32.593  35.807  28.692  1.00  0.00    -0.269 OA
BRANCH  27  30
ATOM     30  C   UNL A   1      34.308  34.355  29.344  1.00  0.00     0.039 A 
ATOM     31  C   UNL A   1      34.107  33.856  30.634  1.00  0.00     0.014 A 
ATOM     32  C   UNL A   1      35.606  34.512  28.855  1.00  0.00     0.014 A 
ATOM     33  C   UNL A   1      35.195  33.420  31.394  1.00  0.00     0.010 A 
ATOM     34  C   UNL A   1      36.690  34.022  29.592  1.00  0.00     0.010 A 
ATOM     35  C   UNL A   1      36.493  33.443  30.858  1.00  0.00    -0.014 A 
BRANCH  35  36
ATOM     36  C   UNL A   1      37.623  32.789  31.577  1.00  0.00     0.031 A 
ATOM     37  C   UNL A   1      38.295  31.562  31.024  1.00  0.00     0.074 A 
ATOM     38  C   UNL A   1      38.008  33.277  32.776  1.00  0.00     0.049 A 
ATOM     39  N   UNL A   1      39.255  30.841  31.547  1.00  0.00    -0.248 NA
ATOM     40  C   UNL A   1      37.817  31.070  29.723  1.00  0.00     0.031 C 
ATOM     41  C   UNL A   1      37.419  34.441  33.443  1.00  0.00     0.029 A 
ATOM     42  N   UNL A   1      38.978  32.853  33.653  1.00  0.00    -0.354 N 
ATOM     43  C   UNL A   1      39.488  29.805  30.651  1.00  0.00     0.074 A 
ATOM     44  C   UNL A   1      38.540  29.969  29.569  1.00  0.00     0.031 C 
ATOM     45  C   UNL A   1      38.054  34.653  34.606  1.00  0.00     0.029 A 
ATOM     46  C   UNL A   1      39.059  33.613  34.797  1.00  0.00     0.049 A 
ATOM     47  H   UNL A   1      39.560  32.078  33.478  1.00  0.00     0.167 HD
ATOM     48  C   UNL A   1      40.414  28.817  30.715  1.00  0.00     0.031 A 
ATOM     49  C   UNL A   1      39.841  33.485  35.889  1.00  0.00     0.031 A 
ATOM     50  C   UNL A   1      41.353  28.653  31.796  1.00  0.00     0.049 A 
ATOM     51  C   UNL A   1      40.834  32.358  35.951  1.00  0.00     0.074 A 
ATOM     52  C   UNL A   1      42.363  27.713  31.924  1.00  0.00     0.029 A 
ATOM     53  N   UNL A   1      41.397  29.438  32.939  1.00  0.00    -0.354 N 
ATOM     54  N   UNL A   1      41.085  31.430  35.059  1.00  0.00    -0.248 NA
ATOM     55  C   UNL A   1      41.656  32.265  37.166  1.00  0.00     0.031 C 
ATOM     56  C   UNL A   1      42.971  27.888  33.170  1.00  0.00     0.029 A 
ATOM     57  C   UNL A   1      42.390  28.982  33.792  1.00  0.00     0.049 A 
ATOM     58  H   UNL A   1      40.809  30.206  33.118  1.00  0.00     0.167 HD
ATOM     59  C   UNL A   1      42.109  30.656  35.596  1.00  0.00     0.074 A 
ATOM     60  C   UNL A   1      42.444  31.239  36.879  1.00  0.00     0.031 C 
ATOM     61  C   UNL A   1      42.713  29.562  35.072  1.00  0.00     0.031 A 
BRANCH  48  62
ATOM     62  C   UNL A   1      40.450  27.815  29.586  1.00  0.00    -0.014 A 
ATOM     63  C   UNL A   1      41.392  27.923  28.547  1.00  0.00     0.010 A 
ATOM     64  C   UNL A   1      39.564  26.722  29.593  1.00  0.00     0.010 A 
ATOM     65  C   UNL A   1      41.418  26.981  27.514  1.00  0.00     0.020 A 
ATOM     66  C   UNL A   1      39.608  25.760  28.578  1.00  0.00     0.020 A 
ATOM     67  C   UNL A   1      40.525  25.906  27.535  1.00  0.00     0.054 A 
BRANCH  67  68
ATOM     68  S   UNL A   1      40.598  24.689  26.193  1.00  0.00     0.124 S 
ATOM     69  O   UNL A   1      41.456  23.655  26.770  1.00  0.00    -0.237 OA
ATOM     70  O   UNL A   1      39.196  24.316  26.023  1.00  0.00    -0.237 OA
ATOM     71  O   UNL A   1      41.182  25.432  25.079  1.00  0.00    -0.744 OA
ENDBRANCH  67  68
ENDBRANCH  48  62
BRANCH  49  72
ATOM     72  C   UNL A   1      39.711  34.452  37.015  1.00  0.00    -0.014 A 
ATOM     73  C   UNL A   1      40.339  35.708  36.957  1.00  0.00     0.010 A 
ATOM     74  C   UNL A   1      38.948  34.123  38.152  1.00  0.00     0.010 A 
ATOM     75  C   UNL A   1      40.221  36.610  38.019  1.00  0.00     0.020 A 
ATOM     76  C   UNL A   1      38.801  35.034  39.201  1.00  0.00     0.020 A 
ATOM     77  C   UNL A   1      39.448  36.268  39.133  1.00  0.00     0.054 A 
BRANCH  77  78
ATOM     78  S   UNL A   1      39.266  37.477  40.474  1.00  0.00     0.124 S 
ATOM     79  O   UNL A   1      38.857  36.632  41.592  1.00  0.00    -0.237 OA
ATOM     80  O   UNL A   1      40.608  38.046  40.568  1.00  0.00    -0.237 OA
ATOM     81  O   UNL A   1      38.244  38.393  39.973  1.00  0.00    -0.744 OA
ENDBRANCH  77  78
ENDBRANCH  49  72
BRANCH  61  82
ATOM     82  C   UNL A   1      43.820  28.929  35.875  1.00  0.00    -0.014 A 
ATOM     83  C   UNL A   1      43.571  27.848  36.739  1.00  0.00     0.010 A 
ATOM     84  C   UNL A   1      45.141  29.395  35.726  1.00  0.00     0.010 A 
ATOM     85  C   UNL A   1      44.615  27.265  37.463  1.00  0.00     0.020 A 
ATOM     86  C   UNL A   1      46.192  28.794  36.425  1.00  0.00     0.020 A 
ATOM     87  C   UNL A   1      45.920  27.741  37.300  1.00  0.00     0.054 A 
BRANCH  87  88
ATOM     88  S   UNL A   1      47.262  26.938  38.218  1.00  0.00     0.124 S 
ATOM     89  O   UNL A   1      46.871  25.532  38.164  1.00  0.00    -0.237 OA
ATOM     90  O   UNL A   1      48.443  27.292  37.432  1.00  0.00    -0.237 OA
ATOM     91  O   UNL A   1      47.195  27.553  39.542  1.00  0.00    -0.744 OA
ENDBRANCH  87  88
ENDBRANCH  61  82
ENDBRANCH  35  36
ENDBRANCH  27  30
ENDBRANCH  25  26
ENDBRANCH   1  25
TORSDOF 16
ENDMDL
