MODEL 1
REMARK VINA RESULT:     -12.1      0.000      0.000
REMARK SMILES Cc1c(Cl)cc2c(c1C)O[C@H](C(F)(F)F)C(C(=O)NCCCNC(=O)c1ccc(-c3c4nc(c(-c5ccc(S(=O)(=O)[O-])cc5)c5ccc([nH]5)c(-c5ccc(S(=O)(=O)[O-])cc5)c5nc(c(-c6ccc(S(=O)(=O)[O-])cc6)c6ccc3[nH]6)C=C5)C=C4)cc1)=C2
REMARK SMILES IDX 22 1 21 2 20 3 19 4 17 5 18 6 16 8 1 9 2 10 3 11 8 12 4 13
REMARK SMILES IDX 5 14 7 15 9 16 6 17 10 18 86 19 11 20 12 21 13 22 14 23
REMARK SMILES IDX 15 24 23 25 24 26 25 28 26 29 27 30 85 31 28 32 84 33 29 34
REMARK SMILES IDX 30 35 31 36 78 37 32 38 83 39 77 40 79 41 33 42 82 43 76 44
REMARK SMILES IDX 75 45 34 47 64 48 45 49 63 50 46 51 49 52 62 53 80 54 47 55
REMARK SMILES IDX 48 56 61 58 81 59 50 60 35 61 36 62 44 63 37 64 43 65 38 66
REMARK SMILES IDX 39 67 40 68 41 69 42 70 65 71 66 72 74 73 67 74 73 75 68 76
REMARK SMILES IDX 69 77 70 78 71 79 72 80 51 81 52 82 60 83 53 84 59 85 54 86
REMARK SMILES IDX 55 87 56 88 57 89 58 90
REMARK H PARENT 19 7 23 27 79 46 49 57
REMARK Flexibility Score: inf
ROOT
ATOM      1  C   UNL A   1      33.653  28.202  26.847  1.00  0.00     0.118 C 
ENDROOT
BRANCH   1   2
ATOM      2  C   UNL A   1      33.941  27.851  25.393  1.00  0.00     0.042 C 
BRANCH   2   3
ATOM      3  C   UNL A   1      32.691  27.389  24.659  1.00  0.00     0.118 C 
BRANCH   3   4
ATOM      4  N   UNL A   1      31.749  26.732  25.554  1.00  0.00    -0.352 N 
ATOM      5  C   UNL A   1      31.544  25.487  26.042  1.00  0.00     0.251 C 
ATOM      6  O   UNL A   1      30.578  25.373  26.803  1.00  0.00    -0.270 OA
ATOM      7  H   UNL A   1      31.079  27.366  25.898  1.00  0.00     0.163 HD
BRANCH   5   8
ATOM      8  C   UNL A   1      32.386  24.296  25.737  1.00  0.00     0.067 C 
ATOM      9  C   UNL A   1      37.116  19.866  24.907  1.00  0.00     0.046 C 
ATOM     10  C   UNL A   1      36.232  21.042  25.235  1.00  0.00    -0.026 A 
ATOM     11  C   UNL A   1      36.763  22.258  25.715  1.00  0.00     0.045 A 
ATOM     12  C   UNL A   1      34.828  20.927  25.094  1.00  0.00    -0.004 A 
ATOM     13  Cl  UNL A   1      38.459  22.491  25.974  1.00  0.00    -0.084 Cl
ATOM     14  C   UNL A   1      35.932  23.345  26.014  1.00  0.00     0.032 A 
ATOM     15  C   UNL A   1      34.016  22.041  25.378  1.00  0.00     0.131 A 
ATOM     16  C   UNL A   1      34.153  19.665  24.611  1.00  0.00     0.049 C 
ATOM     17  C   UNL A   1      34.555  23.242  25.836  1.00  0.00     0.019 A 
ATOM     18  O   UNL A   1      32.664  21.881  25.227  1.00  0.00    -0.475 OA
ATOM     19  C   UNL A   1      33.666  24.358  26.147  1.00  0.00     0.025 C 
ATOM     20  C   UNL A   1      31.900  23.090  24.986  1.00  0.00     0.314 C 
BRANCH  20  21
ATOM     21  C   UNL A   1      31.800  23.338  23.468  1.00  0.00     0.429 C 
ATOM     22  F   UNL A   1      30.544  23.725  23.129  1.00  0.00    -0.167 F 
ATOM     23  F   UNL A   1      32.631  24.319  23.043  1.00  0.00    -0.167 F 
ATOM     24  F   UNL A   1      32.093  22.238  22.737  1.00  0.00    -0.167 F 
ENDBRANCH  20  21
ENDBRANCH   5   8
ENDBRANCH   3   4
ENDBRANCH   2   3
ENDBRANCH   1   2
BRANCH   1  25
ATOM     25  N   UNL A   1      33.497  29.643  27.033  1.00  0.00    -0.352 N 
ATOM     26  C   UNL A   1      34.271  30.530  27.738  1.00  0.00     0.251 C 
ATOM     27  H   UNL A   1      32.715  30.038  26.584  1.00  0.00     0.163 HD
ATOM     28  O   UNL A   1      33.817  31.636  28.027  1.00  0.00    -0.269 OA
BRANCH  26  29
ATOM     29  C   UNL A   1      35.638  30.155  28.150  1.00  0.00     0.039 A 
ATOM     30  C   UNL A   1      35.866  29.699  29.450  1.00  0.00     0.014 A 
ATOM     31  C   UNL A   1      36.701  30.283  27.253  1.00  0.00     0.014 A 
ATOM     32  C   UNL A   1      37.154  29.312  29.826  1.00  0.00     0.010 A 
ATOM     33  C   UNL A   1      37.957  29.803  27.596  1.00  0.00     0.010 A 
ATOM     34  C   UNL A   1      38.202  29.332  28.892  1.00  0.00    -0.014 A 
BRANCH  34  35
ATOM     35  C   UNL A   1      39.572  28.901  29.258  1.00  0.00     0.031 A 
ATOM     36  C   UNL A   1      40.447  29.811  30.078  1.00  0.00     0.074 A 
ATOM     37  C   UNL A   1      40.040  27.716  28.821  1.00  0.00     0.049 A 
ATOM     38  N   UNL A   1      41.678  29.628  30.480  1.00  0.00    -0.248 NA
ATOM     39  C   UNL A   1      39.873  31.108  30.476  1.00  0.00     0.031 C 
ATOM     40  C   UNL A   1      39.296  26.764  27.995  1.00  0.00     0.029 A 
ATOM     41  N   UNL A   1      41.251  27.105  29.024  1.00  0.00    -0.354 N 
ATOM     42  C   UNL A   1      42.021  30.781  31.175  1.00  0.00     0.074 A 
ATOM     43  C   UNL A   1      40.902  31.690  31.071  1.00  0.00     0.031 C 
ATOM     44  C   UNL A   1      40.041  25.663  27.815  1.00  0.00     0.029 A 
ATOM     45  C   UNL A   1      41.330  25.847  28.474  1.00  0.00     0.049 A 
ATOM     46  H   UNL A   1      41.991  27.526  29.517  1.00  0.00     0.167 HD
ATOM     47  C   UNL A   1      43.150  31.048  31.872  1.00  0.00     0.031 A 
ATOM     48  C   UNL A   1      42.325  24.940  28.511  1.00  0.00     0.031 A 
ATOM     49  C   UNL A   1      44.258  30.141  31.978  1.00  0.00     0.049 A 
ATOM     50  C   UNL A   1      43.592  25.275  29.246  1.00  0.00     0.074 A 
ATOM     51  C   UNL A   1      45.439  30.300  32.678  1.00  0.00     0.029 A 
ATOM     52  N   UNL A   1      44.316  28.897  31.365  1.00  0.00    -0.354 N 
ATOM     53  N   UNL A   1      43.884  26.356  29.929  1.00  0.00    -0.248 NA
ATOM     54  C   UNL A   1      44.664  24.271  29.214  1.00  0.00     0.031 C 
ATOM     55  C   UNL A   1      46.231  29.169  32.455  1.00  0.00     0.029 A 
ATOM     56  C   UNL A   1      45.523  28.285  31.654  1.00  0.00     0.049 A 
ATOM     57  H   UNL A   1      43.604  28.507  30.810  1.00  0.00     0.167 HD
ATOM     58  C   UNL A   1      45.168  26.157  30.423  1.00  0.00     0.074 A 
ATOM     59  C   UNL A   1      45.592  24.847  29.969  1.00  0.00     0.031 C 
ATOM     60  C   UNL A   1      45.926  26.983  31.183  1.00  0.00     0.031 A 
BRANCH  47  61
ATOM     61  C   UNL A   1      43.218  32.375  32.581  1.00  0.00    -0.014 A 
ATOM     62  C   UNL A   1      42.727  32.512  33.893  1.00  0.00     0.010 A 
ATOM     63  C   UNL A   1      43.766  33.497  31.934  1.00  0.00     0.010 A 
ATOM     64  C   UNL A   1      42.725  33.759  34.523  1.00  0.00     0.020 A 
ATOM     65  C   UNL A   1      43.793  34.741  32.573  1.00  0.00     0.020 A 
ATOM     66  C   UNL A   1      43.249  34.867  33.854  1.00  0.00     0.054 A 
BRANCH  66  67
ATOM     67  S   UNL A   1      43.217  36.477  34.690  1.00  0.00     0.124 S 
ATOM     68  O   UNL A   1      43.014  37.392  33.570  1.00  0.00    -0.237 OA
ATOM     69  O   UNL A   1      42.084  36.341  35.602  1.00  0.00    -0.237 OA
ATOM     70  O   UNL A   1      44.526  36.561  35.333  1.00  0.00    -0.744 OA
ENDBRANCH  66  67
ENDBRANCH  47  61
BRANCH  48  71
ATOM     71  C   UNL A   1      42.126  23.608  27.880  1.00  0.00    -0.014 A 
ATOM     72  C   UNL A   1      42.700  23.338  26.625  1.00  0.00     0.010 A 
ATOM     73  C   UNL A   1      41.423  22.588  28.546  1.00  0.00     0.010 A 
ATOM     74  C   UNL A   1      42.581  22.069  26.051  1.00  0.00     0.020 A 
ATOM     75  C   UNL A   1      41.322  21.311  27.985  1.00  0.00     0.020 A 
ATOM     76  C   UNL A   1      41.901  21.061  26.739  1.00  0.00     0.054 A 
BRANCH  76  77
ATOM     77  S   UNL A   1      41.840  19.399  26.011  1.00  0.00     0.124 S 
ATOM     78  O   UNL A   1      42.750  19.531  24.877  1.00  0.00    -0.237 OA
ATOM     79  O   UNL A   1      42.311  18.558  27.108  1.00  0.00    -0.237 OA
ATOM     80  O   UNL A   1      40.430  19.228  25.666  1.00  0.00    -0.744 OA
ENDBRANCH  76  77
ENDBRANCH  48  71
BRANCH  60  81
ATOM     81  C   UNL A   1      47.297  26.508  31.577  1.00  0.00    -0.014 A 
ATOM     82  C   UNL A   1      47.487  25.773  32.760  1.00  0.00     0.010 A 
ATOM     83  C   UNL A   1      48.381  26.700  30.701  1.00  0.00     0.010 A 
ATOM     84  C   UNL A   1      48.740  25.236  33.060  1.00  0.00     0.020 A 
ATOM     85  C   UNL A   1      49.630  26.145  30.988  1.00  0.00     0.020 A 
ATOM     86  C   UNL A   1      49.802  25.417  32.167  1.00  0.00     0.054 A 
BRANCH  86  87
ATOM     87  S   UNL A   1      51.391  24.626  32.538  1.00  0.00     0.124 S 
ATOM     88  O   UNL A   1      52.319  25.415  31.734  1.00  0.00    -0.237 OA
ATOM     89  O   UNL A   1      51.504  24.803  33.984  1.00  0.00    -0.237 OA
ATOM     90  O   UNL A   1      51.204  23.246  32.099  1.00  0.00    -0.744 OA
ENDBRANCH  86  87
ENDBRANCH  60  81
ENDBRANCH  34  35
ENDBRANCH  26  29
ENDBRANCH   1  25
TORSDOF 14
ENDMDL
MODEL 2
REMARK VINA RESULT:     -12.1      2.873      9.411
REMARK SMILES Cc1c(Cl)cc2c(c1C)O[C@H](C(F)(F)F)C(C(=O)NCCCNC(=O)c1ccc(-c3c4nc(c(-c5ccc(S(=O)(=O)[O-])cc5)c5ccc([nH]5)c(-c5ccc(S(=O)(=O)[O-])cc5)c5nc(c(-c6ccc(S(=O)(=O)[O-])cc6)c6ccc3[nH]6)C=C5)C=C4)cc1)=C2
REMARK SMILES IDX 22 1 21 2 20 3 19 4 17 5 18 6 16 8 1 9 2 10 3 11 8 12 4 13
REMARK SMILES IDX 5 14 7 15 9 16 6 17 10 18 86 19 11 20 12 21 13 22 14 23
REMARK SMILES IDX 15 24 23 25 24 26 25 28 26 29 27 30 85 31 28 32 84 33 29 34
REMARK SMILES IDX 30 35 31 36 78 37 32 38 83 39 77 40 79 41 33 42 82 43 76 44
REMARK SMILES IDX 75 45 34 47 64 48 45 49 63 50 46 51 49 52 62 53 80 54 47 55
REMARK SMILES IDX 48 56 61 58 81 59 50 60 35 61 36 62 44 63 37 64 43 65 38 66
REMARK SMILES IDX 39 67 40 68 41 69 42 70 65 71 66 72 74 73 67 74 73 75 68 76
REMARK SMILES IDX 69 77 70 78 71 79 72 80 51 81 52 82 60 83 53 84 59 85 54 86
REMARK SMILES IDX 55 87 56 88 57 89 58 90
REMARK H PARENT 19 7 23 27 79 46 49 57
REMARK Flexibility Score: inf
ROOT
ATOM      1  C   UNL A   1      36.286  23.730  25.794  1.00  0.00     0.118 C 
ENDROOT
BRANCH   1   2
ATOM      2  C   UNL A   1      35.069  23.339  26.622  1.00  0.00     0.042 C 
BRANCH   2   3
ATOM      3  C   UNL A   1      33.883  22.956  25.749  1.00  0.00     0.118 C 
BRANCH   3   4
ATOM      4  N   UNL A   1      34.131  23.243  24.343  1.00  0.00    -0.352 N 
ATOM      5  C   UNL A   1      33.893  24.256  23.479  1.00  0.00     0.251 C 
ATOM      6  O   UNL A   1      34.288  24.066  22.324  1.00  0.00    -0.270 OA
ATOM      7  H   UNL A   1      34.599  22.499  23.902  1.00  0.00     0.163 HD
BRANCH   5   8
ATOM      8  C   UNL A   1      33.220  25.541  23.825  1.00  0.00     0.067 C 
ATOM      9  C   UNL A   1      31.383  31.354  26.172  1.00  0.00     0.046 C 
ATOM     10  C   UNL A   1      32.055  30.065  25.776  1.00  0.00    -0.026 A 
ATOM     11  C   UNL A   1      33.244  29.627  26.395  1.00  0.00     0.045 A 
ATOM     12  C   UNL A   1      31.506  29.277  24.734  1.00  0.00    -0.004 A 
ATOM     13  Cl  UNL A   1      34.028  30.536  27.644  1.00  0.00    -0.084 Cl
ATOM     14  C   UNL A   1      33.858  28.425  26.021  1.00  0.00     0.032 A 
ATOM     15  C   UNL A   1      32.128  28.062  24.393  1.00  0.00     0.131 A 
ATOM     16  C   UNL A   1      30.251  29.663  23.989  1.00  0.00     0.049 C 
ATOM     17  C   UNL A   1      33.295  27.633  25.024  1.00  0.00     0.019 A 
ATOM     18  O   UNL A   1      31.562  27.336  23.379  1.00  0.00    -0.475 OA
ATOM     19  C   UNL A   1      33.919  26.380  24.611  1.00  0.00     0.025 C 
ATOM     20  C   UNL A   1      31.833  25.910  23.385  1.00  0.00     0.314 C 
BRANCH  20  21
ATOM     21  C   UNL A   1      30.740  25.185  24.194  1.00  0.00     0.429 C 
ATOM     22  F   UNL A   1      30.391  24.022  23.589  1.00  0.00    -0.167 F 
ATOM     23  F   UNL A   1      31.147  24.860  25.444  1.00  0.00    -0.167 F 
ATOM     24  F   UNL A   1      29.614  25.922  24.332  1.00  0.00    -0.167 F 
ENDBRANCH  20  21
ENDBRANCH   5   8
ENDBRANCH   3   4
ENDBRANCH   2   3
ENDBRANCH   1   2
BRANCH   1  25
ATOM     25  N   UNL A   1      37.334  22.713  25.859  1.00  0.00    -0.352 N 
ATOM     26  C   UNL A   1      38.670  22.842  26.142  1.00  0.00     0.251 C 
ATOM     27  H   UNL A   1      37.034  21.795  25.670  1.00  0.00     0.163 HD
ATOM     28  O   UNL A   1      39.442  21.928  25.855  1.00  0.00    -0.269 OA
BRANCH  26  29
ATOM     29  C   UNL A   1      39.176  24.070  26.785  1.00  0.00     0.039 A 
ATOM     30  C   UNL A   1      39.926  24.980  26.037  1.00  0.00     0.014 A 
ATOM     31  C   UNL A   1      38.931  24.307  28.139  1.00  0.00     0.014 A 
ATOM     32  C   UNL A   1      40.375  26.159  26.638  1.00  0.00     0.010 A 
ATOM     33  C   UNL A   1      39.288  25.522  28.706  1.00  0.00     0.010 A 
ATOM     34  C   UNL A   1      40.031  26.452  27.968  1.00  0.00    -0.014 A 
BRANCH  34  35
ATOM     35  C   UNL A   1      40.471  27.707  28.621  1.00  0.00     0.031 A 
ATOM     36  C   UNL A   1      41.891  27.842  29.100  1.00  0.00     0.074 A 
ATOM     37  C   UNL A   1      39.588  28.705  28.818  1.00  0.00     0.049 A 
ATOM     38  N   UNL A   1      42.463  28.846  29.713  1.00  0.00    -0.248 NA
ATOM     39  C   UNL A   1      42.781  26.687  28.885  1.00  0.00     0.031 C 
ATOM     40  C   UNL A   1      38.178  28.677  28.424  1.00  0.00     0.029 A 
ATOM     41  N   UNL A   1      39.750  29.942  29.387  1.00  0.00    -0.354 N 
ATOM     42  C   UNL A   1      43.770  28.444  29.955  1.00  0.00     0.074 A 
ATOM     43  C   UNL A   1      43.887  27.077  29.498  1.00  0.00     0.031 C 
ATOM     44  C   UNL A   1      37.620  29.865  28.706  1.00  0.00     0.029 A 
ATOM     45  C   UNL A   1      38.619  30.722  29.337  1.00  0.00     0.049 A 
ATOM     46  H   UNL A   1      40.596  30.243  29.790  1.00  0.00     0.167 HD
ATOM     47  C   UNL A   1      44.796  29.157  30.475  1.00  0.00     0.031 A 
ATOM     48  C   UNL A   1      38.415  31.990  29.742  1.00  0.00     0.031 A 
ATOM     49  C   UNL A   1      44.679  30.516  30.923  1.00  0.00     0.049 A 
ATOM     50  C   UNL A   1      39.552  32.749  30.365  1.00  0.00     0.074 A 
ATOM     51  C   UNL A   1      45.659  31.341  31.443  1.00  0.00     0.029 A 
ATOM     52  N   UNL A   1      43.503  31.253  30.900  1.00  0.00    -0.354 N 
ATOM     53  N   UNL A   1      40.792  32.365  30.552  1.00  0.00    -0.248 NA
ATOM     54  C   UNL A   1      39.263  34.111  30.835  1.00  0.00     0.031 C 
ATOM     55  C   UNL A   1      45.066  32.564  31.773  1.00  0.00     0.029 A 
ATOM     56  C   UNL A   1      43.727  32.517  31.415  1.00  0.00     0.049 A 
ATOM     57  H   UNL A   1      42.638  30.925  30.564  1.00  0.00     0.167 HD
ATOM     58  C   UNL A   1      41.438  33.442  31.145  1.00  0.00     0.074 A 
ATOM     59  C   UNL A   1      40.454  34.499  31.277  1.00  0.00     0.031 C 
ATOM     60  C   UNL A   1      42.728  33.548  31.544  1.00  0.00     0.031 A 
BRANCH  47  61
ATOM     61  C   UNL A   1      46.132  28.468  30.564  1.00  0.00    -0.014 A 
ATOM     62  C   UNL A   1      47.049  28.542  29.499  1.00  0.00     0.010 A 
ATOM     63  C   UNL A   1      46.476  27.734  31.713  1.00  0.00     0.010 A 
ATOM     64  C   UNL A   1      48.257  27.843  29.553  1.00  0.00     0.020 A 
ATOM     65  C   UNL A   1      47.698  27.058  31.784  1.00  0.00     0.020 A 
ATOM     66  C   UNL A   1      48.569  27.097  30.692  1.00  0.00     0.054 A 
BRANCH  66  67
ATOM     67  S   UNL A   1      50.137  26.187  30.727  1.00  0.00     0.124 S 
ATOM     68  O   UNL A   1      50.094  25.468  29.457  1.00  0.00    -0.237 OA
ATOM     69  O   UNL A   1      51.128  27.257  30.809  1.00  0.00    -0.237 OA
ATOM     70  O   UNL A   1      50.027  25.351  31.920  1.00  0.00    -0.744 OA
ENDBRANCH  66  67
ENDBRANCH  47  61
BRANCH  48  71
ATOM     71  C   UNL A   1      37.093  32.630  29.510  1.00  0.00    -0.014 A 
ATOM     72  C   UNL A   1      36.178  32.749  30.570  1.00  0.00     0.010 A 
ATOM     73  C   UNL A   1      36.763  33.178  28.256  1.00  0.00     0.010 A 
ATOM     74  C   UNL A   1      34.960  33.411  30.385  1.00  0.00     0.020 A 
ATOM     75  C   UNL A   1      35.556  33.860  28.073  1.00  0.00     0.020 A 
ATOM     76  C   UNL A   1      34.662  33.970  29.140  1.00  0.00     0.054 A 
BRANCH  76  77
ATOM     77  S   UNL A   1      33.114  34.900  28.954  1.00  0.00     0.124 S 
ATOM     78  O   UNL A   1      32.400  34.105  27.958  1.00  0.00    -0.237 OA
ATOM     79  O   UNL A   1      32.563  34.866  30.306  1.00  0.00    -0.237 OA
ATOM     80  O   UNL A   1      33.558  36.217  28.503  1.00  0.00    -0.744 OA
ENDBRANCH  76  77
ENDBRANCH  48  71
BRANCH  60  81
ATOM     81  C   UNL A   1      43.163  34.847  32.167  1.00  0.00    -0.014 A 
ATOM     82  C   UNL A   1      43.657  35.893  31.368  1.00  0.00     0.010 A 
ATOM     83  C   UNL A   1      42.967  35.060  33.543  1.00  0.00     0.010 A 
ATOM     84  C   UNL A   1      43.949  37.133  31.938  1.00  0.00     0.020 A 
ATOM     85  C   UNL A   1      43.237  36.308  34.111  1.00  0.00     0.020 A 
ATOM     86  C   UNL A   1      43.728  37.337  33.304  1.00  0.00     0.054 A 
BRANCH  86  87
ATOM     87  S   UNL A   1      44.025  38.987  33.995  1.00  0.00     0.124 S 
ATOM     88  O   UNL A   1      42.853  39.726  33.536  1.00  0.00    -0.237 OA
ATOM     89  O   UNL A   1      44.081  38.725  35.431  1.00  0.00    -0.237 OA
ATOM     90  O   UNL A   1      45.292  39.393  33.392  1.00  0.00    -0.744 OA
ENDBRANCH  86  87
ENDBRANCH  60  81
ENDBRANCH  34  35
ENDBRANCH  26  29
ENDBRANCH   1  25
TORSDOF 14
ENDMDL
MODEL 3
REMARK VINA RESULT:     -11.6      4.502     10.900
REMARK SMILES Cc1c(Cl)cc2c(c1C)O[C@H](C(F)(F)F)C(C(=O)NCCCNC(=O)c1ccc(-c3c4nc(c(-c5ccc(S(=O)(=O)[O-])cc5)c5ccc([nH]5)c(-c5ccc(S(=O)(=O)[O-])cc5)c5nc(c(-c6ccc(S(=O)(=O)[O-])cc6)c6ccc3[nH]6)C=C5)C=C4)cc1)=C2
REMARK SMILES IDX 22 1 21 2 20 3 19 4 17 5 18 6 16 8 1 9 2 10 3 11 8 12 4 13
REMARK SMILES IDX 5 14 7 15 9 16 6 17 10 18 86 19 11 20 12 21 13 22 14 23
REMARK SMILES IDX 15 24 23 25 24 26 25 28 26 29 27 30 85 31 28 32 84 33 29 34
REMARK SMILES IDX 30 35 31 36 78 37 32 38 83 39 77 40 79 41 33 42 82 43 76 44
REMARK SMILES IDX 75 45 34 47 64 48 45 49 63 50 46 51 49 52 62 53 80 54 47 55
REMARK SMILES IDX 48 56 61 58 81 59 50 60 35 61 36 62 44 63 37 64 43 65 38 66
REMARK SMILES IDX 39 67 40 68 41 69 42 70 65 71 66 72 74 73 67 74 73 75 68 76
REMARK SMILES IDX 69 77 70 78 71 79 72 80 51 81 52 82 60 83 53 84 59 85 54 86
REMARK SMILES IDX 55 87 56 88 57 89 58 90
REMARK H PARENT 19 7 23 27 79 46 49 57
REMARK Flexibility Score: inf
ROOT
ATOM      1  C   UNL A   1      40.557  21.543  27.413  1.00  0.00     0.118 C 
ENDROOT
BRANCH   1   2
ATOM      2  C   UNL A   1      40.798  20.052  27.615  1.00  0.00     0.042 C 
BRANCH   2   3
ATOM      3  C   UNL A   1      42.280  19.711  27.633  1.00  0.00     0.118 C 
BRANCH   3   4
ATOM      4  N   UNL A   1      42.781  19.400  26.302  1.00  0.00    -0.352 N 
ATOM      5  C   UNL A   1      43.558  19.997  25.369  1.00  0.00     0.251 C 
ATOM      6  O   UNL A   1      43.727  19.346  24.332  1.00  0.00    -0.270 OA
ATOM      7  H   UNL A   1      42.472  18.517  25.999  1.00  0.00     0.163 HD
BRANCH   5   8
ATOM      8  C   UNL A   1      44.205  21.332  25.514  1.00  0.00     0.067 C 
ATOM      9  C   UNL A   1      45.757  27.668  25.857  1.00  0.00     0.046 C 
ATOM     10  C   UNL A   1      45.125  26.305  25.751  1.00  0.00    -0.026 A 
ATOM     11  C   UNL A   1      43.782  26.138  25.354  1.00  0.00     0.045 A 
ATOM     12  C   UNL A   1      45.878  25.153  26.086  1.00  0.00    -0.004 A 
ATOM     13  Cl  UNL A   1      42.755  27.479  24.972  1.00  0.00    -0.084 Cl
ATOM     14  C   UNL A   1      43.206  24.865  25.256  1.00  0.00     0.032 A 
ATOM     15  C   UNL A   1      45.285  23.883  25.956  1.00  0.00     0.131 A 
ATOM     16  C   UNL A   1      47.316  25.217  26.544  1.00  0.00     0.049 C 
ATOM     17  C   UNL A   1      43.960  23.732  25.547  1.00  0.00     0.019 A 
ATOM     18  O   UNL A   1      46.052  22.800  26.291  1.00  0.00    -0.475 OA
ATOM     19  C   UNL A   1      43.382  22.395  25.459  1.00  0.00     0.025 C 
ATOM     20  C   UNL A   1      45.683  21.539  25.674  1.00  0.00     0.314 C 
BRANCH  20  21
ATOM     21  C   UNL A   1      46.453  21.373  24.349  1.00  0.00     0.429 C 
ATOM     22  F   UNL A   1      47.225  20.259  24.382  1.00  0.00    -0.167 F 
ATOM     23  F   UNL A   1      45.630  21.238  23.282  1.00  0.00    -0.167 F 
ATOM     24  F   UNL A   1      47.266  22.421  24.081  1.00  0.00    -0.167 F 
ENDBRANCH  20  21
ENDBRANCH   5   8
ENDBRANCH   3   4
ENDBRANCH   2   3
ENDBRANCH   1   2
BRANCH   1  25
ATOM     25  N   UNL A   1      39.477  21.792  26.461  1.00  0.00    -0.352 N 
ATOM     26  C   UNL A   1      38.690  22.903  26.292  1.00  0.00     0.251 C 
ATOM     27  H   UNL A   1      39.285  21.048  25.847  1.00  0.00     0.163 HD
ATOM     28  O   UNL A   1      37.645  22.814  25.649  1.00  0.00    -0.269 OA
BRANCH  26  29
ATOM     29  C   UNL A   1      39.094  24.194  26.881  1.00  0.00     0.039 A 
ATOM     30  C   UNL A   1      38.809  24.459  28.222  1.00  0.00     0.014 A 
ATOM     31  C   UNL A   1      39.733  25.156  26.095  1.00  0.00     0.014 A 
ATOM     32  C   UNL A   1      39.223  25.667  28.787  1.00  0.00     0.010 A 
ATOM     33  C   UNL A   1      40.233  26.309  26.683  1.00  0.00     0.010 A 
ATOM     34  C   UNL A   1      39.966  26.587  28.029  1.00  0.00    -0.014 A 
BRANCH  34  35
ATOM     35  C   UNL A   1      40.440  27.865  28.612  1.00  0.00     0.031 A 
ATOM     36  C   UNL A   1      41.886  28.018  28.999  1.00  0.00     0.074 A 
ATOM     37  C   UNL A   1      39.567  28.866  28.828  1.00  0.00     0.049 A 
ATOM     38  N   UNL A   1      42.490  29.043  29.542  1.00  0.00    -0.248 NA
ATOM     39  C   UNL A   1      42.765  26.858  28.769  1.00  0.00     0.031 C 
ATOM     40  C   UNL A   1      38.136  28.823  28.522  1.00  0.00     0.029 A 
ATOM     41  N   UNL A   1      39.758  30.123  29.344  1.00  0.00    -0.354 N 
ATOM     42  C   UNL A   1      43.811  28.652  29.718  1.00  0.00     0.074 A 
ATOM     43  C   UNL A   1      43.905  27.271  29.300  1.00  0.00     0.031 C 
ATOM     44  C   UNL A   1      37.591  30.019  28.796  1.00  0.00     0.029 A 
ATOM     45  C   UNL A   1      38.623  30.899  29.337  1.00  0.00     0.049 A 
ATOM     46  H   UNL A   1      40.626  30.439  29.685  1.00  0.00     0.167 HD
ATOM     47  C   UNL A   1      44.864  29.384  30.150  1.00  0.00     0.031 A 
ATOM     48  C   UNL A   1      38.439  32.179  29.711  1.00  0.00     0.031 A 
ATOM     49  C   UNL A   1      44.769  30.757  30.559  1.00  0.00     0.049 A 
ATOM     50  C   UNL A   1      39.609  32.961  30.238  1.00  0.00     0.074 A 
ATOM     51  C   UNL A   1      45.775  31.601  30.990  1.00  0.00     0.029 A 
ATOM     52  N   UNL A   1      43.590  31.490  30.582  1.00  0.00    -0.354 N 
ATOM     53  N   UNL A   1      40.859  32.585  30.362  1.00  0.00    -0.248 NA
ATOM     54  C   UNL A   1      39.344  34.337  30.678  1.00  0.00     0.031 C 
ATOM     55  C   UNL A   1      45.198  32.833  31.315  1.00  0.00     0.029 A 
ATOM     56  C   UNL A   1      43.841  32.771  31.040  1.00  0.00     0.049 A 
ATOM     57  H   UNL A   1      42.708  31.150  30.311  1.00  0.00     0.167 HD
ATOM     58  C   UNL A   1      41.536  33.683  30.878  1.00  0.00     0.074 A 
ATOM     59  C   UNL A   1      40.557  34.742  31.034  1.00  0.00     0.031 C 
ATOM     60  C   UNL A   1      42.847  33.805  31.195  1.00  0.00     0.031 A 
BRANCH  47  61
ATOM     61  C   UNL A   1      46.206  28.701  30.181  1.00  0.00    -0.014 A 
ATOM     62  C   UNL A   1      47.062  28.752  29.066  1.00  0.00     0.010 A 
ATOM     63  C   UNL A   1      46.615  27.994  31.326  1.00  0.00     0.010 A 
ATOM     64  C   UNL A   1      48.274  28.059  29.069  1.00  0.00     0.020 A 
ATOM     65  C   UNL A   1      47.841  27.323  31.345  1.00  0.00     0.020 A 
ATOM     66  C   UNL A   1      48.651  27.340  30.206  1.00  0.00     0.054 A 
BRANCH  66  67
ATOM     67  S   UNL A   1      50.223  26.435  30.175  1.00  0.00     0.124 S 
ATOM     68  O   UNL A   1      51.142  27.410  30.756  1.00  0.00    -0.237 OA
ATOM     69  O   UNL A   1      49.937  25.269  31.006  1.00  0.00    -0.237 OA
ATOM     70  O   UNL A   1      50.431  26.150  28.757  1.00  0.00    -0.744 OA
ENDBRANCH  66  67
ENDBRANCH  47  61
BRANCH  48  71
ATOM     71  C   UNL A   1      37.103  32.809  29.537  1.00  0.00    -0.014 A 
ATOM     72  C   UNL A   1      36.255  32.965  30.648  1.00  0.00     0.010 A 
ATOM     73  C   UNL A   1      36.695  33.310  28.288  1.00  0.00     0.010 A 
ATOM     74  C   UNL A   1      35.026  33.618  30.515  1.00  0.00     0.020 A 
ATOM     75  C   UNL A   1      35.476  33.983  28.155  1.00  0.00     0.020 A 
ATOM     76  C   UNL A   1      34.649  34.131  29.271  1.00  0.00     0.054 A 
BRANCH  76  77
ATOM     77  S   UNL A   1      33.089  35.051  29.147  1.00  0.00     0.124 S 
ATOM     78  O   UNL A   1      32.370  34.295  28.126  1.00  0.00    -0.237 OA
ATOM     79  O   UNL A   1      32.557  34.951  30.503  1.00  0.00    -0.237 OA
ATOM     80  O   UNL A   1      33.513  36.392  28.750  1.00  0.00    -0.744 OA
ENDBRANCH  76  77
ENDBRANCH  48  71
BRANCH  60  81
ATOM     81  C   UNL A   1      43.314  35.124  31.746  1.00  0.00    -0.014 A 
ATOM     82  C   UNL A   1      43.772  36.137  30.885  1.00  0.00     0.010 A 
ATOM     83  C   UNL A   1      43.185  35.391  33.120  1.00  0.00     0.010 A 
ATOM     84  C   UNL A   1      44.093  37.397  31.392  1.00  0.00     0.020 A 
ATOM     85  C   UNL A   1      43.484  36.659  33.627  1.00  0.00     0.020 A 
ATOM     86  C   UNL A   1      43.938  37.654  32.759  1.00  0.00     0.054 A 
BRANCH  86  87
ATOM     87  S   UNL A   1      44.271  39.327  33.371  1.00  0.00     0.124 S 
ATOM     88  O   UNL A   1      42.926  39.835  33.621  1.00  0.00    -0.237 OA
ATOM     89  O   UNL A   1      45.080  39.075  34.561  1.00  0.00    -0.237 OA
ATOM     90  O   UNL A   1      44.982  39.967  32.267  1.00  0.00    -0.744 OA
ENDBRANCH  86  87
ENDBRANCH  60  81
ENDBRANCH  34  35
ENDBRANCH  26  29
ENDBRANCH   1  25
TORSDOF 14
ENDMDL
