MODEL 1
REMARK VINA RESULT:     -11.6      0.000      0.000
REMARK SMILES O=C(C[C@H]1C[C@H]2CC[C@@H](C1)N2C(=O)c1c[nH]c(=O)[nH]1)NCCCNC(=O)c1ccc(-c2c3nc(c(-c4ccc(S(=O)(=O)[O-])cc4)c4ccc([nH]4)c(-c4ccc(S(=O)(=O)[O-])cc4)c4nc(c(-c5ccc(S(=O)(=O)[O-])cc5)c5ccc2[nH]5)C=C4)C=C3)cc1
REMARK SMILES IDX 22 1 21 2 20 3 1 4 2 5 3 7 4 8 5 9 10 10 6 11 9 12 7 13
REMARK SMILES IDX 11 14 8 15 12 16 13 17 14 18 15 19 19 20 16 21 17 22 18 25
REMARK SMILES IDX 23 26 24 27 25 28 26 30 27 31 28 32 86 33 29 34 85 35 30 36
REMARK SMILES IDX 31 37 32 38 79 39 33 40 84 41 78 42 80 43 34 44 83 45 77 46
REMARK SMILES IDX 76 47 35 49 65 50 46 51 64 52 47 53 50 54 63 55 81 56 48 57
REMARK SMILES IDX 49 58 62 60 82 61 51 62 36 63 37 64 45 65 38 66 44 67 39 68
REMARK SMILES IDX 40 69 41 70 42 71 43 72 66 73 67 74 75 75 68 76 74 77 69 78
REMARK SMILES IDX 70 79 71 80 72 81 73 82 52 83 53 84 61 85 54 86 60 87 55 88
REMARK SMILES IDX 56 89 57 90 58 91 59 92
REMARK H PARENT 20 6 19 23 16 24 24 29 80 48 50 59
REMARK Flexibility Score: inf
ROOT
ATOM      1  C   UNL A   1      33.828  28.465  25.479  1.00  0.00     0.042 C 
ENDROOT
BRANCH   1   2
ATOM      2  C   UNL A   1      32.865  27.517  24.751  1.00  0.00     0.117 C 
BRANCH   2   3
ATOM      3  N   UNL A   1      33.177  26.124  25.015  1.00  0.00    -0.356 N 
ATOM      4  O   UNL A   1      31.745  25.783  26.745  1.00  0.00    -0.275 OA
ATOM      5  C   UNL A   1      32.635  25.354  26.011  1.00  0.00     0.220 C 
ATOM      6  H   UNL A   1      33.839  25.694  24.427  1.00  0.00     0.163 HD
BRANCH   5   7
ATOM      7  C   UNL A   1      33.294  23.991  26.327  1.00  0.00     0.103 C 
BRANCH   7   8
ATOM      8  C   UNL A   1      32.545  22.641  26.494  1.00  0.00     0.002 C 
ATOM      9  C   UNL A   1      31.683  22.147  25.334  1.00  0.00     0.029 C 
ATOM     10  C   UNL A   1      33.497  21.459  26.908  1.00  0.00     0.029 C 
ATOM     11  C   UNL A   1      32.514  21.475  24.226  1.00  0.00     0.086 C 
ATOM     12  C   UNL A   1      34.056  20.609  25.727  1.00  0.00     0.086 C 
ATOM     13  C   UNL A   1      33.884  22.081  23.831  1.00  0.00     0.027 C 
ATOM     14  N   UNL A   1      32.970  20.238  24.818  1.00  0.00    -0.331 N 
ATOM     15  C   UNL A   1      34.913  21.462  24.794  1.00  0.00     0.027 C 
BRANCH  14  16
ATOM     16  C   UNL A   1      32.745  19.060  24.140  1.00  0.00     0.272 C 
ATOM     17  O   UNL A   1      32.254  19.021  23.014  1.00  0.00    -0.267 OA
BRANCH  16  18
ATOM     18  C   UNL A   1      33.181  17.808  24.775  1.00  0.00     0.125 A 
ATOM     19  C   UNL A   1      32.496  16.999  25.592  1.00  0.00     0.119 A 
ATOM     20  N   UNL A   1      34.404  17.241  24.508  1.00  0.00    -0.302 N 
ATOM     21  N   UNL A   1      33.288  15.920  25.889  1.00  0.00    -0.312 N 
ATOM     22  C   UNL A   1      34.512  16.044  25.212  1.00  0.00     0.323 A 
ATOM     23  H   UNL A   1      35.092  17.620  23.915  1.00  0.00     0.172 HD
ATOM     24  H   UNL A   1      33.038  15.175  26.482  1.00  0.00     0.171 HD
ATOM     25  O   UNL A   1      35.451  15.270  25.246  1.00  0.00    -0.248 OA
ENDBRANCH  16  18
ENDBRANCH  14  16
ENDBRANCH   7   8
ENDBRANCH   5   7
ENDBRANCH   2   3
ENDBRANCH   1   2
BRANCH   1  26
ATOM     26  C   UNL A   1      33.716  28.553  27.008  1.00  0.00     0.118 C 
BRANCH  26  27
ATOM     27  N   UNL A   1      33.633  29.900  27.535  1.00  0.00    -0.352 N 
ATOM     28  C   UNL A   1      34.569  30.654  28.207  1.00  0.00     0.251 C 
ATOM     29  H   UNL A   1      32.769  30.349  27.390  1.00  0.00     0.163 HD
ATOM     30  O   UNL A   1      34.242  31.770  28.609  1.00  0.00    -0.269 OA
BRANCH  28  31
ATOM     31  C   UNL A   1      35.932  30.143  28.500  1.00  0.00     0.039 A 
ATOM     32  C   UNL A   1      36.864  30.143  27.458  1.00  0.00     0.014 A 
ATOM     33  C   UNL A   1      36.299  29.628  29.747  1.00  0.00     0.014 A 
ATOM     34  C   UNL A   1      38.171  29.696  27.679  1.00  0.00     0.010 A 
ATOM     35  C   UNL A   1      37.626  29.236  29.983  1.00  0.00     0.010 A 
ATOM     36  C   UNL A   1      38.582  29.277  28.956  1.00  0.00    -0.014 A 
BRANCH  36  37
ATOM     37  C   UNL A   1      40.016  28.945  29.209  1.00  0.00     0.031 A 
ATOM     38  C   UNL A   1      40.954  29.926  29.862  1.00  0.00     0.074 A 
ATOM     39  C   UNL A   1      40.486  27.736  28.831  1.00  0.00     0.049 A 
ATOM     40  N   UNL A   1      42.212  29.766  30.196  1.00  0.00    -0.248 NA
ATOM     41  C   UNL A   1      40.422  31.262  30.167  1.00  0.00     0.031 C 
ATOM     42  C   UNL A   1      39.703  26.701  28.150  1.00  0.00     0.029 A 
ATOM     43  N   UNL A   1      41.728  27.165  28.975  1.00  0.00    -0.354 N 
ATOM     44  C   UNL A   1      42.622  30.976  30.745  1.00  0.00     0.074 A 
ATOM     45  C   UNL A   1      41.492  31.876  30.655  1.00  0.00     0.031 C 
ATOM     46  C   UNL A   1      40.467  25.612  27.975  1.00  0.00     0.029 A 
ATOM     47  C   UNL A   1      41.806  25.880  28.490  1.00  0.00     0.049 A 
ATOM     48  H   UNL A   1      42.490  27.632  29.386  1.00  0.00     0.167 HD
ATOM     49  C   UNL A   1      43.821  31.306  31.290  1.00  0.00     0.031 A 
ATOM     50  C   UNL A   1      42.833  25.006  28.458  1.00  0.00     0.031 A 
ATOM     51  C   UNL A   1      44.953  30.415  31.371  1.00  0.00     0.049 A 
ATOM     52  C   UNL A   1      44.155  25.401  29.055  1.00  0.00     0.074 A 
ATOM     53  C   UNL A   1      46.191  30.647  31.948  1.00  0.00     0.029 A 
ATOM     54  N   UNL A   1      44.994  29.128  30.855  1.00  0.00    -0.354 N 
ATOM     55  N   UNL A   1      44.496  26.527  29.635  1.00  0.00    -0.248 NA
ATOM     56  C   UNL A   1      45.226  24.395  29.012  1.00  0.00     0.031 C 
ATOM     57  C   UNL A   1      47.000  29.528  31.725  1.00  0.00     0.029 A 
ATOM     58  C   UNL A   1      46.244  28.566  31.075  1.00  0.00     0.049 A 
ATOM     59  H   UNL A   1      44.246  28.679  30.400  1.00  0.00     0.167 HD
ATOM     60  C   UNL A   1      45.813  26.354  30.051  1.00  0.00     0.074 A 
ATOM     61  C   UNL A   1      46.195  25.008  29.678  1.00  0.00     0.031 C 
ATOM     62  C   UNL A   1      46.629  27.232  30.688  1.00  0.00     0.031 A 
BRANCH  49  63
ATOM     63  C   UNL A   1      43.981  32.704  31.837  1.00  0.00    -0.014 A 
ATOM     64  C   UNL A   1      44.381  33.770  31.010  1.00  0.00     0.010 A 
ATOM     65  C   UNL A   1      43.670  32.969  33.184  1.00  0.00     0.010 A 
ATOM     66  C   UNL A   1      44.507  35.064  31.529  1.00  0.00     0.020 A 
ATOM     67  C   UNL A   1      43.764  34.267  33.698  1.00  0.00     0.020 A 
ATOM     68  C   UNL A   1      44.198  35.303  32.870  1.00  0.00     0.054 A 
BRANCH  68  69
ATOM     69  S   UNL A   1      44.344  36.996  33.507  1.00  0.00     0.124 S 
ATOM     70  O   UNL A   1      45.071  37.662  32.429  1.00  0.00    -0.237 OA
ATOM     71  O   UNL A   1      42.949  37.399  33.665  1.00  0.00    -0.237 OA
ATOM     72  O   UNL A   1      45.089  36.837  34.753  1.00  0.00    -0.744 OA
ENDBRANCH  68  69
ENDBRANCH  49  63
BRANCH  50  73
ATOM     73  C   UNL A   1      42.645  23.659  27.850  1.00  0.00    -0.014 A 
ATOM     74  C   UNL A   1      42.793  23.467  26.465  1.00  0.00     0.010 A 
ATOM     75  C   UNL A   1      42.320  22.555  28.659  1.00  0.00     0.010 A 
ATOM     76  C   UNL A   1      42.599  22.203  25.899  1.00  0.00     0.020 A 
ATOM     77  C   UNL A   1      42.159  21.283  28.102  1.00  0.00     0.020 A 
ATOM     78  C   UNL A   1      42.288  21.118  26.723  1.00  0.00     0.054 A 
BRANCH  78  79
ATOM     79  S   UNL A   1      42.093  19.477  25.972  1.00  0.00     0.124 S 
ATOM     80  O   UNL A   1      40.654  19.418  25.739  1.00  0.00    -0.237 OA
ATOM     81  O   UNL A   1      42.927  19.577  24.777  1.00  0.00    -0.237 OA
ATOM     82  O   UNL A   1      42.599  18.571  27.001  1.00  0.00    -0.744 OA
ENDBRANCH  78  79
ENDBRANCH  50  73
BRANCH  62  83
ATOM     83  C   UNL A   1      48.010  26.746  31.058  1.00  0.00    -0.014 A 
ATOM     84  C   UNL A   1      48.234  25.956  32.200  1.00  0.00     0.010 A 
ATOM     85  C   UNL A   1      49.105  27.087  30.241  1.00  0.00     0.010 A 
ATOM     86  C   UNL A   1      49.531  25.571  32.553  1.00  0.00     0.020 A 
ATOM     87  C   UNL A   1      50.398  26.673  30.569  1.00  0.00     0.020 A 
ATOM     88  C   UNL A   1      50.607  25.939  31.738  1.00  0.00     0.054 A 
BRANCH  88  89
ATOM     89  S   UNL A   1      52.281  25.434  32.220  1.00  0.00     0.124 S 
ATOM     90  O   UNL A   1      52.156  23.980  32.275  1.00  0.00    -0.237 OA
ATOM     91  O   UNL A   1      53.099  25.954  31.127  1.00  0.00    -0.237 OA
ATOM     92  O   UNL A   1      52.484  26.090  33.510  1.00  0.00    -0.744 OA
ENDBRANCH  88  89
ENDBRANCH  62  83
ENDBRANCH  36  37
ENDBRANCH  28  31
ENDBRANCH  26  27
ENDBRANCH   1  26
TORSDOF 16
ENDMDL
MODEL 2
REMARK VINA RESULT:     -11.5      1.183      8.329
REMARK SMILES O=C(C[C@H]1C[C@H]2CC[C@@H](C1)N2C(=O)c1c[nH]c(=O)[nH]1)NCCCNC(=O)c1ccc(-c2c3nc(c(-c4ccc(S(=O)(=O)[O-])cc4)c4ccc([nH]4)c(-c4ccc(S(=O)(=O)[O-])cc4)c4nc(c(-c5ccc(S(=O)(=O)[O-])cc5)c5ccc2[nH]5)C=C4)C=C3)cc1
REMARK SMILES IDX 22 1 21 2 20 3 1 4 2 5 3 7 4 8 5 9 10 10 6 11 9 12 7 13
REMARK SMILES IDX 11 14 8 15 12 16 13 17 14 18 15 19 19 20 16 21 17 22 18 25
REMARK SMILES IDX 23 26 24 27 25 28 26 30 27 31 28 32 86 33 29 34 85 35 30 36
REMARK SMILES IDX 31 37 32 38 79 39 33 40 84 41 78 42 80 43 34 44 83 45 77 46
REMARK SMILES IDX 76 47 35 49 65 50 46 51 64 52 47 53 50 54 63 55 81 56 48 57
REMARK SMILES IDX 49 58 62 60 82 61 51 62 36 63 37 64 45 65 38 66 44 67 39 68
REMARK SMILES IDX 40 69 41 70 42 71 43 72 66 73 67 74 75 75 68 76 74 77 69 78
REMARK SMILES IDX 70 79 71 80 72 81 73 82 52 83 53 84 61 85 54 86 60 87 55 88
REMARK SMILES IDX 56 89 57 90 58 91 59 92
REMARK H PARENT 20 6 19 23 16 24 24 29 80 48 50 59
REMARK Flexibility Score: inf
ROOT
ATOM      1  C   UNL A   1      32.063  27.678  26.770  1.00  0.00     0.042 C 
ENDROOT
BRANCH   1   2
ATOM      2  C   UNL A   1      31.503  28.107  25.407  1.00  0.00     0.117 C 
BRANCH   2   3
ATOM      3  N   UNL A   1      31.639  27.057  24.413  1.00  0.00    -0.356 N 
ATOM      4  O   UNL A   1      29.703  25.946  24.834  1.00  0.00    -0.275 OA
ATOM      5  C   UNL A   1      30.761  26.024  24.211  1.00  0.00     0.220 C 
ATOM      6  H   UNL A   1      32.434  27.089  23.834  1.00  0.00     0.163 HD
BRANCH   5   7
ATOM      7  C   UNL A   1      31.209  24.844  23.317  1.00  0.00     0.103 C 
BRANCH   7   8
ATOM      8  C   UNL A   1      31.140  23.340  23.701  1.00  0.00     0.002 C 
ATOM      9  C   UNL A   1      31.980  22.351  22.895  1.00  0.00     0.029 C 
ATOM     10  C   UNL A   1      31.442  23.083  25.223  1.00  0.00     0.029 C 
ATOM     11  C   UNL A   1      33.453  22.330  23.339  1.00  0.00     0.086 C 
ATOM     12  C   UNL A   1      32.927  22.746  25.560  1.00  0.00     0.086 C 
ATOM     13  C   UNL A   1      34.155  23.662  23.704  1.00  0.00     0.027 C 
ATOM     14  N   UNL A   1      33.427  21.717  24.647  1.00  0.00    -0.331 N 
ATOM     15  C   UNL A   1      33.849  23.906  25.192  1.00  0.00     0.027 C 
BRANCH  14  16
ATOM     16  C   UNL A   1      34.258  20.645  24.890  1.00  0.00     0.272 C 
ATOM     17  O   UNL A   1      35.386  20.769  25.364  1.00  0.00    -0.267 OA
BRANCH  16  18
ATOM     18  C   UNL A   1      33.733  19.296  24.632  1.00  0.00     0.125 A 
ATOM     19  C   UNL A   1      32.472  18.919  24.390  1.00  0.00     0.119 A 
ATOM     20  N   UNL A   1      34.557  18.203  24.514  1.00  0.00    -0.302 N 
ATOM     21  N   UNL A   1      32.468  17.569  24.150  1.00  0.00    -0.312 N 
ATOM     22  C   UNL A   1      33.783  17.082  24.222  1.00  0.00     0.323 A 
ATOM     23  H   UNL A   1      35.536  18.210  24.619  1.00  0.00     0.172 HD
ATOM     24  H   UNL A   1      31.670  17.027  23.958  1.00  0.00     0.171 HD
ATOM     25  O   UNL A   1      34.150  15.931  24.064  1.00  0.00    -0.248 OA
ENDBRANCH  16  18
ENDBRANCH  14  16
ENDBRANCH   7   8
ENDBRANCH   5   7
ENDBRANCH   2   3
ENDBRANCH   1   2
BRANCH   1  26
ATOM     26  C   UNL A   1      33.398  28.292  27.213  1.00  0.00     0.118 C 
BRANCH  26  27
ATOM     27  N   UNL A   1      33.341  29.704  27.536  1.00  0.00    -0.352 N 
ATOM     28  C   UNL A   1      34.310  30.545  28.035  1.00  0.00     0.251 C 
ATOM     29  H   UNL A   1      32.469  30.131  27.371  1.00  0.00     0.163 HD
ATOM     30  O   UNL A   1      34.002  31.710  28.281  1.00  0.00    -0.269 OA
BRANCH  28  31
ATOM     31  C   UNL A   1      35.687  30.076  28.328  1.00  0.00     0.039 A 
ATOM     32  C   UNL A   1      36.619  30.104  27.286  1.00  0.00     0.014 A 
ATOM     33  C   UNL A   1      36.071  29.573  29.576  1.00  0.00     0.014 A 
ATOM     34  C   UNL A   1      37.939  29.697  27.506  1.00  0.00     0.010 A 
ATOM     35  C   UNL A   1      37.409  29.222  29.811  1.00  0.00     0.010 A 
ATOM     36  C   UNL A   1      38.363  29.291  28.784  1.00  0.00    -0.014 A 
BRANCH  36  37
ATOM     37  C   UNL A   1      39.807  29.003  29.036  1.00  0.00     0.031 A 
ATOM     38  C   UNL A   1      40.424  27.675  28.680  1.00  0.00     0.074 A 
ATOM     39  C   UNL A   1      40.576  29.955  29.608  1.00  0.00     0.049 A 
ATOM     40  N   UNL A   1      41.673  27.293  28.789  1.00  0.00    -0.248 NA
ATOM     41  C   UNL A   1      39.527  26.639  28.150  1.00  0.00     0.031 C 
ATOM     42  C   UNL A   1      40.103  31.272  30.044  1.00  0.00     0.029 A 
ATOM     43  N   UNL A   1      41.916  29.971  29.912  1.00  0.00    -0.354 N 
ATOM     44  C   UNL A   1      41.713  25.976  28.346  1.00  0.00     0.074 A 
ATOM     45  C   UNL A   1      40.352  25.610  28.012  1.00  0.00     0.031 C 
ATOM     46  C   UNL A   1      41.141  31.980  30.516  1.00  0.00     0.029 A 
ATOM     47  C   UNL A   1      42.346  31.158  30.460  1.00  0.00     0.049 A 
ATOM     48  H   UNL A   1      42.512  29.205  29.752  1.00  0.00     0.167 HD
ATOM     49  C   UNL A   1      42.781  25.150  28.211  1.00  0.00     0.031 A 
ATOM     50  C   UNL A   1      43.567  31.551  30.872  1.00  0.00     0.031 A 
ATOM     51  C   UNL A   1      44.137  25.507  28.553  1.00  0.00     0.049 A 
ATOM     52  C   UNL A   1      44.733  30.612  30.726  1.00  0.00     0.074 A 
ATOM     53  C   UNL A   1      45.289  24.752  28.406  1.00  0.00     0.029 A 
ATOM     54  N   UNL A   1      44.526  26.713  29.118  1.00  0.00    -0.354 N 
ATOM     55  N   UNL A   1      44.757  29.396  30.236  1.00  0.00    -0.248 NA
ATOM     56  C   UNL A   1      46.042  31.110  31.171  1.00  0.00     0.031 C 
ATOM     57  C   UNL A   1      46.362  25.474  28.941  1.00  0.00     0.029 A 
ATOM     58  C   UNL A   1      45.893  26.710  29.352  1.00  0.00     0.049 A 
ATOM     59  H   UNL A   1      43.920  27.461  29.323  1.00  0.00     0.167 HD
ATOM     60  C   UNL A   1      46.088  28.995  30.287  1.00  0.00     0.074 A 
ATOM     61  C   UNL A   1      46.839  30.106  30.833  1.00  0.00     0.031 C 
ATOM     62  C   UNL A   1      46.638  27.811  29.911  1.00  0.00     0.031 A 
BRANCH  49  63
ATOM     63  C   UNL A   1      42.530  23.759  27.678  1.00  0.00    -0.014 A 
ATOM     64  C   UNL A   1      42.576  23.487  26.298  1.00  0.00     0.010 A 
ATOM     65  C   UNL A   1      42.305  22.696  28.573  1.00  0.00     0.010 A 
ATOM     66  C   UNL A   1      42.360  22.190  25.822  1.00  0.00     0.020 A 
ATOM     67  C   UNL A   1      42.121  21.391  28.102  1.00  0.00     0.020 A 
ATOM     68  C   UNL A   1      42.133  21.150  26.727  1.00  0.00     0.054 A 
BRANCH  68  69
ATOM     69  S   UNL A   1      41.883  19.473  26.081  1.00  0.00     0.124 S 
ATOM     70  O   UNL A   1      42.731  19.479  24.892  1.00  0.00    -0.237 OA
ATOM     71  O   UNL A   1      42.352  18.634  27.180  1.00  0.00    -0.237 OA
ATOM     72  O   UNL A   1      40.448  19.410  25.821  1.00  0.00    -0.744 OA
ENDBRANCH  68  69
ENDBRANCH  49  63
BRANCH  50  73
ATOM     73  C   UNL A   1      43.754  32.912  31.452  1.00  0.00    -0.014 A 
ATOM     74  C   UNL A   1      43.616  33.131  32.834  1.00  0.00     0.010 A 
ATOM     75  C   UNL A   1      44.079  33.998  30.619  1.00  0.00     0.010 A 
ATOM     76  C   UNL A   1      43.777  34.413  33.368  1.00  0.00     0.020 A 
ATOM     77  C   UNL A   1      44.275  35.274  31.153  1.00  0.00     0.020 A 
ATOM     78  C   UNL A   1      44.110  35.476  32.524  1.00  0.00     0.054 A 
BRANCH  78  79
ATOM     79  S   UNL A   1      44.367  37.120  33.248  1.00  0.00     0.124 S 
ATOM     80  O   UNL A   1      43.167  37.285  34.061  1.00  0.00    -0.237 OA
ATOM     81  O   UNL A   1      45.615  36.948  33.986  1.00  0.00    -0.237 OA
ATOM     82  O   UNL A   1      44.458  37.995  32.081  1.00  0.00    -0.744 OA
ENDBRANCH  78  79
ENDBRANCH  50  73
BRANCH  62  83
ATOM     83  C   UNL A   1      48.135  27.674  30.043  1.00  0.00    -0.014 A 
ATOM     84  C   UNL A   1      49.007  28.058  29.008  1.00  0.00     0.010 A 
ATOM     85  C   UNL A   1      48.680  27.152  31.232  1.00  0.00     0.010 A 
ATOM     86  C   UNL A   1      50.386  27.863  29.132  1.00  0.00     0.020 A 
ATOM     87  C   UNL A   1      50.060  26.990  31.375  1.00  0.00     0.020 A 
ATOM     88  C   UNL A   1      50.903  27.322  30.314  1.00  0.00     0.054 A 
BRANCH  88  89
ATOM     89  S   UNL A   1      52.694  27.072  30.449  1.00  0.00     0.124 S 
ATOM     90  O   UNL A   1      53.118  28.281  31.149  1.00  0.00    -0.237 OA
ATOM     91  O   UNL A   1      52.788  25.834  31.220  1.00  0.00    -0.237 OA
ATOM     92  O   UNL A   1      53.137  26.970  29.060  1.00  0.00    -0.744 OA
ENDBRANCH  88  89
ENDBRANCH  62  83
ENDBRANCH  36  37
ENDBRANCH  28  31
ENDBRANCH  26  27
ENDBRANCH   1  26
TORSDOF 16
ENDMDL
MODEL 3
REMARK VINA RESULT:     -11.5      4.626     10.520
REMARK SMILES O=C(C[C@H]1C[C@H]2CC[C@@H](C1)N2C(=O)c1c[nH]c(=O)[nH]1)NCCCNC(=O)c1ccc(-c2c3nc(c(-c4ccc(S(=O)(=O)[O-])cc4)c4ccc([nH]4)c(-c4ccc(S(=O)(=O)[O-])cc4)c4nc(c(-c5ccc(S(=O)(=O)[O-])cc5)c5ccc2[nH]5)C=C4)C=C3)cc1
REMARK SMILES IDX 22 1 21 2 20 3 1 4 2 5 3 7 4 8 5 9 10 10 6 11 9 12 7 13
REMARK SMILES IDX 11 14 8 15 12 16 13 17 14 18 15 19 19 20 16 21 17 22 18 25
REMARK SMILES IDX 23 26 24 27 25 28 26 30 27 31 28 32 86 33 29 34 85 35 30 36
REMARK SMILES IDX 31 37 32 38 79 39 33 40 84 41 78 42 80 43 34 44 83 45 77 46
REMARK SMILES IDX 76 47 35 49 65 50 46 51 64 52 47 53 50 54 63 55 81 56 48 57
REMARK SMILES IDX 49 58 62 60 82 61 51 62 36 63 37 64 45 65 38 66 44 67 39 68
REMARK SMILES IDX 40 69 41 70 42 71 43 72 66 73 67 74 75 75 68 76 74 77 69 78
REMARK SMILES IDX 70 79 71 80 72 81 73 82 52 83 53 84 61 85 54 86 60 87 55 88
REMARK SMILES IDX 56 89 57 90 58 91 59 92
REMARK H PARENT 20 6 19 23 16 24 24 29 80 48 50 59
REMARK Flexibility Score: inf
ROOT
ATOM      1  C   UNL A   1      40.614  22.232  27.428  1.00  0.00     0.042 C 
ENDROOT
BRANCH   1   2
ATOM      2  C   UNL A   1      40.005  21.529  26.207  1.00  0.00     0.117 C 
BRANCH   2   3
ATOM      3  N   UNL A   1      38.823  22.218  25.722  1.00  0.00    -0.356 N 
ATOM      4  O   UNL A   1      37.722  20.428  24.861  1.00  0.00    -0.275 OA
ATOM      5  C   UNL A   1      37.777  21.643  25.049  1.00  0.00     0.220 C 
ATOM      6  H   UNL A   1      38.768  23.186  25.890  1.00  0.00     0.163 HD
BRANCH   5   7
ATOM      7  C   UNL A   1      36.750  22.569  24.355  1.00  0.00     0.103 C 
BRANCH   7   8
ATOM      8  C   UNL A   1      36.059  23.800  25.003  1.00  0.00     0.002 C 
ATOM      9  C   UNL A   1      34.805  24.358  24.332  1.00  0.00     0.029 C 
ATOM     10  C   UNL A   1      35.721  23.582  26.523  1.00  0.00     0.029 C 
ATOM     11  C   UNL A   1      33.542  23.549  24.675  1.00  0.00     0.086 C 
ATOM     12  C   UNL A   1      34.283  23.053  26.817  1.00  0.00     0.086 C 
ATOM     13  C   UNL A   1      33.628  22.004  24.752  1.00  0.00     0.027 C 
ATOM     14  N   UNL A   1      33.298  23.837  26.070  1.00  0.00    -0.331 N 
ATOM     15  C   UNL A   1      34.067  21.677  26.191  1.00  0.00     0.027 C 
BRANCH  14  16
ATOM     16  C   UNL A   1      32.047  24.275  26.444  1.00  0.00     0.272 C 
ATOM     17  O   UNL A   1      31.420  23.784  27.381  1.00  0.00    -0.267 OA
BRANCH  16  18
ATOM     18  C   UNL A   1      31.479  25.426  25.727  1.00  0.00     0.125 A 
ATOM     19  C   UNL A   1      30.315  25.515  25.072  1.00  0.00     0.119 A 
ATOM     20  N   UNL A   1      32.087  26.658  25.727  1.00  0.00    -0.302 N 
ATOM     21  N   UNL A   1      30.181  26.800  24.611  1.00  0.00    -0.312 N 
ATOM     22  C   UNL A   1      31.294  27.555  25.013  1.00  0.00     0.323 A 
ATOM     23  H   UNL A   1      32.944  26.873  26.162  1.00  0.00     0.172 HD
ATOM     24  H   UNL A   1      29.424  27.140  24.083  1.00  0.00     0.171 HD
ATOM     25  O   UNL A   1      31.508  28.730  24.779  1.00  0.00    -0.248 OA
ENDBRANCH  16  18
ENDBRANCH  14  16
ENDBRANCH   7   8
ENDBRANCH   5   7
ENDBRANCH   2   3
ENDBRANCH   1   2
BRANCH   1  26
ATOM     26  C   UNL A   1      41.871  23.084  27.203  1.00  0.00     0.118 C 
BRANCH  26  27
ATOM     27  N   UNL A   1      41.774  24.033  26.111  1.00  0.00    -0.352 N 
ATOM     28  C   UNL A   1      41.532  25.388  26.127  1.00  0.00     0.251 C 
ATOM     29  H   UNL A   1      41.902  23.646  25.215  1.00  0.00     0.163 HD
ATOM     30  O   UNL A   1      41.442  25.978  25.051  1.00  0.00    -0.269 OA
BRANCH  28  31
ATOM     31  C   UNL A   1      41.330  26.139  27.391  1.00  0.00     0.039 A 
ATOM     32  C   UNL A   1      42.317  27.056  27.767  1.00  0.00     0.014 A 
ATOM     33  C   UNL A   1      40.230  25.937  28.230  1.00  0.00     0.014 A 
ATOM     34  C   UNL A   1      42.172  27.811  28.935  1.00  0.00     0.010 A 
ATOM     35  C   UNL A   1      40.057  26.737  29.369  1.00  0.00     0.010 A 
ATOM     36  C   UNL A   1      41.019  27.694  29.730  1.00  0.00    -0.014 A 
BRANCH  36  37
ATOM     37  C   UNL A   1      40.813  28.612  30.890  1.00  0.00     0.031 A 
ATOM     38  C   UNL A   1      41.662  28.524  32.131  1.00  0.00     0.074 A 
ATOM     39  C   UNL A   1      39.832  29.539  30.827  1.00  0.00     0.049 A 
ATOM     40  N   UNL A   1      41.640  29.284  33.200  1.00  0.00    -0.248 NA
ATOM     41  C   UNL A   1      42.651  27.439  32.192  1.00  0.00     0.031 C 
ATOM     42  C   UNL A   1      38.905  29.711  29.705  1.00  0.00     0.029 A 
ATOM     43  N   UNL A   1      39.456  30.517  31.716  1.00  0.00    -0.354 N 
ATOM     44  C   UNL A   1      42.604  28.770  34.059  1.00  0.00     0.074 A 
ATOM     45  C   UNL A   1      43.160  27.603  33.406  1.00  0.00     0.031 C 
ATOM     46  C   UNL A   1      38.100  30.756  29.953  1.00  0.00     0.029 A 
ATOM     47  C   UNL A   1      38.419  31.304  31.268  1.00  0.00     0.049 A 
ATOM     48  H   UNL A   1      39.888  30.643  32.591  1.00  0.00     0.167 HD
ATOM     49  C   UNL A   1      43.005  29.231  35.270  1.00  0.00     0.031 A 
ATOM     50  C   UNL A   1      37.791  32.350  31.840  1.00  0.00     0.031 A 
ATOM     51  C   UNL A   1      42.446  30.387  35.929  1.00  0.00     0.049 A 
ATOM     52  C   UNL A   1      38.244  32.833  33.190  1.00  0.00     0.074 A 
ATOM     53  C   UNL A   1      42.821  30.956  37.135  1.00  0.00     0.029 A 
ATOM     54  N   UNL A   1      41.389  31.146  35.447  1.00  0.00    -0.354 N 
ATOM     55  N   UNL A   1      39.209  32.374  33.951  1.00  0.00    -0.248 NA
ATOM     56  C   UNL A   1      37.534  33.993  33.749  1.00  0.00     0.031 C 
ATOM     57  C   UNL A   1      41.952  32.017  37.413  1.00  0.00     0.029 A 
ATOM     58  C   UNL A   1      41.082  32.158  36.345  1.00  0.00     0.049 A 
ATOM     59  H   UNL A   1      40.925  30.989  34.594  1.00  0.00     0.167 HD
ATOM     60  C   UNL A   1      39.240  33.207  35.065  1.00  0.00     0.074 A 
ATOM     61  C   UNL A   1      38.215  34.211  34.865  1.00  0.00     0.031 C 
ATOM     62  C   UNL A   1      40.050  33.147  36.153  1.00  0.00     0.031 A 
BRANCH  49  63
ATOM     63  C   UNL A   1      44.103  28.476  35.981  1.00  0.00    -0.014 A 
ATOM     64  C   UNL A   1      45.456  28.826  35.813  1.00  0.00     0.010 A 
ATOM     65  C   UNL A   1      43.775  27.440  36.876  1.00  0.00     0.010 A 
ATOM     66  C   UNL A   1      46.460  28.129  36.494  1.00  0.00     0.020 A 
ATOM     67  C   UNL A   1      44.775  26.762  37.582  1.00  0.00     0.020 A 
ATOM     68  C   UNL A   1      46.112  27.100  37.373  1.00  0.00     0.054 A 
BRANCH  68  69
ATOM     69  S   UNL A   1      47.435  26.232  38.262  1.00  0.00     0.124 S 
ATOM     70  O   UNL A   1      47.808  25.193  37.306  1.00  0.00    -0.237 OA
ATOM     71  O   UNL A   1      48.428  27.284  38.463  1.00  0.00    -0.237 OA
ATOM     72  O   UNL A   1      46.783  25.754  39.478  1.00  0.00    -0.744 OA
ENDBRANCH  68  69
ENDBRANCH  49  63
BRANCH  50  73
ATOM     73  C   UNL A   1      36.668  33.024  31.128  1.00  0.00    -0.014 A 
ATOM     74  C   UNL A   1      35.345  32.897  31.586  1.00  0.00     0.010 A 
ATOM     75  C   UNL A   1      36.922  33.804  29.985  1.00  0.00     0.010 A 
ATOM     76  C   UNL A   1      34.295  33.519  30.903  1.00  0.00     0.020 A 
ATOM     77  C   UNL A   1      35.880  34.456  29.320  1.00  0.00     0.020 A 
ATOM     78  C   UNL A   1      34.571  34.299  29.776  1.00  0.00     0.054 A 
BRANCH  78  79
ATOM     79  S   UNL A   1      33.199  35.140  28.938  1.00  0.00     0.124 S 
ATOM     80  O   UNL A   1      32.305  35.447  30.049  1.00  0.00    -0.237 OA
ATOM     81  O   UNL A   1      33.861  36.286  28.321  1.00  0.00    -0.237 OA
ATOM     82  O   UNL A   1      32.708  34.135  27.997  1.00  0.00    -0.744 OA
ENDBRANCH  78  79
ENDBRANCH  50  73
BRANCH  62  83
ATOM     83  C   UNL A   1      39.882  34.224  37.197  1.00  0.00    -0.014 A 
ATOM     84  C   UNL A   1      40.496  35.483  37.065  1.00  0.00     0.010 A 
ATOM     85  C   UNL A   1      39.091  33.969  38.334  1.00  0.00     0.010 A 
ATOM     86  C   UNL A   1      40.375  36.441  38.076  1.00  0.00     0.020 A 
ATOM     87  C   UNL A   1      38.936  34.937  39.330  1.00  0.00     0.020 A 
ATOM     88  C   UNL A   1      39.601  36.159  39.207  1.00  0.00     0.054 A 
BRANCH  88  89
ATOM     89  S   UNL A   1      39.464  37.414  40.508  1.00  0.00     0.124 S 
ATOM     90  O   UNL A   1      40.856  37.815  40.692  1.00  0.00    -0.237 OA
ATOM     91  O   UNL A   1      38.596  38.417  39.896  1.00  0.00    -0.237 OA
ATOM     92  O   UNL A   1      38.874  36.688  41.631  1.00  0.00    -0.744 OA
ENDBRANCH  88  89
ENDBRANCH  62  83
ENDBRANCH  36  37
ENDBRANCH  28  31
ENDBRANCH  26  27
ENDBRANCH   1  26
TORSDOF 16
ENDMDL
