MODEL 1
REMARK VINA RESULT:     -11.0      0.000      0.000
REMARK SMILES CC1(C)CCN(c2ncccc2C(=O)NCCCNC(=O)c2ccc(-c3c4nc(c(-c5ccc(S(=O)(=O)[O-])cc5)c5ccc([nH]5)c(-c5ccc(S(=O)(=O)[O-])cc5)c5nc(c(-c6ccc(S(=O)(=O)[O-])cc6)c6ccc3[nH]6)C=C5)C=C4)cc2)C1
REMARK SMILES IDX 18 1 17 2 16 3 15 4 13 5 14 6 12 8 7 9 8 10 9 11 11 12 10 13
REMARK SMILES IDX 6 14 1 15 2 16 3 17 4 18 82 19 5 20 19 21 20 22 21 24 22 25
REMARK SMILES IDX 23 26 81 27 24 28 80 29 25 30 26 31 27 32 74 33 28 34 79 35
REMARK SMILES IDX 73 36 75 37 29 38 78 39 72 40 71 41 30 43 60 44 41 45 59 46
REMARK SMILES IDX 42 47 45 48 58 49 76 50 43 51 44 52 57 54 77 55 46 56 31 57
REMARK SMILES IDX 32 58 40 59 33 60 39 61 34 62 35 63 36 64 37 65 38 66 61 67
REMARK SMILES IDX 62 68 70 69 63 70 69 71 64 72 65 73 66 74 67 75 68 76 47 77
REMARK SMILES IDX 48 78 56 79 49 80 55 81 50 82 51 83 52 84 53 85 54 86
REMARK H PARENT 15 7 19 23 75 42 45 53
REMARK Flexibility Score: inf
ROOT
ATOM      1  C   UNL A   1      33.454  28.240  27.275  1.00  0.00     0.118 C 
ENDROOT
BRANCH   1   2
ATOM      2  C   UNL A   1      33.988  27.819  25.903  1.00  0.00     0.042 C 
BRANCH   2   3
ATOM      3  C   UNL A   1      33.334  28.567  24.741  1.00  0.00     0.118 C 
BRANCH   3   4
ATOM      4  N   UNL A   1      33.684  27.956  23.475  1.00  0.00    -0.352 N 
ATOM      5  C   UNL A   1      33.455  26.752  22.857  1.00  0.00     0.255 C 
ATOM      6  O   UNL A   1      33.998  26.678  21.754  1.00  0.00    -0.269 OA
ATOM      7  H   UNL A   1      34.225  28.558  22.915  1.00  0.00     0.163 HD
BRANCH   5   8
ATOM      8  C   UNL A   1      32.598  25.650  23.416  1.00  0.00     0.082 A 
ATOM      9  C   UNL A   1      33.154  24.391  23.740  1.00  0.00     0.141 A 
ATOM     10  N   UNL A   1      32.364  23.317  24.026  1.00  0.00    -0.238 NA
ATOM     11  C   UNL A   1      31.031  23.486  24.094  1.00  0.00     0.113 A 
ATOM     12  C   UNL A   1      31.215  25.794  23.585  1.00  0.00     0.019 A 
ATOM     13  C   UNL A   1      30.415  24.703  23.914  1.00  0.00     0.021 A 
BRANCH   9  14
ATOM     14  N   UNL A   1      34.507  24.173  23.891  1.00  0.00    -0.355 N 
ATOM     15  C   UNL A   1      35.771  21.994  25.960  1.00  0.00     0.013 C 
ATOM     16  C   UNL A   1      36.232  23.300  25.295  1.00  0.00    -0.016 C 
ATOM     17  C   UNL A   1      37.436  23.859  26.059  1.00  0.00     0.013 C 
ATOM     18  C   UNL A   1      36.558  23.083  23.808  1.00  0.00     0.030 C 
ATOM     19  C   UNL A   1      35.074  24.324  25.238  1.00  0.00     0.124 C 
ATOM     20  C   UNL A   1      35.189  23.141  23.134  1.00  0.00     0.119 C 
ENDBRANCH   9  14
ENDBRANCH   5   8
ENDBRANCH   3   4
ENDBRANCH   2   3
ENDBRANCH   1   2
BRANCH   1  21
ATOM     21  N   UNL A   1      33.387  29.688  27.418  1.00  0.00    -0.352 N 
ATOM     22  C   UNL A   1      34.284  30.565  27.975  1.00  0.00     0.251 C 
ATOM     23  H   UNL A   1      32.571  30.103  27.057  1.00  0.00     0.163 HD
ATOM     24  O   UNL A   1      33.927  31.713  28.224  1.00  0.00    -0.269 OA
BRANCH  22  25
ATOM     25  C   UNL A   1      35.665  30.137  28.277  1.00  0.00     0.039 A 
ATOM     26  C   UNL A   1      36.621  30.168  27.257  1.00  0.00     0.014 A 
ATOM     27  C   UNL A   1      36.010  29.658  29.544  1.00  0.00     0.014 A 
ATOM     28  C   UNL A   1      37.932  29.769  27.522  1.00  0.00     0.010 A 
ATOM     29  C   UNL A   1      37.334  29.325  29.824  1.00  0.00     0.010 A 
ATOM     30  C   UNL A   1      38.307  29.371  28.816  1.00  0.00    -0.014 A 
BRANCH  30  31
ATOM     31  C   UNL A   1      39.710  29.005  29.134  1.00  0.00     0.031 A 
ATOM     32  C   UNL A   1      40.638  30.018  29.749  1.00  0.00     0.074 A 
ATOM     33  C   UNL A   1      40.168  27.782  28.803  1.00  0.00     0.049 A 
ATOM     34  N   UNL A   1      41.911  29.907  30.030  1.00  0.00    -0.248 NA
ATOM     35  C   UNL A   1      40.067  31.338  30.065  1.00  0.00     0.031 C 
ATOM     36  C   UNL A   1      39.377  26.725  28.167  1.00  0.00     0.029 A 
ATOM     37  N   UNL A   1      41.413  27.222  28.949  1.00  0.00    -0.354 N 
ATOM     38  C   UNL A   1      42.298  31.142  30.535  1.00  0.00     0.074 A 
ATOM     39  C   UNL A   1      41.136  32.002  30.481  1.00  0.00     0.031 C 
ATOM     40  C   UNL A   1      40.149  25.640  27.998  1.00  0.00     0.029 A 
ATOM     41  C   UNL A   1      41.497  25.934  28.474  1.00  0.00     0.049 A 
ATOM     42  H   UNL A   1      42.174  27.698  29.354  1.00  0.00     0.167 HD
ATOM     43  C   UNL A   1      43.507  31.524  31.015  1.00  0.00     0.031 A 
ATOM     44  C   UNL A   1      42.542  25.087  28.419  1.00  0.00     0.031 A 
ATOM     45  C   UNL A   1      44.657  30.660  31.077  1.00  0.00     0.049 A 
ATOM     46  C   UNL A   1      43.874  25.530  28.959  1.00  0.00     0.074 A 
ATOM     47  C   UNL A   1      45.910  30.932  31.598  1.00  0.00     0.029 A 
ATOM     48  N   UNL A   1      44.695  29.358  30.603  1.00  0.00    -0.354 N 
ATOM     49  N   UNL A   1      44.204  26.684  29.488  1.00  0.00    -0.248 NA
ATOM     50  C   UNL A   1      44.970  24.554  28.905  1.00  0.00     0.031 C 
ATOM     51  C   UNL A   1      46.720  29.810  31.396  1.00  0.00     0.029 A 
ATOM     52  C   UNL A   1      45.956  28.819  30.800  1.00  0.00     0.049 A 
ATOM     53  H   UNL A   1      43.938  28.885  30.188  1.00  0.00     0.167 HD
ATOM     54  C   UNL A   1      45.539  26.563  29.855  1.00  0.00     0.074 A 
ATOM     55  C   UNL A   1      45.951  25.220  29.498  1.00  0.00     0.031 C 
ATOM     56  C   UNL A   1      46.351  27.481  30.436  1.00  0.00     0.031 A 
BRANCH  43  57
ATOM     57  C   UNL A   1      43.646  32.942  31.504  1.00  0.00    -0.014 A 
ATOM     58  C   UNL A   1      43.925  33.994  30.614  1.00  0.00     0.010 A 
ATOM     59  C   UNL A   1      43.466  33.231  32.869  1.00  0.00     0.010 A 
ATOM     60  C   UNL A   1      44.068  35.302  31.085  1.00  0.00     0.020 A 
ATOM     61  C   UNL A   1      43.580  34.543  33.340  1.00  0.00     0.020 A 
ATOM     62  C   UNL A   1      43.900  35.568  32.447  1.00  0.00     0.054 A 
BRANCH  62  63
ATOM     63  S   UNL A   1      44.079  37.276  33.029  1.00  0.00     0.124 S 
ATOM     64  O   UNL A   1      45.344  37.213  33.759  1.00  0.00    -0.237 OA
ATOM     65  O   UNL A   1      44.111  38.039  31.784  1.00  0.00    -0.237 OA
ATOM     66  O   UNL A   1      42.893  37.488  33.856  1.00  0.00    -0.744 OA
ENDBRANCH  62  63
ENDBRANCH  43  57
BRANCH  44  67
ATOM     67  C   UNL A   1      42.361  23.725  27.847  1.00  0.00    -0.014 A 
ATOM     68  C   UNL A   1      42.469  23.514  26.462  1.00  0.00     0.010 A 
ATOM     69  C   UNL A   1      42.107  22.626  28.689  1.00  0.00     0.010 A 
ATOM     70  C   UNL A   1      42.316  22.232  25.926  1.00  0.00     0.020 A 
ATOM     71  C   UNL A   1      41.979  21.339  28.160  1.00  0.00     0.020 A 
ATOM     72  C   UNL A   1      42.075  21.152  26.780  1.00  0.00     0.054 A 
BRANCH  72  73
ATOM     73  S   UNL A   1      41.942  19.487  26.069  1.00  0.00     0.124 S 
ATOM     74  O   UNL A   1      40.508  19.372  25.830  1.00  0.00    -0.237 OA
ATOM     75  O   UNL A   1      42.780  19.585  24.876  1.00  0.00    -0.237 OA
ATOM     76  O   UNL A   1      42.474  18.624  27.122  1.00  0.00    -0.744 OA
ENDBRANCH  72  73
ENDBRANCH  44  67
BRANCH  56  77
ATOM     77  C   UNL A   1      47.758  27.056  30.756  1.00  0.00    -0.014 A 
ATOM     78  C   UNL A   1      48.820  27.336  29.878  1.00  0.00     0.010 A 
ATOM     79  C   UNL A   1      48.028  26.415  31.979  1.00  0.00     0.010 A 
ATOM     80  C   UNL A   1      50.125  26.956  30.206  1.00  0.00     0.020 A 
ATOM     81  C   UNL A   1      49.334  26.058  32.321  1.00  0.00     0.020 A 
ATOM     82  C   UNL A   1      50.373  26.319  31.425  1.00  0.00     0.054 A 
BRANCH  82  83
ATOM     83  S   UNL A   1      52.080  25.876  31.848  1.00  0.00     0.124 S 
ATOM     84  O   UNL A   1      52.414  26.881  32.854  1.00  0.00    -0.237 OA
ATOM     85  O   UNL A   1      51.944  24.510  32.345  1.00  0.00    -0.237 OA
ATOM     86  O   UNL A   1      52.795  26.002  30.580  1.00  0.00    -0.744 OA
ENDBRANCH  82  83
ENDBRANCH  56  77
ENDBRANCH  30  31
ENDBRANCH  22  25
ENDBRANCH   1  21
TORSDOF 14
ENDMDL
MODEL 2
REMARK VINA RESULT:     -10.7      2.590      9.161
REMARK SMILES CC1(C)CCN(c2ncccc2C(=O)NCCCNC(=O)c2ccc(-c3c4nc(c(-c5ccc(S(=O)(=O)[O-])cc5)c5ccc([nH]5)c(-c5ccc(S(=O)(=O)[O-])cc5)c5nc(c(-c6ccc(S(=O)(=O)[O-])cc6)c6ccc3[nH]6)C=C5)C=C4)cc2)C1
REMARK SMILES IDX 18 1 17 2 16 3 15 4 13 5 14 6 12 8 7 9 8 10 9 11 11 12 10 13
REMARK SMILES IDX 6 14 1 15 2 16 3 17 4 18 82 19 5 20 19 21 20 22 21 24 22 25
REMARK SMILES IDX 23 26 81 27 24 28 80 29 25 30 26 31 27 32 74 33 28 34 79 35
REMARK SMILES IDX 73 36 75 37 29 38 78 39 72 40 71 41 30 43 60 44 41 45 59 46
REMARK SMILES IDX 42 47 45 48 58 49 76 50 43 51 44 52 57 54 77 55 46 56 31 57
REMARK SMILES IDX 32 58 40 59 33 60 39 61 34 62 35 63 36 64 37 65 38 66 61 67
REMARK SMILES IDX 62 68 70 69 63 70 69 71 64 72 65 73 66 74 67 75 68 76 47 77
REMARK SMILES IDX 48 78 56 79 49 80 55 81 50 82 51 83 52 84 53 85 54 86
REMARK H PARENT 15 7 19 23 75 42 45 53
REMARK Flexibility Score: inf
ROOT
ATOM      1  C   UNL A   1      36.797  23.859  25.105  1.00  0.00     0.118 C 
ENDROOT
BRANCH   1   2
ATOM      2  C   UNL A   1      35.656  23.966  26.121  1.00  0.00     0.042 C 
BRANCH   2   3
ATOM      3  C   UNL A   1      34.913  22.649  26.342  1.00  0.00     0.118 C 
BRANCH   3   4
ATOM      4  N   UNL A   1      33.668  22.874  27.046  1.00  0.00    -0.352 N 
ATOM      5  C   UNL A   1      32.454  23.444  26.758  1.00  0.00     0.255 C 
ATOM      6  O   UNL A   1      31.685  23.427  27.721  1.00  0.00    -0.269 OA
ATOM      7  H   UNL A   1      33.701  22.529  27.968  1.00  0.00     0.163 HD
BRANCH   5   8
ATOM      8  C   UNL A   1      32.058  23.989  25.413  1.00  0.00     0.082 A 
ATOM      9  C   UNL A   1      31.851  25.375  25.224  1.00  0.00     0.141 A 
ATOM     10  N   UNL A   1      31.275  25.858  24.086  1.00  0.00    -0.238 NA
ATOM     11  C   UNL A   1      30.987  25.005  23.086  1.00  0.00     0.113 A 
ATOM     12  C   UNL A   1      31.823  23.157  24.311  1.00  0.00     0.019 A 
ATOM     13  C   UNL A   1      31.269  23.660  23.138  1.00  0.00     0.021 A 
BRANCH   9  14
ATOM     14  N   UNL A   1      32.295  26.338  26.104  1.00  0.00    -0.355 N 
ATOM     15  C   UNL A   1      32.938  29.417  25.248  1.00  0.00     0.013 C 
ATOM     16  C   UNL A   1      33.388  28.448  26.352  1.00  0.00    -0.016 C 
ATOM     17  C   UNL A   1      34.688  28.963  26.978  1.00  0.00     0.013 C 
ATOM     18  C   UNL A   1      32.289  28.260  27.411  1.00  0.00     0.030 C 
ATOM     19  C   UNL A   1      33.558  27.018  25.790  1.00  0.00     0.124 C 
ATOM     20  C   UNL A   1      31.364  27.222  26.780  1.00  0.00     0.119 C 
ENDBRANCH   9  14
ENDBRANCH   5   8
ENDBRANCH   3   4
ENDBRANCH   2   3
ENDBRANCH   1   2
BRANCH   1  21
ATOM     21  N   UNL A   1      37.756  22.823  25.464  1.00  0.00    -0.352 N 
ATOM     22  C   UNL A   1      38.980  22.922  26.078  1.00  0.00     0.251 C 
ATOM     23  H   UNL A   1      37.483  21.906  25.230  1.00  0.00     0.163 HD
ATOM     24  O   UNL A   1      39.741  21.960  26.061  1.00  0.00    -0.269 OA
BRANCH  22  25
ATOM     25  C   UNL A   1      39.382  24.174  26.753  1.00  0.00     0.039 A 
ATOM     26  C   UNL A   1      38.973  24.392  28.072  1.00  0.00     0.014 A 
ATOM     27  C   UNL A   1      40.114  25.153  26.077  1.00  0.00     0.014 A 
ATOM     28  C   UNL A   1      39.344  25.568  28.728  1.00  0.00     0.010 A 
ATOM     29  C   UNL A   1      40.540  26.294  26.754  1.00  0.00     0.010 A 
ATOM     30  C   UNL A   1      40.155  26.516  28.084  1.00  0.00    -0.014 A 
BRANCH  30  31
ATOM     31  C   UNL A   1      40.614  27.741  28.786  1.00  0.00     0.031 A 
ATOM     32  C   UNL A   1      41.981  27.790  29.412  1.00  0.00     0.074 A 
ATOM     33  C   UNL A   1      39.771  28.784  28.919  1.00  0.00     0.049 A 
ATOM     34  N   UNL A   1      42.528  28.741  30.125  1.00  0.00    -0.248 NA
ATOM     35  C   UNL A   1      42.836  26.604  29.237  1.00  0.00     0.031 C 
ATOM     36  C   UNL A   1      38.406  28.843  28.391  1.00  0.00     0.029 A 
ATOM     37  N   UNL A   1      39.935  29.993  29.548  1.00  0.00    -0.354 N 
ATOM     38  C   UNL A   1      43.778  28.264  30.500  1.00  0.00     0.074 A 
ATOM     39  C   UNL A   1      43.892  26.921  29.973  1.00  0.00     0.031 C 
ATOM     40  C   UNL A   1      37.866  30.033  28.698  1.00  0.00     0.029 A 
ATOM     41  C   UNL A   1      38.828  30.805  29.479  1.00  0.00     0.049 A 
ATOM     42  H   UNL A   1      40.767  30.254  30.006  1.00  0.00     0.167 HD
ATOM     43  C   UNL A   1      44.751  28.891  31.206  1.00  0.00     0.031 A 
ATOM     44  C   UNL A   1      38.606  32.031  29.991  1.00  0.00     0.031 A 
ATOM     45  C   UNL A   1      44.637  30.231  31.718  1.00  0.00     0.049 A 
ATOM     46  C   UNL A   1      39.700  32.708  30.770  1.00  0.00     0.074 A 
ATOM     47  C   UNL A   1      45.586  30.977  32.395  1.00  0.00     0.029 A 
ATOM     48  N   UNL A   1      43.506  31.026  31.610  1.00  0.00    -0.354 N 
ATOM     49  N   UNL A   1      40.898  32.263  31.062  1.00  0.00    -0.248 NA
ATOM     50  C   UNL A   1      39.415  34.057  31.277  1.00  0.00     0.031 C 
ATOM     51  C   UNL A   1      45.013  32.206  32.738  1.00  0.00     0.029 A 
ATOM     52  C   UNL A   1      43.726  32.247  32.225  1.00  0.00     0.049 A 
ATOM     53  H   UNL A   1      42.671  30.762  31.161  1.00  0.00     0.167 HD
ATOM     54  C   UNL A   1      41.521  33.288  31.764  1.00  0.00     0.074 A 
ATOM     55  C   UNL A   1      40.571  34.380  31.842  1.00  0.00     0.031 C 
ATOM     56  C   UNL A   1      42.768  33.323  32.296  1.00  0.00     0.031 A 
BRANCH  43  57
ATOM     57  C   UNL A   1      46.022  28.126  31.471  1.00  0.00    -0.014 A 
ATOM     58  C   UNL A   1      47.108  28.190  30.580  1.00  0.00     0.010 A 
ATOM     59  C   UNL A   1      46.144  27.357  32.643  1.00  0.00     0.010 A 
ATOM     60  C   UNL A   1      48.274  27.461  30.830  1.00  0.00     0.020 A 
ATOM     61  C   UNL A   1      47.320  26.650  32.911  1.00  0.00     0.020 A 
ATOM     62  C   UNL A   1      48.371  26.691  31.992  1.00  0.00     0.054 A 
BRANCH  62  63
ATOM     63  S   UNL A   1      49.901  25.766  32.299  1.00  0.00     0.124 S 
ATOM     64  O   UNL A   1      49.575  25.047  33.529  1.00  0.00    -0.237 OA
ATOM     65  O   UNL A   1      50.021  24.938  31.101  1.00  0.00    -0.237 OA
ATOM     66  O   UNL A   1      50.915  26.808  32.437  1.00  0.00    -0.744 OA
ENDBRANCH  62  63
ENDBRANCH  43  57
BRANCH  44  67
ATOM     67  C   UNL A   1      37.297  32.701  29.765  1.00  0.00    -0.014 A 
ATOM     68  C   UNL A   1      36.257  32.568  30.700  1.00  0.00     0.010 A 
ATOM     69  C   UNL A   1      37.093  33.500  28.624  1.00  0.00     0.010 A 
ATOM     70  C   UNL A   1      35.033  33.212  30.496  1.00  0.00     0.020 A 
ATOM     71  C   UNL A   1      35.880  34.166  28.429  1.00  0.00     0.020 A 
ATOM     72  C   UNL A   1      34.854  34.010  29.363  1.00  0.00     0.054 A 
BRANCH  72  73
ATOM     73  S   UNL A   1      33.279  34.887  29.150  1.00  0.00     0.124 S 
ATOM     74  O   UNL A   1      32.725  34.850  30.499  1.00  0.00    -0.237 OA
ATOM     75  O   UNL A   1      33.711  36.200  28.675  1.00  0.00    -0.237 OA
ATOM     76  O   UNL A   1      32.571  34.080  28.158  1.00  0.00    -0.744 OA
ENDBRANCH  72  73
ENDBRANCH  44  67
BRANCH  56  77
ATOM     77  C   UNL A   1      43.193  34.593  32.981  1.00  0.00    -0.014 A 
ATOM     78  C   UNL A   1      42.945  34.801  34.349  1.00  0.00     0.010 A 
ATOM     79  C   UNL A   1      43.899  35.570  32.254  1.00  0.00     0.010 A 
ATOM     80  C   UNL A   1      43.372  35.978  34.972  1.00  0.00     0.020 A 
ATOM     81  C   UNL A   1      44.350  36.734  32.880  1.00  0.00     0.020 A 
ATOM     82  C   UNL A   1      44.071  36.937  34.233  1.00  0.00     0.054 A 
BRANCH  82  83
ATOM     83  S   UNL A   1      44.653  38.434  35.074  1.00  0.00     0.124 S 
ATOM     84  O   UNL A   1      44.534  38.058  36.480  1.00  0.00    -0.237 OA
ATOM     85  O   UNL A   1      46.019  38.573  34.575  1.00  0.00    -0.237 OA
ATOM     86  O   UNL A   1      43.724  39.468  34.624  1.00  0.00    -0.744 OA
ENDBRANCH  82  83
ENDBRANCH  56  77
ENDBRANCH  30  31
ENDBRANCH  22  25
ENDBRANCH   1  21
TORSDOF 14
ENDMDL
MODEL 3
REMARK VINA RESULT:     -10.6      3.182      4.574
REMARK SMILES CC1(C)CCN(c2ncccc2C(=O)NCCCNC(=O)c2ccc(-c3c4nc(c(-c5ccc(S(=O)(=O)[O-])cc5)c5ccc([nH]5)c(-c5ccc(S(=O)(=O)[O-])cc5)c5nc(c(-c6ccc(S(=O)(=O)[O-])cc6)c6ccc3[nH]6)C=C5)C=C4)cc2)C1
REMARK SMILES IDX 18 1 17 2 16 3 15 4 13 5 14 6 12 8 7 9 8 10 9 11 11 12 10 13
REMARK SMILES IDX 6 14 1 15 2 16 3 17 4 18 82 19 5 20 19 21 20 22 21 24 22 25
REMARK SMILES IDX 23 26 81 27 24 28 80 29 25 30 26 31 27 32 74 33 28 34 79 35
REMARK SMILES IDX 73 36 75 37 29 38 78 39 72 40 71 41 30 43 60 44 41 45 59 46
REMARK SMILES IDX 42 47 45 48 58 49 76 50 43 51 44 52 57 54 77 55 46 56 31 57
REMARK SMILES IDX 32 58 40 59 33 60 39 61 34 62 35 63 36 64 37 65 38 66 61 67
REMARK SMILES IDX 62 68 70 69 63 70 69 71 64 72 65 73 66 74 67 75 68 76 47 77
REMARK SMILES IDX 48 78 56 79 49 80 55 81 50 82 51 83 52 84 53 85 54 86
REMARK H PARENT 15 7 19 23 75 42 45 53
REMARK Flexibility Score: inf
ROOT
ATOM      1  C   UNL A   1      34.044  29.036  26.066  1.00  0.00     0.118 C 
ENDROOT
BRANCH   1   2
ATOM      2  C   UNL A   1      33.241  28.019  26.881  1.00  0.00     0.042 C 
BRANCH   2   3
ATOM      3  C   UNL A   1      31.764  28.386  27.028  1.00  0.00     0.118 C 
BRANCH   3   4
ATOM      4  N   UNL A   1      30.924  27.223  26.832  1.00  0.00    -0.352 N 
ATOM      5  C   UNL A   1      30.600  26.397  25.785  1.00  0.00     0.255 C 
ATOM      6  O   UNL A   1      29.792  25.525  26.106  1.00  0.00    -0.269 OA
ATOM      7  H   UNL A   1      30.469  26.956  27.663  1.00  0.00     0.163 HD
BRANCH   5   8
ATOM      8  C   UNL A   1      31.191  26.489  24.405  1.00  0.00     0.082 A 
ATOM      9  C   UNL A   1      30.525  27.196  23.376  1.00  0.00     0.141 A 
ATOM     10  N   UNL A   1      30.922  27.098  22.075  1.00  0.00    -0.238 NA
ATOM     11  C   UNL A   1      32.028  26.391  21.781  1.00  0.00     0.113 A 
ATOM     12  C   UNL A   1      32.383  25.841  24.059  1.00  0.00     0.019 A 
ATOM     13  C   UNL A   1      32.805  25.776  22.734  1.00  0.00     0.021 A 
BRANCH   9  14
ATOM     14  N   UNL A   1      29.509  28.098  23.607  1.00  0.00    -0.355 N 
ATOM     15  C   UNL A   1      28.546  30.336  21.441  1.00  0.00     0.013 C 
ATOM     16  C   UNL A   1      28.517  30.176  22.969  1.00  0.00    -0.016 C 
ATOM     17  C   UNL A   1      28.282  31.544  23.617  1.00  0.00     0.013 C 
ATOM     18  C   UNL A   1      27.450  29.157  23.403  1.00  0.00     0.030 C 
ATOM     19  C   UNL A   1      29.825  29.527  23.477  1.00  0.00     0.124 C 
ATOM     20  C   UNL A   1      28.145  27.812  23.205  1.00  0.00     0.119 C 
ENDBRANCH   9  14
ENDBRANCH   5   8
ENDBRANCH   3   4
ENDBRANCH   2   3
ENDBRANCH   1   2
BRANCH   1  21
ATOM     21  N   UNL A   1      33.794  30.405  26.498  1.00  0.00    -0.352 N 
ATOM     22  C   UNL A   1      34.357  31.128  27.520  1.00  0.00     0.251 C 
ATOM     23  H   UNL A   1      33.115  30.888  25.973  1.00  0.00     0.163 HD
ATOM     24  O   UNL A   1      33.829  32.177  27.877  1.00  0.00    -0.269 OA
BRANCH  22  25
ATOM     25  C   UNL A   1      35.586  30.653  28.189  1.00  0.00     0.039 A 
ATOM     26  C   UNL A   1      36.823  31.130  27.748  1.00  0.00     0.014 A 
ATOM     27  C   UNL A   1      35.527  29.702  29.212  1.00  0.00     0.014 A 
ATOM     28  C   UNL A   1      37.996  30.693  28.368  1.00  0.00     0.010 A 
ATOM     29  C   UNL A   1      36.692  29.320  29.874  1.00  0.00     0.010 A 
ATOM     30  C   UNL A   1      37.938  29.807  29.455  1.00  0.00    -0.014 A 
BRANCH  30  31
ATOM     31  C   UNL A   1      39.169  29.382  30.170  1.00  0.00     0.031 A 
ATOM     32  C   UNL A   1      39.600  30.090  31.425  1.00  0.00     0.074 A 
ATOM     33  C   UNL A   1      39.935  28.404  29.647  1.00  0.00     0.049 A 
ATOM     34  N   UNL A   1      40.678  29.910  32.145  1.00  0.00    -0.248 NA
ATOM     35  C   UNL A   1      38.719  31.159  31.923  1.00  0.00     0.031 C 
ATOM     36  C   UNL A   1      39.645  27.668  28.414  1.00  0.00     0.029 A 
ATOM     37  N   UNL A   1      41.120  27.866  30.083  1.00  0.00    -0.354 N 
ATOM     38  C   UNL A   1      40.615  30.851  33.165  1.00  0.00     0.074 A 
ATOM     39  C   UNL A   1      39.416  31.630  32.947  1.00  0.00     0.031 C 
ATOM     40  C   UNL A   1      40.612  26.762  28.205  1.00  0.00     0.029 A 
ATOM     41  C   UNL A   1      41.611  26.877  29.263  1.00  0.00     0.049 A 
ATOM     42  H   UNL A   1      41.576  28.161  30.904  1.00  0.00     0.167 HD
ATOM     43  C   UNL A   1      41.470  31.041  34.200  1.00  0.00     0.031 A 
ATOM     44  C   UNL A   1      42.741  26.150  29.347  1.00  0.00     0.031 A 
ATOM     45  C   UNL A   1      42.656  30.255  34.419  1.00  0.00     0.049 A 
ATOM     46  C   UNL A   1      43.674  26.377  30.504  1.00  0.00     0.074 A 
ATOM     47  C   UNL A   1      43.556  30.330  35.467  1.00  0.00     0.029 A 
ATOM     48  N   UNL A   1      43.107  29.252  33.576  1.00  0.00    -0.354 N 
ATOM     49  N   UNL A   1      43.566  27.232  31.492  1.00  0.00    -0.248 NA
ATOM     50  C   UNL A   1      44.875  25.532  30.563  1.00  0.00     0.031 C 
ATOM     51  C   UNL A   1      44.578  29.403  35.234  1.00  0.00     0.029 A 
ATOM     52  C   UNL A   1      44.284  28.713  34.069  1.00  0.00     0.049 A 
ATOM     53  H   UNL A   1      42.657  28.964  32.749  1.00  0.00     0.167 HD
ATOM     54  C   UNL A   1      44.671  27.010  32.306  1.00  0.00     0.074 A 
ATOM     55  C   UNL A   1      45.427  25.932  31.700  1.00  0.00     0.031 C 
ATOM     56  C   UNL A   1      45.026  27.641  33.452  1.00  0.00     0.031 A 
BRANCH  43  57
ATOM     57  C   UNL A   1      41.154  32.150  35.170  1.00  0.00    -0.014 A 
ATOM     58  C   UNL A   1      40.375  31.913  36.317  1.00  0.00     0.010 A 
ATOM     59  C   UNL A   1      41.668  33.441  34.948  1.00  0.00     0.010 A 
ATOM     60  C   UNL A   1      40.076  32.955  37.198  1.00  0.00     0.020 A 
ATOM     61  C   UNL A   1      41.394  34.480  35.843  1.00  0.00     0.020 A 
ATOM     62  C   UNL A   1      40.583  34.234  36.953  1.00  0.00     0.054 A 
BRANCH  62  63
ATOM     63  S   UNL A   1      40.189  35.565  38.120  1.00  0.00     0.124 S 
ATOM     64  O   UNL A   1      39.016  35.026  38.806  1.00  0.00    -0.237 OA
ATOM     65  O   UNL A   1      41.403  35.654  38.929  1.00  0.00    -0.237 OA
ATOM     66  O   UNL A   1      39.932  36.717  37.260  1.00  0.00    -0.744 OA
ENDBRANCH  62  63
ENDBRANCH  43  57
BRANCH  44  67
ATOM     67  C   UNL A   1      43.039  25.125  28.310  1.00  0.00    -0.014 A 
ATOM     68  C   UNL A   1      43.801  25.458  27.177  1.00  0.00     0.010 A 
ATOM     69  C   UNL A   1      42.585  23.802  28.464  1.00  0.00     0.010 A 
ATOM     70  C   UNL A   1      44.096  24.491  26.212  1.00  0.00     0.020 A 
ATOM     71  C   UNL A   1      42.899  22.826  27.515  1.00  0.00     0.020 A 
ATOM     72  C   UNL A   1      43.646  23.179  26.389  1.00  0.00     0.054 A 
BRANCH  72  73
ATOM     73  S   UNL A   1      44.093  21.926  25.155  1.00  0.00     0.124 S 
ATOM     74  O   UNL A   1      45.468  21.611  25.525  1.00  0.00    -0.237 OA
ATOM     75  O   UNL A   1      43.111  20.873  25.404  1.00  0.00    -0.237 OA
ATOM     76  O   UNL A   1      43.930  22.627  23.882  1.00  0.00    -0.744 OA
ENDBRANCH  72  73
ENDBRANCH  44  67
BRANCH  56  77
ATOM     77  C   UNL A   1      46.271  27.162  34.148  1.00  0.00    -0.014 A 
ATOM     78  C   UNL A   1      46.227  26.100  35.070  1.00  0.00     0.010 A 
ATOM     79  C   UNL A   1      47.511  27.748  33.833  1.00  0.00     0.010 A 
ATOM     80  C   UNL A   1      47.399  25.653  35.685  1.00  0.00     0.020 A 
ATOM     81  C   UNL A   1      48.687  27.285  34.427  1.00  0.00     0.020 A 
ATOM     82  C   UNL A   1      48.622  26.248  35.361  1.00  0.00     0.054 A 
BRANCH  82  83
ATOM     83  S   UNL A   1      50.134  25.620  36.139  1.00  0.00     0.124 S 
ATOM     84  O   UNL A   1      50.008  26.128  37.502  1.00  0.00    -0.237 OA
ATOM     85  O   UNL A   1      49.994  24.173  35.993  1.00  0.00    -0.237 OA
ATOM     86  O   UNL A   1      51.206  26.218  35.347  1.00  0.00    -0.744 OA
ENDBRANCH  82  83
ENDBRANCH  56  77
ENDBRANCH  30  31
ENDBRANCH  22  25
ENDBRANCH   1  21
TORSDOF 14
ENDMDL
