MODEL 1
REMARK VINA RESULT:     -11.7      0.000      0.000
REMARK SMILES CC(C)CN(C)c1cc2c(cc1Cl)C=C(C(=O)NCCCNC(=O)c1ccc(-c3c4nc(c(-c5ccc(S(=O)(=O)[O-])cc5)c5ccc([nH]5)c(-c5ccc(S(=O)(=O)[O-])cc5)c5nc(c(-c6ccc(S(=O)(=O)[O-])cc6)c6ccc3[nH]6)C=C5)C=C4)cc1)[C@H](C(F)(F)F)O2
REMARK SMILES IDX 20 1 19 2 18 3 16 4 17 5 15 7 7 8 8 9 12 10 9 11 11 12 13 13
REMARK SMILES IDX 10 14 90 15 14 16 85 17 5 18 6 19 4 20 2 21 1 22 3 23 86 24
REMARK SMILES IDX 87 25 88 26 89 27 21 28 22 29 23 30 24 32 25 33 26 34 84 35
REMARK SMILES IDX 27 36 83 37 28 38 29 39 30 40 77 41 31 42 82 43 76 44 78 45
REMARK SMILES IDX 32 46 81 47 75 48 74 49 33 51 63 52 44 53 62 54 45 55 48 56
REMARK SMILES IDX 61 57 79 58 46 59 47 60 60 62 80 63 49 64 34 65 35 66 43 67
REMARK SMILES IDX 36 68 42 69 37 70 38 71 39 72 40 73 41 74 64 75 65 76 73 77
REMARK SMILES IDX 66 78 72 79 67 80 68 81 69 82 70 83 71 84 50 85 51 86 59 87
REMARK SMILES IDX 52 88 58 89 53 90 54 91 55 92 56 93 57 94
REMARK H PARENT 18 6 22 31 78 50 48 61
REMARK Flexibility Score: inf
ROOT
ATOM      1  C   UNL A   1      31.588  32.169  26.665  1.00  0.00     0.042 C 
ENDROOT
BRANCH   1   2
ATOM      2  C   UNL A   1      31.859  30.740  26.209  1.00  0.00     0.118 C 
BRANCH   2   3
ATOM      3  N   UNL A   1      31.187  30.451  24.953  1.00  0.00    -0.352 N 
ATOM      4  C   UNL A   1      31.007  29.358  24.180  1.00  0.00     0.251 C 
ATOM      5  O   UNL A   1      30.299  29.510  23.180  1.00  0.00    -0.270 OA
ATOM      6  H   UNL A   1      30.757  31.250  24.570  1.00  0.00     0.163 HD
BRANCH   4   7
ATOM      7  C   UNL A   1      31.566  28.013  24.490  1.00  0.00     0.067 C 
ATOM      8  C   UNL A   1      31.943  23.204  26.034  1.00  0.00     0.059 A 
ATOM      9  C   UNL A   1      32.794  24.109  25.376  1.00  0.00     0.074 A 
ATOM     10  C   UNL A   1      30.686  23.690  26.453  1.00  0.00     0.065 A 
ATOM     11  C   UNL A   1      32.395  25.419  25.107  1.00  0.00     0.130 A 
ATOM     12  C   UNL A   1      30.259  24.980  26.115  1.00  0.00     0.034 A 
ATOM     13  Cl  UNL A   1      29.619  22.760  27.452  1.00  0.00    -0.082 Cl
ATOM     14  C   UNL A   1      31.115  25.845  25.434  1.00  0.00     0.019 A 
ATOM     15  O   UNL A   1      33.336  26.224  24.540  1.00  0.00    -0.475 OA
ATOM     16  C   UNL A   1      30.693  27.191  25.096  1.00  0.00     0.025 C 
ATOM     17  C   UNL A   1      32.951  27.560  24.107  1.00  0.00     0.314 C 
BRANCH   8  18
ATOM     18  N   UNL A   1      32.343  21.869  26.228  1.00  0.00    -0.373 N 
ATOM     19  C   UNL A   1      33.732  21.697  26.653  1.00  0.00     0.143 C 
BRANCH  18  20
ATOM     20  C   UNL A   1      31.847  20.891  25.231  1.00  0.00     0.119 C 
BRANCH  20  21
ATOM     21  C   UNL A   1      32.870  20.606  24.112  1.00  0.00     0.002 C 
ATOM     22  C   UNL A   1      33.588  19.267  24.310  1.00  0.00     0.009 C 
ATOM     23  C   UNL A   1      32.206  20.610  22.732  1.00  0.00     0.009 C 
ENDBRANCH  20  21
ENDBRANCH  18  20
ENDBRANCH   8  18
BRANCH  17  24
ATOM     24  C   UNL A   1      33.276  27.669  22.608  1.00  0.00     0.429 C 
ATOM     25  F   UNL A   1      33.668  28.913  22.252  1.00  0.00    -0.167 F 
ATOM     26  F   UNL A   1      34.248  26.820  22.211  1.00  0.00    -0.167 F 
ATOM     27  F   UNL A   1      32.170  27.372  21.877  1.00  0.00    -0.167 F 
ENDBRANCH  17  24
ENDBRANCH   4   7
ENDBRANCH   2   3
ENDBRANCH   1   2
BRANCH   1  28
ATOM     28  C   UNL A   1      32.746  32.768  27.454  1.00  0.00     0.118 C 
BRANCH  28  29
ATOM     29  N   UNL A   1      32.537  34.183  27.738  1.00  0.00    -0.352 N 
ATOM     30  C   UNL A   1      33.084  34.972  28.720  1.00  0.00     0.251 C 
ATOM     31  H   UNL A   1      31.909  34.643  27.133  1.00  0.00     0.163 HD
ATOM     32  O   UNL A   1      32.592  36.078  28.950  1.00  0.00    -0.269 OA
BRANCH  30  33
ATOM     33  C   UNL A   1      34.235  34.490  29.513  1.00  0.00     0.039 A 
ATOM     34  C   UNL A   1      35.536  34.624  29.029  1.00  0.00     0.014 A 
ATOM     35  C   UNL A   1      34.016  33.898  30.761  1.00  0.00     0.014 A 
ATOM     36  C   UNL A   1      36.587  33.998  29.687  1.00  0.00     0.010 A 
ATOM     37  C   UNL A   1      35.094  33.371  31.479  1.00  0.00     0.010 A 
ATOM     38  C   UNL A   1      36.384  33.372  30.927  1.00  0.00    -0.014 A 
BRANCH  38  39
ATOM     39  C   UNL A   1      37.538  32.746  31.628  1.00  0.00     0.031 A 
ATOM     40  C   UNL A   1      37.948  33.206  33.003  1.00  0.00     0.074 A 
ATOM     41  C   UNL A   1      38.189  31.723  31.036  1.00  0.00     0.049 A 
ATOM     42  N   UNL A   1      38.926  32.766  33.754  1.00  0.00    -0.248 NA
ATOM     43  C   UNL A   1      37.170  34.295  33.617  1.00  0.00     0.031 C 
ATOM     44  C   UNL A   1      37.869  31.177  29.715  1.00  0.00     0.029 A 
ATOM     45  N   UNL A   1      39.229  30.940  31.472  1.00  0.00    -0.354 N 
ATOM     46  C   UNL A   1      38.894  33.534  34.913  1.00  0.00     0.074 A 
ATOM     47  C   UNL A   1      37.821  34.491  34.756  1.00  0.00     0.031 C 
ATOM     48  C   UNL A   1      38.647  30.114  29.476  1.00  0.00     0.029 A 
ATOM     49  C   UNL A   1      39.583  29.951  30.583  1.00  0.00     0.049 A 
ATOM     50  H   UNL A   1      39.678  31.073  32.338  1.00  0.00     0.167 HD
ATOM     51  C   UNL A   1      39.678  33.438  36.012  1.00  0.00     0.031 A 
ATOM     52  C   UNL A   1      40.560  29.023  30.633  1.00  0.00     0.031 A 
ATOM     53  C   UNL A   1      40.726  32.461  36.167  1.00  0.00     0.049 A 
ATOM     54  C   UNL A   1      41.446  28.967  31.844  1.00  0.00     0.074 A 
ATOM     55  C   UNL A   1      41.555  32.269  37.258  1.00  0.00     0.029 A 
ATOM     56  N   UNL A   1      41.088  31.516  35.219  1.00  0.00    -0.354 N 
ATOM     57  N   UNL A   1      41.389  29.694  32.934  1.00  0.00    -0.248 NA
ATOM     58  C   UNL A   1      42.525  27.970  31.838  1.00  0.00     0.031 C 
ATOM     59  C   UNL A   1      42.467  31.261  36.940  1.00  0.00     0.029 A 
ATOM     60  C   UNL A   1      42.151  30.762  35.687  1.00  0.00     0.049 A 
ATOM     61  H   UNL A   1      40.652  31.398  34.344  1.00  0.00     0.167 HD
ATOM     62  C   UNL A   1      42.416  29.235  33.750  1.00  0.00     0.074 A 
ATOM     63  C   UNL A   1      43.063  28.151  33.038  1.00  0.00     0.031 C 
ATOM     64  C   UNL A   1      42.789  29.681  34.973  1.00  0.00     0.031 A 
BRANCH  51  65
ATOM     65  C   UNL A   1      39.451  34.399  37.153  1.00  0.00    -0.014 A 
ATOM     66  C   UNL A   1      40.067  35.666  37.129  1.00  0.00     0.010 A 
ATOM     67  C   UNL A   1      38.759  34.001  38.312  1.00  0.00     0.010 A 
ATOM     68  C   UNL A   1      40.037  36.495  38.253  1.00  0.00     0.020 A 
ATOM     69  C   UNL A   1      38.698  34.842  39.427  1.00  0.00     0.020 A 
ATOM     70  C   UNL A   1      39.363  36.072  39.401  1.00  0.00     0.054 A 
BRANCH  70  71
ATOM     71  S   UNL A   1      39.381  37.138  40.870  1.00  0.00     0.124 S 
ATOM     72  O   UNL A   1      40.804  37.418  41.030  1.00  0.00    -0.237 OA
ATOM     73  O   UNL A   1      38.557  38.270  40.450  1.00  0.00    -0.237 OA
ATOM     74  O   UNL A   1      38.788  36.299  41.909  1.00  0.00    -0.744 OA
ENDBRANCH  70  71
ENDBRANCH  51  65
BRANCH  52  75
ATOM     75  C   UNL A   1      40.721  28.081  29.489  1.00  0.00    -0.014 A 
ATOM     76  C   UNL A   1      39.873  26.962  29.367  1.00  0.00     0.010 A 
ATOM     77  C   UNL A   1      41.783  28.232  28.581  1.00  0.00     0.010 A 
ATOM     78  C   UNL A   1      40.128  25.975  28.412  1.00  0.00     0.020 A 
ATOM     79  C   UNL A   1      42.019  27.264  27.597  1.00  0.00     0.020 A 
ATOM     80  C   UNL A   1      41.211  26.126  27.543  1.00  0.00     0.054 A 
BRANCH  80  81
ATOM     81  S   UNL A   1      41.567  24.796  26.362  1.00  0.00     0.124 S 
ATOM     82  O   UNL A   1      41.606  25.523  25.096  1.00  0.00    -0.237 OA
ATOM     83  O   UNL A   1      42.851  24.286  26.834  1.00  0.00    -0.237 OA
ATOM     84  O   UNL A   1      40.438  23.882  26.524  1.00  0.00    -0.744 OA
ENDBRANCH  80  81
ENDBRANCH  52  75
BRANCH  64  85
ATOM     85  C   UNL A   1      43.959  29.013  35.652  1.00  0.00    -0.014 A 
ATOM     86  C   UNL A   1      43.738  27.891  36.475  1.00  0.00     0.010 A 
ATOM     87  C   UNL A   1      45.243  29.583  35.599  1.00  0.00     0.010 A 
ATOM     88  C   UNL A   1      44.766  27.384  37.272  1.00  0.00     0.020 A 
ATOM     89  C   UNL A   1      46.283  29.055  36.370  1.00  0.00     0.020 A 
ATOM     90  C   UNL A   1      46.030  27.979  37.224  1.00  0.00     0.054 A 
BRANCH  90  91
ATOM     91  S   UNL A   1      47.334  27.343  38.312  1.00  0.00     0.124 S 
ATOM     92  O   UNL A   1      48.506  27.384  37.443  1.00  0.00    -0.237 OA
ATOM     93  O   UNL A   1      47.329  28.304  39.412  1.00  0.00    -0.237 OA
ATOM     94  O   UNL A   1      46.865  26.004  38.664  1.00  0.00    -0.744 OA
ENDBRANCH  90  91
ENDBRANCH  64  85
ENDBRANCH  38  39
ENDBRANCH  30  33
ENDBRANCH  28  29
ENDBRANCH   1  28
TORSDOF 17
ENDMDL
MODEL 2
REMARK VINA RESULT:     -11.7      4.117      9.290
REMARK SMILES CC(C)CN(C)c1cc2c(cc1Cl)C=C(C(=O)NCCCNC(=O)c1ccc(-c3c4nc(c(-c5ccc(S(=O)(=O)[O-])cc5)c5ccc([nH]5)c(-c5ccc(S(=O)(=O)[O-])cc5)c5nc(c(-c6ccc(S(=O)(=O)[O-])cc6)c6ccc3[nH]6)C=C5)C=C4)cc1)[C@H](C(F)(F)F)O2
REMARK SMILES IDX 20 1 19 2 18 3 16 4 17 5 15 7 7 8 8 9 12 10 9 11 11 12 13 13
REMARK SMILES IDX 10 14 90 15 14 16 85 17 5 18 6 19 4 20 2 21 1 22 3 23 86 24
REMARK SMILES IDX 87 25 88 26 89 27 21 28 22 29 23 30 24 32 25 33 26 34 84 35
REMARK SMILES IDX 27 36 83 37 28 38 29 39 30 40 77 41 31 42 82 43 76 44 78 45
REMARK SMILES IDX 32 46 81 47 75 48 74 49 33 51 63 52 44 53 62 54 45 55 48 56
REMARK SMILES IDX 61 57 79 58 46 59 47 60 60 62 80 63 49 64 34 65 35 66 43 67
REMARK SMILES IDX 36 68 42 69 37 70 38 71 39 72 40 73 41 74 64 75 65 76 73 77
REMARK SMILES IDX 66 78 72 79 67 80 68 81 69 82 70 83 71 84 50 85 51 86 59 87
REMARK SMILES IDX 52 88 58 89 53 90 54 91 55 92 56 93 57 94
REMARK H PARENT 18 6 22 31 78 50 48 61
REMARK Flexibility Score: inf
ROOT
ATOM      1  C   UNL A   1      32.213  28.138  26.571  1.00  0.00     0.042 C 
ENDROOT
BRANCH   1   2
ATOM      2  C   UNL A   1      31.533  29.248  25.778  1.00  0.00     0.118 C 
BRANCH   2   3
ATOM      3  N   UNL A   1      32.107  29.372  24.448  1.00  0.00    -0.352 N 
ATOM      4  C   UNL A   1      32.578  28.518  23.513  1.00  0.00     0.251 C 
ATOM      5  O   UNL A   1      32.940  29.025  22.448  1.00  0.00    -0.270 OA
ATOM      6  H   UNL A   1      32.168  30.311  24.157  1.00  0.00     0.163 HD
BRANCH   4   7
ATOM      7  C   UNL A   1      32.639  27.040  23.685  1.00  0.00     0.067 C 
ATOM      8  C   UNL A   1      34.185  22.424  25.085  1.00  0.00     0.059 A 
ATOM      9  C   UNL A   1      33.045  22.942  24.446  1.00  0.00     0.074 A 
ATOM     10  C   UNL A   1      35.222  23.333  25.389  1.00  0.00     0.065 A 
ATOM     11  C   UNL A   1      32.923  24.305  24.166  1.00  0.00     0.130 A 
ATOM     12  C   UNL A   1      35.064  24.708  25.177  1.00  0.00     0.034 A 
ATOM     13  Cl  UNL A   1      36.764  22.814  25.983  1.00  0.00    -0.082 Cl
ATOM     14  C   UNL A   1      33.908  25.195  24.568  1.00  0.00     0.019 A 
ATOM     15  O   UNL A   1      31.812  24.673  23.471  1.00  0.00    -0.475 OA
ATOM     16  C   UNL A   1      33.742  26.615  24.324  1.00  0.00     0.025 C 
ATOM     17  C   UNL A   1      31.549  26.090  23.263  1.00  0.00     0.314 C 
BRANCH   8  18
ATOM     18  N   UNL A   1      34.250  21.060  25.419  1.00  0.00    -0.373 N 
ATOM     19  C   UNL A   1      35.424  20.354  24.907  1.00  0.00     0.143 C 
BRANCH  18  20
ATOM     20  C   UNL A   1      32.970  20.314  25.357  1.00  0.00     0.119 C 
BRANCH  20  21
ATOM     21  C   UNL A   1      33.013  19.135  24.364  1.00  0.00     0.002 C 
ATOM     22  C   UNL A   1      32.504  17.831  24.987  1.00  0.00     0.009 C 
ATOM     23  C   UNL A   1      32.192  19.433  23.106  1.00  0.00     0.009 C 
ENDBRANCH  20  21
ENDBRANCH  18  20
ENDBRANCH   8  18
BRANCH  17  24
ATOM     24  C   UNL A   1      30.162  26.393  23.853  1.00  0.00     0.429 C 
ATOM     25  F   UNL A   1      29.698  27.609  23.488  1.00  0.00    -0.167 F 
ATOM     26  F   UNL A   1      29.223  25.489  23.498  1.00  0.00    -0.167 F 
ATOM     27  F   UNL A   1      30.229  26.380  25.210  1.00  0.00    -0.167 F 
ENDBRANCH  17  24
ENDBRANCH   4   7
ENDBRANCH   2   3
ENDBRANCH   1   2
BRANCH   1  28
ATOM     28  C   UNL A   1      33.523  28.584  27.209  1.00  0.00     0.118 C 
BRANCH  28  29
ATOM     29  N   UNL A   1      33.536  30.016  27.483  1.00  0.00    -0.352 N 
ATOM     30  C   UNL A   1      34.479  30.778  28.127  1.00  0.00     0.251 C 
ATOM     31  H   UNL A   1      32.750  30.511  27.154  1.00  0.00     0.163 HD
ATOM     32  O   UNL A   1      34.192  31.924  28.478  1.00  0.00    -0.269 OA
BRANCH  30  33
ATOM     33  C   UNL A   1      35.817  30.223  28.421  1.00  0.00     0.039 A 
ATOM     34  C   UNL A   1      36.080  29.618  29.650  1.00  0.00     0.014 A 
ATOM     35  C   UNL A   1      36.825  30.303  27.456  1.00  0.00     0.014 A 
ATOM     36  C   UNL A   1      37.384  29.277  29.987  1.00  0.00     0.010 A 
ATOM     37  C   UNL A   1      38.115  29.850  27.758  1.00  0.00     0.010 A 
ATOM     38  C   UNL A   1      38.418  29.377  29.043  1.00  0.00    -0.014 A 
BRANCH  38  39
ATOM     39  C   UNL A   1      39.797  28.964  29.422  1.00  0.00     0.031 A 
ATOM     40  C   UNL A   1      40.349  27.629  28.993  1.00  0.00     0.074 A 
ATOM     41  C   UNL A   1      40.571  29.823  30.118  1.00  0.00     0.049 A 
ATOM     42  N   UNL A   1      41.529  27.117  29.235  1.00  0.00    -0.248 NA
ATOM     43  C   UNL A   1      39.473  26.755  28.195  1.00  0.00     0.031 C 
ATOM     44  C   UNL A   1      40.152  31.151  30.571  1.00  0.00     0.029 A 
ATOM     45  N   UNL A   1      41.874  29.727  30.541  1.00  0.00    -0.354 N 
ATOM     46  C   UNL A   1      41.529  25.860  28.640  1.00  0.00     0.074 A 
ATOM     47  C   UNL A   1      40.222  25.670  28.053  1.00  0.00     0.031 C 
ATOM     48  C   UNL A   1      41.191  31.769  31.148  1.00  0.00     0.029 A 
ATOM     49  C   UNL A   1      42.326  30.854  31.189  1.00  0.00     0.049 A 
ATOM     50  H   UNL A   1      42.430  28.928  30.395  1.00  0.00     0.167 HD
ATOM     51  C   UNL A   1      42.535  24.956  28.578  1.00  0.00     0.031 A 
ATOM     52  C   UNL A   1      43.512  31.125  31.770  1.00  0.00     0.031 A 
ATOM     53  C   UNL A   1      43.843  25.169  29.144  1.00  0.00     0.049 A 
ATOM     54  C   UNL A   1      44.596  30.087  31.728  1.00  0.00     0.074 A 
ATOM     55  C   UNL A   1      44.936  24.321  29.105  1.00  0.00     0.029 A 
ATOM     56  N   UNL A   1      44.240  26.301  29.840  1.00  0.00    -0.354 N 
ATOM     57  N   UNL A   1      44.579  28.910  31.148  1.00  0.00    -0.248 NA
ATOM     58  C   UNL A   1      45.856  30.407  32.410  1.00  0.00     0.031 C 
ATOM     59  C   UNL A   1      45.967  24.905  29.844  1.00  0.00     0.029 A 
ATOM     60  C   UNL A   1      45.550  26.157  30.267  1.00  0.00     0.049 A 
ATOM     61  H   UNL A   1      43.675  27.090  30.006  1.00  0.00     0.167 HD
ATOM     62  C   UNL A   1      45.829  28.353  31.386  1.00  0.00     0.074 A 
ATOM     63  C   UNL A   1      46.586  29.331  32.140  1.00  0.00     0.031 C 
ATOM     64  C   UNL A   1      46.299  27.137  31.017  1.00  0.00     0.031 A 
BRANCH  51  65
ATOM     65  C   UNL A   1      42.290  23.644  27.874  1.00  0.00    -0.014 A 
ATOM     66  C   UNL A   1      41.813  22.539  28.606  1.00  0.00     0.010 A 
ATOM     67  C   UNL A   1      42.669  23.457  26.531  1.00  0.00     0.010 A 
ATOM     68  C   UNL A   1      41.764  21.267  28.029  1.00  0.00     0.020 A 
ATOM     69  C   UNL A   1      42.591  22.193  25.940  1.00  0.00     0.020 A 
ATOM     70  C   UNL A   1      42.166  21.100  26.702  1.00  0.00     0.054 A 
BRANCH  70  71
ATOM     71  S   UNL A   1      42.148  19.432  25.986  1.00  0.00     0.124 S 
ATOM     72  O   UNL A   1      40.729  19.223  25.727  1.00  0.00    -0.237 OA
ATOM     73  O   UNL A   1      42.992  19.586  24.804  1.00  0.00    -0.237 OA
ATOM     74  O   UNL A   1      42.720  18.601  27.044  1.00  0.00    -0.744 OA
ENDBRANCH  70  71
ENDBRANCH  51  65
BRANCH  52  75
ATOM     75  C   UNL A   1      43.708  32.448  32.428  1.00  0.00    -0.014 A 
ATOM     76  C   UNL A   1      43.303  32.645  33.763  1.00  0.00     0.010 A 
ATOM     77  C   UNL A   1      44.198  33.545  31.698  1.00  0.00     0.010 A 
ATOM     78  C   UNL A   1      43.310  33.921  34.329  1.00  0.00     0.020 A 
ATOM     79  C   UNL A   1      44.243  34.819  32.275  1.00  0.00     0.020 A 
ATOM     80  C   UNL A   1      43.765  35.004  33.575  1.00  0.00     0.054 A 
BRANCH  80  81
ATOM     81  S   UNL A   1      43.694  36.662  34.306  1.00  0.00     0.124 S 
ATOM     82  O   UNL A   1      42.649  36.500  35.314  1.00  0.00    -0.237 OA
ATOM     83  O   UNL A   1      45.047  36.838  34.826  1.00  0.00    -0.237 OA
ATOM     84  O   UNL A   1      43.346  37.521  33.176  1.00  0.00    -0.744 OA
ENDBRANCH  80  81
ENDBRANCH  52  75
BRANCH  64  85
ATOM     85  C   UNL A   1      47.704  26.763  31.414  1.00  0.00    -0.014 A 
ATOM     86  C   UNL A   1      48.771  27.026  30.532  1.00  0.00     0.010 A 
ATOM     87  C   UNL A   1      47.949  26.018  32.581  1.00  0.00     0.010 A 
ATOM     88  C   UNL A   1      50.043  26.508  30.783  1.00  0.00     0.020 A 
ATOM     89  C   UNL A   1      49.229  25.527  32.853  1.00  0.00     0.020 A 
ATOM     90  C   UNL A   1      50.261  25.750  31.936  1.00  0.00     0.054 A 
BRANCH  90  91
ATOM     91  S   UNL A   1      51.905  25.035  32.213  1.00  0.00     0.124 S 
ATOM     92  O   UNL A   1      52.252  25.564  33.528  1.00  0.00    -0.237 OA
ATOM     93  O   UNL A   1      51.642  23.599  32.159  1.00  0.00    -0.237 OA
ATOM     94  O   UNL A   1      52.697  25.557  31.101  1.00  0.00    -0.744 OA
ENDBRANCH  90  91
ENDBRANCH  64  85
ENDBRANCH  38  39
ENDBRANCH  30  33
ENDBRANCH  28  29
ENDBRANCH   1  28
TORSDOF 17
ENDMDL
MODEL 3
REMARK VINA RESULT:     -11.7      5.917     10.531
REMARK SMILES CC(C)CN(C)c1cc2c(cc1Cl)C=C(C(=O)NCCCNC(=O)c1ccc(-c3c4nc(c(-c5ccc(S(=O)(=O)[O-])cc5)c5ccc([nH]5)c(-c5ccc(S(=O)(=O)[O-])cc5)c5nc(c(-c6ccc(S(=O)(=O)[O-])cc6)c6ccc3[nH]6)C=C5)C=C4)cc1)[C@H](C(F)(F)F)O2
REMARK SMILES IDX 20 1 19 2 18 3 16 4 17 5 15 7 7 8 8 9 12 10 9 11 11 12 13 13
REMARK SMILES IDX 10 14 90 15 14 16 85 17 5 18 6 19 4 20 2 21 1 22 3 23 86 24
REMARK SMILES IDX 87 25 88 26 89 27 21 28 22 29 23 30 24 32 25 33 26 34 84 35
REMARK SMILES IDX 27 36 83 37 28 38 29 39 30 40 77 41 31 42 82 43 76 44 78 45
REMARK SMILES IDX 32 46 81 47 75 48 74 49 33 51 63 52 44 53 62 54 45 55 48 56
REMARK SMILES IDX 61 57 79 58 46 59 47 60 60 62 80 63 49 64 34 65 35 66 43 67
REMARK SMILES IDX 36 68 42 69 37 70 38 71 39 72 40 73 41 74 64 75 65 76 73 77
REMARK SMILES IDX 66 78 72 79 67 80 68 81 69 82 70 83 71 84 50 85 51 86 59 87
REMARK SMILES IDX 52 88 58 89 53 90 54 91 55 92 56 93 57 94
REMARK H PARENT 18 6 22 31 78 50 48 61
REMARK Flexibility Score: inf
ROOT
ATOM      1  C   UNL A   1      34.846  29.253  27.503  1.00  0.00     0.042 C 
ENDROOT
BRANCH   1   2
ATOM      2  C   UNL A   1      33.473  29.378  26.853  1.00  0.00     0.118 C 
BRANCH   2   3
ATOM      3  N   UNL A   1      33.586  29.560  25.415  1.00  0.00    -0.352 N 
ATOM      4  C   UNL A   1      33.481  28.765  24.327  1.00  0.00     0.251 C 
ATOM      5  O   UNL A   1      33.588  29.326  23.233  1.00  0.00    -0.270 OA
ATOM      6  H   UNL A   1      33.789  30.492  25.174  1.00  0.00     0.163 HD
BRANCH   4   7
ATOM      7  C   UNL A   1      33.208  27.302  24.383  1.00  0.00     0.067 C 
ATOM      8  C   UNL A   1      33.753  22.342  25.254  1.00  0.00     0.059 A 
ATOM      9  C   UNL A   1      32.710  23.164  24.792  1.00  0.00     0.074 A 
ATOM     10  C   UNL A   1      34.999  22.958  25.499  1.00  0.00     0.065 A 
ATOM     11  C   UNL A   1      32.886  24.540  24.628  1.00  0.00     0.130 A 
ATOM     12  C   UNL A   1      35.150  24.347  25.407  1.00  0.00     0.034 A 
ATOM     13  Cl  UNL A   1      36.426  22.049  25.869  1.00  0.00    -0.082 Cl
ATOM     14  C   UNL A   1      34.087  25.141  24.975  1.00  0.00     0.019 A 
ATOM     15  O   UNL A   1      31.830  25.216  24.097  1.00  0.00    -0.475 OA
ATOM     16  C   UNL A   1      34.237  26.579  24.856  1.00  0.00     0.025 C 
ATOM     17  C   UNL A   1      31.889  26.669  24.023  1.00  0.00     0.314 C 
BRANCH   8  18
ATOM     18  N   UNL A   1      33.527  20.972  25.478  1.00  0.00    -0.373 N 
ATOM     19  C   UNL A   1      33.471  20.577  26.885  1.00  0.00     0.143 C 
BRANCH  18  20
ATOM     20  C   UNL A   1      34.243  20.040  24.573  1.00  0.00     0.119 C 
BRANCH  20  21
ATOM     21  C   UNL A   1      33.573  18.653  24.493  1.00  0.00     0.002 C 
ATOM     22  C   UNL A   1      32.518  18.581  23.384  1.00  0.00     0.009 C 
ATOM     23  C   UNL A   1      34.605  17.546  24.263  1.00  0.00     0.009 C 
ENDBRANCH  20  21
ENDBRANCH  18  20
ENDBRANCH   8  18
BRANCH  17  24
ATOM     24  C   UNL A   1      30.677  27.219  24.793  1.00  0.00     0.429 C 
ATOM     25  F   UNL A   1      30.333  28.464  24.396  1.00  0.00    -0.167 F 
ATOM     26  F   UNL A   1      29.575  26.447  24.672  1.00  0.00    -0.167 F 
ATOM     27  F   UNL A   1      30.967  27.286  26.119  1.00  0.00    -0.167 F 
ENDBRANCH  17  24
ENDBRANCH   4   7
ENDBRANCH   2   3
ENDBRANCH   1   2
BRANCH   1  28
ATOM     28  C   UNL A   1      35.458  30.602  27.858  1.00  0.00     0.118 C 
BRANCH  28  29
ATOM     29  N   UNL A   1      35.360  30.887  29.284  1.00  0.00    -0.352 N 
ATOM     30  C   UNL A   1      36.293  30.723  30.279  1.00  0.00     0.251 C 
ATOM     31  H   UNL A   1      34.493  31.252  29.579  1.00  0.00     0.163 HD
ATOM     32  O   UNL A   1      35.936  30.784  31.457  1.00  0.00    -0.269 OA
BRANCH  30  33
ATOM     33  C   UNL A   1      37.706  30.451  29.942  1.00  0.00     0.039 A 
ATOM     34  C   UNL A   1      38.149  30.528  28.622  1.00  0.00     0.014 A 
ATOM     35  C   UNL A   1      38.606  30.117  30.958  1.00  0.00     0.014 A 
ATOM     36  C   UNL A   1      39.424  30.084  28.293  1.00  0.00     0.010 A 
ATOM     37  C   UNL A   1      39.926  29.782  30.636  1.00  0.00     0.010 A 
ATOM     38  C   UNL A   1      40.334  29.716  29.295  1.00  0.00    -0.014 A 
BRANCH  38  39
ATOM     39  C   UNL A   1      41.707  29.284  28.914  1.00  0.00     0.031 A 
ATOM     40  C   UNL A   1      41.972  27.878  28.441  1.00  0.00     0.074 A 
ATOM     41  C   UNL A   1      42.711  30.185  28.950  1.00  0.00     0.049 A 
ATOM     42  N   UNL A   1      43.106  27.340  28.069  1.00  0.00    -0.248 NA
ATOM     43  C   UNL A   1      40.827  26.954  28.379  1.00  0.00     0.031 C 
ATOM     44  C   UNL A   1      42.571  31.581  29.370  1.00  0.00     0.029 A 
ATOM     45  N   UNL A   1      44.035  30.077  28.603  1.00  0.00    -0.354 N 
ATOM     46  C   UNL A   1      42.816  26.019  27.750  1.00  0.00     0.074 A 
ATOM     47  C   UNL A   1      41.405  25.822  28.003  1.00  0.00     0.031 C 
ATOM     48  C   UNL A   1      43.739  32.213  29.196  1.00  0.00     0.029 A 
ATOM     49  C   UNL A   1      44.737  31.253  28.737  1.00  0.00     0.049 A 
ATOM     50  H   UNL A   1      44.444  29.238  28.288  1.00  0.00     0.167 HD
ATOM     51  C   UNL A   1      43.648  25.063  27.275  1.00  0.00     0.031 A 
ATOM     52  C   UNL A   1      46.040  31.536  28.535  1.00  0.00     0.031 A 
ATOM     53  C   UNL A   1      45.046  25.279  27.001  1.00  0.00     0.049 A 
ATOM     54  C   UNL A   1      46.952  30.445  28.052  1.00  0.00     0.074 A 
ATOM     55  C   UNL A   1      45.964  24.378  26.491  1.00  0.00     0.029 A 
ATOM     56  N   UNL A   1      45.728  26.470  27.205  1.00  0.00    -0.354 N 
ATOM     57  N   UNL A   1      46.654  29.206  27.743  1.00  0.00    -0.248 NA
ATOM     58  C   UNL A   1      48.371  30.785  27.886  1.00  0.00     0.031 C 
ATOM     59  C   UNL A   1      47.214  24.998  26.460  1.00  0.00     0.029 A 
ATOM     60  C   UNL A   1      47.062  26.314  26.865  1.00  0.00     0.049 A 
ATOM     61  H   UNL A   1      45.324  27.303  27.542  1.00  0.00     0.167 HD
ATOM     62  C   UNL A   1      47.846  28.619  27.336  1.00  0.00     0.074 A 
ATOM     63  C   UNL A   1      48.865  29.647  27.413  1.00  0.00     0.031 C 
ATOM     64  C   UNL A   1      48.071  27.343  26.942  1.00  0.00     0.031 A 
BRANCH  51  65
ATOM     65  C   UNL A   1      43.095  23.684  27.006  1.00  0.00    -0.014 A 
ATOM     66  C   UNL A   1      43.080  22.727  28.040  1.00  0.00     0.010 A 
ATOM     67  C   UNL A   1      42.731  23.288  25.706  1.00  0.00     0.010 A 
ATOM     68  C   UNL A   1      42.759  21.394  27.772  1.00  0.00     0.020 A 
ATOM     69  C   UNL A   1      42.377  21.962  25.441  1.00  0.00     0.020 A 
ATOM     70  C   UNL A   1      42.422  21.017  26.470  1.00  0.00     0.054 A 
BRANCH  70  71
ATOM     71  S   UNL A   1      42.063  19.270  26.130  1.00  0.00     0.124 S 
ATOM     72  O   UNL A   1      42.478  18.623  27.370  1.00  0.00    -0.237 OA
ATOM     73  O   UNL A   1      40.624  19.286  25.876  1.00  0.00    -0.237 OA
ATOM     74  O   UNL A   1      42.889  18.972  24.962  1.00  0.00    -0.744 OA
ENDBRANCH  70  71
ENDBRANCH  51  65
BRANCH  52  75
ATOM     75  C   UNL A   1      46.527  32.921  28.790  1.00  0.00    -0.014 A 
ATOM     76  C   UNL A   1      46.818  33.341  30.102  1.00  0.00     0.010 A 
ATOM     77  C   UNL A   1      46.600  33.858  27.744  1.00  0.00     0.010 A 
ATOM     78  C   UNL A   1      47.096  34.682  30.377  1.00  0.00     0.020 A 
ATOM     79  C   UNL A   1      46.915  35.196  28.011  1.00  0.00     0.020 A 
ATOM     80  C   UNL A   1      47.126  35.604  29.330  1.00  0.00     0.054 A 
BRANCH  80  81
ATOM     81  S   UNL A   1      47.414  37.352  29.721  1.00  0.00     0.124 S 
ATOM     82  O   UNL A   1      46.319  38.003  29.005  1.00  0.00    -0.237 OA
ATOM     83  O   UNL A   1      47.312  37.373  31.178  1.00  0.00    -0.237 OA
ATOM     84  O   UNL A   1      48.750  37.607  29.187  1.00  0.00    -0.744 OA
ENDBRANCH  80  81
ENDBRANCH  52  75
BRANCH  64  85
ATOM     85  C   UNL A   1      49.475  26.951  26.556  1.00  0.00    -0.014 A 
ATOM     86  C   UNL A   1      49.871  27.018  25.206  1.00  0.00     0.010 A 
ATOM     87  C   UNL A   1      50.346  26.374  27.497  1.00  0.00     0.010 A 
ATOM     88  C   UNL A   1      51.087  26.470  24.796  1.00  0.00     0.020 A 
ATOM     89  C   UNL A   1      51.580  25.856  27.096  1.00  0.00     0.020 A 
ATOM     90  C   UNL A   1      51.929  25.880  25.742  1.00  0.00     0.054 A 
BRANCH  90  91
ATOM     91  S   UNL A   1      53.477  25.120  25.180  1.00  0.00     0.124 S 
ATOM     92  O   UNL A   1      54.443  25.644  26.140  1.00  0.00    -0.237 OA
ATOM     93  O   UNL A   1      53.190  23.692  25.289  1.00  0.00    -0.237 OA
ATOM     94  O   UNL A   1      53.625  25.614  23.813  1.00  0.00    -0.744 OA
ENDBRANCH  90  91
ENDBRANCH  64  85
ENDBRANCH  38  39
ENDBRANCH  30  33
ENDBRANCH  28  29
ENDBRANCH   1  28
TORSDOF 17
ENDMDL
