MODEL 1
REMARK VINA RESULT:      -9.7      0.000      0.000
REMARK SMILES Cc1cc(C)nc(N2CCCC[C@H]2C(=O)NCCCNC(=O)c2ccc(-c3c4nc(c(-c5ccc(S(=O)(=O)[O-])cc5)c5ccc([nH]5)c(-c5ccc(S(=O)(=O)[O-])cc5)c5nc(c(-c6ccc(S(=O)(=O)[O-])cc6)c6ccc3[nH]6)C=C5)C=C4)cc2)n1
REMARK SMILES IDX 19 1 18 2 17 3 16 4 14 5 15 6 13 8 8 9 9 10 10 11 12 12
REMARK SMILES IDX 11 13 7 14 1 15 2 16 3 17 83 18 4 19 5 20 6 21 20 22 21 23
REMARK SMILES IDX 22 25 23 26 24 27 82 28 25 29 81 30 26 31 27 32 28 33 75 34
REMARK SMILES IDX 29 35 80 36 74 37 76 38 30 39 79 40 73 41 72 42 31 44 61 45
REMARK SMILES IDX 42 46 60 47 43 48 46 49 59 50 77 51 44 52 45 53 58 55 78 56
REMARK SMILES IDX 47 57 32 58 33 59 41 60 34 61 40 62 35 63 36 64 37 65 38 66
REMARK SMILES IDX 39 67 62 68 63 69 71 70 64 71 70 72 65 73 66 74 67 75 68 76
REMARK SMILES IDX 69 77 48 78 49 79 57 80 50 81 56 82 51 83 52 84 53 85 54 86
REMARK SMILES IDX 55 87
REMARK H PARENT 16 7 20 24 76 43 46 54
REMARK Flexibility Score: inf
ROOT
ATOM      1  C   UNL A   1      34.699  32.706  29.624  1.00  0.00     0.118 C 
ENDROOT
BRANCH   1   2
ATOM      2  C   UNL A   1      35.805  33.527  28.995  1.00  0.00     0.042 C 
BRANCH   2   3
ATOM      3  C   UNL A   1      37.164  33.233  29.574  1.00  0.00     0.117 C 
BRANCH   3   4
ATOM      4  N   UNL A   1      37.634  34.194  30.533  1.00  0.00    -0.354 N 
ATOM      5  C   UNL A   1      37.876  33.947  31.855  1.00  0.00     0.242 C 
ATOM      6  O   UNL A   1      38.469  34.836  32.474  1.00  0.00    -0.273 OA
ATOM      7  H   UNL A   1      37.794  35.110  30.211  1.00  0.00     0.163 HD
BRANCH   5   8
ATOM      8  C   UNL A   1      37.376  32.623  32.518  1.00  0.00     0.174 C 
ATOM      9  N   UNL A   1      38.246  32.151  33.603  1.00  0.00    -0.329 N 
ATOM     10  C   UNL A   1      38.394  32.969  34.783  1.00  0.00     0.120 C 
ATOM     11  C   UNL A   1      37.011  33.214  35.395  1.00  0.00     0.022 C 
ATOM     12  C   UNL A   1      35.970  32.843  33.106  1.00  0.00     0.035 C 
ATOM     13  C   UNL A   1      35.981  33.703  34.377  1.00  0.00     0.004 C 
BRANCH   9  14
ATOM     14  C   UNL A   1      39.073  31.072  33.429  1.00  0.00     0.226 A 
ATOM     15  C   UNL A   1      38.611  27.562  32.459  1.00  0.00     0.067 C 
ATOM     16  C   UNL A   1      39.295  28.833  32.876  1.00  0.00     0.043 A 
ATOM     17  C   UNL A   1      40.566  28.795  33.390  1.00  0.00     0.047 A 
ATOM     18  N   UNL A   1      38.576  29.976  32.837  1.00  0.00    -0.218 NA
ATOM     19  C   UNL A   1      41.061  29.990  33.864  1.00  0.00     0.043 A 
ATOM     20  C   UNL A   1      42.476  30.048  34.356  1.00  0.00     0.067 C 
ATOM     21  N   UNL A   1      40.316  31.120  33.929  1.00  0.00    -0.218 NA
ENDBRANCH   9  14
ENDBRANCH   5   8
ENDBRANCH   3   4
ENDBRANCH   2   3
ENDBRANCH   1   2
BRANCH   1  22
ATOM     22  N   UNL A   1      34.034  31.797  28.689  1.00  0.00    -0.352 N 
ATOM     23  C   UNL A   1      34.500  30.709  27.991  1.00  0.00     0.251 C 
ATOM     24  H   UNL A   1      33.084  32.001  28.534  1.00  0.00     0.163 HD
ATOM     25  O   UNL A   1      33.788  30.196  27.128  1.00  0.00    -0.269 OA
BRANCH  23  26
ATOM     26  C   UNL A   1      35.858  30.178  28.240  1.00  0.00     0.039 A 
ATOM     27  C   UNL A   1      36.839  30.287  27.249  1.00  0.00     0.014 A 
ATOM     28  C   UNL A   1      36.174  29.578  29.455  1.00  0.00     0.014 A 
ATOM     29  C   UNL A   1      38.143  29.864  27.518  1.00  0.00     0.010 A 
ATOM     30  C   UNL A   1      37.497  29.333  29.783  1.00  0.00     0.010 A 
ATOM     31  C   UNL A   1      38.492  29.423  28.805  1.00  0.00    -0.014 A 
BRANCH  31  32
ATOM     32  C   UNL A   1      39.867  28.983  29.148  1.00  0.00     0.031 A 
ATOM     33  C   UNL A   1      40.818  29.951  29.808  1.00  0.00     0.074 A 
ATOM     34  C   UNL A   1      40.288  27.754  28.791  1.00  0.00     0.049 A 
ATOM     35  N   UNL A   1      42.080  29.792  30.114  1.00  0.00    -0.248 NA
ATOM     36  C   UNL A   1      40.299  31.297  30.115  1.00  0.00     0.031 C 
ATOM     37  C   UNL A   1      39.490  26.756  28.073  1.00  0.00     0.029 A 
ATOM     38  N   UNL A   1      41.500  27.138  28.976  1.00  0.00    -0.354 N 
ATOM     39  C   UNL A   1      42.506  31.022  30.605  1.00  0.00     0.074 A 
ATOM     40  C   UNL A   1      41.398  31.937  30.478  1.00  0.00     0.031 C 
ATOM     41  C   UNL A   1      40.221  25.642  27.911  1.00  0.00     0.029 A 
ATOM     42  C   UNL A   1      41.550  25.860  28.473  1.00  0.00     0.049 A 
ATOM     43  H   UNL A   1      42.260  27.571  29.426  1.00  0.00     0.167 HD
ATOM     44  C   UNL A   1      43.701  31.355  31.146  1.00  0.00     0.031 A 
ATOM     45  C   UNL A   1      42.555  24.964  28.463  1.00  0.00     0.031 A 
ATOM     46  C   UNL A   1      44.788  30.427  31.298  1.00  0.00     0.049 A 
ATOM     47  C   UNL A   1      43.858  25.329  29.115  1.00  0.00     0.074 A 
ATOM     48  C   UNL A   1      46.012  30.626  31.909  1.00  0.00     0.029 A 
ATOM     49  N   UNL A   1      44.779  29.122  30.828  1.00  0.00    -0.354 N 
ATOM     50  N   UNL A   1      44.214  26.468  29.662  1.00  0.00    -0.248 NA
ATOM     51  C   UNL A   1      44.886  24.282  29.172  1.00  0.00     0.031 C 
ATOM     52  C   UNL A   1      46.766  29.458  31.757  1.00  0.00     0.029 A 
ATOM     53  C   UNL A   1      45.986  28.508  31.113  1.00  0.00     0.049 A 
ATOM     54  H   UNL A   1      44.026  28.694  30.361  1.00  0.00     0.167 HD
ATOM     55  C   UNL A   1      45.501  26.269  30.150  1.00  0.00     0.074 A 
ATOM     56  C   UNL A   1      45.849  24.894  29.849  1.00  0.00     0.031 C 
ATOM     57  C   UNL A   1      46.319  27.142  30.791  1.00  0.00     0.031 A 
BRANCH  44  58
ATOM     58  C   UNL A   1      43.883  32.784  31.599  1.00  0.00    -0.014 A 
ATOM     59  C   UNL A   1      43.643  33.169  32.932  1.00  0.00     0.010 A 
ATOM     60  C   UNL A   1      44.285  33.761  30.672  1.00  0.00     0.010 A 
ATOM     61  C   UNL A   1      43.727  34.512  33.310  1.00  0.00     0.020 A 
ATOM     62  C   UNL A   1      44.410  35.100  31.054  1.00  0.00     0.020 A 
ATOM     63  C   UNL A   1      44.102  35.471  32.365  1.00  0.00     0.054 A 
BRANCH  63  64
ATOM     64  S   UNL A   1      44.190  37.207  32.877  1.00  0.00     0.124 S 
ATOM     65  O   UNL A   1      42.957  37.355  33.649  1.00  0.00    -0.237 OA
ATOM     66  O   UNL A   1      45.425  37.250  33.656  1.00  0.00    -0.237 OA
ATOM     67  O   UNL A   1      44.226  37.941  31.615  1.00  0.00    -0.744 OA
ENDBRANCH  63  64
ENDBRANCH  44  58
BRANCH  45  68
ATOM     68  C   UNL A   1      42.338  23.631  27.837  1.00  0.00    -0.014 A 
ATOM     69  C   UNL A   1      42.725  23.389  26.507  1.00  0.00     0.010 A 
ATOM     70  C   UNL A   1      41.807  22.573  28.597  1.00  0.00     0.010 A 
ATOM     71  C   UNL A   1      42.583  22.114  25.949  1.00  0.00     0.020 A 
ATOM     72  C   UNL A   1      41.690  21.291  28.051  1.00  0.00     0.020 A 
ATOM     73  C   UNL A   1      42.076  21.071  26.728  1.00  0.00     0.054 A 
BRANCH  73  74
ATOM     74  S   UNL A   1      41.993  19.405  26.013  1.00  0.00     0.124 S 
ATOM     75  O   UNL A   1      42.508  18.580  27.100  1.00  0.00    -0.237 OA
ATOM     76  O   UNL A   1      40.568  19.258  25.726  1.00  0.00    -0.237 OA
ATOM     77  O   UNL A   1      42.851  19.495  24.833  1.00  0.00    -0.744 OA
ENDBRANCH  73  74
ENDBRANCH  45  68
BRANCH  57  78
ATOM     78  C   UNL A   1      47.660  26.627  31.240  1.00  0.00    -0.014 A 
ATOM     79  C   UNL A   1      47.837  26.054  32.511  1.00  0.00     0.010 A 
ATOM     80  C   UNL A   1      48.751  26.679  30.352  1.00  0.00     0.010 A 
ATOM     81  C   UNL A   1      49.094  25.585  32.903  1.00  0.00     0.020 A 
ATOM     82  C   UNL A   1      50.000  26.181  30.728  1.00  0.00     0.020 A 
ATOM     83  C   UNL A   1      50.168  25.655  32.009  1.00  0.00     0.054 A 
BRANCH  83  84
ATOM     84  S   UNL A   1      51.783  25.021  32.535  1.00  0.00     0.124 S 
ATOM     85  O   UNL A   1      52.691  25.709  31.620  1.00  0.00    -0.237 OA
ATOM     86  O   UNL A   1      51.855  25.444  33.931  1.00  0.00    -0.237 OA
ATOM     87  O   UNL A   1      51.671  23.578  32.333  1.00  0.00    -0.744 OA
ENDBRANCH  83  84
ENDBRANCH  57  78
ENDBRANCH  31  32
ENDBRANCH  23  26
ENDBRANCH   1  22
TORSDOF 14
ENDMDL
MODEL 2
REMARK VINA RESULT:      -9.6      1.540      3.420
REMARK SMILES Cc1cc(C)nc(N2CCCC[C@H]2C(=O)NCCCNC(=O)c2ccc(-c3c4nc(c(-c5ccc(S(=O)(=O)[O-])cc5)c5ccc([nH]5)c(-c5ccc(S(=O)(=O)[O-])cc5)c5nc(c(-c6ccc(S(=O)(=O)[O-])cc6)c6ccc3[nH]6)C=C5)C=C4)cc2)n1
REMARK SMILES IDX 19 1 18 2 17 3 16 4 14 5 15 6 13 8 8 9 9 10 10 11 12 12
REMARK SMILES IDX 11 13 7 14 1 15 2 16 3 17 83 18 4 19 5 20 6 21 20 22 21 23
REMARK SMILES IDX 22 25 23 26 24 27 82 28 25 29 81 30 26 31 27 32 28 33 75 34
REMARK SMILES IDX 29 35 80 36 74 37 76 38 30 39 79 40 73 41 72 42 31 44 61 45
REMARK SMILES IDX 42 46 60 47 43 48 46 49 59 50 77 51 44 52 45 53 58 55 78 56
REMARK SMILES IDX 47 57 32 58 33 59 41 60 34 61 40 62 35 63 36 64 37 65 38 66
REMARK SMILES IDX 39 67 62 68 63 69 71 70 64 71 70 72 65 73 66 74 67 75 68 76
REMARK SMILES IDX 69 77 48 78 49 79 57 80 50 81 56 82 51 83 52 84 53 85 54 86
REMARK SMILES IDX 55 87
REMARK H PARENT 16 7 20 24 76 43 46 54
REMARK Flexibility Score: inf
ROOT
ATOM      1  C   UNL A   1      34.411  32.462  28.872  1.00  0.00     0.118 C 
ENDROOT
BRANCH   1   2
ATOM      2  C   UNL A   1      35.409  33.277  28.075  1.00  0.00     0.042 C 
BRANCH   2   3
ATOM      3  C   UNL A   1      36.615  33.687  28.878  1.00  0.00     0.117 C 
BRANCH   3   4
ATOM      4  N   UNL A   1      37.061  32.715  29.838  1.00  0.00    -0.354 N 
ATOM      5  C   UNL A   1      36.955  32.831  31.195  1.00  0.00     0.242 C 
ATOM      6  O   UNL A   1      37.201  31.812  31.848  1.00  0.00    -0.273 OA
ATOM      7  H   UNL A   1      37.478  31.896  29.488  1.00  0.00     0.163 HD
BRANCH   5   8
ATOM      8  C   UNL A   1      36.583  34.202  31.847  1.00  0.00     0.174 C 
ATOM      9  N   UNL A   1      35.282  34.189  32.528  1.00  0.00    -0.329 N 
ATOM     10  C   UNL A   1      35.102  33.324  33.670  1.00  0.00     0.120 C 
ATOM     11  C   UNL A   1      36.155  33.670  34.727  1.00  0.00     0.022 C 
ATOM     12  C   UNL A   1      37.654  34.582  32.888  1.00  0.00     0.035 C 
ATOM     13  C   UNL A   1      37.575  33.734  34.164  1.00  0.00     0.004 C 
BRANCH   9  14
ATOM     14  C   UNL A   1      34.190  34.810  31.981  1.00  0.00     0.226 A 
ATOM     15  C   UNL A   1      33.516  36.635  28.868  1.00  0.00     0.067 C 
ATOM     16  C   UNL A   1      33.288  36.006  30.214  1.00  0.00     0.043 A 
ATOM     17  C   UNL A   1      32.195  36.358  30.962  1.00  0.00     0.047 A 
ATOM     18  N   UNL A   1      34.248  35.186  30.695  1.00  0.00    -0.218 NA
ATOM     19  C   UNL A   1      32.138  35.828  32.233  1.00  0.00     0.043 A 
ATOM     20  C   UNL A   1      30.929  36.094  33.079  1.00  0.00     0.067 C 
ATOM     21  N   UNL A   1      33.142  35.093  32.768  1.00  0.00    -0.218 NA
ENDBRANCH   9  14
ENDBRANCH   5   8
ENDBRANCH   3   4
ENDBRANCH   2   3
ENDBRANCH   1   2
BRANCH   1  22
ATOM     22  N   UNL A   1      33.903  31.290  28.159  1.00  0.00    -0.352 N 
ATOM     23  C   UNL A   1      34.526  30.138  27.740  1.00  0.00     0.251 C 
ATOM     24  H   UNL A   1      32.944  31.333  27.943  1.00  0.00     0.163 HD
ATOM     25  O   UNL A   1      33.921  29.358  27.006  1.00  0.00    -0.269 OA
BRANCH  23  26
ATOM     26  C   UNL A   1      35.922  29.851  28.132  1.00  0.00     0.039 A 
ATOM     27  C   UNL A   1      36.196  29.338  29.403  1.00  0.00     0.014 A 
ATOM     28  C   UNL A   1      36.970  30.077  27.244  1.00  0.00     0.014 A 
ATOM     29  C   UNL A   1      37.506  28.987  29.740  1.00  0.00     0.010 A 
ATOM     30  C   UNL A   1      38.227  29.559  27.508  1.00  0.00     0.010 A 
ATOM     31  C   UNL A   1      38.525  29.054  28.777  1.00  0.00    -0.014 A 
BRANCH  31  32
ATOM     32  C   UNL A   1      39.928  28.672  29.077  1.00  0.00     0.031 A 
ATOM     33  C   UNL A   1      40.859  29.680  29.704  1.00  0.00     0.074 A 
ATOM     34  C   UNL A   1      40.387  27.460  28.708  1.00  0.00     0.049 A 
ATOM     35  N   UNL A   1      42.136  29.574  29.969  1.00  0.00    -0.248 NA
ATOM     36  C   UNL A   1      40.296  31.005  30.025  1.00  0.00     0.031 C 
ATOM     37  C   UNL A   1      39.609  26.428  28.018  1.00  0.00     0.029 A 
ATOM     38  N   UNL A   1      41.629  26.895  28.855  1.00  0.00    -0.354 N 
ATOM     39  C   UNL A   1      42.527  30.822  30.444  1.00  0.00     0.074 A 
ATOM     40  C   UNL A   1      41.378  31.691  30.351  1.00  0.00     0.031 C 
ATOM     41  C   UNL A   1      40.379  25.344  27.835  1.00  0.00     0.029 A 
ATOM     42  C   UNL A   1      41.715  25.619  28.354  1.00  0.00     0.049 A 
ATOM     43  H   UNL A   1      42.385  27.360  29.280  1.00  0.00     0.167 HD
ATOM     44  C   UNL A   1      43.724  31.205  30.946  1.00  0.00     0.031 A 
ATOM     45  C   UNL A   1      42.756  24.765  28.312  1.00  0.00     0.031 A 
ATOM     46  C   UNL A   1      44.852  30.323  31.064  1.00  0.00     0.049 A 
ATOM     47  C   UNL A   1      44.063  25.184  28.922  1.00  0.00     0.074 A 
ATOM     48  C   UNL A   1      46.086  30.574  31.636  1.00  0.00     0.029 A 
ATOM     49  N   UNL A   1      44.882  29.017  30.597  1.00  0.00    -0.354 N 
ATOM     50  N   UNL A   1      44.389  26.339  29.455  1.00  0.00    -0.248 NA
ATOM     51  C   UNL A   1      45.134  24.181  28.948  1.00  0.00     0.031 C 
ATOM     52  C   UNL A   1      46.882  29.437  31.461  1.00  0.00     0.029 A 
ATOM     53  C   UNL A   1      46.121  28.454  30.844  1.00  0.00     0.049 A 
ATOM     54  H   UNL A   1      44.132  28.558  30.156  1.00  0.00     0.167 HD
ATOM     55  C   UNL A   1      45.698  26.194  29.902  1.00  0.00     0.074 A 
ATOM     56  C   UNL A   1      46.093  24.833  29.592  1.00  0.00     0.031 C 
ATOM     57  C   UNL A   1      46.499  27.103  30.514  1.00  0.00     0.031 A 
BRANCH  44  58
ATOM     58  C   UNL A   1      43.861  32.642  31.390  1.00  0.00    -0.014 A 
ATOM     59  C   UNL A   1      44.285  33.649  30.502  1.00  0.00     0.010 A 
ATOM     60  C   UNL A   1      43.578  32.987  32.723  1.00  0.00     0.010 A 
ATOM     61  C   UNL A   1      44.495  34.954  30.955  1.00  0.00     0.020 A 
ATOM     62  C   UNL A   1      43.748  34.301  33.172  1.00  0.00     0.020 A 
ATOM     63  C   UNL A   1      44.233  35.270  32.291  1.00  0.00     0.054 A 
BRANCH  63  64
ATOM     64  S   UNL A   1      44.527  36.966  32.857  1.00  0.00     0.124 S 
ATOM     65  O   UNL A   1      44.962  37.622  31.625  1.00  0.00    -0.237 OA
ATOM     66  O   UNL A   1      43.214  37.371  33.353  1.00  0.00    -0.237 OA
ATOM     67  O   UNL A   1      45.558  36.817  33.881  1.00  0.00    -0.744 OA
ENDBRANCH  63  64
ENDBRANCH  44  58
BRANCH  45  68
ATOM     68  C   UNL A   1      42.574  23.422  27.696  1.00  0.00    -0.014 A 
ATOM     69  C   UNL A   1      42.916  23.195  26.352  1.00  0.00     0.010 A 
ATOM     70  C   UNL A   1      42.122  22.342  28.477  1.00  0.00     0.010 A 
ATOM     71  C   UNL A   1      42.809  21.914  25.800  1.00  0.00     0.020 A 
ATOM     72  C   UNL A   1      42.041  21.055  27.937  1.00  0.00     0.020 A 
ATOM     73  C   UNL A   1      42.382  20.850  26.600  1.00  0.00     0.054 A 
BRANCH  73  74
ATOM     74  S   UNL A   1      42.345  19.180  25.889  1.00  0.00     0.124 S 
ATOM     75  O   UNL A   1      42.882  18.373  26.978  1.00  0.00    -0.237 OA
ATOM     76  O   UNL A   1      40.925  18.994  25.600  1.00  0.00    -0.237 OA
ATOM     77  O   UNL A   1      43.201  19.292  24.710  1.00  0.00    -0.744 OA
ENDBRANCH  73  74
ENDBRANCH  45  68
BRANCH  57  78
ATOM     78  C   UNL A   1      47.874  26.644  30.920  1.00  0.00    -0.014 A 
ATOM     79  C   UNL A   1      48.976  26.775  30.057  1.00  0.00     0.010 A 
ATOM     80  C   UNL A   1      48.071  26.111  32.209  1.00  0.00     0.010 A 
ATOM     81  C   UNL A   1      50.242  26.339  30.459  1.00  0.00     0.020 A 
ATOM     82  C   UNL A   1      49.340  25.706  32.625  1.00  0.00     0.020 A 
ATOM     83  C   UNL A   1      50.414  25.804  31.740  1.00  0.00     0.054 A 
BRANCH  83  84
ATOM     84  S   UNL A   1      52.070  25.264  32.243  1.00  0.00     0.124 S 
ATOM     85  O   UNL A   1      52.271  26.018  33.479  1.00  0.00    -0.237 OA
ATOM     86  O   UNL A   1      51.902  23.823  32.405  1.00  0.00    -0.237 OA
ATOM     87  O   UNL A   1      52.920  25.665  31.125  1.00  0.00    -0.744 OA
ENDBRANCH  83  84
ENDBRANCH  57  78
ENDBRANCH  31  32
ENDBRANCH  23  26
ENDBRANCH   1  22
TORSDOF 14
ENDMDL
MODEL 3
REMARK VINA RESULT:      -9.3      3.488      6.102
REMARK SMILES Cc1cc(C)nc(N2CCCC[C@H]2C(=O)NCCCNC(=O)c2ccc(-c3c4nc(c(-c5ccc(S(=O)(=O)[O-])cc5)c5ccc([nH]5)c(-c5ccc(S(=O)(=O)[O-])cc5)c5nc(c(-c6ccc(S(=O)(=O)[O-])cc6)c6ccc3[nH]6)C=C5)C=C4)cc2)n1
REMARK SMILES IDX 19 1 18 2 17 3 16 4 14 5 15 6 13 8 8 9 9 10 10 11 12 12
REMARK SMILES IDX 11 13 7 14 1 15 2 16 3 17 83 18 4 19 5 20 6 21 20 22 21 23
REMARK SMILES IDX 22 25 23 26 24 27 82 28 25 29 81 30 26 31 27 32 28 33 75 34
REMARK SMILES IDX 29 35 80 36 74 37 76 38 30 39 79 40 73 41 72 42 31 44 61 45
REMARK SMILES IDX 42 46 60 47 43 48 46 49 59 50 77 51 44 52 45 53 58 55 78 56
REMARK SMILES IDX 47 57 32 58 33 59 41 60 34 61 40 62 35 63 36 64 37 65 38 66
REMARK SMILES IDX 39 67 62 68 63 69 71 70 64 71 70 72 65 73 66 74 67 75 68 76
REMARK SMILES IDX 69 77 48 78 49 79 57 80 50 81 56 82 51 83 52 84 53 85 54 86
REMARK SMILES IDX 55 87
REMARK H PARENT 16 7 20 24 76 43 46 54
REMARK Flexibility Score: inf
ROOT
ATOM      1  C   UNL A   1      33.288  28.454  27.605  1.00  0.00     0.118 C 
ENDROOT
BRANCH   1   2
ATOM      2  C   UNL A   1      33.181  27.933  26.187  1.00  0.00     0.042 C 
BRANCH   2   3
ATOM      3  C   UNL A   1      31.796  27.458  25.833  1.00  0.00     0.117 C 
BRANCH   3   4
ATOM      4  N   UNL A   1      31.355  26.293  26.550  1.00  0.00    -0.354 N 
ATOM      5  C   UNL A   1      31.819  25.022  26.362  1.00  0.00     0.242 C 
ATOM      6  O   UNL A   1      31.475  24.188  27.207  1.00  0.00    -0.273 OA
ATOM      7  H   UNL A   1      30.660  26.422  27.234  1.00  0.00     0.163 HD
BRANCH   5   8
ATOM      8  C   UNL A   1      32.693  24.673  25.115  1.00  0.00     0.174 C 
ATOM      9  N   UNL A   1      32.905  23.230  24.938  1.00  0.00    -0.329 N 
ATOM     10  C   UNL A   1      31.765  22.386  24.676  1.00  0.00     0.120 C 
ATOM     11  C   UNL A   1      31.052  22.888  23.416  1.00  0.00     0.022 C 
ATOM     12  C   UNL A   1      32.006  25.205  23.843  1.00  0.00     0.035 C 
ATOM     13  C   UNL A   1      30.769  24.390  23.444  1.00  0.00     0.004 C 
BRANCH   9  14
ATOM     14  C   UNL A   1      34.114  22.653  25.226  1.00  0.00     0.226 A 
ATOM     15  C   UNL A   1      37.474  23.895  26.027  1.00  0.00     0.067 C 
ATOM     16  C   UNL A   1      36.351  22.933  25.759  1.00  0.00     0.043 A 
ATOM     17  C   UNL A   1      36.623  21.622  25.466  1.00  0.00     0.047 A 
ATOM     18  N   UNL A   1      35.097  23.431  25.701  1.00  0.00    -0.218 NA
ATOM     19  C   UNL A   1      35.541  20.847  25.108  1.00  0.00     0.043 A 
ATOM     20  C   UNL A   1      35.745  19.382  24.862  1.00  0.00     0.067 C 
ATOM     21  N   UNL A   1      34.297  21.355  24.943  1.00  0.00    -0.218 NA
ENDBRANCH   9  14
ENDBRANCH   5   8
ENDBRANCH   3   4
ENDBRANCH   2   3
ENDBRANCH   1   2
BRANCH   1  22
ATOM     22  N   UNL A   1      33.368  29.913  27.693  1.00  0.00    -0.352 N 
ATOM     23  C   UNL A   1      34.396  30.748  28.061  1.00  0.00     0.251 C 
ATOM     24  H   UNL A   1      32.537  30.378  27.444  1.00  0.00     0.163 HD
ATOM     25  O   UNL A   1      34.172  31.948  28.218  1.00  0.00    -0.269 OA
BRANCH  23  26
ATOM     26  C   UNL A   1      35.752  30.212  28.305  1.00  0.00     0.039 A 
ATOM     27  C   UNL A   1      36.695  30.212  27.272  1.00  0.00     0.014 A 
ATOM     28  C   UNL A   1      36.106  29.715  29.556  1.00  0.00     0.014 A 
ATOM     29  C   UNL A   1      38.001  29.786  27.529  1.00  0.00     0.010 A 
ATOM     30  C   UNL A   1      37.435  29.472  29.855  1.00  0.00     0.010 A 
ATOM     31  C   UNL A   1      38.392  29.454  28.836  1.00  0.00    -0.014 A 
BRANCH  31  32
ATOM     32  C   UNL A   1      39.772  29.016  29.165  1.00  0.00     0.031 A 
ATOM     33  C   UNL A   1      40.727  29.986  29.817  1.00  0.00     0.074 A 
ATOM     34  C   UNL A   1      40.192  27.789  28.802  1.00  0.00     0.049 A 
ATOM     35  N   UNL A   1      41.992  29.829  30.110  1.00  0.00    -0.248 NA
ATOM     36  C   UNL A   1      40.208  31.330  30.131  1.00  0.00     0.031 C 
ATOM     37  C   UNL A   1      39.390  26.790  28.090  1.00  0.00     0.029 A 
ATOM     38  N   UNL A   1      41.407  27.176  28.974  1.00  0.00    -0.354 N 
ATOM     39  C   UNL A   1      42.421  31.060  30.599  1.00  0.00     0.074 A 
ATOM     40  C   UNL A   1      41.308  31.972  30.484  1.00  0.00     0.031 C 
ATOM     41  C   UNL A   1      40.121  25.678  27.920  1.00  0.00     0.029 A 
ATOM     42  C   UNL A   1      41.455  25.898  28.469  1.00  0.00     0.049 A 
ATOM     43  H   UNL A   1      42.171  27.610  29.417  1.00  0.00     0.167 HD
ATOM     44  C   UNL A   1      43.620  31.395  31.129  1.00  0.00     0.031 A 
ATOM     45  C   UNL A   1      42.463  25.005  28.447  1.00  0.00     0.031 A 
ATOM     46  C   UNL A   1      44.710  30.469  31.268  1.00  0.00     0.049 A 
ATOM     47  C   UNL A   1      43.771  25.372  29.088  1.00  0.00     0.074 A 
ATOM     48  C   UNL A   1      45.940  30.670  31.868  1.00  0.00     0.029 A 
ATOM     49  N   UNL A   1      44.700  29.164  30.797  1.00  0.00    -0.354 N 
ATOM     50  N   UNL A   1      44.130  26.511  29.633  1.00  0.00    -0.248 NA
ATOM     51  C   UNL A   1      44.802  24.328  29.134  1.00  0.00     0.031 C 
ATOM     52  C   UNL A   1      46.695  29.504  31.707  1.00  0.00     0.029 A 
ATOM     53  C   UNL A   1      45.911  28.553  31.069  1.00  0.00     0.049 A 
ATOM     54  H   UNL A   1      43.943  28.736  30.337  1.00  0.00     0.167 HD
ATOM     55  C   UNL A   1      45.421  26.314  30.108  1.00  0.00     0.074 A 
ATOM     56  C   UNL A   1      45.770  24.940  29.801  1.00  0.00     0.031 C 
ATOM     57  C   UNL A   1      46.244  27.189  30.742  1.00  0.00     0.031 A 
BRANCH  44  58
ATOM     58  C   UNL A   1      43.803  32.823  31.582  1.00  0.00    -0.014 A 
ATOM     59  C   UNL A   1      43.544  33.213  32.911  1.00  0.00     0.010 A 
ATOM     60  C   UNL A   1      44.224  33.796  30.659  1.00  0.00     0.010 A 
ATOM     61  C   UNL A   1      43.629  34.555  33.287  1.00  0.00     0.020 A 
ATOM     62  C   UNL A   1      44.351  35.135  31.041  1.00  0.00     0.020 A 
ATOM     63  C   UNL A   1      44.025  35.510  32.347  1.00  0.00     0.054 A 
BRANCH  63  64
ATOM     64  S   UNL A   1      44.114  37.248  32.857  1.00  0.00     0.124 S 
ATOM     65  O   UNL A   1      42.932  37.372  33.707  1.00  0.00    -0.237 OA
ATOM     66  O   UNL A   1      45.397  37.311  33.554  1.00  0.00    -0.237 OA
ATOM     67  O   UNL A   1      44.056  37.983  31.597  1.00  0.00    -0.744 OA
ENDBRANCH  63  64
ENDBRANCH  44  58
BRANCH  45  68
ATOM     68  C   UNL A   1      42.243  23.672  27.822  1.00  0.00    -0.014 A 
ATOM     69  C   UNL A   1      42.712  23.400  26.525  1.00  0.00     0.010 A 
ATOM     70  C   UNL A   1      41.622  22.643  28.554  1.00  0.00     0.010 A 
ATOM     71  C   UNL A   1      42.565  22.124  25.972  1.00  0.00     0.020 A 
ATOM     72  C   UNL A   1      41.499  21.359  28.015  1.00  0.00     0.020 A 
ATOM     73  C   UNL A   1      41.968  21.109  26.725  1.00  0.00     0.054 A 
BRANCH  73  74
ATOM     74  S   UNL A   1      41.875  19.437  26.022  1.00  0.00     0.124 S 
ATOM     75  O   UNL A   1      42.733  19.552  24.848  1.00  0.00    -0.237 OA
ATOM     76  O   UNL A   1      42.395  18.611  27.110  1.00  0.00    -0.237 OA
ATOM     77  O   UNL A   1      40.451  19.262  25.745  1.00  0.00    -0.744 OA
ENDBRANCH  73  74
ENDBRANCH  45  68
BRANCH  57  78
ATOM     78  C   UNL A   1      47.590  26.676  31.177  1.00  0.00    -0.014 A 
ATOM     79  C   UNL A   1      47.765  26.032  32.415  1.00  0.00     0.010 A 
ATOM     80  C   UNL A   1      48.690  26.803  30.308  1.00  0.00     0.010 A 
ATOM     81  C   UNL A   1      49.027  25.567  32.795  1.00  0.00     0.020 A 
ATOM     82  C   UNL A   1      49.945  26.310  30.670  1.00  0.00     0.020 A 
ATOM     83  C   UNL A   1      50.110  25.712  31.921  1.00  0.00     0.054 A 
BRANCH  83  84
ATOM     84  S   UNL A   1      51.731  25.083  32.429  1.00  0.00     0.124 S 
ATOM     85  O   UNL A   1      52.617  25.692  31.439  1.00  0.00    -0.237 OA
ATOM     86  O   UNL A   1      51.862  25.594  33.791  1.00  0.00    -0.237 OA
ATOM     87  O   UNL A   1      51.587  23.632  32.326  1.00  0.00    -0.744 OA
ENDBRANCH  83  84
ENDBRANCH  57  78
ENDBRANCH  31  32
ENDBRANCH  23  26
ENDBRANCH   1  22
TORSDOF 14
ENDMDL
