MODEL 1
REMARK VINA RESULT:     -10.9      0.000      0.000
REMARK SMILES CCc1cc(OC(F)(F)F)cc2c1O[C@@H](C(F)(F)F)C(C(=O)NCCCNC(=O)c1ccc(-c3c4nc(c(-c5ccc(S(=O)(=O)[O-])cc5)c5ccc([nH]5)c(-c5ccc(S(=O)(=O)[O-])cc5)c5nc(c(-c6ccc(S(=O)(=O)[O-])cc6)c6ccc3[nH]6)C=C5)C=C4)cc1)=C2
REMARK SMILES IDX 25 1 24 2 23 3 21 4 22 5 20 7 3 8 4 9 13 10 5 11 12 12 14 13
REMARK SMILES IDX 11 14 90 15 15 16 2 17 1 18 6 19 7 20 8 21 9 22 10 23 16 24
REMARK SMILES IDX 17 25 18 26 19 27 26 28 27 29 28 30 29 32 30 33 31 34 89 35
REMARK SMILES IDX 32 36 88 37 33 38 34 39 35 40 82 41 36 42 87 43 81 44 83 45
REMARK SMILES IDX 37 46 86 47 80 48 79 49 38 51 68 52 49 53 67 54 50 55 53 56
REMARK SMILES IDX 66 57 84 58 51 59 52 60 65 62 85 63 54 64 39 65 40 66 48 67
REMARK SMILES IDX 41 68 47 69 42 70 43 71 44 72 45 73 46 74 69 75 70 76 78 77
REMARK SMILES IDX 71 78 77 79 72 80 73 81 74 82 75 83 76 84 55 85 56 86 64 87
REMARK SMILES IDX 57 88 63 89 58 90 59 91 60 92 61 93 62 94
REMARK H PARENT 23 6 27 31 83 50 53 61
REMARK Flexibility Score: inf
ROOT
ATOM      1  C   UNL A   1      33.932  27.983  25.185  1.00  0.00     0.042 C 
ENDROOT
BRANCH   1   2
ATOM      2  C   UNL A   1      32.623  27.375  24.674  1.00  0.00     0.118 C 
BRANCH   2   3
ATOM      3  N   UNL A   1      32.671  27.180  23.232  1.00  0.00    -0.352 N 
ATOM      4  C   UNL A   1      33.157  26.182  22.448  1.00  0.00     0.251 C 
ATOM      5  O   UNL A   1      33.153  26.351  21.231  1.00  0.00    -0.270 OA
ATOM      6  H   UNL A   1      32.270  27.920  22.722  1.00  0.00     0.163 HD
BRANCH   4   7
ATOM      7  C   UNL A   1      33.617  24.877  22.990  1.00  0.00     0.067 C 
ATOM      8  C   UNL A   1      34.604  21.152  24.699  1.00  0.00    -0.002 A 
ATOM      9  C   UNL A   1      35.938  20.930  25.093  1.00  0.00     0.054 A 
ATOM     10  C   UNL A   1      34.277  22.383  24.098  1.00  0.00     0.131 A 
ATOM     11  C   UNL A   1      36.914  21.913  24.924  1.00  0.00     0.130 A 
ATOM     12  C   UNL A   1      35.249  23.364  23.914  1.00  0.00     0.021 A 
ATOM     13  O   UNL A   1      32.969  22.589  23.767  1.00  0.00    -0.475 OA
ATOM     14  C   UNL A   1      36.562  23.125  24.328  1.00  0.00     0.058 A 
ATOM     15  C   UNL A   1      34.883  24.658  23.366  1.00  0.00     0.025 C 
ATOM     16  C   UNL A   1      32.613  23.732  22.937  1.00  0.00     0.314 C 
BRANCH   8  17
ATOM     17  C   UNL A   1      33.527  20.094  24.855  1.00  0.00     0.036 C 
ATOM     18  C   UNL A   1      33.882  18.680  24.410  1.00  0.00     0.009 C 
ENDBRANCH   8  17
BRANCH  11  19
ATOM     19  O   UNL A   1      38.226  21.835  25.295  1.00  0.00    -0.406 OA
BRANCH  19  20
ATOM     20  C   UNL A   1      38.708  22.769  26.243  1.00  0.00     0.573 C 
ATOM     21  F   UNL A   1      39.581  23.631  25.678  1.00  0.00    -0.132 F 
ATOM     22  F   UNL A   1      37.694  23.463  26.801  1.00  0.00    -0.132 F 
ATOM     23  F   UNL A   1      39.357  22.104  27.223  1.00  0.00    -0.132 F 
ENDBRANCH  19  20
ENDBRANCH  11  19
BRANCH  16  24
ATOM     24  C   UNL A   1      31.148  24.092  23.280  1.00  0.00     0.429 C 
ATOM     25  F   UNL A   1      31.010  24.639  24.507  1.00  0.00    -0.167 F 
ATOM     26  F   UNL A   1      30.662  25.026  22.414  1.00  0.00    -0.167 F 
ATOM     27  F   UNL A   1      30.321  23.024  23.198  1.00  0.00    -0.167 F 
ENDBRANCH  16  24
ENDBRANCH   4   7
ENDBRANCH   2   3
ENDBRANCH   1   2
BRANCH   1  28
ATOM     28  C   UNL A   1      33.973  28.154  26.703  1.00  0.00     0.118 C 
BRANCH  28  29
ATOM     29  N   UNL A   1      33.754  29.538  27.096  1.00  0.00    -0.352 N 
ATOM     30  C   UNL A   1      34.540  30.372  27.851  1.00  0.00     0.251 C 
ATOM     31  H   UNL A   1      32.915  29.937  26.769  1.00  0.00     0.163 HD
ATOM     32  O   UNL A   1      34.066  31.426  28.265  1.00  0.00    -0.269 OA
BRANCH  30  33
ATOM     33  C   UNL A   1      35.939  30.011  28.177  1.00  0.00     0.039 A 
ATOM     34  C   UNL A   1      36.239  29.596  29.479  1.00  0.00     0.014 A 
ATOM     35  C   UNL A   1      36.963  30.136  27.235  1.00  0.00     0.014 A 
ATOM     36  C   UNL A   1      37.552  29.264  29.821  1.00  0.00     0.010 A 
ATOM     37  C   UNL A   1      38.263  29.747  27.559  1.00  0.00     0.010 A 
ATOM     38  C   UNL A   1      38.572  29.313  28.857  1.00  0.00    -0.014 A 
BRANCH  38  39
ATOM     39  C   UNL A   1      39.965  28.919  29.189  1.00  0.00     0.031 A 
ATOM     40  C   UNL A   1      40.897  29.901  29.847  1.00  0.00     0.074 A 
ATOM     41  C   UNL A   1      40.409  27.694  28.848  1.00  0.00     0.049 A 
ATOM     42  N   UNL A   1      42.163  29.761  30.150  1.00  0.00    -0.248 NA
ATOM     43  C   UNL A   1      40.339  31.219  30.193  1.00  0.00     0.031 C 
ATOM     44  C   UNL A   1      39.614  26.662  28.178  1.00  0.00     0.029 A 
ATOM     45  N   UNL A   1      41.641  27.111  29.010  1.00  0.00    -0.354 N 
ATOM     46  C   UNL A   1      42.557  30.972  30.705  1.00  0.00     0.074 A 
ATOM     47  C   UNL A   1      41.408  31.851  30.657  1.00  0.00     0.031 C 
ATOM     48  C   UNL A   1      40.372  25.567  28.004  1.00  0.00     0.029 A 
ATOM     49  C   UNL A   1      41.714  25.830  28.514  1.00  0.00     0.049 A 
ATOM     50  H   UNL A   1      42.401  27.565  29.441  1.00  0.00     0.167 HD
ATOM     51  C   UNL A   1      43.759  31.319  31.225  1.00  0.00     0.031 A 
ATOM     52  C   UNL A   1      42.746  24.965  28.466  1.00  0.00     0.031 A 
ATOM     53  C   UNL A   1      44.899  30.442  31.278  1.00  0.00     0.049 A 
ATOM     54  C   UNL A   1      44.073  25.372  29.044  1.00  0.00     0.074 A 
ATOM     55  C   UNL A   1      46.151  30.688  31.815  1.00  0.00     0.029 A 
ATOM     56  N   UNL A   1      44.927  29.148  30.777  1.00  0.00    -0.354 N 
ATOM     57  N   UNL A   1      44.414  26.510  29.600  1.00  0.00    -0.248 NA
ATOM     58  C   UNL A   1      45.150  24.374  28.999  1.00  0.00     0.031 C 
ATOM     59  C   UNL A   1      46.948  29.557  31.603  1.00  0.00     0.029 A 
ATOM     60  C   UNL A   1      46.176  28.589  30.981  1.00  0.00     0.049 A 
ATOM     61  H   UNL A   1      44.170  28.696  30.340  1.00  0.00     0.167 HD
ATOM     62  C   UNL A   1      45.739  26.357  29.990  1.00  0.00     0.074 A 
ATOM     63  C   UNL A   1      46.132  25.012  29.621  1.00  0.00     0.031 C 
ATOM     64  C   UNL A   1      46.555  27.251  30.602  1.00  0.00     0.031 A 
BRANCH  51  65
ATOM     65  C   UNL A   1      43.901  32.713  31.778  1.00  0.00    -0.014 A 
ATOM     66  C   UNL A   1      44.263  33.788  30.945  1.00  0.00     0.010 A 
ATOM     67  C   UNL A   1      43.640  32.961  33.138  1.00  0.00     0.010 A 
ATOM     68  C   UNL A   1      44.405  35.075  31.470  1.00  0.00     0.020 A 
ATOM     69  C   UNL A   1      43.756  34.252  33.662  1.00  0.00     0.020 A 
ATOM     70  C   UNL A   1      44.156  35.298  32.827  1.00  0.00     0.054 A 
BRANCH  70  71
ATOM     71  S   UNL A   1      44.335  36.981  33.480  1.00  0.00     0.124 S 
ATOM     72  O   UNL A   1      45.057  37.646  32.397  1.00  0.00    -0.237 OA
ATOM     73  O   UNL A   1      42.949  37.405  33.663  1.00  0.00    -0.237 OA
ATOM     74  O   UNL A   1      45.095  36.796  34.713  1.00  0.00    -0.744 OA
ENDBRANCH  70  71
ENDBRANCH  51  65
BRANCH  52  75
ATOM     75  C   UNL A   1      42.551  23.621  27.860  1.00  0.00    -0.014 A 
ATOM     76  C   UNL A   1      42.726  23.431  26.479  1.00  0.00     0.010 A 
ATOM     77  C   UNL A   1      42.228  22.516  28.669  1.00  0.00     0.010 A 
ATOM     78  C   UNL A   1      42.576  22.161  25.914  1.00  0.00     0.020 A 
ATOM     79  C   UNL A   1      42.102  21.241  28.111  1.00  0.00     0.020 A 
ATOM     80  C   UNL A   1      42.269  21.072  26.736  1.00  0.00     0.054 A 
BRANCH  80  81
ATOM     81  S   UNL A   1      42.155  19.420  25.994  1.00  0.00     0.124 S 
ATOM     82  O   UNL A   1      42.680  18.572  27.060  1.00  0.00    -0.237 OA
ATOM     83  O   UNL A   1      40.725  19.292  25.726  1.00  0.00    -0.237 OA
ATOM     84  O   UNL A   1      42.996  19.523  24.802  1.00  0.00    -0.744 OA
ENDBRANCH  80  81
ENDBRANCH  52  75
BRANCH  64  85
ATOM     85  C   UNL A   1      47.950  26.796  30.937  1.00  0.00    -0.014 A 
ATOM     86  C   UNL A   1      49.007  26.956  30.024  1.00  0.00     0.010 A 
ATOM     87  C   UNL A   1      48.216  26.250  32.207  1.00  0.00     0.010 A 
ATOM     88  C   UNL A   1      50.300  26.553  30.363  1.00  0.00     0.020 A 
ATOM     89  C   UNL A   1      49.513  25.868  32.559  1.00  0.00     0.020 A 
ATOM     90  C   UNL A   1      50.545  26.009  31.629  1.00  0.00     0.054 A 
BRANCH  90  91
ATOM     91  S   UNL A   1      52.241  25.534  32.063  1.00  0.00     0.124 S 
ATOM     92  O   UNL A   1      52.121  24.086  32.214  1.00  0.00    -0.237 OA
ATOM     93  O   UNL A   1      53.009  25.984  30.904  1.00  0.00    -0.237 OA
ATOM     94  O   UNL A   1      52.501  26.270  33.298  1.00  0.00    -0.744 OA
ENDBRANCH  90  91
ENDBRANCH  64  85
ENDBRANCH  38  39
ENDBRANCH  30  33
ENDBRANCH  28  29
ENDBRANCH   1  28
TORSDOF 17
ENDMDL
MODEL 2
REMARK VINA RESULT:     -10.7      3.107      4.329
REMARK SMILES CCc1cc(OC(F)(F)F)cc2c1O[C@@H](C(F)(F)F)C(C(=O)NCCCNC(=O)c1ccc(-c3c4nc(c(-c5ccc(S(=O)(=O)[O-])cc5)c5ccc([nH]5)c(-c5ccc(S(=O)(=O)[O-])cc5)c5nc(c(-c6ccc(S(=O)(=O)[O-])cc6)c6ccc3[nH]6)C=C5)C=C4)cc1)=C2
REMARK SMILES IDX 25 1 24 2 23 3 21 4 22 5 20 7 3 8 4 9 13 10 5 11 12 12 14 13
REMARK SMILES IDX 11 14 90 15 15 16 2 17 1 18 6 19 7 20 8 21 9 22 10 23 16 24
REMARK SMILES IDX 17 25 18 26 19 27 26 28 27 29 28 30 29 32 30 33 31 34 89 35
REMARK SMILES IDX 32 36 88 37 33 38 34 39 35 40 82 41 36 42 87 43 81 44 83 45
REMARK SMILES IDX 37 46 86 47 80 48 79 49 38 51 68 52 49 53 67 54 50 55 53 56
REMARK SMILES IDX 66 57 84 58 51 59 52 60 65 62 85 63 54 64 39 65 40 66 48 67
REMARK SMILES IDX 41 68 47 69 42 70 43 71 44 72 45 73 46 74 69 75 70 76 78 77
REMARK SMILES IDX 71 78 77 79 72 80 73 81 74 82 75 83 76 84 55 85 56 86 64 87
REMARK SMILES IDX 57 88 63 89 58 90 59 91 60 92 61 93 62 94
REMARK H PARENT 23 6 27 31 83 50 53 61
REMARK Flexibility Score: inf
ROOT
ATOM      1  C   UNL A   1      34.587  31.555  27.681  1.00  0.00     0.042 C 
ENDROOT
BRANCH   1   2
ATOM      2  C   UNL A   1      34.526  30.108  27.185  1.00  0.00     0.118 C 
BRANCH   2   3
ATOM      3  N   UNL A   1      33.381  29.413  27.755  1.00  0.00    -0.352 N 
ATOM      4  C   UNL A   1      32.590  28.404  27.303  1.00  0.00     0.251 C 
ATOM      5  O   UNL A   1      31.610  28.095  27.976  1.00  0.00    -0.270 OA
ATOM      6  H   UNL A   1      33.129  29.739  28.648  1.00  0.00     0.163 HD
BRANCH   4   7
ATOM      7  C   UNL A   1      32.900  27.617  26.082  1.00  0.00     0.067 C 
ATOM      8  C   UNL A   1      33.455  25.489  22.485  1.00  0.00    -0.002 A 
ATOM      9  C   UNL A   1      34.109  24.243  22.539  1.00  0.00     0.054 A 
ATOM     10  C   UNL A   1      33.296  26.217  23.680  1.00  0.00     0.131 A 
ATOM     11  C   UNL A   1      34.567  23.721  23.751  1.00  0.00     0.130 A 
ATOM     12  C   UNL A   1      33.762  25.708  24.890  1.00  0.00     0.021 A 
ATOM     13  O   UNL A   1      32.618  27.400  23.605  1.00  0.00    -0.475 OA
ATOM     14  C   UNL A   1      34.395  24.462  24.920  1.00  0.00     0.058 A 
ATOM     15  C   UNL A   1      33.522  26.432  26.126  1.00  0.00     0.025 C 
ATOM     16  C   UNL A   1      32.627  28.303  24.749  1.00  0.00     0.314 C 
BRANCH   8  17
ATOM     17  C   UNL A   1      32.963  26.088  21.180  1.00  0.00     0.036 C 
ATOM     18  C   UNL A   1      32.605  25.111  20.066  1.00  0.00     0.009 C 
ENDBRANCH   8  17
BRANCH  11  19
ATOM     19  O   UNL A   1      35.181  22.516  23.940  1.00  0.00    -0.406 OA
BRANCH  19  20
ATOM     20  C   UNL A   1      36.595  22.469  23.872  1.00  0.00     0.573 C 
ATOM     21  F   UNL A   1      37.155  23.268  24.806  1.00  0.00    -0.132 F 
ATOM     22  F   UNL A   1      37.048  21.208  24.034  1.00  0.00    -0.132 F 
ATOM     23  F   UNL A   1      36.989  22.908  22.657  1.00  0.00    -0.132 F 
ENDBRANCH  19  20
ENDBRANCH  11  19
BRANCH  16  24
ATOM     24  C   UNL A   1      31.330  29.141  24.665  1.00  0.00     0.429 C 
ATOM     25  F   UNL A   1      30.982  29.452  23.397  1.00  0.00    -0.167 F 
ATOM     26  F   UNL A   1      30.270  28.448  25.168  1.00  0.00    -0.167 F 
ATOM     27  F   UNL A   1      31.411  30.290  25.375  1.00  0.00    -0.167 F 
ENDBRANCH  16  24
ENDBRANCH   4   7
ENDBRANCH   2   3
ENDBRANCH   1   2
BRANCH   1  28
ATOM     28  C   UNL A   1      35.815  31.854  28.540  1.00  0.00     0.118 C 
BRANCH  28  29
ATOM     29  N   UNL A   1      35.648  31.377  29.904  1.00  0.00    -0.352 N 
ATOM     30  C   UNL A   1      36.439  30.535  30.644  1.00  0.00     0.251 C 
ATOM     31  H   UNL A   1      34.845  31.710  30.367  1.00  0.00     0.163 HD
ATOM     32  O   UNL A   1      36.000  30.070  31.692  1.00  0.00    -0.269 OA
BRANCH  30  33
ATOM     33  C   UNL A   1      37.803  30.177  30.190  1.00  0.00     0.039 A 
ATOM     34  C   UNL A   1      38.814  30.038  31.148  1.00  0.00     0.014 A 
ATOM     35  C   UNL A   1      38.107  30.038  28.833  1.00  0.00     0.014 A 
ATOM     36  C   UNL A   1      40.113  29.715  30.748  1.00  0.00     0.010 A 
ATOM     37  C   UNL A   1      39.390  29.657  28.441  1.00  0.00     0.010 A 
ATOM     38  C   UNL A   1      40.408  29.498  29.393  1.00  0.00    -0.014 A 
BRANCH  38  39
ATOM     39  C   UNL A   1      41.773  29.110  28.954  1.00  0.00     0.031 A 
ATOM     40  C   UNL A   1      42.872  30.135  28.890  1.00  0.00     0.074 A 
ATOM     41  C   UNL A   1      42.009  27.843  28.560  1.00  0.00     0.049 A 
ATOM     42  N   UNL A   1      44.104  29.999  28.468  1.00  0.00    -0.248 NA
ATOM     43  C   UNL A   1      42.539  31.497  29.339  1.00  0.00     0.031 C 
ATOM     44  C   UNL A   1      41.020  26.763  28.546  1.00  0.00     0.029 A 
ATOM     45  N   UNL A   1      43.154  27.252  28.088  1.00  0.00    -0.354 N 
ATOM     46  C   UNL A   1      44.687  31.255  28.586  1.00  0.00     0.074 A 
ATOM     47  C   UNL A   1      43.662  32.151  29.076  1.00  0.00     0.031 C 
ATOM     48  C   UNL A   1      41.606  25.637  28.107  1.00  0.00     0.029 A 
ATOM     49  C   UNL A   1      42.997  25.922  27.773  1.00  0.00     0.049 A 
ATOM     50  H   UNL A   1      44.007  27.732  27.984  1.00  0.00     0.167 HD
ATOM     51  C   UNL A   1      45.964  31.627  28.328  1.00  0.00     0.031 A 
ATOM     52  C   UNL A   1      43.872  25.032  27.265  1.00  0.00     0.031 A 
ATOM     53  C   UNL A   1      46.984  30.733  27.845  1.00  0.00     0.049 A 
ATOM     54  C   UNL A   1      45.282  25.467  26.980  1.00  0.00     0.074 A 
ATOM     55  C   UNL A   1      48.315  31.007  27.586  1.00  0.00     0.029 A 
ATOM     56  N   UNL A   1      46.788  29.392  27.553  1.00  0.00    -0.354 N 
ATOM     57  N   UNL A   1      45.824  26.652  27.135  1.00  0.00    -0.248 NA
ATOM     58  C   UNL A   1      46.201  24.444  26.465  1.00  0.00     0.031 C 
ATOM     59  C   UNL A   1      48.915  29.840  27.097  1.00  0.00     0.029 A 
ATOM     60  C   UNL A   1      47.969  28.827  27.103  1.00  0.00     0.049 A 
ATOM     61  H   UNL A   1      45.934  28.912  27.650  1.00  0.00     0.167 HD
ATOM     62  C   UNL A   1      47.154  26.510  26.756  1.00  0.00     0.074 A 
ATOM     63  C   UNL A   1      47.338  25.123  26.380  1.00  0.00     0.031 C 
ATOM     64  C   UNL A   1      48.135  27.446  26.726  1.00  0.00     0.031 A 
BRANCH  51  65
ATOM     65  C   UNL A   1      46.327  33.071  28.561  1.00  0.00    -0.014 A 
ATOM     66  C   UNL A   1      46.820  33.499  29.808  1.00  0.00     0.010 A 
ATOM     67  C   UNL A   1      46.204  34.005  27.517  1.00  0.00     0.010 A 
ATOM     68  C   UNL A   1      47.140  34.843  30.018  1.00  0.00     0.020 A 
ATOM     69  C   UNL A   1      46.549  35.345  27.716  1.00  0.00     0.020 A 
ATOM     70  C   UNL A   1      46.998  35.759  28.972  1.00  0.00     0.054 A 
BRANCH  70  71
ATOM     71  S   UNL A   1      47.434  37.494  29.269  1.00  0.00     0.124 S 
ATOM     72  O   UNL A   1      48.787  37.375  29.809  1.00  0.00    -0.237 OA
ATOM     73  O   UNL A   1      47.340  38.083  27.936  1.00  0.00    -0.237 OA
ATOM     74  O   UNL A   1      46.423  37.949  30.220  1.00  0.00    -0.744 OA
ENDBRANCH  70  71
ENDBRANCH  51  65
BRANCH  52  75
ATOM     75  C   UNL A   1      43.433  23.633  27.011  1.00  0.00    -0.014 A 
ATOM     76  C   UNL A   1      43.135  22.775  28.084  1.00  0.00     0.010 A 
ATOM     77  C   UNL A   1      43.273  23.166  25.694  1.00  0.00     0.010 A 
ATOM     78  C   UNL A   1      42.691  21.471  27.845  1.00  0.00     0.020 A 
ATOM     79  C   UNL A   1      42.805  21.872  25.451  1.00  0.00     0.020 A 
ATOM     80  C   UNL A   1      42.523  21.030  26.529  1.00  0.00     0.054 A 
BRANCH  80  81
ATOM     81  S   UNL A   1      41.871  19.361  26.242  1.00  0.00     0.124 S 
ATOM     82  O   UNL A   1      42.577  18.964  25.028  1.00  0.00    -0.237 OA
ATOM     83  O   UNL A   1      42.260  18.656  27.462  1.00  0.00    -0.237 OA
ATOM     84  O   UNL A   1      40.433  19.578  26.090  1.00  0.00    -0.744 OA
ENDBRANCH  80  81
ENDBRANCH  52  75
BRANCH  64  85
ATOM     85  C   UNL A   1      49.505  26.998  26.295  1.00  0.00    -0.014 A 
ATOM     86  C   UNL A   1      50.393  26.396  27.204  1.00  0.00     0.010 A 
ATOM     87  C   UNL A   1      49.888  27.133  24.947  1.00  0.00     0.010 A 
ATOM     88  C   UNL A   1      51.651  25.962  26.779  1.00  0.00     0.020 A 
ATOM     89  C   UNL A   1      51.135  26.677  24.514  1.00  0.00     0.020 A 
ATOM     90  C   UNL A   1      52.015  26.107  25.436  1.00  0.00     0.054 A 
BRANCH  90  91
ATOM     91  S   UNL A   1      53.636  25.494  24.899  1.00  0.00     0.124 S 
ATOM     92  O   UNL A   1      53.511  24.058  25.135  1.00  0.00    -0.237 OA
ATOM     93  O   UNL A   1      53.685  25.899  23.496  1.00  0.00    -0.237 OA
ATOM     94  O   UNL A   1      54.576  26.191  25.774  1.00  0.00    -0.744 OA
ENDBRANCH  90  91
ENDBRANCH  64  85
ENDBRANCH  38  39
ENDBRANCH  30  33
ENDBRANCH  28  29
ENDBRANCH   1  28
TORSDOF 17
ENDMDL
MODEL 3
REMARK VINA RESULT:     -10.7      4.529     10.205
REMARK SMILES CCc1cc(OC(F)(F)F)cc2c1O[C@@H](C(F)(F)F)C(C(=O)NCCCNC(=O)c1ccc(-c3c4nc(c(-c5ccc(S(=O)(=O)[O-])cc5)c5ccc([nH]5)c(-c5ccc(S(=O)(=O)[O-])cc5)c5nc(c(-c6ccc(S(=O)(=O)[O-])cc6)c6ccc3[nH]6)C=C5)C=C4)cc1)=C2
REMARK SMILES IDX 25 1 24 2 23 3 21 4 22 5 20 7 3 8 4 9 13 10 5 11 12 12 14 13
REMARK SMILES IDX 11 14 90 15 15 16 2 17 1 18 6 19 7 20 8 21 9 22 10 23 16 24
REMARK SMILES IDX 17 25 18 26 19 27 26 28 27 29 28 30 29 32 30 33 31 34 89 35
REMARK SMILES IDX 32 36 88 37 33 38 34 39 35 40 82 41 36 42 87 43 81 44 83 45
REMARK SMILES IDX 37 46 86 47 80 48 79 49 38 51 68 52 49 53 67 54 50 55 53 56
REMARK SMILES IDX 66 57 84 58 51 59 52 60 65 62 85 63 54 64 39 65 40 66 48 67
REMARK SMILES IDX 41 68 47 69 42 70 43 71 44 72 45 73 46 74 69 75 70 76 78 77
REMARK SMILES IDX 71 78 77 79 72 80 73 81 74 82 75 83 76 84 55 85 56 86 64 87
REMARK SMILES IDX 57 88 63 89 58 90 59 91 60 92 61 93 62 94
REMARK H PARENT 23 6 27 31 83 50 53 61
REMARK Flexibility Score: inf
ROOT
ATOM      1  C   UNL A   1      38.634  22.418  26.095  1.00  0.00     0.042 C 
ENDROOT
BRANCH   1   2
ATOM      2  C   UNL A   1      37.279  23.038  25.742  1.00  0.00     0.118 C 
BRANCH   2   3
ATOM      3  N   UNL A   1      36.194  22.310  26.384  1.00  0.00    -0.352 N 
ATOM      4  C   UNL A   1      34.865  22.559  26.520  1.00  0.00     0.251 C 
ATOM      5  O   UNL A   1      34.205  21.799  27.225  1.00  0.00    -0.270 OA
ATOM      6  H   UNL A   1      36.480  21.469  26.805  1.00  0.00     0.163 HD
BRANCH   4   7
ATOM      7  C   UNL A   1      34.167  23.655  25.798  1.00  0.00     0.067 C 
ATOM      8  C   UNL A   1      32.272  26.591  23.440  1.00  0.00    -0.002 A 
ATOM      9  C   UNL A   1      32.352  27.935  23.855  1.00  0.00     0.054 A 
ATOM     10  C   UNL A   1      32.877  25.604  24.243  1.00  0.00     0.131 A 
ATOM     11  C   UNL A   1      33.037  28.292  25.017  1.00  0.00     0.130 A 
ATOM     12  C   UNL A   1      33.551  25.953  25.410  1.00  0.00     0.021 A 
ATOM     13  O   UNL A   1      32.823  24.315  23.794  1.00  0.00    -0.475 OA
ATOM     14  C   UNL A   1      33.629  27.294  25.792  1.00  0.00     0.058 A 
ATOM     15  C   UNL A   1      34.237  24.934  26.187  1.00  0.00     0.025 C 
ATOM     16  C   UNL A   1      33.218  23.231  24.684  1.00  0.00     0.314 C 
BRANCH   8  17
ATOM     17  C   UNL A   1      31.519  26.173  22.191  1.00  0.00     0.036 C 
ATOM     18  C   UNL A   1      32.347  25.936  20.934  1.00  0.00     0.009 C 
ENDBRANCH   8  17
BRANCH  11  19
ATOM     19  O   UNL A   1      33.216  29.556  25.505  1.00  0.00    -0.406 OA
BRANCH  19  20
ATOM     20  C   UNL A   1      32.165  30.136  26.255  1.00  0.00     0.573 C 
ATOM     21  F   UNL A   1      31.451  29.192  26.906  1.00  0.00    -0.132 F 
ATOM     22  F   UNL A   1      32.640  31.031  27.147  1.00  0.00    -0.132 F 
ATOM     23  F   UNL A   1      31.330  30.782  25.412  1.00  0.00    -0.132 F 
ENDBRANCH  19  20
ENDBRANCH  11  19
BRANCH  16  24
ATOM     24  C   UNL A   1      33.696  22.068  23.783  1.00  0.00     0.429 C 
ATOM     25  F   UNL A   1      33.083  22.042  22.580  1.00  0.00    -0.167 F 
ATOM     26  F   UNL A   1      35.026  22.184  23.506  1.00  0.00    -0.167 F 
ATOM     27  F   UNL A   1      33.529  20.860  24.369  1.00  0.00    -0.167 F 
ENDBRANCH  16  24
ENDBRANCH   4   7
ENDBRANCH   2   3
ENDBRANCH   1   2
BRANCH   1  28
ATOM     28  C   UNL A   1      39.546  23.357  26.885  1.00  0.00     0.118 C 
BRANCH  28  29
ATOM     29  N   UNL A   1      40.693  23.782  26.099  1.00  0.00    -0.352 N 
ATOM     30  C   UNL A   1      41.418  24.946  26.160  1.00  0.00     0.251 C 
ATOM     31  H   UNL A   1      40.997  23.136  25.420  1.00  0.00     0.163 HD
ATOM     32  O   UNL A   1      42.201  25.210  25.252  1.00  0.00    -0.269 OA
BRANCH  30  33
ATOM     33  C   UNL A   1      41.259  25.883  27.296  1.00  0.00     0.039 A 
ATOM     34  C   UNL A   1      42.198  26.909  27.456  1.00  0.00     0.014 A 
ATOM     35  C   UNL A   1      40.236  25.724  28.235  1.00  0.00     0.014 A 
ATOM     36  C   UNL A   1      42.082  27.798  28.527  1.00  0.00     0.010 A 
ATOM     37  C   UNL A   1      40.088  26.649  29.269  1.00  0.00     0.010 A 
ATOM     38  C   UNL A   1      41.013  27.691  29.430  1.00  0.00    -0.014 A 
BRANCH  38  39
ATOM     39  C   UNL A   1      40.848  28.655  30.547  1.00  0.00     0.031 A 
ATOM     40  C   UNL A   1      41.707  28.548  31.777  1.00  0.00     0.074 A 
ATOM     41  C   UNL A   1      39.886  29.596  30.478  1.00  0.00     0.049 A 
ATOM     42  N   UNL A   1      41.663  29.254  32.879  1.00  0.00    -0.248 NA
ATOM     43  C   UNL A   1      42.739  27.498  31.779  1.00  0.00     0.031 C 
ATOM     44  C   UNL A   1      38.966  29.784  29.353  1.00  0.00     0.029 A 
ATOM     45  N   UNL A   1      39.515  30.565  31.375  1.00  0.00    -0.354 N 
ATOM     46  C   UNL A   1      42.646  28.727  33.709  1.00  0.00     0.074 A 
ATOM     47  C   UNL A   1      43.240  27.613  33.001  1.00  0.00     0.031 C 
ATOM     48  C   UNL A   1      38.151  30.817  29.621  1.00  0.00     0.029 A 
ATOM     49  C   UNL A   1      38.463  31.340  30.947  1.00  0.00     0.049 A 
ATOM     50  H   UNL A   1      39.959  30.695  32.245  1.00  0.00     0.167 HD
ATOM     51  C   UNL A   1      43.032  29.141  34.940  1.00  0.00     0.031 A 
ATOM     52  C   UNL A   1      37.814  32.353  31.554  1.00  0.00     0.031 A 
ATOM     53  C   UNL A   1      42.443  30.253  35.639  1.00  0.00     0.049 A 
ATOM     54  C   UNL A   1      38.256  32.794  32.922  1.00  0.00     0.074 A 
ATOM     55  C   UNL A   1      42.787  30.771  36.875  1.00  0.00     0.029 A 
ATOM     56  N   UNL A   1      41.390  31.019  35.164  1.00  0.00    -0.354 N 
ATOM     57  N   UNL A   1      39.213  32.305  33.674  1.00  0.00    -0.248 NA
ATOM     58  C   UNL A   1      37.538  33.928  33.518  1.00  0.00     0.031 C 
ATOM     59  C   UNL A   1      41.915  31.827  37.165  1.00  0.00     0.029 A 
ATOM     60  C   UNL A   1      41.063  31.998  36.086  1.00  0.00     0.049 A 
ATOM     61  H   UNL A   1      40.941  30.887  34.298  1.00  0.00     0.167 HD
ATOM     62  C   UNL A   1      39.227  33.087  34.823  1.00  0.00     0.074 A 
ATOM     63  C   UNL A   1      38.193  34.089  34.660  1.00  0.00     0.031 C 
ATOM     64  C   UNL A   1      40.026  32.985  35.913  1.00  0.00     0.031 A 
BRANCH  51  65
ATOM     65  C   UNL A   1      44.147  28.381  35.609  1.00  0.00    -0.014 A 
ATOM     66  C   UNL A   1      43.914  27.122  36.195  1.00  0.00     0.010 A 
ATOM     67  C   UNL A   1      45.449  28.913  35.628  1.00  0.00     0.010 A 
ATOM     68  C   UNL A   1      44.952  26.432  36.826  1.00  0.00     0.020 A 
ATOM     69  C   UNL A   1      46.496  28.212  36.236  1.00  0.00     0.020 A 
ATOM     70  C   UNL A   1      46.236  26.984  36.847  1.00  0.00     0.054 A 
BRANCH  70  71
ATOM     71  S   UNL A   1      47.567  26.060  37.662  1.00  0.00     0.124 S 
ATOM     72  O   UNL A   1      47.100  26.020  39.047  1.00  0.00    -0.237 OA
ATOM     73  O   UNL A   1      47.549  24.780  36.957  1.00  0.00    -0.237 OA
ATOM     74  O   UNL A   1      48.753  26.880  37.429  1.00  0.00    -0.744 OA
ENDBRANCH  70  71
ENDBRANCH  51  65
BRANCH  52  75
ATOM     75  C   UNL A   1      36.688  33.028  30.855  1.00  0.00    -0.014 A 
ATOM     76  C   UNL A   1      35.369  32.873  31.317  1.00  0.00     0.010 A 
ATOM     77  C   UNL A   1      36.933  33.862  29.749  1.00  0.00     0.010 A 
ATOM     78  C   UNL A   1      34.314  33.535  30.681  1.00  0.00     0.020 A 
ATOM     79  C   UNL A   1      35.885  34.544  29.127  1.00  0.00     0.020 A 
ATOM     80  C   UNL A   1      34.580  34.371  29.593  1.00  0.00     0.054 A 
BRANCH  80  81
ATOM     81  S   UNL A   1      33.206  35.280  28.832  1.00  0.00     0.124 S 
ATOM     82  O   UNL A   1      33.908  36.305  28.066  1.00  0.00    -0.237 OA
ATOM     83  O   UNL A   1      32.540  34.244  28.045  1.00  0.00    -0.237 OA
ATOM     84  O   UNL A   1      32.443  35.766  29.979  1.00  0.00    -0.744 OA
ENDBRANCH  80  81
ENDBRANCH  52  75
BRANCH  64  85
ATOM     85  C   UNL A   1      39.835  33.999  37.008  1.00  0.00    -0.014 A 
ATOM     86  C   UNL A   1      40.311  35.315  36.872  1.00  0.00     0.010 A 
ATOM     87  C   UNL A   1      39.121  33.643  38.168  1.00  0.00     0.010 A 
ATOM     88  C   UNL A   1      40.100  36.250  37.888  1.00  0.00     0.020 A 
ATOM     89  C   UNL A   1      38.887  34.582  39.175  1.00  0.00     0.020 A 
ATOM     90  C   UNL A   1      39.390  35.877  39.035  1.00  0.00     0.054 A 
BRANCH  90  91
ATOM     91  S   UNL A   1      39.091  37.120  40.321  1.00  0.00     0.124 S 
ATOM     92  O   UNL A   1      38.521  38.223  39.550  1.00  0.00    -0.237 OA
ATOM     93  O   UNL A   1      38.163  36.437  41.220  1.00  0.00    -0.237 OA
ATOM     94  O   UNL A   1      40.418  37.369  40.878  1.00  0.00    -0.744 OA
ENDBRANCH  90  91
ENDBRANCH  64  85
ENDBRANCH  38  39
ENDBRANCH  30  33
ENDBRANCH  28  29
ENDBRANCH   1  28
TORSDOF 17
ENDMDL
