MODEL 1
REMARK VINA RESULT:     -11.4      0.000      0.000
REMARK SMILES O=C(NCCCNC(=O)[C@@]1(CCc2ccccc2)CCC[N@@H+](Cc2cccnc2)C1)c1ccc(-c2c3nc(c(-c4ccc(S(=O)(=O)[O-])cc4)c4ccc([nH]4)c(-c4ccc(S(=O)(=O)[O-])cc4)c4nc(c(-c5ccc(S(=O)(=O)[O-])cc5)c5ccc2[nH]5)C=C4)C=C3)cc1
REMARK SMILES IDX 5 1 4 2 3 3 1 4 2 5 31 7 32 8 90 9 33 10 89 11 34 12 35 13
REMARK SMILES IDX 36 14 83 15 37 16 88 17 82 18 84 19 38 20 87 21 81 22 80 23
REMARK SMILES IDX 39 25 69 26 50 27 68 28 51 29 54 30 67 31 85 32 52 33 53 34
REMARK SMILES IDX 66 36 86 37 55 38 40 39 41 40 49 41 42 42 48 43 43 44 44 45
REMARK SMILES IDX 45 46 46 47 47 48 70 49 71 50 79 51 72 52 78 53 73 54 74 55
REMARK SMILES IDX 75 56 76 57 77 58 56 59 57 60 65 61 58 62 64 63 59 64 60 65
REMARK SMILES IDX 61 66 62 67 63 68 6 69 7 70 8 71 9 73 10 74 19 75 30 76
REMARK SMILES IDX 20 77 22 78 21 79 11 81 12 82 13 83 14 84 18 85 15 86 17 87
REMARK SMILES IDX 16 88 23 89 24 90 25 91 29 92 26 93 28 94 27 95
REMARK H PARENT 3 6 84 24 54 35 7 72 22 80
REMARK Flexibility Score: inf
ROOT
ATOM      1  C   UNL A   1      32.911  27.271  25.821  1.00  0.00     0.042 C 
ENDROOT
BRANCH   1   2
ATOM      2  C   UNL A   1      34.066  28.047  26.432  1.00  0.00     0.118 C 
BRANCH   2   3
ATOM      3  N   UNL A   1      33.665  29.380  26.862  1.00  0.00    -0.352 N 
ATOM      4  O   UNL A   1      33.760  31.256  28.104  1.00  0.00    -0.269 OA
ATOM      5  C   UNL A   1      34.331  30.262  27.683  1.00  0.00     0.251 C 
ATOM      6  H   UNL A   1      32.797  29.693  26.519  1.00  0.00     0.163 HD
BRANCH   5   7
ATOM      7  C   UNL A   1      35.732  29.977  28.062  1.00  0.00     0.039 A 
ATOM      8  C   UNL A   1      36.770  30.217  27.160  1.00  0.00     0.014 A 
ATOM      9  C   UNL A   1      36.006  29.457  29.330  1.00  0.00     0.014 A 
ATOM     10  C   UNL A   1      38.056  29.792  27.460  1.00  0.00     0.010 A 
ATOM     11  C   UNL A   1      37.322  29.130  29.671  1.00  0.00     0.010 A 
ATOM     12  C   UNL A   1      38.353  29.271  28.729  1.00  0.00    -0.014 A 
BRANCH  12  13
ATOM     13  C   UNL A   1      39.765  28.969  29.070  1.00  0.00     0.031 A 
ATOM     14  C   UNL A   1      40.620  29.951  29.820  1.00  0.00     0.074 A 
ATOM     15  C   UNL A   1      40.263  27.769  28.710  1.00  0.00     0.049 A 
ATOM     16  N   UNL A   1      41.864  29.826  30.205  1.00  0.00    -0.248 NA
ATOM     17  C   UNL A   1      40.007  31.240  30.176  1.00  0.00     0.031 C 
ATOM     18  C   UNL A   1      39.522  26.736  27.977  1.00  0.00     0.029 A 
ATOM     19  N   UNL A   1      41.489  27.201  28.931  1.00  0.00    -0.354 N 
ATOM     20  C   UNL A   1      42.195  31.026  30.824  1.00  0.00     0.074 A 
ATOM     21  C   UNL A   1      41.023  31.874  30.747  1.00  0.00     0.031 C 
ATOM     22  C   UNL A   1      40.287  25.641  27.865  1.00  0.00     0.029 A 
ATOM     23  C   UNL A   1      41.594  25.919  28.446  1.00  0.00     0.049 A 
ATOM     24  H   UNL A   1      42.224  27.666  29.393  1.00  0.00     0.167 HD
ATOM     25  C   UNL A   1      43.368  31.387  31.399  1.00  0.00     0.031 A 
ATOM     26  C   UNL A   1      42.631  25.063  28.448  1.00  0.00     0.031 A 
ATOM     27  C   UNL A   1      44.530  30.535  31.464  1.00  0.00     0.049 A 
ATOM     28  C   UNL A   1      43.926  25.495  29.066  1.00  0.00     0.074 A 
ATOM     29  C   UNL A   1      45.757  30.796  32.049  1.00  0.00     0.029 A 
ATOM     30  N   UNL A   1      44.611  29.261  30.920  1.00  0.00    -0.354 N 
ATOM     31  N   UNL A   1      44.211  26.627  29.663  1.00  0.00    -0.248 NA
ATOM     32  C   UNL A   1      45.038  24.540  29.005  1.00  0.00     0.031 C 
ATOM     33  C   UNL A   1      46.595  29.701  31.813  1.00  0.00     0.029 A 
ATOM     34  C   UNL A   1      45.875  28.734  31.132  1.00  0.00     0.049 A 
ATOM     35  H   UNL A   1      43.878  28.799  30.452  1.00  0.00     0.167 HD
ATOM     36  C   UNL A   1      45.537  26.518  30.061  1.00  0.00     0.074 A 
ATOM     37  C   UNL A   1      45.988  25.202  29.653  1.00  0.00     0.031 C 
ATOM     38  C   UNL A   1      46.311  27.427  30.704  1.00  0.00     0.031 A 
BRANCH  25  39
ATOM     39  C   UNL A   1      43.466  32.779  31.967  1.00  0.00    -0.014 A 
ATOM     40  C   UNL A   1      43.160  33.047  33.313  1.00  0.00     0.010 A 
ATOM     41  C   UNL A   1      43.894  33.837  31.142  1.00  0.00     0.010 A 
ATOM     42  C   UNL A   1      43.231  34.351  33.810  1.00  0.00     0.020 A 
ATOM     43  C   UNL A   1      43.992  35.138  31.641  1.00  0.00     0.020 A 
ATOM     44  C   UNL A   1      43.637  35.391  32.969  1.00  0.00     0.054 A 
BRANCH  44  45
ATOM     45  S   UNL A   1      43.712  37.077  33.635  1.00  0.00     0.124 S 
ATOM     46  O   UNL A   1      43.764  37.879  32.414  1.00  0.00    -0.237 OA
ATOM     47  O   UNL A   1      42.472  37.177  34.399  1.00  0.00    -0.237 OA
ATOM     48  O   UNL A   1      44.935  37.079  34.435  1.00  0.00    -0.744 OA
ENDBRANCH  44  45
ENDBRANCH  25  39
BRANCH  26  49
ATOM     49  C   UNL A   1      42.470  23.720  27.831  1.00  0.00    -0.014 A 
ATOM     50  C   UNL A   1      42.854  23.496  26.499  1.00  0.00     0.010 A 
ATOM     51  C   UNL A   1      41.992  22.639  28.598  1.00  0.00     0.010 A 
ATOM     52  C   UNL A   1      42.766  22.217  25.944  1.00  0.00     0.020 A 
ATOM     53  C   UNL A   1      41.930  21.354  28.056  1.00  0.00     0.020 A 
ATOM     54  C   UNL A   1      42.312  21.152  26.729  1.00  0.00     0.054 A 
BRANCH  54  55
ATOM     55  S   UNL A   1      42.285  19.485  26.014  1.00  0.00     0.124 S 
ATOM     56  O   UNL A   1      40.865  19.299  25.732  1.00  0.00    -0.237 OA
ATOM     57  O   UNL A   1      43.151  19.629  24.846  1.00  0.00    -0.237 OA
ATOM     58  O   UNL A   1      42.828  18.648  27.081  1.00  0.00    -0.744 OA
ENDBRANCH  54  55
ENDBRANCH  26  49
BRANCH  38  59
ATOM     59  C   UNL A   1      47.722  27.017  31.020  1.00  0.00    -0.014 A 
ATOM     60  C   UNL A   1      48.004  26.147  32.088  1.00  0.00     0.010 A 
ATOM     61  C   UNL A   1      48.777  27.485  30.215  1.00  0.00     0.010 A 
ATOM     62  C   UNL A   1      49.322  25.777  32.367  1.00  0.00     0.020 A 
ATOM     63  C   UNL A   1      50.093  27.094  30.475  1.00  0.00     0.020 A 
ATOM     64  C   UNL A   1      50.358  26.255  31.559  1.00  0.00     0.054 A 
BRANCH  64  65
ATOM     65  S   UNL A   1      52.057  25.731  31.916  1.00  0.00     0.124 S 
ATOM     66  O   UNL A   1      51.862  24.359  32.376  1.00  0.00    -0.237 OA
ATOM     67  O   UNL A   1      52.717  25.871  30.619  1.00  0.00    -0.237 OA
ATOM     68  O   UNL A   1      52.503  26.675  32.939  1.00  0.00    -0.744 OA
ENDBRANCH  64  65
ENDBRANCH  38  59
ENDBRANCH  12  13
ENDBRANCH   5   7
ENDBRANCH   2   3
ENDBRANCH   1   2
BRANCH   1  69
ATOM     69  C   UNL A   1      33.179  26.910  24.372  1.00  0.00     0.117 C 
BRANCH  69  70
ATOM     70  N   UNL A   1      32.122  26.063  23.845  1.00  0.00    -0.355 N 
ATOM     71  C   UNL A   1      31.919  24.719  23.817  1.00  0.00     0.231 C 
ATOM     72  H   UNL A   1      31.397  26.572  23.415  1.00  0.00     0.163 HD
ATOM     73  O   UNL A   1      30.847  24.361  23.317  1.00  0.00    -0.274 OA
BRANCH  71  74
ATOM     74  C   UNL A   1      32.947  23.694  24.347  1.00  0.00     0.098 C 
ATOM     75  C   UNL A   1      32.814  23.698  25.908  1.00  0.00     0.028 C 
ATOM     76  C   UNL A   1      32.480  22.285  23.868  1.00  0.00     0.279 C 
ATOM     77  C   UNL A   1      33.390  22.451  26.574  1.00  0.00     0.063 C 
ATOM     78  N   UNL A   1      32.990  21.103  24.579  1.00  0.00    -0.330 N 
ATOM     79  C   UNL A   1      32.736  21.191  26.016  1.00  0.00     0.262 C 
ATOM     80  H   UNL A   1      34.003  21.094  24.458  1.00  0.00     0.348 HD
BRANCH  74  81
ATOM     81  C   UNL A   1      34.436  24.020  23.976  1.00  0.00     0.027 C 
BRANCH  81  82
ATOM     82  C   UNL A   1      35.468  24.407  25.064  1.00  0.00     0.037 C 
BRANCH  82  83
ATOM     83  C   UNL A   1      36.583  23.423  25.337  1.00  0.00    -0.048 A 
ATOM     84  C   UNL A   1      37.667  23.770  26.150  1.00  0.00     0.004 A 
ATOM     85  C   UNL A   1      36.559  22.136  24.776  1.00  0.00     0.004 A 
ATOM     86  C   UNL A   1      38.733  22.883  26.329  1.00  0.00     0.000 A 
ATOM     87  C   UNL A   1      37.641  21.266  24.918  1.00  0.00     0.000 A 
ATOM     88  C   UNL A   1      38.733  21.644  25.690  1.00  0.00     0.000 A 
ENDBRANCH  82  83
ENDBRANCH  81  82
ENDBRANCH  74  81
BRANCH  78  89
ATOM     89  C   UNL A   1      32.494  19.834  23.990  1.00  0.00     0.300 C 
BRANCH  89  90
ATOM     90  C   UNL A   1      33.100  18.546  24.503  1.00  0.00     0.025 A 
ATOM     91  C   UNL A   1      34.434  18.203  24.257  1.00  0.00     0.013 A 
ATOM     92  C   UNL A   1      32.349  17.638  25.241  1.00  0.00     0.120 A 
ATOM     93  C   UNL A   1      34.936  16.976  24.681  1.00  0.00     0.021 A 
ATOM     94  N   UNL A   1      32.812  16.445  25.685  1.00  0.00    -0.264 NA
ATOM     95  C   UNL A   1      34.093  16.138  25.388  1.00  0.00     0.111 A 
ENDBRANCH  89  90
ENDBRANCH  78  89
ENDBRANCH  71  74
ENDBRANCH  69  70
ENDBRANCH   1  69
TORSDOF 18
ENDMDL
MODEL 2
REMARK VINA RESULT:     -11.4      2.969      9.836
REMARK SMILES O=C(NCCCNC(=O)[C@@]1(CCc2ccccc2)CCC[N@@H+](Cc2cccnc2)C1)c1ccc(-c2c3nc(c(-c4ccc(S(=O)(=O)[O-])cc4)c4ccc([nH]4)c(-c4ccc(S(=O)(=O)[O-])cc4)c4nc(c(-c5ccc(S(=O)(=O)[O-])cc5)c5ccc2[nH]5)C=C4)C=C3)cc1
REMARK SMILES IDX 5 1 4 2 3 3 1 4 2 5 31 7 32 8 90 9 33 10 89 11 34 12 35 13
REMARK SMILES IDX 36 14 83 15 37 16 88 17 82 18 84 19 38 20 87 21 81 22 80 23
REMARK SMILES IDX 39 25 69 26 50 27 68 28 51 29 54 30 67 31 85 32 52 33 53 34
REMARK SMILES IDX 66 36 86 37 55 38 40 39 41 40 49 41 42 42 48 43 43 44 44 45
REMARK SMILES IDX 45 46 46 47 47 48 70 49 71 50 79 51 72 52 78 53 73 54 74 55
REMARK SMILES IDX 75 56 76 57 77 58 56 59 57 60 65 61 58 62 64 63 59 64 60 65
REMARK SMILES IDX 61 66 62 67 63 68 6 69 7 70 8 71 9 73 10 74 19 75 30 76
REMARK SMILES IDX 20 77 22 78 21 79 11 81 12 82 13 83 14 84 18 85 15 86 17 87
REMARK SMILES IDX 16 88 23 89 24 90 25 91 29 92 26 93 28 94 27 95
REMARK H PARENT 3 6 84 24 54 35 7 72 22 80
REMARK Flexibility Score: inf
ROOT
ATOM      1  C   UNL A   1      35.222  23.758  24.882  1.00  0.00     0.042 C 
ENDROOT
BRANCH   1   2
ATOM      2  C   UNL A   1      36.379  24.040  25.826  1.00  0.00     0.118 C 
BRANCH   2   3
ATOM      3  N   UNL A   1      37.365  22.967  25.820  1.00  0.00    -0.352 N 
ATOM      4  O   UNL A   1      39.427  22.068  25.925  1.00  0.00    -0.269 OA
ATOM      5  C   UNL A   1      38.693  23.010  26.180  1.00  0.00     0.251 C 
ATOM      6  H   UNL A   1      37.036  22.090  25.518  1.00  0.00     0.163 HD
BRANCH   5   7
ATOM      7  C   UNL A   1      39.219  24.216  26.856  1.00  0.00     0.039 A 
ATOM      8  C   UNL A   1      38.966  24.432  28.212  1.00  0.00     0.014 A 
ATOM      9  C   UNL A   1      39.964  25.143  26.123  1.00  0.00     0.014 A 
ATOM     10  C   UNL A   1      39.318  25.640  28.796  1.00  0.00     0.010 A 
ATOM     11  C   UNL A   1      40.413  26.313  26.743  1.00  0.00     0.010 A 
ATOM     12  C   UNL A   1      40.070  26.582  28.077  1.00  0.00    -0.014 A 
BRANCH  12  13
ATOM     13  C   UNL A   1      40.559  27.796  28.776  1.00  0.00     0.031 A 
ATOM     14  C   UNL A   1      41.975  27.901  29.270  1.00  0.00     0.074 A 
ATOM     15  C   UNL A   1      39.704  28.824  28.938  1.00  0.00     0.049 A 
ATOM     16  N   UNL A   1      42.556  28.900  29.882  1.00  0.00    -0.248 NA
ATOM     17  C   UNL A   1      42.849  26.737  29.057  1.00  0.00     0.031 C 
ATOM     18  C   UNL A   1      38.304  28.833  28.499  1.00  0.00     0.029 A 
ATOM     19  N   UNL A   1      39.884  30.067  29.486  1.00  0.00    -0.354 N 
ATOM     20  C   UNL A   1      43.853  28.480  30.156  1.00  0.00     0.074 A 
ATOM     21  C   UNL A   1      43.967  27.126  29.655  1.00  0.00     0.031 C 
ATOM     22  C   UNL A   1      37.774  30.039  28.737  1.00  0.00     0.029 A 
ATOM     23  C   UNL A   1      38.766  30.864  29.415  1.00  0.00     0.049 A 
ATOM     24  H   UNL A   1      40.732  30.360  29.891  1.00  0.00     0.167 HD
ATOM     25  C   UNL A   1      44.851  29.161  30.769  1.00  0.00     0.031 A 
ATOM     26  C   UNL A   1      38.551  32.114  29.861  1.00  0.00     0.031 A 
ATOM     27  C   UNL A   1      44.722  30.508  31.268  1.00  0.00     0.049 A 
ATOM     28  C   UNL A   1      39.663  32.835  30.561  1.00  0.00     0.074 A 
ATOM     29  C   UNL A   1      45.682  31.294  31.880  1.00  0.00     0.029 A 
ATOM     30  N   UNL A   1      43.560  31.263  31.218  1.00  0.00    -0.354 N 
ATOM     31  N   UNL A   1      40.887  32.426  30.791  1.00  0.00    -0.248 NA
ATOM     32  C   UNL A   1      39.363  34.179  31.065  1.00  0.00     0.031 C 
ATOM     33  C   UNL A   1      45.086  32.506  32.246  1.00  0.00     0.029 A 
ATOM     34  C   UNL A   1      43.770  32.497  31.812  1.00  0.00     0.049 A 
ATOM     35  H   UNL A   1      42.710  30.967  30.820  1.00  0.00     0.167 HD
ATOM     36  C   UNL A   1      41.512  33.470  31.460  1.00  0.00     0.074 A 
ATOM     37  C   UNL A   1      40.534  34.534  31.578  1.00  0.00     0.031 C 
ATOM     38  C   UNL A   1      42.780  33.539  31.935  1.00  0.00     0.031 A 
BRANCH  25  39
ATOM     39  C   UNL A   1      46.160  28.442  30.972  1.00  0.00    -0.014 A 
ATOM     40  C   UNL A   1      47.225  28.584  30.065  1.00  0.00     0.010 A 
ATOM     41  C   UNL A   1      46.335  27.626  32.107  1.00  0.00     0.010 A 
ATOM     42  C   UNL A   1      48.420  27.885  30.260  1.00  0.00     0.020 A 
ATOM     43  C   UNL A   1      47.537  26.946  32.319  1.00  0.00     0.020 A 
ATOM     44  C   UNL A   1      48.566  27.062  31.381  1.00  0.00     0.054 A 
BRANCH  44  45
ATOM     45  S   UNL A   1      50.123  26.158  31.607  1.00  0.00     0.124 S 
ATOM     46  O   UNL A   1      50.753  26.915  32.686  1.00  0.00    -0.237 OA
ATOM     47  O   UNL A   1      49.667  24.817  31.963  1.00  0.00    -0.237 OA
ATOM     48  O   UNL A   1      50.777  26.266  30.305  1.00  0.00    -0.744 OA
ENDBRANCH  44  45
ENDBRANCH  25  39
BRANCH  26  49
ATOM     49  C   UNL A   1      37.218  32.741  29.659  1.00  0.00    -0.014 A 
ATOM     50  C   UNL A   1      36.240  32.677  30.665  1.00  0.00     0.010 A 
ATOM     51  C   UNL A   1      36.946  33.465  28.482  1.00  0.00     0.010 A 
ATOM     52  C   UNL A   1      35.014  33.328  30.500  1.00  0.00     0.020 A 
ATOM     53  C   UNL A   1      35.733  34.140  28.326  1.00  0.00     0.020 A 
ATOM     54  C   UNL A   1      34.772  34.062  29.334  1.00  0.00     0.054 A 
BRANCH  54  55
ATOM     55  S   UNL A   1      33.207  34.966  29.177  1.00  0.00     0.124 S 
ATOM     56  O   UNL A   1      32.671  34.881  30.532  1.00  0.00    -0.237 OA
ATOM     57  O   UNL A   1      33.650  36.292  28.751  1.00  0.00    -0.237 OA
ATOM     58  O   UNL A   1      32.476  34.208  28.163  1.00  0.00    -0.744 OA
ENDBRANCH  54  55
ENDBRANCH  26  49
BRANCH  38  59
ATOM     59  C   UNL A   1      43.184  34.819  32.611  1.00  0.00    -0.014 A 
ATOM     60  C   UNL A   1      43.039  34.985  34.000  1.00  0.00     0.010 A 
ATOM     61  C   UNL A   1      43.748  35.858  31.849  1.00  0.00     0.010 A 
ATOM     62  C   UNL A   1      43.420  36.182  34.611  1.00  0.00     0.020 A 
ATOM     63  C   UNL A   1      44.156  37.046  32.461  1.00  0.00     0.020 A 
ATOM     64  C   UNL A   1      43.976  37.206  33.836  1.00  0.00     0.054 A 
BRANCH  64  65
ATOM     65  S   UNL A   1      44.499  38.736  34.656  1.00  0.00     0.124 S 
ATOM     66  O   UNL A   1      44.315  38.404  36.066  1.00  0.00    -0.237 OA
ATOM     67  O   UNL A   1      45.886  38.878  34.218  1.00  0.00    -0.237 OA
ATOM     68  O   UNL A   1      43.580  39.743  34.128  1.00  0.00    -0.744 OA
ENDBRANCH  64  65
ENDBRANCH  38  59
ENDBRANCH  12  13
ENDBRANCH   5   7
ENDBRANCH   2   3
ENDBRANCH   1   2
BRANCH   1  69
ATOM     69  C   UNL A   1      33.881  23.898  25.578  1.00  0.00     0.117 C 
BRANCH  69  70
ATOM     70  N   UNL A   1      32.787  23.714  24.639  1.00  0.00    -0.355 N 
ATOM     71  C   UNL A   1      31.915  24.562  24.033  1.00  0.00     0.231 C 
ATOM     72  H   UNL A   1      32.649  22.772  24.388  1.00  0.00     0.163 HD
ATOM     73  O   UNL A   1      31.138  24.029  23.232  1.00  0.00    -0.274 OA
BRANCH  71  74
ATOM     74  C   UNL A   1      31.865  26.079  24.322  1.00  0.00     0.098 C 
ATOM     75  C   UNL A   1      33.021  26.728  23.487  1.00  0.00     0.028 C 
ATOM     76  C   UNL A   1      30.531  26.618  23.721  1.00  0.00     0.279 C 
ATOM     77  C   UNL A   1      32.850  28.230  23.269  1.00  0.00     0.063 C 
ATOM     78  N   UNL A   1      30.422  28.059  23.448  1.00  0.00    -0.330 N 
ATOM     79  C   UNL A   1      31.514  28.528  22.596  1.00  0.00     0.262 C 
ATOM     80  H   UNL A   1      30.516  28.542  24.341  1.00  0.00     0.348 HD
BRANCH  74  81
ATOM     81  C   UNL A   1      32.071  26.457  25.831  1.00  0.00     0.027 C 
BRANCH  81  82
ATOM     82  C   UNL A   1      33.407  27.058  26.332  1.00  0.00     0.037 C 
BRANCH  82  83
ATOM     83  C   UNL A   1      33.390  28.505  26.770  1.00  0.00    -0.048 A 
ATOM     84  C   UNL A   1      32.228  29.277  26.661  1.00  0.00     0.004 A 
ATOM     85  C   UNL A   1      34.543  29.112  27.293  1.00  0.00     0.004 A 
ATOM     86  C   UNL A   1      32.245  30.636  26.991  1.00  0.00     0.000 A 
ATOM     87  C   UNL A   1      34.574  30.476  27.582  1.00  0.00     0.000 A 
ATOM     88  C   UNL A   1      33.424  31.241  27.423  1.00  0.00     0.000 A 
ENDBRANCH  82  83
ENDBRANCH  81  82
ENDBRANCH  74  81
BRANCH  78  89
ATOM     89  C   UNL A   1      29.086  28.432  22.917  1.00  0.00     0.300 C 
BRANCH  89  90
ATOM     90  C   UNL A   1      28.838  29.895  22.625  1.00  0.00     0.025 A 
ATOM     91  C   UNL A   1      29.011  30.888  23.597  1.00  0.00     0.013 A 
ATOM     92  C   UNL A   1      28.420  30.320  21.369  1.00  0.00     0.120 A 
ATOM     93  C   UNL A   1      28.702  32.214  23.313  1.00  0.00     0.021 A 
ATOM     94  N   UNL A   1      28.130  31.605  21.054  1.00  0.00    -0.264 NA
ATOM     95  C   UNL A   1      28.271  32.522  22.035  1.00  0.00     0.111 A 
ENDBRANCH  89  90
ENDBRANCH  78  89
ENDBRANCH  71  74
ENDBRANCH  69  70
ENDBRANCH   1  69
TORSDOF 18
ENDMDL
MODEL 3
REMARK VINA RESULT:     -11.1      2.942      8.583
REMARK SMILES O=C(NCCCNC(=O)[C@@]1(CCc2ccccc2)CCC[N@@H+](Cc2cccnc2)C1)c1ccc(-c2c3nc(c(-c4ccc(S(=O)(=O)[O-])cc4)c4ccc([nH]4)c(-c4ccc(S(=O)(=O)[O-])cc4)c4nc(c(-c5ccc(S(=O)(=O)[O-])cc5)c5ccc2[nH]5)C=C4)C=C3)cc1
REMARK SMILES IDX 5 1 4 2 3 3 1 4 2 5 31 7 32 8 90 9 33 10 89 11 34 12 35 13
REMARK SMILES IDX 36 14 83 15 37 16 88 17 82 18 84 19 38 20 87 21 81 22 80 23
REMARK SMILES IDX 39 25 69 26 50 27 68 28 51 29 54 30 67 31 85 32 52 33 53 34
REMARK SMILES IDX 66 36 86 37 55 38 40 39 41 40 49 41 42 42 48 43 43 44 44 45
REMARK SMILES IDX 45 46 46 47 47 48 70 49 71 50 79 51 72 52 78 53 73 54 74 55
REMARK SMILES IDX 75 56 76 57 77 58 56 59 57 60 65 61 58 62 64 63 59 64 60 65
REMARK SMILES IDX 61 66 62 67 63 68 6 69 7 70 8 71 9 73 10 74 19 75 30 76
REMARK SMILES IDX 20 77 22 78 21 79 11 81 12 82 13 83 14 84 18 85 15 86 17 87
REMARK SMILES IDX 16 88 23 89 24 90 25 91 29 92 26 93 28 94 27 95
REMARK H PARENT 3 6 84 24 54 35 7 72 22 80
REMARK Flexibility Score: inf
ROOT
ATOM      1  C   UNL A   1      34.876  23.694  25.453  1.00  0.00     0.042 C 
ENDROOT
BRANCH   1   2
ATOM      2  C   UNL A   1      36.305  24.142  25.715  1.00  0.00     0.118 C 
BRANCH   2   3
ATOM      3  N   UNL A   1      37.235  23.021  25.734  1.00  0.00    -0.352 N 
ATOM      4  O   UNL A   1      39.248  22.020  25.878  1.00  0.00    -0.269 OA
ATOM      5  C   UNL A   1      38.558  23.000  26.114  1.00  0.00     0.251 C 
ATOM      6  H   UNL A   1      36.868  22.158  25.434  1.00  0.00     0.163 HD
BRANCH   5   7
ATOM      7  C   UNL A   1      39.134  24.185  26.788  1.00  0.00     0.039 A 
ATOM      8  C   UNL A   1      38.913  24.398  28.149  1.00  0.00     0.014 A 
ATOM      9  C   UNL A   1      39.894  25.093  26.047  1.00  0.00     0.014 A 
ATOM     10  C   UNL A   1      39.313  25.591  28.734  1.00  0.00     0.010 A 
ATOM     11  C   UNL A   1      40.390  26.245  26.665  1.00  0.00     0.010 A 
ATOM     12  C   UNL A   1      40.081  26.515  28.008  1.00  0.00    -0.014 A 
BRANCH  12  13
ATOM     13  C   UNL A   1      40.620  27.708  28.705  1.00  0.00     0.031 A 
ATOM     14  C   UNL A   1      39.767  28.917  28.967  1.00  0.00     0.074 A 
ATOM     15  C   UNL A   1      41.900  27.674  29.127  1.00  0.00     0.049 A 
ATOM     16  N   UNL A   1      40.087  30.028  29.578  1.00  0.00    -0.248 NA
ATOM     17  C   UNL A   1      38.381  28.880  28.476  1.00  0.00     0.031 C 
ATOM     18  C   UNL A   1      42.823  26.551  28.926  1.00  0.00     0.029 A 
ATOM     19  N   UNL A   1      42.640  28.586  29.831  1.00  0.00    -0.354 N 
ATOM     20  C   UNL A   1      38.958  30.836  29.522  1.00  0.00     0.074 A 
ATOM     21  C   UNL A   1      37.946  30.090  28.801  1.00  0.00     0.031 C 
ATOM     22  C   UNL A   1      43.981  26.815  29.546  1.00  0.00     0.029 A 
ATOM     23  C   UNL A   1      43.912  28.154  30.120  1.00  0.00     0.049 A 
ATOM     24  H   UNL A   1      42.294  29.467  30.103  1.00  0.00     0.167 HD
ATOM     25  C   UNL A   1      38.782  32.083  30.023  1.00  0.00     0.031 A 
ATOM     26  C   UNL A   1      44.923  28.767  30.759  1.00  0.00     0.031 A 
ATOM     27  C   UNL A   1      39.799  32.816  30.735  1.00  0.00     0.049 A 
ATOM     28  C   UNL A   1      44.713  30.157  31.279  1.00  0.00     0.074 A 
ATOM     29  C   UNL A   1      39.713  34.074  31.306  1.00  0.00     0.029 A 
ATOM     30  N   UNL A   1      41.090  32.361  30.967  1.00  0.00    -0.354 N 
ATOM     31  N   UNL A   1      43.630  30.894  31.233  1.00  0.00    -0.248 NA
ATOM     32  C   UNL A   1      45.861  30.798  31.931  1.00  0.00     0.031 C 
ATOM     33  C   UNL A   1      40.966  34.400  31.837  1.00  0.00     0.029 A 
ATOM     34  C   UNL A   1      41.817  33.324  31.648  1.00  0.00     0.049 A 
ATOM     35  H   UNL A   1      41.438  31.484  30.688  1.00  0.00     0.167 HD
ATOM     36  C   UNL A   1      43.961  32.088  31.861  1.00  0.00     0.074 A 
ATOM     37  C   UNL A   1      45.339  31.962  32.295  1.00  0.00     0.031 C 
ATOM     38  C   UNL A   1      43.194  33.188  32.058  1.00  0.00     0.031 A 
BRANCH  25  39
ATOM     39  C   UNL A   1      37.453  32.749  29.782  1.00  0.00    -0.014 A 
ATOM     40  C   UNL A   1      37.097  33.242  28.514  1.00  0.00     0.010 A 
ATOM     41  C   UNL A   1      36.532  32.864  30.841  1.00  0.00     0.010 A 
ATOM     42  C   UNL A   1      35.869  33.881  28.321  1.00  0.00     0.020 A 
ATOM     43  C   UNL A   1      35.292  33.479  30.647  1.00  0.00     0.020 A 
ATOM     44  C   UNL A   1      34.977  34.005  29.391  1.00  0.00     0.054 A 
BRANCH  44  45
ATOM     45  S   UNL A   1      33.393  34.847  29.118  1.00  0.00     0.124 S 
ATOM     46  O   UNL A   1      32.787  34.781  30.446  1.00  0.00    -0.237 OA
ATOM     47  O   UNL A   1      33.808  36.178  28.682  1.00  0.00    -0.237 OA
ATOM     48  O   UNL A   1      32.741  34.034  28.094  1.00  0.00    -0.744 OA
ENDBRANCH  44  45
ENDBRANCH  25  39
BRANCH  26  49
ATOM     49  C   UNL A   1      46.221  28.059  30.922  1.00  0.00    -0.014 A 
ATOM     50  C   UNL A   1      46.449  27.235  32.035  1.00  0.00     0.010 A 
ATOM     51  C   UNL A   1      47.210  28.156  29.925  1.00  0.00     0.010 A 
ATOM     52  C   UNL A   1      47.642  26.516  32.149  1.00  0.00     0.020 A 
ATOM     53  C   UNL A   1      48.392  27.418  30.021  1.00  0.00     0.020 A 
ATOM     54  C   UNL A   1      48.603  26.607  31.137  1.00  0.00     0.054 A 
BRANCH  54  55
ATOM     55  S   UNL A   1      50.108  25.602  31.266  1.00  0.00     0.124 S 
ATOM     56  O   UNL A   1      49.761  24.673  32.335  1.00  0.00    -0.237 OA
ATOM     57  O   UNL A   1      50.215  25.022  29.929  1.00  0.00    -0.237 OA
ATOM     58  O   UNL A   1      51.143  26.580  31.594  1.00  0.00    -0.744 OA
ENDBRANCH  54  55
ENDBRANCH  26  49
BRANCH  38  59
ATOM     59  C   UNL A   1      43.827  34.337  32.792  1.00  0.00    -0.014 A 
ATOM     60  C   UNL A   1      44.464  35.380  32.097  1.00  0.00     0.010 A 
ATOM     61  C   UNL A   1      43.753  34.388  34.196  1.00  0.00     0.010 A 
ATOM     62  C   UNL A   1      45.047  36.440  32.797  1.00  0.00     0.020 A 
ATOM     63  C   UNL A   1      44.311  35.460  34.896  1.00  0.00     0.020 A 
ATOM     64  C   UNL A   1      44.967  36.472  34.193  1.00  0.00     0.054 A 
BRANCH  64  65
ATOM     65  S   UNL A   1      45.698  37.877  35.077  1.00  0.00     0.124 S 
ATOM     66  O   UNL A   1      45.634  37.428  36.465  1.00  0.00    -0.237 OA
ATOM     67  O   UNL A   1      47.039  37.957  34.502  1.00  0.00    -0.237 OA
ATOM     68  O   UNL A   1      44.816  38.993  34.741  1.00  0.00    -0.744 OA
ENDBRANCH  64  65
ENDBRANCH  38  59
ENDBRANCH  12  13
ENDBRANCH   5   7
ENDBRANCH   2   3
ENDBRANCH   1   2
BRANCH   1  69
ATOM     69  C   UNL A   1      34.445  23.995  24.029  1.00  0.00     0.117 C 
BRANCH  69  70
ATOM     70  N   UNL A   1      33.029  23.719  23.848  1.00  0.00    -0.355 N 
ATOM     71  C   UNL A   1      31.914  24.496  23.831  1.00  0.00     0.231 C 
ATOM     72  H   UNL A   1      32.837  22.764  23.706  1.00  0.00     0.163 HD
ATOM     73  O   UNL A   1      30.861  23.896  23.588  1.00  0.00    -0.274 OA
BRANCH  71  74
ATOM     74  C   UNL A   1      31.934  26.015  24.113  1.00  0.00     0.098 C 
ATOM     75  C   UNL A   1      32.978  26.637  23.125  1.00  0.00     0.028 C 
ATOM     76  C   UNL A   1      30.541  26.578  23.695  1.00  0.00     0.279 C 
ATOM     77  C   UNL A   1      32.808  28.141  22.922  1.00  0.00     0.063 C 
ATOM     78  N   UNL A   1      30.424  28.020  23.428  1.00  0.00    -0.330 N 
ATOM     79  C   UNL A   1      31.399  28.463  22.434  1.00  0.00     0.262 C 
ATOM     80  H   UNL A   1      30.647  28.505  24.297  1.00  0.00     0.348 HD
BRANCH  74  81
ATOM     81  C   UNL A   1      32.349  26.396  25.578  1.00  0.00     0.027 C 
BRANCH  81  82
ATOM     82  C   UNL A   1      33.715  27.062  25.877  1.00  0.00     0.037 C 
BRANCH  82  83
ATOM     83  C   UNL A   1      33.689  28.472  26.423  1.00  0.00    -0.048 A 
ATOM     84  C   UNL A   1      34.808  29.019  27.059  1.00  0.00     0.004 A 
ATOM     85  C   UNL A   1      32.536  29.266  26.309  1.00  0.00     0.004 A 
ATOM     86  C   UNL A   1      34.746  30.292  27.634  1.00  0.00     0.000 A 
ATOM     87  C   UNL A   1      32.458  30.518  26.919  1.00  0.00     0.000 A 
ATOM     88  C   UNL A   1      33.564  31.028  27.588  1.00  0.00     0.000 A 
ENDBRANCH  82  83
ENDBRANCH  81  82
ENDBRANCH  74  81
BRANCH  78  89
ATOM     89  C   UNL A   1      29.036  28.418  23.081  1.00  0.00     0.300 C 
BRANCH  89  90
ATOM     90  C   UNL A   1      28.802  29.862  22.697  1.00  0.00     0.025 A 
ATOM     91  C   UNL A   1      29.011  30.914  23.597  1.00  0.00     0.013 A 
ATOM     92  C   UNL A   1      28.361  30.210  21.425  1.00  0.00     0.120 A 
ATOM     93  C   UNL A   1      28.715  32.223  23.232  1.00  0.00     0.021 A 
ATOM     94  N   UNL A   1      28.082  31.475  21.032  1.00  0.00    -0.264 NA
ATOM     95  C   UNL A   1      28.258  32.452  21.947  1.00  0.00     0.111 A 
ENDBRANCH  89  90
ENDBRANCH  78  89
ENDBRANCH  71  74
ENDBRANCH  69  70
ENDBRANCH   1  69
TORSDOF 18
ENDMDL
