MODEL 1
REMARK VINA RESULT:     -11.5      0.000      0.000
REMARK SMILES CC[C@@H]1CCCN(S(=O)(=O)c2cc(C(=O)NCCCNC(=O)c3ccc(-c4c5nc(c(-c6ccc(S(=O)(=O)[O-])cc6)c6ccc([nH]6)c(-c6ccc(S(=O)(=O)[O-])cc6)c6nc(c(-c7ccc(S(=O)(=O)[O-])cc7)c7ccc4[nH]7)C=C6)C=C5)cc3)ccc2F)C1
REMARK SMILES IDX 18 1 17 2 16 3 14 4 15 5 13 7 11 8 12 9 85 10 84 11 86 12
REMARK SMILES IDX 83 13 8 14 9 15 10 16 7 17 3 18 4 19 87 20 5 21 6 22 2 23
REMARK SMILES IDX 1 24 19 25 20 26 21 27 22 29 23 30 24 31 82 32 25 33 81 34
REMARK SMILES IDX 26 35 27 36 28 37 75 38 29 39 80 40 74 41 76 42 30 43 79 44
REMARK SMILES IDX 73 45 72 46 31 48 61 49 42 50 60 51 43 52 46 53 59 54 77 55
REMARK SMILES IDX 44 56 45 57 58 59 78 60 47 61 32 62 33 63 41 64 34 65 40 66
REMARK SMILES IDX 35 67 36 68 37 69 38 70 39 71 62 72 63 73 71 74 64 75 70 76
REMARK SMILES IDX 65 77 66 78 67 79 68 80 69 81 48 82 49 83 57 84 50 85 56 86
REMARK SMILES IDX 51 87 52 88 53 89 54 90 55 91
REMARK H PARENT 16 6 20 28 76 47 46 58
REMARK Flexibility Score: inf
ROOT
ATOM      1  C   UNL A   1      35.162  22.660  26.125  1.00  0.00     0.042 C 
ENDROOT
BRANCH   1   2
ATOM      2  C   UNL A   1      35.305  21.247  25.560  1.00  0.00     0.118 C 
BRANCH   2   3
ATOM      3  N   UNL A   1      34.059  20.506  25.626  1.00  0.00    -0.352 N 
ATOM      4  C   UNL A   1      32.820  20.717  25.079  1.00  0.00     0.251 C 
ATOM      5  O   UNL A   1      31.991  19.816  25.214  1.00  0.00    -0.269 OA
ATOM      6  H   UNL A   1      34.114  19.690  26.172  1.00  0.00     0.163 HD
BRANCH   4   7
ATOM      7  C   UNL A   1      32.420  21.949  24.336  1.00  0.00     0.041 A 
ATOM      8  C   UNL A   1      31.332  24.136  24.457  1.00  0.00     0.119 A 
ATOM      9  C   UNL A   1      31.654  22.901  25.039  1.00  0.00     0.038 A 
ATOM     10  C   UNL A   1      31.783  24.434  23.181  1.00  0.00     0.143 A 
ATOM     11  C   UNL A   1      32.511  23.497  22.460  1.00  0.00     0.041 A 
ATOM     12  F   UNL A   1      31.536  25.617  22.603  1.00  0.00    -0.206 F 
ATOM     13  C   UNL A   1      32.845  22.270  23.042  1.00  0.00     0.017 A 
BRANCH   8  14
ATOM     14  S   UNL A   1      30.531  25.380  25.418  1.00  0.00     0.246 S 
ATOM     15  O   UNL A   1      30.207  24.828  26.721  1.00  0.00    -0.207 OA
ATOM     16  O   UNL A   1      29.485  25.947  24.597  1.00  0.00    -0.207 OA
BRANCH  14  17
ATOM     17  N   UNL A   1      31.710  26.627  25.653  1.00  0.00    -0.197 NA
ATOM     18  C   UNL A   1      32.168  28.791  26.832  1.00  0.00     0.004 C 
ATOM     19  C   UNL A   1      33.630  28.373  27.014  1.00  0.00     0.006 C 
ATOM     20  C   UNL A   1      31.259  27.561  26.729  1.00  0.00     0.106 C 
ATOM     21  C   UNL A   1      34.081  27.286  26.047  1.00  0.00     0.017 C 
ATOM     22  C   UNL A   1      33.091  26.133  25.931  1.00  0.00     0.102 C 
BRANCH  18  23
ATOM     23  C   UNL A   1      31.910  29.837  25.726  1.00  0.00     0.001 C 
ATOM     24  C   UNL A   1      31.077  29.420  24.527  1.00  0.00     0.004 C 
ENDBRANCH  18  23
ENDBRANCH  14  17
ENDBRANCH   8  14
ENDBRANCH   4   7
ENDBRANCH   2   3
ENDBRANCH   1   2
BRANCH   1  25
ATOM     25  C   UNL A   1      36.464  23.457  26.143  1.00  0.00     0.118 C 
BRANCH  25  26
ATOM     26  N   UNL A   1      37.634  22.591  26.122  1.00  0.00    -0.352 N 
ATOM     27  C   UNL A   1      38.958  22.879  26.342  1.00  0.00     0.251 C 
ATOM     28  H   UNL A   1      37.446  21.646  25.916  1.00  0.00     0.163 HD
ATOM     29  O   UNL A   1      39.807  22.046  26.032  1.00  0.00    -0.269 OA
BRANCH  27  30
ATOM     30  C   UNL A   1      39.374  24.169  26.938  1.00  0.00     0.039 A 
ATOM     31  C   UNL A   1      39.013  24.446  28.262  1.00  0.00     0.014 A 
ATOM     32  C   UNL A   1      40.053  25.133  26.189  1.00  0.00     0.014 A 
ATOM     33  C   UNL A   1      39.375  25.663  28.845  1.00  0.00     0.010 A 
ATOM     34  C   UNL A   1      40.473  26.318  26.791  1.00  0.00     0.010 A 
ATOM     35  C   UNL A   1      40.131  26.601  28.123  1.00  0.00    -0.014 A 
BRANCH  35  36
ATOM     36  C   UNL A   1      40.573  27.877  28.741  1.00  0.00     0.031 A 
ATOM     37  C   UNL A   1      41.955  27.999  29.327  1.00  0.00     0.074 A 
ATOM     38  C   UNL A   1      39.707  28.905  28.836  1.00  0.00     0.049 A 
ATOM     39  N   UNL A   1      42.492  29.005  29.969  1.00  0.00    -0.248 NA
ATOM     40  C   UNL A   1      42.840  26.831  29.193  1.00  0.00     0.031 C 
ATOM     41  C   UNL A   1      38.328  28.898  28.340  1.00  0.00     0.029 A 
ATOM     42  N   UNL A   1      39.854  30.152  29.389  1.00  0.00    -0.354 N 
ATOM     43  C   UNL A   1      43.766  28.585  30.335  1.00  0.00     0.074 A 
ATOM     44  C   UNL A   1      43.906  27.219  29.879  1.00  0.00     0.031 C 
ATOM     45  C   UNL A   1      37.764  30.090  28.594  1.00  0.00     0.029 A 
ATOM     46  C   UNL A   1      38.722  30.930  29.304  1.00  0.00     0.049 A 
ATOM     47  H   UNL A   1      40.690  30.460  29.808  1.00  0.00     0.167 HD
ATOM     48  C   UNL A   1      44.737  29.278  30.978  1.00  0.00     0.031 A 
ATOM     49  C   UNL A   1      38.480  32.177  29.754  1.00  0.00     0.031 A 
ATOM     50  C   UNL A   1      44.599  30.641  31.417  1.00  0.00     0.049 A 
ATOM     51  C   UNL A   1      39.572  32.925  30.465  1.00  0.00     0.074 A 
ATOM     52  C   UNL A   1      45.543  31.449  32.027  1.00  0.00     0.029 A 
ATOM     53  N   UNL A   1      43.444  31.399  31.297  1.00  0.00    -0.354 N 
ATOM     54  N   UNL A   1      40.791  32.531  30.748  1.00  0.00    -0.248 NA
ATOM     55  C   UNL A   1      39.261  34.292  30.907  1.00  0.00     0.031 C 
ATOM     56  C   UNL A   1      44.944  32.680  32.317  1.00  0.00     0.029 A 
ATOM     57  C   UNL A   1      43.644  32.657  31.837  1.00  0.00     0.049 A 
ATOM     58  H   UNL A   1      42.605  31.087  30.886  1.00  0.00     0.167 HD
ATOM     59  C   UNL A   1      41.400  33.610  31.378  1.00  0.00     0.074 A 
ATOM     60  C   UNL A   1      40.421  34.677  31.422  1.00  0.00     0.031 C 
ATOM     61  C   UNL A   1      42.658  33.708  31.875  1.00  0.00     0.031 A 
BRANCH  48  62
ATOM     62  C   UNL A   1      46.037  28.565  31.251  1.00  0.00    -0.014 A 
ATOM     63  C   UNL A   1      46.283  27.953  32.494  1.00  0.00     0.010 A 
ATOM     64  C   UNL A   1      47.012  28.477  30.242  1.00  0.00     0.010 A 
ATOM     65  C   UNL A   1      47.498  27.306  32.736  1.00  0.00     0.020 A 
ATOM     66  C   UNL A   1      48.218  27.806  30.471  1.00  0.00     0.020 A 
ATOM     67  C   UNL A   1      48.461  27.242  31.725  1.00  0.00     0.054 A 
BRANCH  67  68
ATOM     68  S   UNL A   1      50.023  26.385  32.064  1.00  0.00     0.124 S 
ATOM     69  O   UNL A   1      49.783  25.075  31.462  1.00  0.00    -0.237 OA
ATOM     70  O   UNL A   1      51.004  27.220  31.376  1.00  0.00    -0.237 OA
ATOM     71  O   UNL A   1      50.114  26.393  33.522  1.00  0.00    -0.744 OA
ENDBRANCH  67  68
ENDBRANCH  48  62
BRANCH  49  72
ATOM     72  C   UNL A   1      37.146  32.797  29.530  1.00  0.00    -0.014 A 
ATOM     73  C   UNL A   1      36.171  32.776  30.543  1.00  0.00     0.010 A 
ATOM     74  C   UNL A   1      36.850  33.431  28.309  1.00  0.00     0.010 A 
ATOM     75  C   UNL A   1      34.921  33.365  30.335  1.00  0.00     0.020 A 
ATOM     76  C   UNL A   1      35.611  34.044  28.107  1.00  0.00     0.020 A 
ATOM     77  C   UNL A   1      34.650  33.999  29.119  1.00  0.00     0.054 A 
BRANCH  77  78
ATOM     78  S   UNL A   1      33.043  34.810  28.893  1.00  0.00     0.124 S 
ATOM     79  O   UNL A   1      32.391  33.930  27.929  1.00  0.00    -0.237 OA
ATOM     80  O   UNL A   1      32.487  34.791  30.244  1.00  0.00    -0.237 OA
ATOM     81  O   UNL A   1      33.397  36.136  28.392  1.00  0.00    -0.744 OA
ENDBRANCH  77  78
ENDBRANCH  49  72
BRANCH  61  82
ATOM     82  C   UNL A   1      43.062  35.026  32.480  1.00  0.00    -0.014 A 
ATOM     83  C   UNL A   1      43.631  36.044  31.694  1.00  0.00     0.010 A 
ATOM     84  C   UNL A   1      42.819  35.266  33.843  1.00  0.00     0.010 A 
ATOM     85  C   UNL A   1      43.977  37.269  32.270  1.00  0.00     0.020 A 
ATOM     86  C   UNL A   1      43.139  36.498  34.418  1.00  0.00     0.020 A 
ATOM     87  C   UNL A   1      43.730  37.488  33.629  1.00  0.00     0.054 A 
BRANCH  87  88
ATOM     88  S   UNL A   1      44.146  39.102  34.345  1.00  0.00     0.124 S 
ATOM     89  O   UNL A   1      44.102  38.819  35.777  1.00  0.00    -0.237 OA
ATOM     90  O   UNL A   1      45.475  39.363  33.797  1.00  0.00    -0.237 OA
ATOM     91  O   UNL A   1      43.092  39.983  33.851  1.00  0.00    -0.744 OA
ENDBRANCH  87  88
ENDBRANCH  61  82
ENDBRANCH  35  36
ENDBRANCH  27  30
ENDBRANCH  25  26
ENDBRANCH   1  25
TORSDOF 16
ENDMDL
MODEL 2
REMARK VINA RESULT:     -11.4      2.681      9.305
REMARK SMILES CC[C@@H]1CCCN(S(=O)(=O)c2cc(C(=O)NCCCNC(=O)c3ccc(-c4c5nc(c(-c6ccc(S(=O)(=O)[O-])cc6)c6ccc([nH]6)c(-c6ccc(S(=O)(=O)[O-])cc6)c6nc(c(-c7ccc(S(=O)(=O)[O-])cc7)c7ccc4[nH]7)C=C6)C=C5)cc3)ccc2F)C1
REMARK SMILES IDX 18 1 17 2 16 3 14 4 15 5 13 7 11 8 12 9 85 10 84 11 86 12
REMARK SMILES IDX 83 13 8 14 9 15 10 16 7 17 3 18 4 19 87 20 5 21 6 22 2 23
REMARK SMILES IDX 1 24 19 25 20 26 21 27 22 29 23 30 24 31 82 32 25 33 81 34
REMARK SMILES IDX 26 35 27 36 28 37 75 38 29 39 80 40 74 41 76 42 30 43 79 44
REMARK SMILES IDX 73 45 72 46 31 48 61 49 42 50 60 51 43 52 46 53 59 54 77 55
REMARK SMILES IDX 44 56 45 57 58 59 78 60 47 61 32 62 33 63 41 64 34 65 40 66
REMARK SMILES IDX 35 67 36 68 37 69 38 70 39 71 62 72 63 73 71 74 64 75 70 76
REMARK SMILES IDX 65 77 66 78 67 79 68 80 69 81 48 82 49 83 57 84 50 85 56 86
REMARK SMILES IDX 51 87 52 88 53 89 54 90 55 91
REMARK H PARENT 16 6 20 28 76 47 46 58
REMARK Flexibility Score: inf
ROOT
ATOM      1  C   UNL A   1      33.374  28.609  24.856  1.00  0.00     0.042 C 
ENDROOT
BRANCH   1   2
ATOM      2  C   UNL A   1      32.099  29.449  24.769  1.00  0.00     0.118 C 
BRANCH   2   3
ATOM      3  N   UNL A   1      31.448  29.316  23.480  1.00  0.00    -0.352 N 
ATOM      4  C   UNL A   1      30.795  28.279  22.867  1.00  0.00     0.251 C 
ATOM      5  O   UNL A   1      30.224  28.529  21.805  1.00  0.00    -0.269 OA
ATOM      6  H   UNL A   1      31.483  30.135  22.936  1.00  0.00     0.163 HD
BRANCH   4   7
ATOM      7  C   UNL A   1      30.728  26.886  23.403  1.00  0.00     0.041 A 
ATOM      8  C   UNL A   1      31.652  24.624  23.312  1.00  0.00     0.119 A 
ATOM      9  C   UNL A   1      31.566  25.927  22.799  1.00  0.00     0.038 A 
ATOM     10  C   UNL A   1      30.917  24.276  24.433  1.00  0.00     0.143 A 
ATOM     11  C   UNL A   1      30.061  25.196  25.022  1.00  0.00     0.041 A 
ATOM     12  F   UNL A   1      31.001  23.056  24.982  1.00  0.00    -0.206 F 
ATOM     13  C   UNL A   1      29.983  26.500  24.522  1.00  0.00     0.017 A 
BRANCH   8  14
ATOM     14  S   UNL A   1      32.841  23.497  22.656  1.00  0.00     0.246 S 
ATOM     15  O   UNL A   1      33.423  24.075  21.459  1.00  0.00    -0.207 OA
ATOM     16  O   UNL A   1      32.208  22.198  22.593  1.00  0.00    -0.207 OA
BRANCH  14  17
ATOM     17  N   UNL A   1      34.093  23.383  23.848  1.00  0.00    -0.197 NA
ATOM     18  C   UNL A   1      36.340  22.390  24.342  1.00  0.00     0.004 C 
ATOM     19  C   UNL A   1      36.726  23.662  25.103  1.00  0.00     0.006 C 
ATOM     20  C   UNL A   1      35.287  22.694  23.270  1.00  0.00     0.106 C 
ATOM     21  C   UNL A   1      35.532  24.492  25.554  1.00  0.00     0.017 C 
ATOM     22  C   UNL A   1      34.484  24.685  24.463  1.00  0.00     0.102 C 
BRANCH  18  23
ATOM     23  C   UNL A   1      35.983  21.174  25.224  1.00  0.00     0.001 C 
ATOM     24  C   UNL A   1      34.766  20.348  24.844  1.00  0.00     0.004 C 
ENDBRANCH  18  23
ENDBRANCH  14  17
ENDBRANCH   8  14
ENDBRANCH   4   7
ENDBRANCH   2   3
ENDBRANCH   1   2
BRANCH   1  25
ATOM     25  C   UNL A   1      34.086  28.699  26.204  1.00  0.00     0.118 C 
BRANCH  25  26
ATOM     26  N   UNL A   1      33.837  29.969  26.870  1.00  0.00    -0.352 N 
ATOM     27  C   UNL A   1      34.542  30.610  27.857  1.00  0.00     0.251 C 
ATOM     28  H   UNL A   1      33.032  30.446  26.562  1.00  0.00     0.163 HD
ATOM     29  O   UNL A   1      34.019  31.554  28.445  1.00  0.00    -0.269 OA
BRANCH  27  30
ATOM     30  C   UNL A   1      35.911  30.180  28.225  1.00  0.00     0.039 A 
ATOM     31  C   UNL A   1      36.916  30.232  27.252  1.00  0.00     0.014 A 
ATOM     32  C   UNL A   1      36.198  29.665  29.491  1.00  0.00     0.014 A 
ATOM     33  C   UNL A   1      38.213  29.815  27.563  1.00  0.00     0.010 A 
ATOM     34  C   UNL A   1      37.506  29.312  29.822  1.00  0.00     0.010 A 
ATOM     35  C   UNL A   1      38.526  29.375  28.860  1.00  0.00    -0.014 A 
BRANCH  35  36
ATOM     36  C   UNL A   1      39.910  28.979  29.227  1.00  0.00     0.031 A 
ATOM     37  C   UNL A   1      40.827  29.961  29.908  1.00  0.00     0.074 A 
ATOM     38  C   UNL A   1      40.364  27.756  28.888  1.00  0.00     0.049 A 
ATOM     39  N   UNL A   1      42.084  29.822  30.240  1.00  0.00    -0.248 NA
ATOM     40  C   UNL A   1      40.261  31.280  30.238  1.00  0.00     0.031 C 
ATOM     41  C   UNL A   1      39.586  26.727  28.193  1.00  0.00     0.029 A 
ATOM     42  N   UNL A   1      41.593  27.175  29.073  1.00  0.00    -0.354 N 
ATOM     43  C   UNL A   1      42.468  31.037  30.795  1.00  0.00     0.074 A 
ATOM     44  C   UNL A   1      41.321  31.916  30.719  1.00  0.00     0.031 C 
ATOM     45  C   UNL A   1      40.349  25.635  28.029  1.00  0.00     0.029 A 
ATOM     46  C   UNL A   1      41.680  25.897  28.568  1.00  0.00     0.049 A 
ATOM     47  H   UNL A   1      42.341  27.628  29.523  1.00  0.00     0.167 HD
ATOM     48  C   UNL A   1      43.661  31.386  31.335  1.00  0.00     0.031 A 
ATOM     49  C   UNL A   1      42.716  25.036  28.535  1.00  0.00     0.031 A 
ATOM     50  C   UNL A   1      44.795  30.506  31.422  1.00  0.00     0.049 A 
ATOM     51  C   UNL A   1      44.029  25.446  29.139  1.00  0.00     0.074 A 
ATOM     52  C   UNL A   1      46.029  30.745  32.001  1.00  0.00     0.029 A 
ATOM     53  N   UNL A   1      44.836  29.215  30.915  1.00  0.00    -0.354 N 
ATOM     54  N   UNL A   1      44.353  26.580  29.714  1.00  0.00    -0.248 NA
ATOM     55  C   UNL A   1      45.115  24.456  29.101  1.00  0.00     0.031 C 
ATOM     56  C   UNL A   1      46.833  29.616  31.803  1.00  0.00     0.029 A 
ATOM     57  C   UNL A   1      46.080  28.654  31.150  1.00  0.00     0.049 A 
ATOM     58  H   UNL A   1      44.091  28.765  30.457  1.00  0.00     0.167 HD
ATOM     59  C   UNL A   1      45.671  26.430  30.129  1.00  0.00     0.074 A 
ATOM     60  C   UNL A   1      46.079  25.092  29.752  1.00  0.00     0.031 C 
ATOM     61  C   UNL A   1      46.471  27.320  30.767  1.00  0.00     0.031 A 
BRANCH  48  62
ATOM     62  C   UNL A   1      43.801  32.789  31.868  1.00  0.00    -0.014 A 
ATOM     63  C   UNL A   1      44.283  33.831  31.055  1.00  0.00     0.010 A 
ATOM     64  C   UNL A   1      43.413  33.078  33.188  1.00  0.00     0.010 A 
ATOM     65  C   UNL A   1      44.419  35.125  31.567  1.00  0.00     0.020 A 
ATOM     66  C   UNL A   1      43.520  34.377  33.697  1.00  0.00     0.020 A 
ATOM     67  C   UNL A   1      44.042  35.388  32.887  1.00  0.00     0.054 A 
BRANCH  67  68
ATOM     68  S   UNL A   1      44.216  37.078  33.521  1.00  0.00     0.124 S 
ATOM     69  O   UNL A   1      43.743  37.873  32.389  1.00  0.00    -0.237 OA
ATOM     70  O   UNL A   1      43.344  37.075  34.693  1.00  0.00    -0.237 OA
ATOM     71  O   UNL A   1      45.643  37.195  33.810  1.00  0.00    -0.744 OA
ENDBRANCH  67  68
ENDBRANCH  48  62
BRANCH  49  72
ATOM     72  C   UNL A   1      42.541  23.694  27.917  1.00  0.00    -0.014 A 
ATOM     73  C   UNL A   1      42.845  23.490  26.559  1.00  0.00     0.010 A 
ATOM     74  C   UNL A   1      42.091  22.607  28.688  1.00  0.00     0.010 A 
ATOM     75  C   UNL A   1      42.689  22.227  25.980  1.00  0.00     0.020 A 
ATOM     76  C   UNL A   1      41.958  21.337  28.119  1.00  0.00     0.020 A 
ATOM     77  C   UNL A   1      42.250  21.158  26.765  1.00  0.00     0.054 A 
BRANCH  77  78
ATOM     78  S   UNL A   1      42.112  19.515  26.008  1.00  0.00     0.124 S 
ATOM     79  O   UNL A   1      43.002  19.634  24.858  1.00  0.00    -0.237 OA
ATOM     80  O   UNL A   1      42.572  18.634  27.078  1.00  0.00    -0.237 OA
ATOM     81  O   UNL A   1      40.689  19.404  25.691  1.00  0.00    -0.744 OA
ENDBRANCH  77  78
ENDBRANCH  49  72
BRANCH  61  82
ATOM     82  C   UNL A   1      47.860  26.867  31.129  1.00  0.00    -0.014 A 
ATOM     83  C   UNL A   1      48.106  26.150  32.313  1.00  0.00     0.010 A 
ATOM     84  C   UNL A   1      48.923  27.117  30.244  1.00  0.00     0.010 A 
ATOM     85  C   UNL A   1      49.399  25.718  32.620  1.00  0.00     0.020 A 
ATOM     86  C   UNL A   1      50.212  26.663  30.533  1.00  0.00     0.020 A 
ATOM     87  C   UNL A   1      50.445  25.977  31.728  1.00  0.00     0.054 A 
BRANCH  87  88
ATOM     88  S   UNL A   1      52.106  25.367  32.125  1.00  0.00     0.124 S 
ATOM     89  O   UNL A   1      51.868  23.938  32.307  1.00  0.00    -0.237 OA
ATOM     90  O   UNL A   1      52.874  25.730  30.936  1.00  0.00    -0.237 OA
ATOM     91  O   UNL A   1      52.464  26.099  33.337  1.00  0.00    -0.744 OA
ENDBRANCH  87  88
ENDBRANCH  61  82
ENDBRANCH  35  36
ENDBRANCH  27  30
ENDBRANCH  25  26
ENDBRANCH   1  25
TORSDOF 16
ENDMDL
MODEL 3
REMARK VINA RESULT:     -11.1      3.334      3.946
REMARK SMILES CC[C@@H]1CCCN(S(=O)(=O)c2cc(C(=O)NCCCNC(=O)c3ccc(-c4c5nc(c(-c6ccc(S(=O)(=O)[O-])cc6)c6ccc([nH]6)c(-c6ccc(S(=O)(=O)[O-])cc6)c6nc(c(-c7ccc(S(=O)(=O)[O-])cc7)c7ccc4[nH]7)C=C6)C=C5)cc3)ccc2F)C1
REMARK SMILES IDX 18 1 17 2 16 3 14 4 15 5 13 7 11 8 12 9 85 10 84 11 86 12
REMARK SMILES IDX 83 13 8 14 9 15 10 16 7 17 3 18 4 19 87 20 5 21 6 22 2 23
REMARK SMILES IDX 1 24 19 25 20 26 21 27 22 29 23 30 24 31 82 32 25 33 81 34
REMARK SMILES IDX 26 35 27 36 28 37 75 38 29 39 80 40 74 41 76 42 30 43 79 44
REMARK SMILES IDX 73 45 72 46 31 48 61 49 42 50 60 51 43 52 46 53 59 54 77 55
REMARK SMILES IDX 44 56 45 57 58 59 78 60 47 61 32 62 33 63 41 64 34 65 40 66
REMARK SMILES IDX 35 67 36 68 37 69 38 70 39 71 62 72 63 73 71 74 64 75 70 76
REMARK SMILES IDX 65 77 66 78 67 79 68 80 69 81 48 82 49 83 57 84 50 85 56 86
REMARK SMILES IDX 51 87 52 88 53 89 54 90 55 91
REMARK H PARENT 16 6 20 28 76 47 46 58
REMARK Flexibility Score: inf
ROOT
ATOM      1  C   UNL A   1      37.444  23.693  25.397  1.00  0.00     0.042 C 
ENDROOT
BRANCH   1   2
ATOM      2  C   UNL A   1      37.254  22.177  25.324  1.00  0.00     0.118 C 
BRANCH   2   3
ATOM      3  N   UNL A   1      36.220  21.714  26.229  1.00  0.00    -0.352 N 
ATOM      4  C   UNL A   1      34.852  21.797  26.204  1.00  0.00     0.251 C 
ATOM      5  O   UNL A   1      34.239  21.174  27.071  1.00  0.00    -0.269 OA
ATOM      6  H   UNL A   1      36.571  21.247  27.021  1.00  0.00     0.163 HD
BRANCH   4   7
ATOM      7  C   UNL A   1      34.070  22.579  25.200  1.00  0.00     0.041 A 
ATOM      8  C   UNL A   1      32.291  24.217  24.834  1.00  0.00     0.119 A 
ATOM      9  C   UNL A   1      33.005  23.363  25.688  1.00  0.00     0.038 A 
ATOM     10  C   UNL A   1      32.643  24.304  23.497  1.00  0.00     0.143 A 
ATOM     11  C   UNL A   1      33.667  23.516  22.990  1.00  0.00     0.041 A 
ATOM     12  F   UNL A   1      32.016  25.137  22.655  1.00  0.00    -0.206 F 
ATOM     13  C   UNL A   1      34.390  22.674  23.841  1.00  0.00     0.017 A 
BRANCH   8  14
ATOM     14  S   UNL A   1      31.086  25.321  25.500  1.00  0.00     0.246 S 
ATOM     15  O   UNL A   1      30.987  25.098  26.930  1.00  0.00    -0.207 OA
ATOM     16  O   UNL A   1      29.905  25.214  24.672  1.00  0.00    -0.207 OA
BRANCH  14  17
ATOM     17  N   UNL A   1      31.721  26.915  25.257  1.00  0.00    -0.197 NA
ATOM     18  C   UNL A   1      31.381  29.068  24.021  1.00  0.00     0.004 C 
ATOM     19  C   UNL A   1      31.872  29.841  25.249  1.00  0.00     0.006 C 
ATOM     20  C   UNL A   1      30.773  27.722  24.432  1.00  0.00     0.106 C 
ATOM     21  C   UNL A   1      32.697  28.999  26.214  1.00  0.00     0.017 C 
ATOM     22  C   UNL A   1      32.074  27.640  26.513  1.00  0.00     0.102 C 
BRANCH  18  23
ATOM     23  C   UNL A   1      32.396  28.954  22.862  1.00  0.00     0.001 C 
ATOM     24  C   UNL A   1      33.875  28.949  23.206  1.00  0.00     0.004 C 
ENDBRANCH  18  23
ENDBRANCH  14  17
ENDBRANCH   8  14
ENDBRANCH   4   7
ENDBRANCH   2   3
ENDBRANCH   1   2
BRANCH   1  25
ATOM     25  C   UNL A   1      38.356  24.150  26.533  1.00  0.00     0.118 C 
BRANCH  25  26
ATOM     26  N   UNL A   1      39.764  24.003  26.195  1.00  0.00    -0.352 N 
ATOM     27  C   UNL A   1      40.845  24.779  26.529  1.00  0.00     0.251 C 
ATOM     28  H   UNL A   1      39.976  23.218  25.637  1.00  0.00     0.163 HD
ATOM     29  O   UNL A   1      41.907  24.608  25.933  1.00  0.00    -0.269 OA
BRANCH  27  30
ATOM     30  C   UNL A   1      40.751  25.814  27.584  1.00  0.00     0.039 A 
ATOM     31  C   UNL A   1      39.747  25.698  28.552  1.00  0.00     0.014 A 
ATOM     32  C   UNL A   1      41.592  26.929  27.588  1.00  0.00     0.014 A 
ATOM     33  C   UNL A   1      39.621  26.669  29.549  1.00  0.00     0.010 A 
ATOM     34  C   UNL A   1      41.510  27.863  28.621  1.00  0.00     0.010 A 
ATOM     35  C   UNL A   1      40.519  27.748  29.608  1.00  0.00    -0.014 A 
BRANCH  35  36
ATOM     36  C   UNL A   1      40.436  28.762  30.689  1.00  0.00     0.031 A 
ATOM     37  C   UNL A   1      41.322  28.653  31.903  1.00  0.00     0.074 A 
ATOM     38  C   UNL A   1      39.517  29.745  30.613  1.00  0.00     0.049 A 
ATOM     39  N   UNL A   1      41.344  29.399  32.977  1.00  0.00    -0.248 NA
ATOM     40  C   UNL A   1      42.295  27.549  31.919  1.00  0.00     0.031 C 
ATOM     41  C   UNL A   1      38.574  29.937  29.506  1.00  0.00     0.029 A 
ATOM     42  N   UNL A   1      39.217  30.761  31.484  1.00  0.00    -0.354 N 
ATOM     43  C   UNL A   1      42.312  28.843  33.806  1.00  0.00     0.074 A 
ATOM     44  C   UNL A   1      42.827  27.674  33.127  1.00  0.00     0.031 C 
ATOM     45  C   UNL A   1      37.816  31.016  29.758  1.00  0.00     0.029 A 
ATOM     46  C   UNL A   1      38.188  31.569  31.056  1.00  0.00     0.049 A 
ATOM     47  H   UNL A   1      39.692  30.898  32.335  1.00  0.00     0.167 HD
ATOM     48  C   UNL A   1      42.746  29.275  35.015  1.00  0.00     0.031 A 
ATOM     49  C   UNL A   1      37.603  32.630  31.646  1.00  0.00     0.031 A 
ATOM     50  C   UNL A   1      42.242  30.446  35.681  1.00  0.00     0.049 A 
ATOM     51  C   UNL A   1      38.101  33.090  32.987  1.00  0.00     0.074 A 
ATOM     52  C   UNL A   1      42.654  30.999  36.881  1.00  0.00     0.029 A 
ATOM     53  N   UNL A   1      41.213  31.246  35.206  1.00  0.00    -0.354 N 
ATOM     54  N   UNL A   1      39.059  32.585  33.727  1.00  0.00    -0.248 NA
ATOM     55  C   UNL A   1      37.446  34.270  33.568  1.00  0.00     0.031 C 
ATOM     56  C   UNL A   1      41.843  32.107  37.155  1.00  0.00     0.029 A 
ATOM     57  C   UNL A   1      40.964  32.276  36.098  1.00  0.00     0.049 A 
ATOM     58  H   UNL A   1      40.732  31.103  34.360  1.00  0.00     0.167 HD
ATOM     59  C   UNL A   1      39.140  33.402  34.849  1.00  0.00     0.074 A 
ATOM     60  C   UNL A   1      38.143  34.440  34.683  1.00  0.00     0.031 C 
ATOM     61  C   UNL A   1      39.966  33.301  35.919  1.00  0.00     0.031 A 
BRANCH  48  62
ATOM     62  C   UNL A   1      43.818  28.467  35.699  1.00  0.00    -0.014 A 
ATOM     63  C   UNL A   1      45.182  28.740  35.484  1.00  0.00     0.010 A 
ATOM     64  C   UNL A   1      43.460  27.445  36.595  1.00  0.00     0.010 A 
ATOM     65  C   UNL A   1      46.166  27.974  36.117  1.00  0.00     0.020 A 
ATOM     66  C   UNL A   1      44.441  26.694  37.252  1.00  0.00     0.020 A 
ATOM     67  C   UNL A   1      45.789  26.951  36.992  1.00  0.00     0.054 A 
BRANCH  67  68
ATOM     68  S   UNL A   1      47.087  25.983  37.809  1.00  0.00     0.124 S 
ATOM     69  O   UNL A   1      48.183  26.079  36.848  1.00  0.00    -0.237 OA
ATOM     70  O   UNL A   1      47.287  26.705  39.063  1.00  0.00    -0.237 OA
ATOM     71  O   UNL A   1      46.494  24.655  37.946  1.00  0.00    -0.744 OA
ENDBRANCH  67  68
ENDBRANCH  48  62
BRANCH  49  72
ATOM     72  C   UNL A   1      36.489  33.336  30.958  1.00  0.00    -0.014 A 
ATOM     73  C   UNL A   1      35.221  33.425  31.560  1.00  0.00     0.010 A 
ATOM     74  C   UNL A   1      36.694  33.943  29.705  1.00  0.00     0.010 A 
ATOM     75  C   UNL A   1      34.176  34.095  30.918  1.00  0.00     0.020 A 
ATOM     76  C   UNL A   1      35.659  34.637  29.072  1.00  0.00     0.020 A 
ATOM     77  C   UNL A   1      34.403  34.700  29.679  1.00  0.00     0.054 A 
BRANCH  77  78
ATOM     78  S   UNL A   1      33.049  35.616  28.891  1.00  0.00     0.124 S 
ATOM     79  O   UNL A   1      32.419  34.584  28.075  1.00  0.00    -0.237 OA
ATOM     80  O   UNL A   1      32.273  36.079  30.038  1.00  0.00    -0.237 OA
ATOM     81  O   UNL A   1      33.738  36.670  28.149  1.00  0.00    -0.744 OA
ENDBRANCH  77  78
ENDBRANCH  49  72
BRANCH  61  82
ATOM     82  C   UNL A   1      39.853  34.360  36.983  1.00  0.00    -0.014 A 
ATOM     83  C   UNL A   1      40.567  35.568  36.887  1.00  0.00     0.010 A 
ATOM     84  C   UNL A   1      38.978  34.164  38.065  1.00  0.00     0.010 A 
ATOM     85  C   UNL A   1      40.430  36.548  37.873  1.00  0.00     0.020 A 
ATOM     86  C   UNL A   1      38.818  35.152  39.039  1.00  0.00     0.020 A 
ATOM     87  C   UNL A   1      39.556  36.334  38.944  1.00  0.00     0.054 A 
BRANCH  87  88
ATOM     88  S   UNL A   1      39.360  37.640  40.188  1.00  0.00     0.124 S 
ATOM     89  O   UNL A   1      39.072  36.868  41.393  1.00  0.00    -0.237 OA
ATOM     90  O   UNL A   1      40.661  38.304  40.164  1.00  0.00    -0.237 OA
ATOM     91  O   UNL A   1      38.250  38.440  39.679  1.00  0.00    -0.744 OA
ENDBRANCH  87  88
ENDBRANCH  61  82
ENDBRANCH  35  36
ENDBRANCH  27  30
ENDBRANCH  25  26
ENDBRANCH   1  25
TORSDOF 16
ENDMDL
