MODEL 1
REMARK VINA RESULT:     -10.8      0.000      0.000
REMARK SMILES C[C@H]1CCN1c1cc(C(=O)NCCCNC(=O)c2ccc(-c3c4nc(c(-c5ccc(S(=O)(=O)[O-])cc5)c5ccc([nH]5)c(-c5ccc(S(=O)(=O)[O-])cc5)c5nc(c(-c6ccc(S(=O)(=O)[O-])cc6)c6ccc3[nH]6)C=C5)C=C4)cc2)ccc1Cl
REMARK SMILES IDX 14 1 13 2 12 3 11 4 9 5 10 6 8 8 6 9 7 10 80 11 79 12 81 13
REMARK SMILES IDX 78 14 5 15 1 16 2 17 3 18 4 19 15 20 16 21 17 23 18 24 19 25
REMARK SMILES IDX 77 26 20 27 76 28 21 29 22 30 23 31 70 32 24 33 75 34 69 35
REMARK SMILES IDX 71 36 25 37 74 38 68 39 67 40 26 42 56 43 37 44 55 45 38 46
REMARK SMILES IDX 41 47 54 48 72 49 39 50 40 51 53 53 73 54 42 55 27 56 28 57
REMARK SMILES IDX 36 58 29 59 35 60 30 61 31 62 32 63 33 64 34 65 57 66 58 67
REMARK SMILES IDX 66 68 59 69 65 70 60 71 61 72 62 73 63 74 64 75 43 76 44 77
REMARK SMILES IDX 52 78 45 79 51 80 46 81 47 82 48 83 49 84 50 85
REMARK H PARENT 11 7 15 22 71 41 41 52
REMARK Flexibility Score: inf
ROOT
ATOM      1  C   UNL A   1      36.678  23.857  24.904  1.00  0.00     0.118 C 
ENDROOT
BRANCH   1   2
ATOM      2  C   UNL A   1      35.539  24.033  25.912  1.00  0.00     0.042 C 
BRANCH   2   3
ATOM      3  C   UNL A   1      34.469  25.030  25.466  1.00  0.00     0.118 C 
BRANCH   3   4
ATOM      4  N   UNL A   1      33.156  24.653  25.956  1.00  0.00    -0.352 N 
ATOM      5  C   UNL A   1      32.055  25.376  26.330  1.00  0.00     0.251 C 
ATOM      6  O   UNL A   1      31.045  24.741  26.636  1.00  0.00    -0.269 OA
ATOM      7  H   UNL A   1      33.031  23.680  26.035  1.00  0.00     0.163 HD
BRANCH   5   8
ATOM      8  C   UNL A   1      32.000  26.865  26.351  1.00  0.00     0.041 A 
ATOM      9  C   UNL A   1      31.350  28.888  25.100  1.00  0.00     0.057 A 
ATOM     10  C   UNL A   1      31.487  27.492  25.202  1.00  0.00     0.041 A 
ATOM     11  C   UNL A   1      31.745  29.669  26.198  1.00  0.00     0.064 A 
ATOM     12  C   UNL A   1      32.243  29.056  27.355  1.00  0.00     0.023 A 
ATOM     13  Cl  UNL A   1      31.556  31.386  26.252  1.00  0.00    -0.082 Cl
ATOM     14  C   UNL A   1      32.349  27.663  27.439  1.00  0.00     0.015 A 
BRANCH   9  15
ATOM     15  N   UNL A   1      30.775  29.376  23.907  1.00  0.00    -0.367 N 
ATOM     16  C   UNL A   1      29.074  31.073  23.538  1.00  0.00     0.031 C 
ATOM     17  C   UNL A   1      29.399  29.589  23.563  1.00  0.00     0.081 C 
ATOM     18  C   UNL A   1      29.681  28.938  22.204  1.00  0.00     0.046 C 
ATOM     19  C   UNL A   1      31.156  28.940  22.594  1.00  0.00     0.119 C 
ENDBRANCH   9  15
ENDBRANCH   5   8
ENDBRANCH   3   4
ENDBRANCH   2   3
ENDBRANCH   1   2
BRANCH   1  20
ATOM     20  N   UNL A   1      37.595  22.797  25.296  1.00  0.00    -0.352 N 
ATOM     21  C   UNL A   1      38.792  22.856  25.965  1.00  0.00     0.251 C 
ATOM     22  H   UNL A   1      37.311  21.890  25.038  1.00  0.00     0.163 HD
ATOM     23  O   UNL A   1      39.510  21.858  25.985  1.00  0.00    -0.269 OA
BRANCH  21  24
ATOM     24  C   UNL A   1      39.233  24.093  26.650  1.00  0.00     0.039 A 
ATOM     25  C   UNL A   1      38.802  24.319  27.962  1.00  0.00     0.014 A 
ATOM     26  C   UNL A   1      40.004  25.060  25.998  1.00  0.00     0.014 A 
ATOM     27  C   UNL A   1      39.183  25.485  28.633  1.00  0.00     0.010 A 
ATOM     28  C   UNL A   1      40.433  26.193  26.689  1.00  0.00     0.010 A 
ATOM     29  C   UNL A   1      40.024  26.421  28.011  1.00  0.00    -0.014 A 
BRANCH  29  30
ATOM     30  C   UNL A   1      40.498  27.626  28.741  1.00  0.00     0.031 A 
ATOM     31  C   UNL A   1      41.857  27.649  29.389  1.00  0.00     0.074 A 
ATOM     32  C   UNL A   1      39.673  28.683  28.875  1.00  0.00     0.049 A 
ATOM     33  N   UNL A   1      42.418  28.601  30.091  1.00  0.00    -0.248 NA
ATOM     34  C   UNL A   1      42.683  26.440  29.247  1.00  0.00     0.031 C 
ATOM     35  C   UNL A   1      38.311  28.764  28.341  1.00  0.00     0.029 A 
ATOM     36  N   UNL A   1      39.853  29.886  29.509  1.00  0.00    -0.354 N 
ATOM     37  C   UNL A   1      43.649  28.098  30.496  1.00  0.00     0.074 A 
ATOM     38  C   UNL A   1      43.738  26.745  29.989  1.00  0.00     0.031 C 
ATOM     39  C   UNL A   1      37.787  29.959  28.655  1.00  0.00     0.029 A 
ATOM     40  C   UNL A   1      38.759  30.715  29.439  1.00  0.00     0.049 A 
ATOM     41  H   UNL A   1      40.687  30.133  29.972  1.00  0.00     0.167 HD
ATOM     42  C   UNL A   1      44.622  28.711  31.215  1.00  0.00     0.031 A 
ATOM     43  C   UNL A   1      38.553  31.944  29.951  1.00  0.00     0.031 A 
ATOM     44  C   UNL A   1      44.537  30.061  31.706  1.00  0.00     0.049 A 
ATOM     45  C   UNL A   1      39.654  32.614  30.722  1.00  0.00     0.074 A 
ATOM     46  C   UNL A   1      45.500  30.796  32.376  1.00  0.00     0.029 A 
ATOM     47  N   UNL A   1      43.422  30.878  31.590  1.00  0.00    -0.354 N 
ATOM     48  N   UNL A   1      40.845  32.153  31.023  1.00  0.00    -0.248 NA
ATOM     49  C   UNL A   1      39.391  33.974  31.211  1.00  0.00     0.031 C 
ATOM     50  C   UNL A   1      44.952  32.040  32.707  1.00  0.00     0.029 A 
ATOM     51  C   UNL A   1      43.663  32.099  32.198  1.00  0.00     0.049 A 
ATOM     52  H   UNL A   1      42.583  30.627  31.142  1.00  0.00     0.167 HD
ATOM     53  C   UNL A   1      41.479  33.173  31.723  1.00  0.00     0.074 A 
ATOM     54  C   UNL A   1      40.547  34.281  31.784  1.00  0.00     0.031 C 
ATOM     55  C   UNL A   1      42.721  33.188  32.266  1.00  0.00     0.031 A 
BRANCH  42  56
ATOM     56  C   UNL A   1      45.862  27.914  31.524  1.00  0.00    -0.014 A 
ATOM     57  C   UNL A   1      45.963  27.147  32.699  1.00  0.00     0.010 A 
ATOM     58  C   UNL A   1      46.935  27.909  30.613  1.00  0.00     0.010 A 
ATOM     59  C   UNL A   1      47.131  26.432  32.982  1.00  0.00     0.020 A 
ATOM     60  C   UNL A   1      48.094  27.174  30.879  1.00  0.00     0.020 A 
ATOM     61  C   UNL A   1      48.193  26.458  32.073  1.00  0.00     0.054 A 
BRANCH  61  62
ATOM     62  S   UNL A   1      49.697  25.521  32.462  1.00  0.00     0.124 S 
ATOM     63  O   UNL A   1      50.095  25.031  31.145  1.00  0.00    -0.237 OA
ATOM     64  O   UNL A   1      50.570  26.538  33.042  1.00  0.00    -0.237 OA
ATOM     65  O   UNL A   1      49.235  24.496  33.395  1.00  0.00    -0.744 OA
ENDBRANCH  61  62
ENDBRANCH  42  56
BRANCH  43  66
ATOM     66  C   UNL A   1      37.247  32.620  29.729  1.00  0.00    -0.014 A 
ATOM     67  C   UNL A   1      36.261  32.614  30.731  1.00  0.00     0.010 A 
ATOM     68  C   UNL A   1      37.003  33.314  28.531  1.00  0.00     0.010 A 
ATOM     69  C   UNL A   1      35.053  33.291  30.538  1.00  0.00     0.020 A 
ATOM     70  C   UNL A   1      35.807  34.011  28.344  1.00  0.00     0.020 A 
ATOM     71  C   UNL A   1      34.836  33.990  29.347  1.00  0.00     0.054 A 
BRANCH  71  72
ATOM     72  S   UNL A   1      33.297  34.932  29.153  1.00  0.00     0.124 S 
ATOM     73  O   UNL A   1      33.788  36.222  28.678  1.00  0.00    -0.237 OA
ATOM     74  O   UNL A   1      32.559  34.136  28.176  1.00  0.00    -0.237 OA
ATOM     75  O   UNL A   1      32.727  34.934  30.498  1.00  0.00    -0.744 OA
ENDBRANCH  71  72
ENDBRANCH  43  66
BRANCH  55  76
ATOM     76  C   UNL A   1      43.151  34.450  32.964  1.00  0.00    -0.014 A 
ATOM     77  C   UNL A   1      43.690  35.531  32.244  1.00  0.00     0.010 A 
ATOM     78  C   UNL A   1      42.975  34.571  34.355  1.00  0.00     0.010 A 
ATOM     79  C   UNL A   1      44.076  36.699  32.907  1.00  0.00     0.020 A 
ATOM     80  C   UNL A   1      43.337  35.747  35.018  1.00  0.00     0.020 A 
ATOM     81  C   UNL A   1      43.900  36.799  34.291  1.00  0.00     0.054 A 
BRANCH  81  82
ATOM     82  S   UNL A   1      44.376  38.337  35.125  1.00  0.00     0.124 S 
ATOM     83  O   UNL A   1      43.697  39.344  34.314  1.00  0.00    -0.237 OA
ATOM     84  O   UNL A   1      43.843  38.152  36.473  1.00  0.00    -0.237 OA
ATOM     85  O   UNL A   1      45.834  38.342  35.033  1.00  0.00    -0.744 OA
ENDBRANCH  81  82
ENDBRANCH  55  76
ENDBRANCH  29  30
ENDBRANCH  21  24
ENDBRANCH   1  20
TORSDOF 14
ENDMDL
MODEL 2
REMARK VINA RESULT:     -10.8      4.376      5.881
REMARK SMILES C[C@H]1CCN1c1cc(C(=O)NCCCNC(=O)c2ccc(-c3c4nc(c(-c5ccc(S(=O)(=O)[O-])cc5)c5ccc([nH]5)c(-c5ccc(S(=O)(=O)[O-])cc5)c5nc(c(-c6ccc(S(=O)(=O)[O-])cc6)c6ccc3[nH]6)C=C5)C=C4)cc2)ccc1Cl
REMARK SMILES IDX 14 1 13 2 12 3 11 4 9 5 10 6 8 8 6 9 7 10 80 11 79 12 81 13
REMARK SMILES IDX 78 14 5 15 1 16 2 17 3 18 4 19 15 20 16 21 17 23 18 24 19 25
REMARK SMILES IDX 77 26 20 27 76 28 21 29 22 30 23 31 70 32 24 33 75 34 69 35
REMARK SMILES IDX 71 36 25 37 74 38 68 39 67 40 26 42 56 43 37 44 55 45 38 46
REMARK SMILES IDX 41 47 54 48 72 49 39 50 40 51 53 53 73 54 42 55 27 56 28 57
REMARK SMILES IDX 36 58 29 59 35 60 30 61 31 62 32 63 33 64 34 65 57 66 58 67
REMARK SMILES IDX 66 68 59 69 65 70 60 71 61 72 62 73 63 74 64 75 43 76 44 77
REMARK SMILES IDX 52 78 45 79 51 80 46 81 47 82 48 83 49 84 50 85
REMARK H PARENT 11 7 15 22 71 41 41 52
REMARK Flexibility Score: inf
ROOT
ATOM      1  C   UNL A   1      38.380  24.024  26.518  1.00  0.00     0.118 C 
ENDROOT
BRANCH   1   2
ATOM      2  C   UNL A   1      37.479  23.506  25.394  1.00  0.00     0.042 C 
BRANCH   2   3
ATOM      3  C   UNL A   1      36.687  22.253  25.767  1.00  0.00     0.118 C 
BRANCH   3   4
ATOM      4  N   UNL A   1      35.482  22.587  26.504  1.00  0.00    -0.352 N 
ATOM      5  C   UNL A   1      34.179  22.181  26.397  1.00  0.00     0.251 C 
ATOM      6  O   UNL A   1      33.389  22.604  27.244  1.00  0.00    -0.269 OA
ATOM      7  H   UNL A   1      35.633  23.236  27.228  1.00  0.00     0.163 HD
BRANCH   5   8
ATOM      8  C   UNL A   1      33.678  21.243  25.354  1.00  0.00     0.041 A 
ATOM      9  C   UNL A   1      33.332  18.876  24.752  1.00  0.00     0.057 A 
ATOM     10  C   UNL A   1      33.793  19.870  25.636  1.00  0.00     0.041 A 
ATOM     11  C   UNL A   1      32.737  19.291  23.550  1.00  0.00     0.064 A 
ATOM     12  C   UNL A   1      32.601  20.655  23.265  1.00  0.00     0.023 A 
ATOM     13  Cl  UNL A   1      32.048  18.189  22.410  1.00  0.00    -0.082 Cl
ATOM     14  C   UNL A   1      33.049  21.625  24.170  1.00  0.00     0.015 A 
BRANCH   9  15
ATOM     15  N   UNL A   1      33.469  17.540  25.187  1.00  0.00    -0.367 N 
ATOM     16  C   UNL A   1      35.421  16.097  25.304  1.00  0.00     0.031 C 
ATOM     17  C   UNL A   1      34.133  16.430  24.569  1.00  0.00     0.081 C 
ATOM     18  C   UNL A   1      32.917  15.563  24.915  1.00  0.00     0.046 C 
ATOM     19  C   UNL A   1      32.391  16.752  25.713  1.00  0.00     0.119 C 
ENDBRANCH   9  15
ENDBRANCH   5   8
ENDBRANCH   3   4
ENDBRANCH   2   3
ENDBRANCH   1   2
BRANCH   1  20
ATOM     20  N   UNL A   1      39.792  23.847  26.213  1.00  0.00    -0.352 N 
ATOM     21  C   UNL A   1      40.883  24.600  26.569  1.00  0.00     0.251 C 
ATOM     22  H   UNL A   1      39.999  23.058  25.661  1.00  0.00     0.163 HD
ATOM     23  O   UNL A   1      41.956  24.391  26.009  1.00  0.00    -0.269 OA
BRANCH  21  24
ATOM     24  C   UNL A   1      40.787  25.655  27.604  1.00  0.00     0.039 A 
ATOM     25  C   UNL A   1      39.739  25.590  28.529  1.00  0.00     0.014 A 
ATOM     26  C   UNL A   1      41.669  26.739  27.633  1.00  0.00     0.014 A 
ATOM     27  C   UNL A   1      39.606  26.580  29.508  1.00  0.00     0.010 A 
ATOM     28  C   UNL A   1      41.572  27.693  28.647  1.00  0.00     0.010 A 
ATOM     29  C   UNL A   1      40.538  27.627  29.592  1.00  0.00    -0.014 A 
BRANCH  29  30
ATOM     30  C   UNL A   1      40.452  28.641  30.675  1.00  0.00     0.031 A 
ATOM     31  C   UNL A   1      41.329  28.543  31.894  1.00  0.00     0.074 A 
ATOM     32  C   UNL A   1      39.532  29.622  30.588  1.00  0.00     0.049 A 
ATOM     33  N   UNL A   1      41.364  29.318  32.948  1.00  0.00    -0.248 NA
ATOM     34  C   UNL A   1      42.273  27.415  31.946  1.00  0.00     0.031 C 
ATOM     35  C   UNL A   1      38.585  29.797  29.484  1.00  0.00     0.029 A 
ATOM     36  N   UNL A   1      39.235  30.651  31.446  1.00  0.00    -0.354 N 
ATOM     37  C   UNL A   1      42.313  28.761  33.798  1.00  0.00     0.074 A 
ATOM     38  C   UNL A   1      42.804  27.563  33.152  1.00  0.00     0.031 C 
ATOM     39  C   UNL A   1      37.825  30.877  29.723  1.00  0.00     0.029 A 
ATOM     40  C   UNL A   1      38.206  31.452  31.010  1.00  0.00     0.049 A 
ATOM     41  H   UNL A   1      39.713  30.802  32.294  1.00  0.00     0.167 HD
ATOM     42  C   UNL A   1      42.744  29.212  35.002  1.00  0.00     0.031 A 
ATOM     43  C   UNL A   1      37.627  32.527  31.580  1.00  0.00     0.031 A 
ATOM     44  C   UNL A   1      42.264  30.411  35.637  1.00  0.00     0.049 A 
ATOM     45  C   UNL A   1      38.138  33.023  32.902  1.00  0.00     0.074 A 
ATOM     46  C   UNL A   1      42.693  30.992  36.817  1.00  0.00     0.029 A 
ATOM     47  N   UNL A   1      41.240  31.210  35.150  1.00  0.00    -0.354 N 
ATOM     48  N   UNL A   1      39.094  32.529  33.652  1.00  0.00    -0.248 NA
ATOM     49  C   UNL A   1      37.502  34.230  33.449  1.00  0.00     0.031 C 
ATOM     50  C   UNL A   1      41.898  32.115  37.069  1.00  0.00     0.029 A 
ATOM     51  C   UNL A   1      41.007  32.264  36.018  1.00  0.00     0.049 A 
ATOM     52  H   UNL A   1      40.752  31.052  34.310  1.00  0.00     0.167 HD
ATOM     53  C   UNL A   1      39.186  33.374  34.752  1.00  0.00     0.074 A 
ATOM     54  C   UNL A   1      38.201  34.420  34.560  1.00  0.00     0.031 C 
ATOM     55  C   UNL A   1      40.012  33.289  35.824  1.00  0.00     0.031 A 
BRANCH  42  56
ATOM     56  C   UNL A   1      43.783  28.390  35.719  1.00  0.00    -0.014 A 
ATOM     57  C   UNL A   1      45.157  28.609  35.512  1.00  0.00     0.010 A 
ATOM     58  C   UNL A   1      43.381  27.399  36.634  1.00  0.00     0.010 A 
ATOM     59  C   UNL A   1      46.107  27.820  36.168  1.00  0.00     0.020 A 
ATOM     60  C   UNL A   1      44.329  26.626  37.312  1.00  0.00     0.020 A 
ATOM     61  C   UNL A   1      45.686  26.827  37.057  1.00  0.00     0.054 A 
BRANCH  61  62
ATOM     62  S   UNL A   1      46.939  25.819  37.896  1.00  0.00     0.124 S 
ATOM     63  O   UNL A   1      47.978  26.807  38.180  1.00  0.00    -0.237 OA
ATOM     64  O   UNL A   1      46.220  25.315  39.063  1.00  0.00    -0.237 OA
ATOM     65  O   UNL A   1      47.294  24.809  36.903  1.00  0.00    -0.744 OA
ENDBRANCH  61  62
ENDBRANCH  42  56
BRANCH  43  66
ATOM     66  C   UNL A   1      36.505  33.209  30.882  1.00  0.00    -0.014 A 
ATOM     67  C   UNL A   1      35.220  33.234  31.451  1.00  0.00     0.010 A 
ATOM     68  C   UNL A   1      36.729  33.879  29.666  1.00  0.00     0.010 A 
ATOM     69  C   UNL A   1      34.179  33.917  30.816  1.00  0.00     0.020 A 
ATOM     70  C   UNL A   1      35.697  34.583  29.041  1.00  0.00     0.020 A 
ATOM     71  C   UNL A   1      34.425  34.592  29.617  1.00  0.00     0.054 A 
BRANCH  71  72
ATOM     72  S   UNL A   1      33.081  35.544  28.856  1.00  0.00     0.124 S 
ATOM     73  O   UNL A   1      32.414  34.532  28.044  1.00  0.00    -0.237 OA
ATOM     74  O   UNL A   1      32.333  36.021  30.016  1.00  0.00    -0.237 OA
ATOM     75  O   UNL A   1      33.783  36.586  28.109  1.00  0.00    -0.744 OA
ENDBRANCH  71  72
ENDBRANCH  43  66
BRANCH  55  76
ATOM     76  C   UNL A   1      39.895  34.365  36.869  1.00  0.00    -0.014 A 
ATOM     77  C   UNL A   1      40.673  35.535  36.797  1.00  0.00     0.010 A 
ATOM     78  C   UNL A   1      38.965  34.223  37.915  1.00  0.00     0.010 A 
ATOM     79  C   UNL A   1      40.545  36.528  37.772  1.00  0.00     0.020 A 
ATOM     80  C   UNL A   1      38.817  35.225  38.877  1.00  0.00     0.020 A 
ATOM     81  C   UNL A   1      39.620  36.366  38.808  1.00  0.00     0.054 A 
BRANCH  81  82
ATOM     82  S   UNL A   1      39.447  37.684  40.041  1.00  0.00     0.124 S 
ATOM     83  O   UNL A   1      40.694  38.425  39.870  1.00  0.00    -0.237 OA
ATOM     84  O   UNL A   1      38.238  38.378  39.605  1.00  0.00    -0.237 OA
ATOM     85  O   UNL A   1      39.321  36.960  41.305  1.00  0.00    -0.744 OA
ENDBRANCH  81  82
ENDBRANCH  55  76
ENDBRANCH  29  30
ENDBRANCH  21  24
ENDBRANCH   1  20
TORSDOF 14
ENDMDL
MODEL 3
REMARK VINA RESULT:     -10.7      3.236      9.675
REMARK SMILES C[C@H]1CCN1c1cc(C(=O)NCCCNC(=O)c2ccc(-c3c4nc(c(-c5ccc(S(=O)(=O)[O-])cc5)c5ccc([nH]5)c(-c5ccc(S(=O)(=O)[O-])cc5)c5nc(c(-c6ccc(S(=O)(=O)[O-])cc6)c6ccc3[nH]6)C=C5)C=C4)cc2)ccc1Cl
REMARK SMILES IDX 14 1 13 2 12 3 11 4 9 5 10 6 8 8 6 9 7 10 80 11 79 12 81 13
REMARK SMILES IDX 78 14 5 15 1 16 2 17 3 18 4 19 15 20 16 21 17 23 18 24 19 25
REMARK SMILES IDX 77 26 20 27 76 28 21 29 22 30 23 31 70 32 24 33 75 34 69 35
REMARK SMILES IDX 71 36 25 37 74 38 68 39 67 40 26 42 56 43 37 44 55 45 38 46
REMARK SMILES IDX 41 47 54 48 72 49 39 50 40 51 53 53 73 54 42 55 27 56 28 57
REMARK SMILES IDX 36 58 29 59 35 60 30 61 31 62 32 63 33 64 34 65 57 66 58 67
REMARK SMILES IDX 66 68 59 69 65 70 60 71 61 72 62 73 63 74 64 75 43 76 44 77
REMARK SMILES IDX 52 78 45 79 51 80 46 81 47 82 48 83 49 84 50 85
REMARK H PARENT 11 7 15 22 71 41 41 52
REMARK Flexibility Score: inf
ROOT
ATOM      1  C   UNL A   1      33.723  27.848  26.544  1.00  0.00     0.118 C 
ENDROOT
BRANCH   1   2
ATOM      2  C   UNL A   1      33.491  27.576  25.056  1.00  0.00     0.042 C 
BRANCH   2   3
ATOM      3  C   UNL A   1      33.149  26.120  24.742  1.00  0.00     0.118 C 
BRANCH   3   4
ATOM      4  N   UNL A   1      32.343  25.526  25.793  1.00  0.00    -0.352 N 
ATOM      5  C   UNL A   1      32.395  24.323  26.444  1.00  0.00     0.251 C 
ATOM      6  O   UNL A   1      31.593  24.148  27.363  1.00  0.00    -0.269 OA
ATOM      7  H   UNL A   1      31.610  26.107  26.100  1.00  0.00     0.163 HD
BRANCH   5   8
ATOM      8  C   UNL A   1      33.377  23.246  26.133  1.00  0.00     0.041 A 
ATOM      9  C   UNL A   1      33.663  20.942  25.301  1.00  0.00     0.057 A 
ATOM     10  C   UNL A   1      32.848  22.031  25.660  1.00  0.00     0.041 A 
ATOM     11  C   UNL A   1      35.053  21.093  25.424  1.00  0.00     0.064 A 
ATOM     12  C   UNL A   1      35.593  22.303  25.877  1.00  0.00     0.023 A 
ATOM     13  Cl  UNL A   1      36.182  19.876  24.939  1.00  0.00    -0.082 Cl
ATOM     14  C   UNL A   1      34.761  23.379  26.209  1.00  0.00     0.015 A 
BRANCH   9  15
ATOM     15  N   UNL A   1      32.999  19.803  24.796  1.00  0.00    -0.367 N 
ATOM     16  C   UNL A   1      32.659  17.600  25.765  1.00  0.00     0.031 C 
ATOM     17  C   UNL A   1      33.420  18.433  24.747  1.00  0.00     0.081 C 
ATOM     18  C   UNL A   1      32.904  18.370  23.304  1.00  0.00     0.046 C 
ATOM     19  C   UNL A   1      32.323  19.762  23.531  1.00  0.00     0.119 C 
ENDBRANCH   9  15
ENDBRANCH   5   8
ENDBRANCH   3   4
ENDBRANCH   2   3
ENDBRANCH   1   2
BRANCH   1  20
ATOM     20  N   UNL A   1      33.477  29.241  26.890  1.00  0.00    -0.352 N 
ATOM     21  C   UNL A   1      34.237  30.128  27.611  1.00  0.00     0.251 C 
ATOM     22  H   UNL A   1      32.627  29.605  26.552  1.00  0.00     0.163 HD
ATOM     23  O   UNL A   1      33.728  31.186  27.975  1.00  0.00    -0.269 OA
BRANCH  21  24
ATOM     24  C   UNL A   1      35.645  29.831  27.961  1.00  0.00     0.039 A 
ATOM     25  C   UNL A   1      35.936  29.416  29.265  1.00  0.00     0.014 A 
ATOM     26  C   UNL A   1      36.686  30.023  27.048  1.00  0.00     0.014 A 
ATOM     27  C   UNL A   1      37.256  29.146  29.637  1.00  0.00     0.010 A 
ATOM     28  C   UNL A   1      37.995  29.695  27.401  1.00  0.00     0.010 A 
ATOM     29  C   UNL A   1      38.296  29.258  28.700  1.00  0.00    -0.014 A 
BRANCH  29  30
ATOM     30  C   UNL A   1      39.692  28.899  29.061  1.00  0.00     0.031 A 
ATOM     31  C   UNL A   1      40.600  29.903  29.717  1.00  0.00     0.074 A 
ATOM     32  C   UNL A   1      40.164  27.678  28.739  1.00  0.00     0.049 A 
ATOM     33  N   UNL A   1      41.854  29.773  30.071  1.00  0.00    -0.248 NA
ATOM     34  C   UNL A   1      40.035  31.233  29.992  1.00  0.00     0.031 C 
ATOM     35  C   UNL A   1      39.402  26.632  28.052  1.00  0.00     0.029 A 
ATOM     36  N   UNL A   1      41.399  27.114  28.934  1.00  0.00    -0.354 N 
ATOM     37  C   UNL A   1      42.234  31.007  30.585  1.00  0.00     0.074 A 
ATOM     38  C   UNL A   1      41.088  31.883  30.466  1.00  0.00     0.031 C 
ATOM     39  C   UNL A   1      40.180  25.549  27.901  1.00  0.00     0.029 A 
ATOM     40  C   UNL A   1      41.503  25.833  28.446  1.00  0.00     0.049 A 
ATOM     41  H   UNL A   1      42.142  27.582  29.381  1.00  0.00     0.167 HD
ATOM     42  C   UNL A   1      43.425  31.375  31.119  1.00  0.00     0.031 A 
ATOM     43  C   UNL A   1      42.546  24.980  28.432  1.00  0.00     0.031 A 
ATOM     44  C   UNL A   1      44.560  30.498  31.249  1.00  0.00     0.049 A 
ATOM     45  C   UNL A   1      43.848  25.399  29.052  1.00  0.00     0.074 A 
ATOM     46  C   UNL A   1      45.782  30.754  31.845  1.00  0.00     0.029 A 
ATOM     47  N   UNL A   1      44.616  29.198  30.767  1.00  0.00    -0.354 N 
ATOM     48  N   UNL A   1      44.162  26.545  29.609  1.00  0.00    -0.248 NA
ATOM     49  C   UNL A   1      44.933  24.408  29.053  1.00  0.00     0.031 C 
ATOM     50  C   UNL A   1      46.595  29.626  31.683  1.00  0.00     0.029 A 
ATOM     51  C   UNL A   1      45.860  28.649  31.030  1.00  0.00     0.049 A 
ATOM     52  H   UNL A   1      43.879  28.735  30.307  1.00  0.00     0.167 HD
ATOM     53  C   UNL A   1      45.476  26.406  30.043  1.00  0.00     0.074 A 
ATOM     54  C   UNL A   1      45.890  25.061  29.699  1.00  0.00     0.031 C 
ATOM     55  C   UNL A   1      46.265  27.313  30.669  1.00  0.00     0.031 A 
BRANCH  42  56
ATOM     56  C   UNL A   1      43.564  32.798  31.591  1.00  0.00    -0.014 A 
ATOM     57  C   UNL A   1      44.005  33.815  30.725  1.00  0.00     0.010 A 
ATOM     58  C   UNL A   1      43.222  33.131  32.915  1.00  0.00     0.010 A 
ATOM     59  C   UNL A   1      44.151  35.127  31.187  1.00  0.00     0.020 A 
ATOM     60  C   UNL A   1      43.341  34.447  33.374  1.00  0.00     0.020 A 
ATOM     61  C   UNL A   1      43.825  35.432  32.512  1.00  0.00     0.054 A 
BRANCH  61  62
ATOM     62  S   UNL A   1      44.022  37.142  33.086  1.00  0.00     0.124 S 
ATOM     63  O   UNL A   1      45.361  37.111  33.669  1.00  0.00    -0.237 OA
ATOM     64  O   UNL A   1      43.893  37.913  31.853  1.00  0.00    -0.237 OA
ATOM     65  O   UNL A   1      42.931  37.314  34.042  1.00  0.00    -0.744 OA
ENDBRANCH  61  62
ENDBRANCH  42  56
BRANCH  43  66
ATOM     66  C   UNL A   1      42.383  23.635  27.819  1.00  0.00    -0.014 A 
ATOM     67  C   UNL A   1      42.782  23.403  26.492  1.00  0.00     0.010 A 
ATOM     68  C   UNL A   1      41.871  22.567  28.577  1.00  0.00     0.010 A 
ATOM     69  C   UNL A   1      42.672  22.126  25.933  1.00  0.00     0.020 A 
ATOM     70  C   UNL A   1      41.781  21.285  28.031  1.00  0.00     0.020 A 
ATOM     71  C   UNL A   1      42.177  21.073  26.708  1.00  0.00     0.054 A 
BRANCH  71  72
ATOM     72  S   UNL A   1      42.123  19.407  25.992  1.00  0.00     0.124 S 
ATOM     73  O   UNL A   1      40.700  19.241  25.715  1.00  0.00    -0.237 OA
ATOM     74  O   UNL A   1      42.986  19.538  24.820  1.00  0.00    -0.237 OA
ATOM     75  O   UNL A   1      42.659  18.561  27.056  1.00  0.00    -0.744 OA
ENDBRANCH  71  72
ENDBRANCH  43  66
BRANCH  55  76
ATOM     76  C   UNL A   1      47.658  26.876  31.035  1.00  0.00    -0.014 A 
ATOM     77  C   UNL A   1      47.923  26.256  32.269  1.00  0.00     0.010 A 
ATOM     78  C   UNL A   1      48.708  27.051  30.115  1.00  0.00     0.010 A 
ATOM     79  C   UNL A   1      49.220  25.848  32.589  1.00  0.00     0.020 A 
ATOM     80  C   UNL A   1      50.001  26.622  30.422  1.00  0.00     0.020 A 
ATOM     81  C   UNL A   1      50.253  26.036  31.665  1.00  0.00     0.054 A 
BRANCH  81  82
ATOM     82  S   UNL A   1      51.922  25.467  32.089  1.00  0.00     0.124 S 
ATOM     83  O   UNL A   1      51.712  24.035  32.289  1.00  0.00    -0.237 OA
ATOM     84  O   UNL A   1      52.698  25.829  30.905  1.00  0.00    -0.237 OA
ATOM     85  O   UNL A   1      52.248  26.224  33.296  1.00  0.00    -0.744 OA
ENDBRANCH  81  82
ENDBRANCH  55  76
ENDBRANCH  29  30
ENDBRANCH  21  24
ENDBRANCH   1  20
TORSDOF 14
ENDMDL
