MODEL 1
REMARK VINA RESULT:     -11.5      0.000      0.000
REMARK SMILES Cc1cc2c(c(C)c1Cl)C=C(C(=O)NCCCNC(=O)c1ccc(-c3c4nc(c(-c5ccc(S(=O)(=O)[O-])cc5)c5ccc([nH]5)c(-c5ccc(S(=O)(=O)[O-])cc5)c5nc(c(-c6ccc(S(=O)(=O)[O-])cc6)c6ccc3[nH]6)C=C5)C=C4)cc1)[C@@H](C(F)(F)F)O2
REMARK SMILES IDX 17 1 16 2 15 3 14 4 12 5 13 6 11 8 1 9 2 10 3 11 8 12 4 13
REMARK SMILES IDX 6 14 9 15 5 16 86 17 7 18 10 19 81 20 82 21 83 22 84 23
REMARK SMILES IDX 85 24 18 25 19 26 20 28 21 29 22 30 80 31 23 32 79 33 24 34
REMARK SMILES IDX 25 35 26 36 73 37 27 38 78 39 72 40 74 41 28 42 77 43 71 44
REMARK SMILES IDX 70 45 29 47 59 48 40 49 58 50 41 51 44 52 57 53 75 54 42 55
REMARK SMILES IDX 43 56 56 58 76 59 45 60 30 61 31 62 39 63 32 64 38 65 33 66
REMARK SMILES IDX 34 67 35 68 36 69 37 70 60 71 61 72 69 73 62 74 68 75 63 76
REMARK SMILES IDX 64 77 65 78 66 79 67 80 46 81 47 82 55 83 48 84 54 85 49 86
REMARK SMILES IDX 50 87 51 88 52 89 53 90
REMARK H PARENT 14 7 18 27 74 46 44 57
REMARK Flexibility Score: inf
ROOT
ATOM      1  C   UNL A   1      33.589  28.145  27.018  1.00  0.00     0.118 C 
ENDROOT
BRANCH   1   2
ATOM      2  C   UNL A   1      34.007  27.876  25.579  1.00  0.00     0.042 C 
BRANCH   2   3
ATOM      3  C   UNL A   1      32.941  27.114  24.806  1.00  0.00     0.118 C 
BRANCH   3   4
ATOM      4  N   UNL A   1      32.004  26.440  25.694  1.00  0.00    -0.352 N 
ATOM      5  C   UNL A   1      31.802  25.186  26.158  1.00  0.00     0.251 C 
ATOM      6  O   UNL A   1      30.849  25.059  26.935  1.00  0.00    -0.270 OA
ATOM      7  H   UNL A   1      31.337  27.069  26.054  1.00  0.00     0.163 HD
BRANCH   5   8
ATOM      8  C   UNL A   1      32.635  23.999  25.810  1.00  0.00     0.067 C 
ATOM      9  C   UNL A   1      37.205  19.498  24.751  1.00  0.00     0.046 C 
ATOM     10  C   UNL A   1      36.415  20.716  25.141  1.00  0.00    -0.028 A 
ATOM     11  C   UNL A   1      35.023  20.662  25.042  1.00  0.00     0.052 A 
ATOM     12  C   UNL A   1      37.021  21.907  25.592  1.00  0.00     0.047 A 
ATOM     13  C   UNL A   1      34.252  21.772  25.365  1.00  0.00     0.128 A 
ATOM     14  C   UNL A   1      36.244  23.039  25.944  1.00  0.00    -0.021 A 
ATOM     15  Cl  UNL A   1      38.755  21.952  25.706  1.00  0.00    -0.084 Cl
ATOM     16  C   UNL A   1      34.836  22.959  25.819  1.00  0.00     0.022 A 
ATOM     17  O   UNL A   1      32.904  21.597  25.244  1.00  0.00    -0.475 OA
ATOM     18  C   UNL A   1      36.875  24.319  26.441  1.00  0.00     0.047 C 
ATOM     19  C   UNL A   1      33.932  24.062  26.166  1.00  0.00     0.026 C 
ATOM     20  C   UNL A   1      32.115  22.802  25.076  1.00  0.00     0.314 C 
BRANCH  20  21
ATOM     21  C   UNL A   1      31.906  23.070  23.572  1.00  0.00     0.429 C 
ATOM     22  F   UNL A   1      32.827  23.953  23.113  1.00  0.00    -0.167 F 
ATOM     23  F   UNL A   1      32.038  21.953  22.818  1.00  0.00    -0.167 F 
ATOM     24  F   UNL A   1      30.684  23.581  23.298  1.00  0.00    -0.167 F 
ENDBRANCH  20  21
ENDBRANCH   5   8
ENDBRANCH   3   4
ENDBRANCH   2   3
ENDBRANCH   1   2
BRANCH   1  25
ATOM     25  N   UNL A   1      33.502  29.577  27.296  1.00  0.00    -0.352 N 
ATOM     26  C   UNL A   1      34.376  30.403  27.956  1.00  0.00     0.251 C 
ATOM     27  H   UNL A   1      32.689  30.018  26.957  1.00  0.00     0.163 HD
ATOM     28  O   UNL A   1      33.996  31.505  28.346  1.00  0.00    -0.269 OA
BRANCH  26  29
ATOM     29  C   UNL A   1      35.764  29.965  28.194  1.00  0.00     0.039 A 
ATOM     30  C   UNL A   1      36.711  30.087  27.173  1.00  0.00     0.014 A 
ATOM     31  C   UNL A   1      36.123  29.411  29.424  1.00  0.00     0.014 A 
ATOM     32  C   UNL A   1      38.032  29.710  27.415  1.00  0.00     0.010 A 
ATOM     33  C   UNL A   1      37.454  29.137  29.697  1.00  0.00     0.010 A 
ATOM     34  C   UNL A   1      38.418  29.263  28.689  1.00  0.00    -0.014 A 
BRANCH  34  35
ATOM     35  C   UNL A   1      39.820  28.885  28.987  1.00  0.00     0.031 A 
ATOM     36  C   UNL A   1      40.735  29.877  29.650  1.00  0.00     0.074 A 
ATOM     37  C   UNL A   1      40.278  27.676  28.610  1.00  0.00     0.049 A 
ATOM     38  N   UNL A   1      42.004  29.760  29.942  1.00  0.00    -0.248 NA
ATOM     39  C   UNL A   1      40.156  31.186  30.004  1.00  0.00     0.031 C 
ATOM     40  C   UNL A   1      39.491  26.645  27.928  1.00  0.00     0.029 A 
ATOM     41  N   UNL A   1      41.519  27.109  28.747  1.00  0.00    -0.354 N 
ATOM     42  C   UNL A   1      42.376  30.977  30.500  1.00  0.00     0.074 A 
ATOM     43  C   UNL A   1      41.219  31.842  30.443  1.00  0.00     0.031 C 
ATOM     44  C   UNL A   1      40.255  25.556  27.750  1.00  0.00     0.029 A 
ATOM     45  C   UNL A   1      41.595  25.825  28.261  1.00  0.00     0.049 A 
ATOM     46  H   UNL A   1      42.283  27.575  29.157  1.00  0.00     0.167 HD
ATOM     47  C   UNL A   1      43.564  31.333  31.041  1.00  0.00     0.031 A 
ATOM     48  C   UNL A   1      42.628  24.962  28.232  1.00  0.00     0.031 A 
ATOM     49  C   UNL A   1      44.705  30.463  31.104  1.00  0.00     0.049 A 
ATOM     50  C   UNL A   1      43.948  25.386  28.813  1.00  0.00     0.074 A 
ATOM     51  C   UNL A   1      45.944  30.708  31.669  1.00  0.00     0.029 A 
ATOM     52  N   UNL A   1      44.746  29.178  30.585  1.00  0.00    -0.354 N 
ATOM     53  N   UNL A   1      44.267  26.525  29.383  1.00  0.00    -0.248 NA
ATOM     54  C   UNL A   1      45.044  24.411  28.754  1.00  0.00     0.031 C 
ATOM     55  C   UNL A   1      46.751  29.589  31.442  1.00  0.00     0.029 A 
ATOM     56  C   UNL A   1      45.997  28.625  30.792  1.00  0.00     0.049 A 
ATOM     57  H   UNL A   1      43.995  28.725  30.136  1.00  0.00     0.167 HD
ATOM     58  C   UNL A   1      45.596  26.397  29.767  1.00  0.00     0.074 A 
ATOM     59  C   UNL A   1      46.015  25.064  29.380  1.00  0.00     0.031 C 
ATOM     60  C   UNL A   1      46.397  27.300  30.387  1.00  0.00     0.031 A 
BRANCH  47  61
ATOM     61  C   UNL A   1      43.679  32.725  31.608  1.00  0.00    -0.014 A 
ATOM     62  C   UNL A   1      44.030  33.813  30.788  1.00  0.00     0.010 A 
ATOM     63  C   UNL A   1      43.413  32.953  32.970  1.00  0.00     0.010 A 
ATOM     64  C   UNL A   1      44.158  35.095  31.328  1.00  0.00     0.020 A 
ATOM     65  C   UNL A   1      43.510  34.240  33.508  1.00  0.00     0.020 A 
ATOM     66  C   UNL A   1      43.900  35.300  32.687  1.00  0.00     0.054 A 
BRANCH  66  67
ATOM     67  S   UNL A   1      44.063  36.978  33.355  1.00  0.00     0.124 S 
ATOM     68  O   UNL A   1      45.228  36.842  34.226  1.00  0.00    -0.237 OA
ATOM     69  O   UNL A   1      44.268  37.781  32.152  1.00  0.00    -0.237 OA
ATOM     70  O   UNL A   1      42.795  37.202  34.044  1.00  0.00    -0.744 OA
ENDBRANCH  66  67
ENDBRANCH  47  61
BRANCH  48  71
ATOM     71  C   UNL A   1      42.432  23.600  27.665  1.00  0.00    -0.014 A 
ATOM     72  C   UNL A   1      42.816  23.322  26.341  1.00  0.00     0.010 A 
ATOM     73  C   UNL A   1      41.917  22.559  28.460  1.00  0.00     0.010 A 
ATOM     74  C   UNL A   1      42.692  22.030  25.824  1.00  0.00     0.020 A 
ATOM     75  C   UNL A   1      41.816  21.259  27.954  1.00  0.00     0.020 A 
ATOM     76  C   UNL A   1      42.204  21.003  26.637  1.00  0.00     0.054 A 
BRANCH  76  77
ATOM     77  S   UNL A   1      42.135  19.318  25.968  1.00  0.00     0.124 S 
ATOM     78  O   UNL A   1      40.711  19.154  25.702  1.00  0.00    -0.237 OA
ATOM     79  O   UNL A   1      42.993  19.417  24.789  1.00  0.00    -0.237 OA
ATOM     80  O   UNL A   1      42.671  18.497  27.051  1.00  0.00    -0.744 OA
ENDBRANCH  76  77
ENDBRANCH  48  71
BRANCH  60  81
ATOM     81  C   UNL A   1      47.809  26.880  30.693  1.00  0.00    -0.014 A 
ATOM     82  C   UNL A   1      48.863  27.192  29.817  1.00  0.00     0.010 A 
ATOM     83  C   UNL A   1      48.096  26.243  31.915  1.00  0.00     0.010 A 
ATOM     84  C   UNL A   1      50.177  26.857  30.148  1.00  0.00     0.020 A 
ATOM     85  C   UNL A   1      49.412  25.932  32.263  1.00  0.00     0.020 A 
ATOM     86  C   UNL A   1      50.445  26.234  31.372  1.00  0.00     0.054 A 
BRANCH  86  87
ATOM     87  S   UNL A   1      52.167  25.867  31.802  1.00  0.00     0.124 S 
ATOM     88  O   UNL A   1      52.076  24.487  32.269  1.00  0.00    -0.237 OA
ATOM     89  O   UNL A   1      52.860  26.055  30.529  1.00  0.00    -0.237 OA
ATOM     90  O   UNL A   1      52.488  26.854  32.830  1.00  0.00    -0.744 OA
ENDBRANCH  86  87
ENDBRANCH  60  81
ENDBRANCH  34  35
ENDBRANCH  26  29
ENDBRANCH   1  25
TORSDOF 14
ENDMDL
MODEL 2
REMARK VINA RESULT:     -11.5      2.940      9.316
REMARK SMILES Cc1cc2c(c(C)c1Cl)C=C(C(=O)NCCCNC(=O)c1ccc(-c3c4nc(c(-c5ccc(S(=O)(=O)[O-])cc5)c5ccc([nH]5)c(-c5ccc(S(=O)(=O)[O-])cc5)c5nc(c(-c6ccc(S(=O)(=O)[O-])cc6)c6ccc3[nH]6)C=C5)C=C4)cc1)[C@@H](C(F)(F)F)O2
REMARK SMILES IDX 17 1 16 2 15 3 14 4 12 5 13 6 11 8 1 9 2 10 3 11 8 12 4 13
REMARK SMILES IDX 6 14 9 15 5 16 86 17 7 18 10 19 81 20 82 21 83 22 84 23
REMARK SMILES IDX 85 24 18 25 19 26 20 28 21 29 22 30 80 31 23 32 79 33 24 34
REMARK SMILES IDX 25 35 26 36 73 37 27 38 78 39 72 40 74 41 28 42 77 43 71 44
REMARK SMILES IDX 70 45 29 47 59 48 40 49 58 50 41 51 44 52 57 53 75 54 42 55
REMARK SMILES IDX 43 56 56 58 76 59 45 60 30 61 31 62 39 63 32 64 38 65 33 66
REMARK SMILES IDX 34 67 35 68 36 69 37 70 60 71 61 72 69 73 62 74 68 75 63 76
REMARK SMILES IDX 64 77 65 78 66 79 67 80 46 81 47 82 55 83 48 84 54 85 49 86
REMARK SMILES IDX 50 87 51 88 52 89 53 90
REMARK H PARENT 14 7 18 27 74 46 44 57
REMARK Flexibility Score: inf
ROOT
ATOM      1  C   UNL A   1      36.299  23.919  25.710  1.00  0.00     0.118 C 
ENDROOT
BRANCH   1   2
ATOM      2  C   UNL A   1      35.051  23.713  26.557  1.00  0.00     0.042 C 
BRANCH   2   3
ATOM      3  C   UNL A   1      33.850  23.306  25.716  1.00  0.00     0.118 C 
BRANCH   3   4
ATOM      4  N   UNL A   1      34.052  23.599  24.304  1.00  0.00    -0.352 N 
ATOM      5  C   UNL A   1      33.763  24.604  23.447  1.00  0.00     0.251 C 
ATOM      6  O   UNL A   1      34.145  24.431  22.284  1.00  0.00    -0.270 OA
ATOM      7  H   UNL A   1      34.528  22.865  23.851  1.00  0.00     0.163 HD
BRANCH   5   8
ATOM      8  C   UNL A   1      33.049  25.862  23.811  1.00  0.00     0.067 C 
ATOM      9  C   UNL A   1      30.949  31.580  26.083  1.00  0.00     0.046 C 
ATOM     10  C   UNL A   1      31.725  30.338  25.739  1.00  0.00    -0.028 A 
ATOM     11  C   UNL A   1      31.219  29.494  24.748  1.00  0.00     0.052 A 
ATOM     12  C   UNL A   1      32.932  29.990  26.380  1.00  0.00     0.047 A 
ATOM     13  C   UNL A   1      31.887  28.322  24.415  1.00  0.00     0.128 A 
ATOM     14  C   UNL A   1      33.633  28.807  26.035  1.00  0.00    -0.021 A 
ATOM     15  Cl  UNL A   1      33.543  31.054  27.613  1.00  0.00    -0.084 Cl
ATOM     16  C   UNL A   1      33.087  27.964  25.037  1.00  0.00     0.022 A 
ATOM     17  O   UNL A   1      31.306  27.586  23.424  1.00  0.00    -0.475 OA
ATOM     18  C   UNL A   1      34.933  28.425  26.702  1.00  0.00     0.047 C 
ATOM     19  C   UNL A   1      33.730  26.723  24.590  1.00  0.00     0.026 C 
ATOM     20  C   UNL A   1      31.647  26.177  23.390  1.00  0.00     0.314 C 
BRANCH  20  21
ATOM     21  C   UNL A   1      30.594  25.376  24.180  1.00  0.00     0.429 C 
ATOM     22  F   UNL A   1      29.431  26.071  24.262  1.00  0.00    -0.167 F 
ATOM     23  F   UNL A   1      30.291  24.192  23.597  1.00  0.00    -0.167 F 
ATOM     24  F   UNL A   1      30.988  25.098  25.443  1.00  0.00    -0.167 F 
ENDBRANCH  20  21
ENDBRANCH   5   8
ENDBRANCH   3   4
ENDBRANCH   2   3
ENDBRANCH   1   2
BRANCH   1  25
ATOM     25  N   UNL A   1      37.274  22.850  25.916  1.00  0.00    -0.352 N 
ATOM     26  C   UNL A   1      38.591  22.916  26.294  1.00  0.00     0.251 C 
ATOM     27  H   UNL A   1      36.932  21.940  25.757  1.00  0.00     0.163 HD
ATOM     28  O   UNL A   1      39.322  21.942  26.126  1.00  0.00    -0.269 OA
BRANCH  26  29
ATOM     29  C   UNL A   1      39.120  24.151  26.899  1.00  0.00     0.039 A 
ATOM     30  C   UNL A   1      39.881  25.030  26.123  1.00  0.00     0.014 A 
ATOM     31  C   UNL A   1      38.882  24.430  28.247  1.00  0.00     0.014 A 
ATOM     32  C   UNL A   1      40.346  26.218  26.688  1.00  0.00     0.010 A 
ATOM     33  C   UNL A   1      39.253  25.656  28.776  1.00  0.00     0.010 A 
ATOM     34  C   UNL A   1      40.007  26.554  28.008  1.00  0.00    -0.014 A 
BRANCH  34  35
ATOM     35  C   UNL A   1      40.458  27.822  28.628  1.00  0.00     0.031 A 
ATOM     36  C   UNL A   1      41.871  27.945  29.130  1.00  0.00     0.074 A 
ATOM     37  C   UNL A   1      39.583  28.833  28.789  1.00  0.00     0.049 A 
ATOM     38  N   UNL A   1      42.440  28.945  29.751  1.00  0.00    -0.248 NA
ATOM     39  C   UNL A   1      42.752  26.780  28.936  1.00  0.00     0.031 C 
ATOM     40  C   UNL A   1      38.179  28.814  28.372  1.00  0.00     0.029 A 
ATOM     41  N   UNL A   1      39.748  30.076  29.345  1.00  0.00    -0.354 N 
ATOM     42  C   UNL A   1      43.735  28.526  30.031  1.00  0.00     0.074 A 
ATOM     43  C   UNL A   1      43.847  27.158  29.576  1.00  0.00     0.031 C 
ATOM     44  C   UNL A   1      37.624  30.005  28.646  1.00  0.00     0.029 A 
ATOM     45  C   UNL A   1      38.616  30.855  29.296  1.00  0.00     0.049 A 
ATOM     46  H   UNL A   1      40.595  30.382  29.740  1.00  0.00     0.167 HD
ATOM     47  C   UNL A   1      44.750  29.226  30.588  1.00  0.00     0.031 A 
ATOM     48  C   UNL A   1      38.402  32.113  29.727  1.00  0.00     0.031 A 
ATOM     49  C   UNL A   1      44.632  30.589  31.028  1.00  0.00     0.049 A 
ATOM     50  C   UNL A   1      39.536  32.865  30.368  1.00  0.00     0.074 A 
ATOM     51  C   UNL A   1      45.609  31.406  31.567  1.00  0.00     0.029 A 
ATOM     52  N   UNL A   1      43.465  31.336  30.977  1.00  0.00    -0.354 N 
ATOM     53  N   UNL A   1      40.769  32.469  30.579  1.00  0.00    -0.248 NA
ATOM     54  C   UNL A   1      39.252  34.231  30.824  1.00  0.00     0.031 C 
ATOM     55  C   UNL A   1      45.018  32.631  31.892  1.00  0.00     0.029 A 
ATOM     56  C   UNL A   1      43.689  32.597  31.500  1.00  0.00     0.049 A 
ATOM     57  H   UNL A   1      42.604  31.016  30.621  1.00  0.00     0.167 HD
ATOM     58  C   UNL A   1      41.415  33.545  31.176  1.00  0.00     0.074 A 
ATOM     59  C   UNL A   1      40.439  34.613  31.276  1.00  0.00     0.031 C 
ATOM     60  C   UNL A   1      42.699  33.642  31.601  1.00  0.00     0.031 A 
BRANCH  47  61
ATOM     61  C   UNL A   1      46.073  28.522  30.748  1.00  0.00    -0.014 A 
ATOM     62  C   UNL A   1      46.342  27.736  31.883  1.00  0.00     0.010 A 
ATOM     63  C   UNL A   1      47.051  28.630  29.743  1.00  0.00     0.010 A 
ATOM     64  C   UNL A   1      47.581  27.109  32.033  1.00  0.00     0.020 A 
ATOM     65  C   UNL A   1      48.281  27.977  29.875  1.00  0.00     0.020 A 
ATOM     66  C   UNL A   1      48.544  27.235  31.029  1.00  0.00     0.054 A 
BRANCH  66  67
ATOM     67  S   UNL A   1      50.138  26.398  31.248  1.00  0.00     0.124 S 
ATOM     68  O   UNL A   1      49.740  25.170  31.931  1.00  0.00    -0.237 OA
ATOM     69  O   UNL A   1      50.600  26.231  29.873  1.00  0.00    -0.237 OA
ATOM     70  O   UNL A   1      50.915  27.335  32.055  1.00  0.00    -0.744 OA
ENDBRANCH  66  67
ENDBRANCH  47  61
BRANCH  48  71
ATOM     71  C   UNL A   1      37.070  32.743  29.522  1.00  0.00    -0.014 A 
ATOM     72  C   UNL A   1      36.142  32.795  30.578  1.00  0.00     0.010 A 
ATOM     73  C   UNL A   1      36.743  33.347  28.294  1.00  0.00     0.010 A 
ATOM     74  C   UNL A   1      34.914  33.441  30.410  1.00  0.00     0.020 A 
ATOM     75  C   UNL A   1      35.526  34.017  28.131  1.00  0.00     0.020 A 
ATOM     76  C   UNL A   1      34.618  34.058  29.192  1.00  0.00     0.054 A 
BRANCH  76  77
ATOM     77  S   UNL A   1      33.054  34.964  29.031  1.00  0.00     0.124 S 
ATOM     78  O   UNL A   1      32.531  34.913  30.392  1.00  0.00    -0.237 OA
ATOM     79  O   UNL A   1      33.501  36.277  28.572  1.00  0.00    -0.237 OA
ATOM     80  O   UNL A   1      32.309  34.187  28.043  1.00  0.00    -0.744 OA
ENDBRANCH  76  77
ENDBRANCH  48  71
BRANCH  60  81
ATOM     81  C   UNL A   1      43.134  34.948  32.209  1.00  0.00    -0.014 A 
ATOM     82  C   UNL A   1      43.756  35.937  31.428  1.00  0.00     0.010 A 
ATOM     83  C   UNL A   1      42.836  35.221  33.557  1.00  0.00     0.010 A 
ATOM     84  C   UNL A   1      44.091  37.171  31.990  1.00  0.00     0.020 A 
ATOM     85  C   UNL A   1      43.143  36.464  34.115  1.00  0.00     0.020 A 
ATOM     86  C   UNL A   1      43.778  37.429  33.329  1.00  0.00     0.054 A 
BRANCH  86  87
ATOM     87  S   UNL A   1      44.169  39.061  34.013  1.00  0.00     0.124 S 
ATOM     88  O   UNL A   1      44.453  38.744  35.410  1.00  0.00    -0.237 OA
ATOM     89  O   UNL A   1      45.321  39.474  33.215  1.00  0.00    -0.237 OA
ATOM     90  O   UNL A   1      42.951  39.836  33.786  1.00  0.00    -0.744 OA
ENDBRANCH  86  87
ENDBRANCH  60  81
ENDBRANCH  34  35
ENDBRANCH  26  29
ENDBRANCH   1  25
TORSDOF 14
ENDMDL
MODEL 3
REMARK VINA RESULT:     -11.1      4.710     10.280
REMARK SMILES Cc1cc2c(c(C)c1Cl)C=C(C(=O)NCCCNC(=O)c1ccc(-c3c4nc(c(-c5ccc(S(=O)(=O)[O-])cc5)c5ccc([nH]5)c(-c5ccc(S(=O)(=O)[O-])cc5)c5nc(c(-c6ccc(S(=O)(=O)[O-])cc6)c6ccc3[nH]6)C=C5)C=C4)cc1)[C@@H](C(F)(F)F)O2
REMARK SMILES IDX 17 1 16 2 15 3 14 4 12 5 13 6 11 8 1 9 2 10 3 11 8 12 4 13
REMARK SMILES IDX 6 14 9 15 5 16 86 17 7 18 10 19 81 20 82 21 83 22 84 23
REMARK SMILES IDX 85 24 18 25 19 26 20 28 21 29 22 30 80 31 23 32 79 33 24 34
REMARK SMILES IDX 25 35 26 36 73 37 27 38 78 39 72 40 74 41 28 42 77 43 71 44
REMARK SMILES IDX 70 45 29 47 59 48 40 49 58 50 41 51 44 52 57 53 75 54 42 55
REMARK SMILES IDX 43 56 56 58 76 59 45 60 30 61 31 62 39 63 32 64 38 65 33 66
REMARK SMILES IDX 34 67 35 68 36 69 37 70 60 71 61 72 69 73 62 74 68 75 63 76
REMARK SMILES IDX 64 77 65 78 66 79 67 80 46 81 47 82 55 83 48 84 54 85 49 86
REMARK SMILES IDX 50 87 51 88 52 89 53 90
REMARK H PARENT 14 7 18 27 74 46 44 57
REMARK Flexibility Score: inf
ROOT
ATOM      1  C   UNL A   1      40.256  23.214  27.194  1.00  0.00     0.118 C 
ENDROOT
BRANCH   1   2
ATOM      2  C   UNL A   1      39.133  22.444  26.513  1.00  0.00     0.042 C 
BRANCH   2   3
ATOM      3  C   UNL A   1      38.007  23.358  26.057  1.00  0.00     0.118 C 
BRANCH   3   4
ATOM      4  N   UNL A   1      37.723  23.204  24.637  1.00  0.00    -0.352 N 
ATOM      5  C   UNL A   1      36.629  23.159  23.843  1.00  0.00     0.251 C 
ATOM      6  O   UNL A   1      36.860  23.015  22.637  1.00  0.00    -0.270 OA
ATOM      7  H   UNL A   1      38.551  23.106  24.115  1.00  0.00     0.163 HD
BRANCH   5   8
ATOM      8  C   UNL A   1      35.220  23.278  24.316  1.00  0.00     0.067 C 
ATOM      9  C   UNL A   1      29.358  25.000  26.538  1.00  0.00     0.046 C 
ATOM     10  C   UNL A   1      30.780  24.945  26.054  1.00  0.00    -0.028 A 
ATOM     11  C   UNL A   1      31.241  23.757  25.484  1.00  0.00     0.052 A 
ATOM     12  C   UNL A   1      31.665  26.038  26.161  1.00  0.00     0.047 A 
ATOM     13  C   UNL A   1      32.556  23.650  25.047  1.00  0.00     0.128 A 
ATOM     14  C   UNL A   1      33.003  25.948  25.700  1.00  0.00    -0.021 A 
ATOM     15  Cl  UNL A   1      31.071  27.508  26.875  1.00  0.00    -0.084 Cl
ATOM     16  C   UNL A   1      33.445  24.725  25.141  1.00  0.00     0.022 A 
ATOM     17  O   UNL A   1      32.888  22.447  24.495  1.00  0.00    -0.475 OA
ATOM     18  C   UNL A   1      33.961  27.113  25.794  1.00  0.00     0.047 C 
ATOM     19  C   UNL A   1      34.802  24.522  24.620  1.00  0.00     0.026 C 
ATOM     20  C   UNL A   1      34.298  22.112  24.493  1.00  0.00     0.314 C 
BRANCH  20  21
ATOM     21  C   UNL A   1      34.626  21.278  25.748  1.00  0.00     0.429 C 
ATOM     22  F   UNL A   1      35.711  20.493  25.528  1.00  0.00    -0.167 F 
ATOM     23  F   UNL A   1      34.922  22.046  26.824  1.00  0.00    -0.167 F 
ATOM     24  F   UNL A   1      33.609  20.468  26.118  1.00  0.00    -0.167 F 
ENDBRANCH  20  21
ENDBRANCH   5   8
ENDBRANCH   3   4
ENDBRANCH   2   3
ENDBRANCH   1   2
BRANCH   1  25
ATOM     25  N   UNL A   1      41.117  23.884  26.222  1.00  0.00    -0.352 N 
ATOM     26  C   UNL A   1      41.425  25.214  26.085  1.00  0.00     0.251 C 
ATOM     27  H   UNL A   1      41.543  23.289  25.564  1.00  0.00     0.163 HD
ATOM     28  O   UNL A   1      41.925  25.618  25.037  1.00  0.00    -0.269 OA
BRANCH  26  29
ATOM     29  C   UNL A   1      41.156  26.149  27.193  1.00  0.00     0.039 A 
ATOM     30  C   UNL A   1      40.162  25.845  28.127  1.00  0.00     0.014 A 
ATOM     31  C   UNL A   1      41.875  27.342  27.293  1.00  0.00     0.014 A 
ATOM     32  C   UNL A   1      39.939  26.713  29.197  1.00  0.00     0.010 A 
ATOM     33  C   UNL A   1      41.725  28.148  28.411  1.00  0.00     0.010 A 
ATOM     34  C   UNL A   1      40.741  27.853  29.363  1.00  0.00    -0.014 A 
BRANCH  34  35
ATOM     35  C   UNL A   1      40.550  28.778  30.505  1.00  0.00     0.031 A 
ATOM     36  C   UNL A   1      41.416  28.642  31.727  1.00  0.00     0.074 A 
ATOM     37  C   UNL A   1      39.563  29.694  30.463  1.00  0.00     0.049 A 
ATOM     38  N   UNL A   1      41.369  29.312  32.849  1.00  0.00    -0.248 NA
ATOM     39  C   UNL A   1      42.453  27.595  31.698  1.00  0.00     0.031 C 
ATOM     40  C   UNL A   1      38.638  29.893  29.344  1.00  0.00     0.029 A 
ATOM     41  N   UNL A   1      39.175  30.631  31.385  1.00  0.00    -0.354 N 
ATOM     42  C   UNL A   1      42.356  28.763  33.658  1.00  0.00     0.074 A 
ATOM     43  C   UNL A   1      42.939  27.660  32.927  1.00  0.00     0.031 C 
ATOM     44  C   UNL A   1      37.821  30.919  29.628  1.00  0.00     0.029 A 
ATOM     45  C   UNL A   1      38.132  31.421  30.963  1.00  0.00     0.049 A 
ATOM     46  H   UNL A   1      39.603  30.730  32.266  1.00  0.00     0.167 HD
ATOM     47  C   UNL A   1      42.763  29.159  34.885  1.00  0.00     0.031 A 
ATOM     48  C   UNL A   1      37.499  32.436  31.581  1.00  0.00     0.031 A 
ATOM     49  C   UNL A   1      42.185  30.264  35.600  1.00  0.00     0.049 A 
ATOM     50  C   UNL A   1      37.949  32.844  32.956  1.00  0.00     0.074 A 
ATOM     51  C   UNL A   1      42.550  30.778  36.831  1.00  0.00     0.029 A 
ATOM     52  N   UNL A   1      41.120  31.027  35.144  1.00  0.00    -0.354 N 
ATOM     53  N   UNL A   1      38.919  32.345  33.686  1.00  0.00    -0.248 NA
ATOM     54  C   UNL A   1      37.225  33.954  33.589  1.00  0.00     0.031 C 
ATOM     55  C   UNL A   1      41.669  31.818  37.144  1.00  0.00     0.029 A 
ATOM     56  C   UNL A   1      40.796  31.992  36.081  1.00  0.00     0.049 A 
ATOM     57  H   UNL A   1      40.663  30.901  34.281  1.00  0.00     0.167 HD
ATOM     58  C   UNL A   1      38.934  33.091  34.857  1.00  0.00     0.074 A 
ATOM     59  C   UNL A   1      37.888  34.087  34.731  1.00  0.00     0.031 C 
ATOM     60  C   UNL A   1      39.742  32.966  35.940  1.00  0.00     0.031 A 
BRANCH  47  61
ATOM     61  C   UNL A   1      43.890  28.389  35.526  1.00  0.00    -0.014 A 
ATOM     62  C   UNL A   1      43.629  27.372  36.463  1.00  0.00     0.010 A 
ATOM     63  C   UNL A   1      45.222  28.669  35.173  1.00  0.00     0.010 A 
ATOM     64  C   UNL A   1      44.682  26.682  37.069  1.00  0.00     0.020 A 
ATOM     65  C   UNL A   1      46.276  27.959  35.754  1.00  0.00     0.020 A 
ATOM     66  C   UNL A   1      45.999  26.981  36.713  1.00  0.00     0.054 A 
BRANCH  66  67
ATOM     67  S   UNL A   1      47.342  26.059  37.508  1.00  0.00     0.124 S 
ATOM     68  O   UNL A   1      46.745  24.734  37.664  1.00  0.00    -0.237 OA
ATOM     69  O   UNL A   1      48.418  26.151  36.525  1.00  0.00    -0.237 OA
ATOM     70  O   UNL A   1      47.574  26.786  38.754  1.00  0.00    -0.744 OA
ENDBRANCH  66  67
ENDBRANCH  47  61
BRANCH  48  71
ATOM     71  C   UNL A   1      36.403  33.155  30.877  1.00  0.00    -0.014 A 
ATOM     72  C   UNL A   1      35.094  33.124  31.389  1.00  0.00     0.010 A 
ATOM     73  C   UNL A   1      36.670  33.923  29.728  1.00  0.00     0.010 A 
ATOM     74  C   UNL A   1      34.073  33.849  30.768  1.00  0.00     0.020 A 
ATOM     75  C   UNL A   1      35.656  34.670  29.119  1.00  0.00     0.020 A 
ATOM     76  C   UNL A   1      34.363  34.627  29.644  1.00  0.00     0.054 A 
BRANCH  76  77
ATOM     77  S   UNL A   1      33.037  35.626  28.910  1.00  0.00     0.124 S 
ATOM     78  O   UNL A   1      32.295  36.061  30.088  1.00  0.00    -0.237 OA
ATOM     79  O   UNL A   1      33.785  36.668  28.209  1.00  0.00    -0.237 OA
ATOM     80  O   UNL A   1      32.338  34.682  28.041  1.00  0.00    -0.744 OA
ENDBRANCH  76  77
ENDBRANCH  48  71
BRANCH  60  81
ATOM     81  C   UNL A   1      39.536  33.931  37.076  1.00  0.00    -0.014 A 
ATOM     82  C   UNL A   1      38.788  33.566  38.209  1.00  0.00     0.010 A 
ATOM     83  C   UNL A   1      40.173  35.186  37.047  1.00  0.00     0.010 A 
ATOM     84  C   UNL A   1      38.664  34.447  39.285  1.00  0.00     0.020 A 
ATOM     85  C   UNL A   1      40.075  36.058  38.133  1.00  0.00     0.020 A 
ATOM     86  C   UNL A   1      39.313  35.686  39.243  1.00  0.00     0.054 A 
BRANCH  86  87
ATOM     87  S   UNL A   1      39.184  36.782  40.680  1.00  0.00     0.124 S 
ATOM     88  O   UNL A   1      38.387  37.885  40.151  1.00  0.00    -0.237 OA
ATOM     89  O   UNL A   1      38.513  35.938  41.667  1.00  0.00    -0.237 OA
ATOM     90  O   UNL A   1      40.573  37.112  40.994  1.00  0.00    -0.744 OA
ENDBRANCH  86  87
ENDBRANCH  60  81
ENDBRANCH  34  35
ENDBRANCH  26  29
ENDBRANCH   1  25
TORSDOF 14
ENDMDL
