MODEL 1
REMARK VINA RESULT:     -11.1      0.000      0.000
REMARK SMILES CC(C)n1cncc1[C@@H](O)[C@H](C)C(=O)NCCCNC(=O)c1ccc(-c2c3nc(c(-c4ccc(S(=O)(=O)[O-])cc4)c4ccc([nH]4)c(-c4ccc(S(=O)(=O)[O-])cc4)c4nc(c(-c5ccc(S(=O)(=O)[O-])cc5)c5ccc2[nH]5)C=C4)C=C3)cc1
REMARK SMILES IDX 17 1 16 2 15 3 13 4 14 5 11 7 12 8 9 9 8 10 4 11 5 12 6 13
REMARK SMILES IDX 7 14 2 15 1 16 3 17 10 18 18 20 19 21 20 22 21 24 22 25
REMARK SMILES IDX 23 26 81 27 24 28 80 29 25 30 26 31 27 32 74 33 28 34 79 35
REMARK SMILES IDX 73 36 75 37 29 38 78 39 72 40 71 41 30 43 60 44 41 45 59 46
REMARK SMILES IDX 42 47 45 48 58 49 76 50 43 51 44 52 57 54 77 55 46 56 31 57
REMARK SMILES IDX 32 58 40 59 33 60 39 61 34 62 35 63 36 64 37 65 38 66 61 67
REMARK SMILES IDX 62 68 70 69 63 70 69 71 64 72 65 73 66 74 67 75 68 76 47 77
REMARK SMILES IDX 48 78 56 79 49 80 55 81 50 82 51 83 52 84 53 85 54 86
REMARK H PARENT 15 6 10 19 19 23 75 42 45 53
REMARK Flexibility Score: inf
ROOT
ATOM      1  C   UNL A   1      38.961  20.324  25.586  1.00  0.00     0.042 C 
ENDROOT
BRANCH   1   2
ATOM      2  C   UNL A   1      37.703  21.081  25.181  1.00  0.00     0.117 C 
BRANCH   2   3
ATOM      3  N   UNL A   1      36.473  20.314  25.263  1.00  0.00    -0.356 N 
ATOM      4  C   UNL A   1      35.208  20.695  24.918  1.00  0.00     0.225 C 
ATOM      5  O   UNL A   1      34.343  19.819  24.828  1.00  0.00    -0.275 OA
ATOM      6  H   UNL A   1      36.564  19.398  25.612  1.00  0.00     0.163 HD
BRANCH   4   7
ATOM      7  C   UNL A   1      34.836  22.160  24.729  1.00  0.00     0.110 C 
ATOM      8  C   UNL A   1      33.701  22.282  23.709  1.00  0.00     0.021 C 
BRANCH   7   9
ATOM      9  C   UNL A   1      34.770  23.001  26.027  1.00  0.00     0.175 C 
BRANCH   9  10
ATOM     10  C   UNL A   1      33.439  23.600  26.382  1.00  0.00     0.067 A 
ATOM     11  N   UNL A   1      33.075  24.905  26.103  1.00  0.00    -0.330 N 
ATOM     12  C   UNL A   1      31.776  25.064  26.500  1.00  0.00     0.199 A 
ATOM     13  N   UNL A   1      31.311  23.992  27.092  1.00  0.00    -0.245 NA
ATOM     14  C   UNL A   1      32.330  23.085  27.032  1.00  0.00     0.137 A 
BRANCH  11  15
ATOM     15  C   UNL A   1      33.924  25.932  25.507  1.00  0.00     0.082 C 
ATOM     16  C   UNL A   1      33.714  26.001  23.996  1.00  0.00     0.031 C 
ATOM     17  C   UNL A   1      33.762  27.311  26.149  1.00  0.00     0.031 C 
ENDBRANCH  11  15
ENDBRANCH   9  10
BRANCH   9  18
ATOM     18  O   UNL A   1      35.236  22.335  27.194  1.00  0.00    -0.386 OA
ATOM     19  H   UNL A   1      34.484  22.144  27.779  1.00  0.00     0.211 HD
ENDBRANCH   9  18
ENDBRANCH   7   9
ENDBRANCH   4   7
ENDBRANCH   2   3
ENDBRANCH   1   2
BRANCH   1  20
ATOM     20  C   UNL A   1      39.929  21.200  26.349  1.00  0.00     0.118 C 
BRANCH  20  21
ATOM     21  N   UNL A   1      41.278  21.187  25.776  1.00  0.00    -0.352 N 
ATOM     22  C   UNL A   1      42.152  22.249  25.662  1.00  0.00     0.251 C 
ATOM     23  H   UNL A   1      41.597  20.320  25.434  1.00  0.00     0.163 HD
ATOM     24  O   UNL A   1      43.090  22.210  24.868  1.00  0.00    -0.269 OA
BRANCH  22  25
ATOM     25  C   UNL A   1      41.920  23.431  26.508  1.00  0.00     0.039 A 
ATOM     26  C   UNL A   1      42.429  23.513  27.803  1.00  0.00     0.014 A 
ATOM     27  C   UNL A   1      41.247  24.508  25.934  1.00  0.00     0.014 A 
ATOM     28  C   UNL A   1      42.337  24.730  28.472  1.00  0.00     0.010 A 
ATOM     29  C   UNL A   1      41.329  25.747  26.513  1.00  0.00     0.010 A 
ATOM     30  C   UNL A   1      41.820  25.857  27.804  1.00  0.00    -0.014 A 
BRANCH  30  31
ATOM     31  C   UNL A   1      41.901  27.185  28.400  1.00  0.00     0.031 A 
ATOM     32  C   UNL A   1      43.134  27.926  28.043  1.00  0.00     0.074 A 
ATOM     33  C   UNL A   1      40.899  27.782  29.081  1.00  0.00     0.049 A 
ATOM     34  N   UNL A   1      44.205  28.015  28.759  1.00  0.00    -0.248 NA
ATOM     35  C   UNL A   1      43.285  28.457  26.680  1.00  0.00     0.031 C 
ATOM     36  C   UNL A   1      39.515  27.334  29.270  1.00  0.00     0.029 A 
ATOM     37  N   UNL A   1      40.900  28.995  29.697  1.00  0.00    -0.354 N 
ATOM     38  C   UNL A   1      45.061  28.849  28.055  1.00  0.00     0.074 A 
ATOM     39  C   UNL A   1      44.546  28.897  26.708  1.00  0.00     0.031 C 
ATOM     40  C   UNL A   1      38.765  28.353  29.750  1.00  0.00     0.029 A 
ATOM     41  C   UNL A   1      39.646  29.458  30.081  1.00  0.00     0.049 A 
ATOM     42  H   UNL A   1      41.726  29.506  29.859  1.00  0.00     0.167 HD
ATOM     43  C   UNL A   1      45.946  29.650  28.713  1.00  0.00     0.031 A 
ATOM     44  C   UNL A   1      39.357  30.663  30.636  1.00  0.00     0.031 A 
ATOM     45  C   UNL A   1      46.026  29.302  30.113  1.00  0.00     0.049 A 
ATOM     46  C   UNL A   1      40.612  31.161  31.249  1.00  0.00     0.074 A 
ATOM     47  C   UNL A   1      46.333  28.154  30.817  1.00  0.00     0.029 A 
ATOM     48  N   UNL A   1      45.328  30.109  30.984  1.00  0.00    -0.354 N 
ATOM     49  N   UNL A   1      41.180  30.589  32.275  1.00  0.00    -0.248 NA
ATOM     50  C   UNL A   1      41.482  32.003  30.445  1.00  0.00     0.031 C 
ATOM     51  C   UNL A   1      45.402  28.127  31.898  1.00  0.00     0.029 A 
ATOM     52  C   UNL A   1      44.645  29.300  31.855  1.00  0.00     0.049 A 
ATOM     53  H   UNL A   1      45.322  31.092  30.982  1.00  0.00     0.167 HD
ATOM     54  C   UNL A   1      42.536  30.618  31.987  1.00  0.00     0.074 A 
ATOM     55  C   UNL A   1      42.669  31.589  30.899  1.00  0.00     0.031 C 
ATOM     56  C   UNL A   1      43.380  29.654  32.463  1.00  0.00     0.031 A 
BRANCH  43  57
ATOM     57  C   UNL A   1      46.388  31.006  28.218  1.00  0.00    -0.014 A 
ATOM     58  C   UNL A   1      45.419  32.025  28.103  1.00  0.00     0.010 A 
ATOM     59  C   UNL A   1      47.634  31.238  27.603  1.00  0.00     0.010 A 
ATOM     60  C   UNL A   1      45.660  33.176  27.343  1.00  0.00     0.020 A 
ATOM     61  C   UNL A   1      47.900  32.403  26.881  1.00  0.00     0.020 A 
ATOM     62  C   UNL A   1      46.899  33.351  26.728  1.00  0.00     0.054 A 
BRANCH  62  63
ATOM     63  S   UNL A   1      47.170  34.803  25.687  1.00  0.00     0.124 S 
ATOM     64  O   UNL A   1      46.009  34.761  24.804  1.00  0.00    -0.237 OA
ATOM     65  O   UNL A   1      47.185  35.884  26.668  1.00  0.00    -0.237 OA
ATOM     66  O   UNL A   1      48.457  34.529  25.050  1.00  0.00    -0.744 OA
ENDBRANCH  62  63
ENDBRANCH  43  57
BRANCH  44  67
ATOM     67  C   UNL A   1      38.174  31.536  30.434  1.00  0.00    -0.014 A 
ATOM     68  C   UNL A   1      38.240  32.652  29.576  1.00  0.00     0.010 A 
ATOM     69  C   UNL A   1      36.897  31.092  30.831  1.00  0.00     0.010 A 
ATOM     70  C   UNL A   1      37.072  33.246  29.065  1.00  0.00     0.020 A 
ATOM     71  C   UNL A   1      35.728  31.682  30.330  1.00  0.00     0.020 A 
ATOM     72  C   UNL A   1      35.822  32.738  29.425  1.00  0.00     0.054 A 
BRANCH  72  73
ATOM     73  S   UNL A   1      34.327  33.371  28.600  1.00  0.00     0.124 S 
ATOM     74  O   UNL A   1      34.885  34.211  27.545  1.00  0.00    -0.237 OA
ATOM     75  O   UNL A   1      33.668  32.147  28.151  1.00  0.00    -0.237 OA
ATOM     76  O   UNL A   1      33.628  34.091  29.662  1.00  0.00    -0.744 OA
ENDBRANCH  72  73
ENDBRANCH  44  67
BRANCH  56  77
ATOM     77  C   UNL A   1      42.899  28.762  33.588  1.00  0.00    -0.014 A 
ATOM     78  C   UNL A   1      42.117  27.602  33.420  1.00  0.00     0.010 A 
ATOM     79  C   UNL A   1      43.368  29.071  34.877  1.00  0.00     0.010 A 
ATOM     80  C   UNL A   1      41.778  26.803  34.525  1.00  0.00     0.020 A 
ATOM     81  C   UNL A   1      43.055  28.270  35.974  1.00  0.00     0.020 A 
ATOM     82  C   UNL A   1      42.245  27.149  35.798  1.00  0.00     0.054 A 
BRANCH  82  83
ATOM     83  S   UNL A   1      41.804  26.124  37.230  1.00  0.00     0.124 S 
ATOM     84  O   UNL A   1      40.495  26.652  37.606  1.00  0.00    -0.237 OA
ATOM     85  O   UNL A   1      41.803  24.773  36.675  1.00  0.00    -0.237 OA
ATOM     86  O   UNL A   1      42.874  26.388  38.191  1.00  0.00    -0.744 OA
ENDBRANCH  82  83
ENDBRANCH  56  77
ENDBRANCH  30  31
ENDBRANCH  22  25
ENDBRANCH  20  21
ENDBRANCH   1  20
TORSDOF 17
ENDMDL
MODEL 2
REMARK VINA RESULT:     -11.1      1.500      2.124
REMARK SMILES CC(C)n1cncc1[C@@H](O)[C@H](C)C(=O)NCCCNC(=O)c1ccc(-c2c3nc(c(-c4ccc(S(=O)(=O)[O-])cc4)c4ccc([nH]4)c(-c4ccc(S(=O)(=O)[O-])cc4)c4nc(c(-c5ccc(S(=O)(=O)[O-])cc5)c5ccc2[nH]5)C=C4)C=C3)cc1
REMARK SMILES IDX 17 1 16 2 15 3 13 4 14 5 11 7 12 8 9 9 8 10 4 11 5 12 6 13
REMARK SMILES IDX 7 14 2 15 1 16 3 17 10 18 18 20 19 21 20 22 21 24 22 25
REMARK SMILES IDX 23 26 81 27 24 28 80 29 25 30 26 31 27 32 74 33 28 34 79 35
REMARK SMILES IDX 73 36 75 37 29 38 78 39 72 40 71 41 30 43 60 44 41 45 59 46
REMARK SMILES IDX 42 47 45 48 58 49 76 50 43 51 44 52 57 54 77 55 46 56 31 57
REMARK SMILES IDX 32 58 40 59 33 60 39 61 34 62 35 63 36 64 37 65 38 66 61 67
REMARK SMILES IDX 62 68 70 69 63 70 69 71 64 72 65 73 66 74 67 75 68 76 47 77
REMARK SMILES IDX 48 78 56 79 49 80 55 81 50 82 51 83 52 84 53 85 54 86
REMARK H PARENT 15 6 10 19 19 23 75 42 45 53
REMARK Flexibility Score: inf
ROOT
ATOM      1  C   UNL A   1      38.812  22.438  25.992  1.00  0.00     0.042 C 
ENDROOT
BRANCH   1   2
ATOM      2  C   UNL A   1      37.873  21.491  25.256  1.00  0.00     0.117 C 
BRANCH   2   3
ATOM      3  N   UNL A   1      37.274  22.037  24.051  1.00  0.00    -0.356 N 
ATOM      4  C   UNL A   1      35.993  22.467  23.857  1.00  0.00     0.225 C 
ATOM      5  O   UNL A   1      35.749  23.125  22.841  1.00  0.00    -0.275 OA
ATOM      6  H   UNL A   1      37.871  22.108  23.272  1.00  0.00     0.163 HD
BRANCH   4   7
ATOM      7  C   UNL A   1      34.867  22.084  24.809  1.00  0.00     0.110 C 
ATOM      8  C   UNL A   1      34.754  20.559  24.896  1.00  0.00     0.021 C 
BRANCH   7   9
ATOM      9  C   UNL A   1      34.785  22.916  26.111  1.00  0.00     0.175 C 
BRANCH   9  10
ATOM     10  C   UNL A   1      33.453  23.526  26.446  1.00  0.00     0.067 A 
ATOM     11  N   UNL A   1      33.081  24.814  26.104  1.00  0.00    -0.330 N 
ATOM     12  C   UNL A   1      31.784  24.987  26.502  1.00  0.00     0.199 A 
ATOM     13  N   UNL A   1      31.328  23.944  27.151  1.00  0.00    -0.245 NA
ATOM     14  C   UNL A   1      32.352  23.040  27.129  1.00  0.00     0.137 A 
BRANCH  11  15
ATOM     15  C   UNL A   1      33.921  25.813  25.451  1.00  0.00     0.082 C 
ATOM     16  C   UNL A   1      33.727  25.779  23.936  1.00  0.00     0.031 C 
ATOM     17  C   UNL A   1      33.728  27.229  25.998  1.00  0.00     0.031 C 
ENDBRANCH  11  15
ENDBRANCH   9  10
BRANCH   9  18
ATOM     18  O   UNL A   1      35.222  22.237  27.282  1.00  0.00    -0.386 OA
ATOM     19  H   UNL A   1      35.924  22.752  27.711  1.00  0.00     0.211 HD
ENDBRANCH   9  18
ENDBRANCH   7   9
ENDBRANCH   4   7
ENDBRANCH   2   3
ENDBRANCH   1   2
BRANCH   1  20
ATOM     20  C   UNL A   1      39.948  21.701  26.663  1.00  0.00     0.118 C 
BRANCH  20  21
ATOM     21  N   UNL A   1      41.234  21.909  25.992  1.00  0.00    -0.352 N 
ATOM     22  C   UNL A   1      41.931  23.094  25.861  1.00  0.00     0.251 C 
ATOM     23  H   UNL A   1      41.649  21.112  25.588  1.00  0.00     0.163 HD
ATOM     24  O   UNL A   1      42.797  23.222  24.998  1.00  0.00    -0.269 OA
BRANCH  22  25
ATOM     25  C   UNL A   1      41.597  24.198  26.774  1.00  0.00     0.039 A 
ATOM     26  C   UNL A   1      42.147  24.281  28.052  1.00  0.00     0.014 A 
ATOM     27  C   UNL A   1      40.776  25.212  26.281  1.00  0.00     0.014 A 
ATOM     28  C   UNL A   1      41.940  25.446  28.786  1.00  0.00     0.010 A 
ATOM     29  C   UNL A   1      40.736  26.424  26.919  1.00  0.00     0.010 A 
ATOM     30  C   UNL A   1      41.264  26.532  28.195  1.00  0.00    -0.014 A 
BRANCH  30  31
ATOM     31  C   UNL A   1      41.212  27.832  28.854  1.00  0.00     0.031 A 
ATOM     32  C   UNL A   1      42.257  28.778  28.395  1.00  0.00     0.074 A 
ATOM     33  C   UNL A   1      40.227  28.230  29.687  1.00  0.00     0.049 A 
ATOM     34  N   UNL A   1      43.384  29.012  28.978  1.00  0.00    -0.248 NA
ATOM     35  C   UNL A   1      42.144  29.379  27.057  1.00  0.00     0.031 C 
ATOM     36  C   UNL A   1      38.967  27.554  30.017  1.00  0.00     0.029 A 
ATOM     37  N   UNL A   1      40.118  29.402  30.370  1.00  0.00    -0.354 N 
ATOM     38  C   UNL A   1      44.000  30.002  28.225  1.00  0.00     0.074 A 
ATOM     39  C   UNL A   1      43.313  30.018  26.957  1.00  0.00     0.031 C 
ATOM     40  C   UNL A   1      38.135  28.418  30.645  1.00  0.00     0.029 A 
ATOM     41  C   UNL A   1      38.867  29.638  30.931  1.00  0.00     0.049 A 
ATOM     42  H   UNL A   1      40.867  30.034  30.460  1.00  0.00     0.167 HD
ATOM     43  C   UNL A   1      44.826  30.911  28.817  1.00  0.00     0.031 A 
ATOM     44  C   UNL A   1      38.467  30.757  31.588  1.00  0.00     0.031 A 
ATOM     45  C   UNL A   1      45.141  30.526  30.173  1.00  0.00     0.049 A 
ATOM     46  C   UNL A   1      39.698  31.429  32.072  1.00  0.00     0.074 A 
ATOM     47  C   UNL A   1      45.714  29.417  30.765  1.00  0.00     0.029 A 
ATOM     48  N   UNL A   1      44.445  31.173  31.170  1.00  0.00    -0.354 N 
ATOM     49  N   UNL A   1      40.477  30.917  32.984  1.00  0.00    -0.248 NA
ATOM     50  C   UNL A   1      40.312  32.433  31.219  1.00  0.00     0.031 C 
ATOM     51  C   UNL A   1      44.948  29.196  31.948  1.00  0.00     0.029 A 
ATOM     52  C   UNL A   1      44.017  30.230  32.068  1.00  0.00     0.049 A 
ATOM     53  H   UNL A   1      44.284  32.141  31.227  1.00  0.00     0.167 HD
ATOM     54  C   UNL A   1      41.763  31.179  32.535  1.00  0.00     0.074 A 
ATOM     55  C   UNL A   1      41.598  32.200  31.499  1.00  0.00     0.031 C 
ATOM     56  C   UNL A   1      42.802  30.348  32.846  1.00  0.00     0.031 A 
BRANCH  43  57
ATOM     57  C   UNL A   1      44.981  32.339  28.353  1.00  0.00    -0.014 A 
ATOM     58  C   UNL A   1      46.286  32.857  28.209  1.00  0.00     0.010 A 
ATOM     59  C   UNL A   1      43.920  33.265  28.326  1.00  0.00     0.010 A 
ATOM     60  C   UNL A   1      46.516  34.235  28.126  1.00  0.00     0.020 A 
ATOM     61  C   UNL A   1      44.136  34.638  28.197  1.00  0.00     0.020 A 
ATOM     62  C   UNL A   1      45.437  35.117  28.131  1.00  0.00     0.054 A 
BRANCH  62  63
ATOM     63  S   UNL A   1      45.751  36.897  28.101  1.00  0.00     0.124 S 
ATOM     64  O   UNL A   1      45.703  37.187  26.672  1.00  0.00    -0.237 OA
ATOM     65  O   UNL A   1      44.640  37.417  28.893  1.00  0.00    -0.237 OA
ATOM     66  O   UNL A   1      47.066  37.021  28.726  1.00  0.00    -0.744 OA
ENDBRANCH  62  63
ENDBRANCH  43  57
BRANCH  44  67
ATOM     67  C   UNL A   1      37.146  31.432  31.585  1.00  0.00    -0.014 A 
ATOM     68  C   UNL A   1      36.419  31.599  32.781  1.00  0.00     0.010 A 
ATOM     69  C   UNL A   1      36.748  32.193  30.467  1.00  0.00     0.010 A 
ATOM     70  C   UNL A   1      35.391  32.554  32.879  1.00  0.00     0.020 A 
ATOM     71  C   UNL A   1      35.721  33.143  30.556  1.00  0.00     0.020 A 
ATOM     72  C   UNL A   1      35.067  33.340  31.771  1.00  0.00     0.054 A 
BRANCH  72  73
ATOM     73  S   UNL A   1      33.886  34.712  31.962  1.00  0.00     0.124 S 
ATOM     74  O   UNL A   1      32.933  34.173  32.927  1.00  0.00    -0.237 OA
ATOM     75  O   UNL A   1      34.734  35.797  32.451  1.00  0.00    -0.237 OA
ATOM     76  O   UNL A   1      33.361  34.905  30.612  1.00  0.00    -0.744 OA
ENDBRANCH  72  73
ENDBRANCH  44  67
BRANCH  56  77
ATOM     77  C   UNL A   1      42.617  29.347  33.966  1.00  0.00    -0.014 A 
ATOM     78  C   UNL A   1      42.753  29.637  35.338  1.00  0.00     0.010 A 
ATOM     79  C   UNL A   1      42.173  28.065  33.595  1.00  0.00     0.010 A 
ATOM     80  C   UNL A   1      42.493  28.651  36.306  1.00  0.00     0.020 A 
ATOM     81  C   UNL A   1      41.892  27.090  34.551  1.00  0.00     0.020 A 
ATOM     82  C   UNL A   1      42.072  27.380  35.902  1.00  0.00     0.054 A 
BRANCH  82  83
ATOM     83  S   UNL A   1      41.743  26.101  37.147  1.00  0.00     0.124 S 
ATOM     84  O   UNL A   1      41.815  24.870  36.364  1.00  0.00    -0.237 OA
ATOM     85  O   UNL A   1      42.825  26.299  38.110  1.00  0.00    -0.237 OA
ATOM     86  O   UNL A   1      40.411  26.435  37.649  1.00  0.00    -0.744 OA
ENDBRANCH  82  83
ENDBRANCH  56  77
ENDBRANCH  30  31
ENDBRANCH  22  25
ENDBRANCH  20  21
ENDBRANCH   1  20
TORSDOF 17
ENDMDL
MODEL 3
REMARK VINA RESULT:     -11.1      1.787      2.426
REMARK SMILES CC(C)n1cncc1[C@@H](O)[C@H](C)C(=O)NCCCNC(=O)c1ccc(-c2c3nc(c(-c4ccc(S(=O)(=O)[O-])cc4)c4ccc([nH]4)c(-c4ccc(S(=O)(=O)[O-])cc4)c4nc(c(-c5ccc(S(=O)(=O)[O-])cc5)c5ccc2[nH]5)C=C4)C=C3)cc1
REMARK SMILES IDX 17 1 16 2 15 3 13 4 14 5 11 7 12 8 9 9 8 10 4 11 5 12 6 13
REMARK SMILES IDX 7 14 2 15 1 16 3 17 10 18 18 20 19 21 20 22 21 24 22 25
REMARK SMILES IDX 23 26 81 27 24 28 80 29 25 30 26 31 27 32 74 33 28 34 79 35
REMARK SMILES IDX 73 36 75 37 29 38 78 39 72 40 71 41 30 43 60 44 41 45 59 46
REMARK SMILES IDX 42 47 45 48 58 49 76 50 43 51 44 52 57 54 77 55 46 56 31 57
REMARK SMILES IDX 32 58 40 59 33 60 39 61 34 62 35 63 36 64 37 65 38 66 61 67
REMARK SMILES IDX 62 68 70 69 63 70 69 71 64 72 65 73 66 74 67 75 68 76 47 77
REMARK SMILES IDX 48 78 56 79 49 80 55 81 50 82 51 83 52 84 53 85 54 86
REMARK H PARENT 15 6 10 19 19 23 75 42 45 53
REMARK Flexibility Score: inf
ROOT
ATOM      1  C   UNL A   1      36.730  22.297  25.784  1.00  0.00     0.042 C 
ENDROOT
BRANCH   1   2
ATOM      2  C   UNL A   1      36.082  21.292  24.842  1.00  0.00     0.117 C 
BRANCH   2   3
ATOM      3  N   UNL A   1      35.115  20.405  25.464  1.00  0.00    -0.356 N 
ATOM      4  C   UNL A   1      33.787  20.261  25.179  1.00  0.00     0.225 C 
ATOM      5  O   UNL A   1      33.196  19.283  25.647  1.00  0.00    -0.275 OA
ATOM      6  H   UNL A   1      35.462  19.832  26.185  1.00  0.00     0.163 HD
BRANCH   4   7
ATOM      7  C   UNL A   1      33.020  21.308  24.382  1.00  0.00     0.110 C 
ATOM      8  C   UNL A   1      32.393  20.664  23.142  1.00  0.00     0.021 C 
BRANCH   7   9
ATOM      9  C   UNL A   1      32.173  22.294  25.223  1.00  0.00     0.175 C 
BRANCH   9  10
ATOM     10  C   UNL A   1      31.649  23.513  24.518  1.00  0.00     0.067 A 
ATOM     11  N   UNL A   1      32.103  24.799  24.750  1.00  0.00    -0.330 N 
ATOM     12  C   UNL A   1      31.455  25.628  23.877  1.00  0.00     0.199 A 
ATOM     13  N   UNL A   1      30.559  24.987  23.167  1.00  0.00    -0.245 NA
ATOM     14  C   UNL A   1      30.665  23.683  23.559  1.00  0.00     0.137 A 
BRANCH  11  15
ATOM     15  C   UNL A   1      33.082  25.203  25.754  1.00  0.00     0.082 C 
ATOM     16  C   UNL A   1      34.500  25.118  25.194  1.00  0.00     0.031 C 
ATOM     17  C   UNL A   1      32.811  26.584  26.356  1.00  0.00     0.031 C 
ENDBRANCH  11  15
ENDBRANCH   9  10
BRANCH   9  18
ATOM     18  O   UNL A   1      31.062  21.707  25.890  1.00  0.00    -0.386 OA
ATOM     19  H   UNL A   1      30.921  22.157  26.740  1.00  0.00     0.211 HD
ENDBRANCH   9  18
ENDBRANCH   7   9
ENDBRANCH   4   7
ENDBRANCH   2   3
ENDBRANCH   1   2
BRANCH   1  20
ATOM     20  C   UNL A   1      38.215  22.433  25.535  1.00  0.00     0.118 C 
BRANCH  20  21
ATOM     21  N   UNL A   1      39.022  21.666  26.488  1.00  0.00    -0.352 N 
ATOM     22  C   UNL A   1      40.082  22.121  27.247  1.00  0.00     0.251 C 
ATOM     23  H   UNL A   1      38.780  20.719  26.601  1.00  0.00     0.163 HD
ATOM     24  O   UNL A   1      40.892  21.333  27.732  1.00  0.00    -0.269 OA
BRANCH  22  25
ATOM     25  C   UNL A   1      40.221  23.573  27.444  1.00  0.00     0.039 A 
ATOM     26  C   UNL A   1      39.137  24.437  27.294  1.00  0.00     0.014 A 
ATOM     27  C   UNL A   1      41.459  24.046  27.877  1.00  0.00     0.014 A 
ATOM     28  C   UNL A   1      39.294  25.765  27.682  1.00  0.00     0.010 A 
ATOM     29  C   UNL A   1      41.552  25.294  28.434  1.00  0.00     0.010 A 
ATOM     30  C   UNL A   1      40.495  26.178  28.290  1.00  0.00    -0.014 A 
BRANCH  30  31
ATOM     31  C   UNL A   1      40.615  27.499  28.893  1.00  0.00     0.031 A 
ATOM     32  C   UNL A   1      41.653  28.352  28.266  1.00  0.00     0.074 A 
ATOM     33  C   UNL A   1      39.773  27.995  29.826  1.00  0.00     0.049 A 
ATOM     34  N   UNL A   1      42.859  28.525  28.693  1.00  0.00    -0.248 NA
ATOM     35  C   UNL A   1      41.409  28.914  26.929  1.00  0.00     0.031 C 
ATOM     36  C   UNL A   1      38.523  27.424  30.339  1.00  0.00     0.029 A 
ATOM     37  N   UNL A   1      39.830  29.195  30.465  1.00  0.00    -0.354 N 
ATOM     38  C   UNL A   1      43.438  29.441  27.827  1.00  0.00     0.074 A 
ATOM     39  C   UNL A   1      42.597  29.463  26.656  1.00  0.00     0.031 C 
ATOM     40  C   UNL A   1      37.838  28.366  31.029  1.00  0.00     0.029 A 
ATOM     41  C   UNL A   1      38.681  29.539  31.168  1.00  0.00     0.049 A 
ATOM     42  H   UNL A   1      40.626  29.774  30.434  1.00  0.00     0.167 HD
ATOM     43  C   UNL A   1      44.391  30.308  28.271  1.00  0.00     0.031 A 
ATOM     44  C   UNL A   1      38.444  30.706  31.821  1.00  0.00     0.031 A 
ATOM     45  C   UNL A   1      44.851  29.948  29.592  1.00  0.00     0.049 A 
ATOM     46  C   UNL A   1      39.768  31.304  32.118  1.00  0.00     0.074 A 
ATOM     47  C   UNL A   1      45.419  28.822  30.155  1.00  0.00     0.029 A 
ATOM     48  N   UNL A   1      44.333  30.677  30.640  1.00  0.00    -0.354 N 
ATOM     49  N   UNL A   1      40.622  30.769  32.946  1.00  0.00    -0.248 NA
ATOM     50  C   UNL A   1      40.334  32.231  31.152  1.00  0.00     0.031 C 
ATOM     51  C   UNL A   1      44.799  28.697  31.432  1.00  0.00     0.029 A 
ATOM     52  C   UNL A   1      43.962  29.799  31.624  1.00  0.00     0.049 A 
ATOM     53  H   UNL A   1      44.246  31.656  30.675  1.00  0.00     0.167 HD
ATOM     54  C   UNL A   1      41.854  30.923  32.328  1.00  0.00     0.074 A 
ATOM     55  C   UNL A   1      41.627  31.917  31.279  1.00  0.00     0.031 C 
ATOM     56  C   UNL A   1      42.867  30.030  32.542  1.00  0.00     0.031 A 
BRANCH  43  57
ATOM     57  C   UNL A   1      44.581  31.705  27.730  1.00  0.00    -0.014 A 
ATOM     58  C   UNL A   1      45.767  31.992  27.022  1.00  0.00     0.010 A 
ATOM     59  C   UNL A   1      43.791  32.802  28.124  1.00  0.00     0.010 A 
ATOM     60  C   UNL A   1      46.178  33.311  26.795  1.00  0.00     0.020 A 
ATOM     61  C   UNL A   1      44.169  34.121  27.862  1.00  0.00     0.020 A 
ATOM     62  C   UNL A   1      45.377  34.368  27.227  1.00  0.00     0.054 A 
BRANCH  62  63
ATOM     63  S   UNL A   1      45.955  36.064  26.997  1.00  0.00     0.124 S 
ATOM     64  O   UNL A   1      46.730  35.954  25.765  1.00  0.00    -0.237 OA
ATOM     65  O   UNL A   1      44.700  36.803  26.894  1.00  0.00    -0.237 OA
ATOM     66  O   UNL A   1      46.730  36.328  28.208  1.00  0.00    -0.744 OA
ENDBRANCH  62  63
ENDBRANCH  43  57
BRANCH  44  67
ATOM     67  C   UNL A   1      37.181  31.474  31.955  1.00  0.00    -0.014 A 
ATOM     68  C   UNL A   1      36.818  32.056  33.186  1.00  0.00     0.010 A 
ATOM     69  C   UNL A   1      36.495  31.905  30.802  1.00  0.00     0.010 A 
ATOM     70  C   UNL A   1      35.869  33.091  33.249  1.00  0.00     0.020 A 
ATOM     71  C   UNL A   1      35.543  32.932  30.857  1.00  0.00     0.020 A 
ATOM     72  C   UNL A   1      35.256  33.542  32.077  1.00  0.00     0.054 A 
BRANCH  72  73
ATOM     73  S   UNL A   1      34.190  35.016  32.135  1.00  0.00     0.124 S 
ATOM     74  O   UNL A   1      32.985  34.506  32.782  1.00  0.00    -0.237 OA
ATOM     75  O   UNL A   1      34.983  35.954  32.926  1.00  0.00    -0.237 OA
ATOM     76  O   UNL A   1      34.031  35.381  30.728  1.00  0.00    -0.744 OA
ENDBRANCH  72  73
ENDBRANCH  44  67
BRANCH  56  77
ATOM     77  C   UNL A   1      42.761  29.084  33.719  1.00  0.00    -0.014 A 
ATOM     78  C   UNL A   1      43.247  29.350  35.015  1.00  0.00     0.010 A 
ATOM     79  C   UNL A   1      42.025  27.904  33.510  1.00  0.00     0.010 A 
ATOM     80  C   UNL A   1      43.037  28.431  36.058  1.00  0.00     0.020 A 
ATOM     81  C   UNL A   1      41.795  27.000  34.546  1.00  0.00     0.020 A 
ATOM     82  C   UNL A   1      42.318  27.257  35.812  1.00  0.00     0.054 A 
BRANCH  82  83
ATOM     83  S   UNL A   1      42.053  26.064  37.154  1.00  0.00     0.124 S 
ATOM     84  O   UNL A   1      43.022  26.496  38.158  1.00  0.00    -0.237 OA
ATOM     85  O   UNL A   1      40.649  26.274  37.503  1.00  0.00    -0.237 OA
ATOM     86  O   UNL A   1      42.342  24.772  36.535  1.00  0.00    -0.744 OA
ENDBRANCH  82  83
ENDBRANCH  56  77
ENDBRANCH  30  31
ENDBRANCH  22  25
ENDBRANCH  20  21
ENDBRANCH   1  20
TORSDOF 17
ENDMDL
