MODEL 1
REMARK VINA RESULT:     -11.5      0.000      0.000
REMARK SMILES C[C@@H](C(=O)NCCCNC(=O)c1ccc(-c2c3nc(c(-c4ccc(S(=O)(=O)[O-])cc4)c4ccc([nH]4)c(-c4ccc(S(=O)(=O)[O-])cc4)c4nc(c(-c5ccc(S(=O)(=O)[O-])cc5)c5ccc2[nH]5)C=C4)C=C3)cc1)c1ccc(-c2cccc(OC(=O)NCCC3CCCCC3)c2)c(F)c1
REMARK SMILES IDX 3 1 4 2 5 3 2 5 1 6 72 7 73 8 96 9 74 10 94 11 75 12 95 13
REMARK SMILES IDX 76 14 77 15 93 16 78 17 80 18 79 19 81 20 82 21 83 22 84 23
REMARK SMILES IDX 85 25 86 26 87 27 88 28 92 29 89 30 91 31 90 32 6 33 7 34
REMARK SMILES IDX 8 35 9 36 10 37 11 39 12 40 13 41 71 42 14 43 70 44 15 45
REMARK SMILES IDX 16 46 17 47 64 48 18 49 69 50 63 51 65 52 19 53 68 54 62 55
REMARK SMILES IDX 61 56 20 58 50 59 31 60 49 61 32 62 35 63 48 64 66 65 33 66
REMARK SMILES IDX 34 67 47 69 67 70 36 71 21 72 22 73 30 74 23 75 29 76 24 77
REMARK SMILES IDX 25 78 26 79 27 80 28 81 51 82 52 83 60 84 53 85 59 86 54 87
REMARK SMILES IDX 55 88 56 89 57 90 58 91 37 92 38 93 46 94 39 95 45 96 40 97
REMARK SMILES IDX 41 98 42 99 43 100 44 101
REMARK H PARENT 5 4 84 24 9 38 65 57 35 68
REMARK Flexibility Score: inf
ROOT
ATOM      1  C   UNL A   1      34.304  33.666  29.200  1.00  0.00     0.227 C 
ATOM      2  O   UNL A   1      33.754  34.321  28.312  1.00  0.00    -0.274 OA
ATOM      3  N   UNL A   1      33.975  33.995  30.484  1.00  0.00    -0.356 N 
ATOM      4  H   UNL A   1      33.166  34.548  30.577  1.00  0.00     0.163 HD
ENDROOT
BRANCH   1   5
ATOM      5  C   UNL A   1      35.291  32.516  28.930  1.00  0.00     0.105 C 
ATOM      6  C   UNL A   1      36.559  33.098  28.289  1.00  0.00     0.023 C 
BRANCH   5   7
ATOM      7  C   UNL A   1      34.713  31.361  28.100  1.00  0.00    -0.033 A 
ATOM      8  C   UNL A   1      35.504  30.284  27.663  1.00  0.00     0.005 A 
ATOM      9  C   UNL A   1      33.367  31.367  27.704  1.00  0.00     0.044 A 
ATOM     10  C   UNL A   1      34.952  29.213  26.948  1.00  0.00     0.012 A 
ATOM     11  C   UNL A   1      32.825  30.305  26.987  1.00  0.00     0.131 A 
ATOM     12  C   UNL A   1      33.596  29.204  26.605  1.00  0.00     0.018 A 
ATOM     13  F   UNL A   1      31.525  30.373  26.655  1.00  0.00    -0.206 F 
BRANCH  12  14
ATOM     14  C   UNL A   1      33.021  28.131  25.790  1.00  0.00    -0.012 A 
ATOM     15  C   UNL A   1      32.340  28.378  24.590  1.00  0.00     0.009 A 
ATOM     16  C   UNL A   1      33.149  26.805  26.230  1.00  0.00     0.056 A 
ATOM     17  C   UNL A   1      31.805  27.319  23.850  1.00  0.00     0.004 A 
ATOM     18  C   UNL A   1      32.591  25.755  25.513  1.00  0.00     0.133 A 
ATOM     19  C   UNL A   1      31.927  26.007  24.312  1.00  0.00     0.047 A 
BRANCH  18  20
ATOM     20  O   UNL A   1      32.647  24.403  25.929  1.00  0.00    -0.410 OA
BRANCH  20  21
ATOM     21  C   UNL A   1      31.549  23.681  26.394  1.00  0.00     0.412 C 
ATOM     22  O   UNL A   1      30.752  24.018  27.262  1.00  0.00    -0.224 OA
ATOM     23  N   UNL A   1      31.367  22.488  25.763  1.00  0.00    -0.321 N 
ATOM     24  H   UNL A   1      30.588  21.960  26.054  1.00  0.00     0.167 HD
BRANCH  23  25
ATOM     25  C   UNL A   1      32.175  21.901  24.721  1.00  0.00     0.119 C 
BRANCH  25  26
ATOM     26  C   UNL A   1      33.319  21.073  25.306  1.00  0.00     0.025 C 
BRANCH  26  27
ATOM     27  C   UNL A   1      34.685  21.294  24.619  1.00  0.00    -0.009 C 
ATOM     28  C   UNL A   1      34.760  22.653  23.906  1.00  0.00     0.003 C 
ATOM     29  C   UNL A   1      35.816  21.156  25.652  1.00  0.00     0.003 C 
ATOM     30  C   UNL A   1      36.141  22.916  23.309  1.00  0.00     0.000 C 
ATOM     31  C   UNL A   1      37.186  21.408  25.031  1.00  0.00     0.000 C 
ATOM     32  C   UNL A   1      37.246  22.770  24.350  1.00  0.00     0.000 C 
ENDBRANCH  26  27
ENDBRANCH  25  26
ENDBRANCH  23  25
ENDBRANCH  20  21
ENDBRANCH  18  20
ENDBRANCH  12  14
ENDBRANCH   5   7
ENDBRANCH   1   5
BRANCH   3  33
ATOM     33  C   UNL A   1      34.633  33.657  31.733  1.00  0.00     0.117 C 
BRANCH  33  34
ATOM     34  C   UNL A   1      36.061  34.204  31.771  1.00  0.00     0.042 C 
BRANCH  34  35
ATOM     35  C   UNL A   1      37.125  33.153  32.070  1.00  0.00     0.118 C 
BRANCH  35  36
ATOM     36  N   UNL A   1      36.554  31.838  32.311  1.00  0.00    -0.352 N 
ATOM     37  C   UNL A   1      36.970  30.608  31.861  1.00  0.00     0.251 C 
ATOM     38  H   UNL A   1      35.752  31.826  32.882  1.00  0.00     0.163 HD
ATOM     39  O   UNL A   1      36.238  29.632  31.998  1.00  0.00    -0.269 OA
BRANCH  37  40
ATOM     40  C   UNL A   1      38.281  30.467  31.188  1.00  0.00     0.039 A 
ATOM     41  C   UNL A   1      39.410  30.187  31.961  1.00  0.00     0.014 A 
ATOM     42  C   UNL A   1      38.398  30.606  29.802  1.00  0.00     0.014 A 
ATOM     43  C   UNL A   1      40.639  29.963  31.337  1.00  0.00     0.010 A 
ATOM     44  C   UNL A   1      39.607  30.313  29.176  1.00  0.00     0.010 A 
ATOM     45  C   UNL A   1      40.737  29.975  29.936  1.00  0.00    -0.014 A 
BRANCH  45  46
ATOM     46  C   UNL A   1      41.994  29.586  29.245  1.00  0.00     0.031 A 
ATOM     47  C   UNL A   1      42.171  28.191  28.710  1.00  0.00     0.074 A 
ATOM     48  C   UNL A   1      43.013  30.470  29.181  1.00  0.00     0.049 A 
ATOM     49  N   UNL A   1      43.230  27.647  28.167  1.00  0.00    -0.248 NA
ATOM     50  C   UNL A   1      41.017  27.281  28.813  1.00  0.00     0.031 C 
ATOM     51  C   UNL A   1      42.977  31.842  29.697  1.00  0.00     0.029 A 
ATOM     52  N   UNL A   1      44.284  30.342  28.677  1.00  0.00    -0.354 N 
ATOM     53  C   UNL A   1      42.883  26.330  27.892  1.00  0.00     0.074 A 
ATOM     54  C   UNL A   1      41.522  26.147  28.348  1.00  0.00     0.031 C 
ATOM     55  C   UNL A   1      44.164  32.429  29.470  1.00  0.00     0.029 A 
ATOM     56  C   UNL A   1      45.062  31.465  28.846  1.00  0.00     0.049 A 
ATOM     57  H   UNL A   1      44.608  29.525  28.234  1.00  0.00     0.167 HD
ATOM     58  C   UNL A   1      43.630  25.364  27.307  1.00  0.00     0.031 A 
ATOM     59  C   UNL A   1      46.361  31.687  28.562  1.00  0.00     0.031 A 
ATOM     60  C   UNL A   1      44.977  25.559  26.839  1.00  0.00     0.049 A 
ATOM     61  C   UNL A   1      47.173  30.583  27.939  1.00  0.00     0.074 A 
ATOM     62  C   UNL A   1      45.781  24.665  26.153  1.00  0.00     0.029 A 
ATOM     63  N   UNL A   1      45.725  26.711  27.023  1.00  0.00    -0.354 N 
ATOM     64  N   UNL A   1      46.791  29.378  27.587  1.00  0.00    -0.248 NA
ATOM     65  C   UNL A   1      48.592  30.865  27.674  1.00  0.00     0.031 C 
ATOM     66  C   UNL A   1      47.040  25.250  25.988  1.00  0.00     0.029 A 
ATOM     67  C   UNL A   1      46.998  26.532  26.508  1.00  0.00     0.049 A 
ATOM     68  H   UNL A   1      45.399  27.534  27.453  1.00  0.00     0.167 HD
ATOM     69  C   UNL A   1      47.916  28.770  27.041  1.00  0.00     0.074 A 
ATOM     70  C   UNL A   1      48.985  29.744  27.086  1.00  0.00     0.031 C 
ATOM     71  C   UNL A   1      48.052  27.513  26.552  1.00  0.00     0.031 A 
BRANCH  58  72
ATOM     72  C   UNL A   1      43.029  23.992  27.149  1.00  0.00    -0.014 A 
ATOM     73  C   UNL A   1      42.506  23.560  25.917  1.00  0.00     0.010 A 
ATOM     74  C   UNL A   1      43.088  23.084  28.223  1.00  0.00     0.010 A 
ATOM     75  C   UNL A   1      42.039  22.251  25.769  1.00  0.00     0.020 A 
ATOM     76  C   UNL A   1      42.647  21.767  28.071  1.00  0.00     0.020 A 
ATOM     77  C   UNL A   1      42.118  21.361  26.845  1.00  0.00     0.054 A 
BRANCH  77  78
ATOM     78  S   UNL A   1      41.568  19.651  26.600  1.00  0.00     0.124 S 
ATOM     79  O   UNL A   1      42.220  18.962  27.711  1.00  0.00    -0.237 OA
ATOM     80  O   UNL A   1      40.115  19.765  26.699  1.00  0.00    -0.237 OA
ATOM     81  O   UNL A   1      42.074  19.308  25.274  1.00  0.00    -0.744 OA
ENDBRANCH  77  78
ENDBRANCH  58  72
BRANCH  59  82
ATOM     82  C   UNL A   1      46.993  32.995  28.896  1.00  0.00    -0.014 A 
ATOM     83  C   UNL A   1      47.576  33.211  30.157  1.00  0.00     0.010 A 
ATOM     84  C   UNL A   1      46.985  34.047  27.961  1.00  0.00     0.010 A 
ATOM     85  C   UNL A   1      48.102  34.462  30.492  1.00  0.00     0.020 A 
ATOM     86  C   UNL A   1      47.543  35.288  28.278  1.00  0.00     0.020 A 
ATOM     87  C   UNL A   1      48.079  35.494  29.549  1.00  0.00     0.054 A 
BRANCH  87  88
ATOM     88  S   UNL A   1      48.776  37.108  29.999  1.00  0.00     0.124 S 
ATOM     89  O   UNL A   1      48.254  37.297  31.348  1.00  0.00    -0.237 OA
ATOM     90  O   UNL A   1      50.214  36.867  29.903  1.00  0.00    -0.237 OA
ATOM     91  O   UNL A   1      48.235  38.009  28.984  1.00  0.00    -0.744 OA
ENDBRANCH  87  88
ENDBRANCH  59  82
BRANCH  71  92
ATOM     92  C   UNL A   1      49.395  27.117  26.002  1.00  0.00    -0.014 A 
ATOM     93  C   UNL A   1      49.715  27.324  24.648  1.00  0.00     0.010 A 
ATOM     94  C   UNL A   1      50.382  26.612  26.870  1.00  0.00     0.010 A 
ATOM     95  C   UNL A   1      50.993  27.023  24.169  1.00  0.00     0.020 A 
ATOM     96  C   UNL A   1      51.669  26.339  26.401  1.00  0.00     0.020 A 
ATOM     97  C   UNL A   1      51.964  26.539  25.051  1.00  0.00     0.054 A 
BRANCH  97  98
ATOM     98  S   UNL A   1      53.637  26.233  24.420  1.00  0.00     0.124 S 
ATOM     99  O   UNL A   1      53.578  26.841  23.093  1.00  0.00    -0.237 OA
ATOM    100  O   UNL A   1      54.477  26.926  25.393  1.00  0.00    -0.237 OA
ATOM    101  O   UNL A   1      53.752  24.776  24.432  1.00  0.00    -0.744 OA
ENDBRANCH  97  98
ENDBRANCH  71  92
ENDBRANCH  45  46
ENDBRANCH  37  40
ENDBRANCH  35  36
ENDBRANCH  34  35
ENDBRANCH  33  34
ENDBRANCH   3  33
TORSDOF 20
ENDMDL
MODEL 2
REMARK VINA RESULT:     -11.4      0.925      7.784
REMARK SMILES C[C@@H](C(=O)NCCCNC(=O)c1ccc(-c2c3nc(c(-c4ccc(S(=O)(=O)[O-])cc4)c4ccc([nH]4)c(-c4ccc(S(=O)(=O)[O-])cc4)c4nc(c(-c5ccc(S(=O)(=O)[O-])cc5)c5ccc2[nH]5)C=C4)C=C3)cc1)c1ccc(-c2cccc(OC(=O)NCCC3CCCCC3)c2)c(F)c1
REMARK SMILES IDX 3 1 4 2 5 3 2 5 1 6 72 7 73 8 96 9 74 10 94 11 75 12 95 13
REMARK SMILES IDX 76 14 77 15 93 16 78 17 80 18 79 19 81 20 82 21 83 22 84 23
REMARK SMILES IDX 85 25 86 26 87 27 88 28 92 29 89 30 91 31 90 32 6 33 7 34
REMARK SMILES IDX 8 35 9 36 10 37 11 39 12 40 13 41 71 42 14 43 70 44 15 45
REMARK SMILES IDX 16 46 17 47 64 48 18 49 69 50 63 51 65 52 19 53 68 54 62 55
REMARK SMILES IDX 61 56 20 58 50 59 31 60 49 61 32 62 35 63 48 64 66 65 33 66
REMARK SMILES IDX 34 67 47 69 67 70 36 71 21 72 22 73 30 74 23 75 29 76 24 77
REMARK SMILES IDX 25 78 26 79 27 80 28 81 51 82 52 83 60 84 53 85 59 86 54 87
REMARK SMILES IDX 55 88 56 89 57 90 58 91 37 92 38 93 46 94 39 95 45 96 40 97
REMARK SMILES IDX 41 98 42 99 43 100 44 101
REMARK H PARENT 5 4 84 24 9 38 65 57 35 68
REMARK Flexibility Score: inf
ROOT
ATOM      1  C   UNL A   1      34.464  33.908  29.298  1.00  0.00     0.227 C 
ATOM      2  O   UNL A   1      34.080  34.749  28.482  1.00  0.00    -0.274 OA
ATOM      3  N   UNL A   1      34.153  34.149  30.605  1.00  0.00    -0.356 N 
ATOM      4  H   UNL A   1      33.458  34.831  30.747  1.00  0.00     0.163 HD
ENDROOT
BRANCH   1   5
ATOM      5  C   UNL A   1      35.231  32.629  28.914  1.00  0.00     0.105 C 
ATOM      6  C   UNL A   1      36.544  33.032  28.229  1.00  0.00     0.023 C 
BRANCH   5   7
ATOM      7  C   UNL A   1      34.427  31.635  28.064  1.00  0.00    -0.033 A 
ATOM      8  C   UNL A   1      34.956  30.397  27.658  1.00  0.00     0.005 A 
ATOM      9  C   UNL A   1      33.137  31.956  27.615  1.00  0.00     0.044 A 
ATOM     10  C   UNL A   1      34.193  29.480  26.924  1.00  0.00     0.012 A 
ATOM     11  C   UNL A   1      32.386  31.046  26.878  1.00  0.00     0.131 A 
ATOM     12  C   UNL A   1      32.887  29.789  26.528  1.00  0.00     0.018 A 
ATOM     13  F   UNL A   1      31.153  31.416  26.495  1.00  0.00    -0.206 F 
BRANCH  12  14
ATOM     14  C   UNL A   1      32.106  28.875  25.693  1.00  0.00    -0.012 A 
ATOM     15  C   UNL A   1      31.415  29.301  24.550  1.00  0.00     0.009 A 
ATOM     16  C   UNL A   1      32.039  27.520  26.052  1.00  0.00     0.056 A 
ATOM     17  C   UNL A   1      30.678  28.389  23.787  1.00  0.00     0.004 A 
ATOM     18  C   UNL A   1      31.282  26.619  25.314  1.00  0.00     0.133 A 
ATOM     19  C   UNL A   1      30.609  27.048  24.170  1.00  0.00     0.047 A 
BRANCH  18  20
ATOM     20  O   UNL A   1      31.140  25.252  25.652  1.00  0.00    -0.410 OA
BRANCH  20  21
ATOM     21  C   UNL A   1      30.061  24.730  26.364  1.00  0.00     0.412 C 
ATOM     22  O   UNL A   1      29.095  25.344  26.805  1.00  0.00    -0.224 OA
ATOM     23  N   UNL A   1      30.116  23.381  26.539  1.00  0.00    -0.321 N 
ATOM     24  H   UNL A   1      29.358  22.976  27.021  1.00  0.00     0.167 HD
BRANCH  23  25
ATOM     25  C   UNL A   1      31.149  22.470  26.105  1.00  0.00     0.119 C 
BRANCH  25  26
ATOM     26  C   UNL A   1      32.484  22.784  26.780  1.00  0.00     0.025 C 
BRANCH  26  27
ATOM     27  C   UNL A   1      33.710  22.695  25.845  1.00  0.00    -0.009 C 
ATOM     28  C   UNL A   1      33.302  22.559  24.369  1.00  0.00     0.003 C 
ATOM     29  C   UNL A   1      34.613  23.923  26.051  1.00  0.00     0.003 C 
ATOM     30  C   UNL A   1      34.510  22.568  23.434  1.00  0.00     0.000 C 
ATOM     31  C   UNL A   1      35.819  23.904  25.118  1.00  0.00     0.000 C 
ATOM     32  C   UNL A   1      35.392  23.792  23.659  1.00  0.00     0.000 C 
ENDBRANCH  26  27
ENDBRANCH  25  26
ENDBRANCH  23  25
ENDBRANCH  20  21
ENDBRANCH  18  20
ENDBRANCH  12  14
ENDBRANCH   5   7
ENDBRANCH   1   5
BRANCH   3  33
ATOM     33  C   UNL A   1      34.688  33.557  31.818  1.00  0.00     0.117 C 
BRANCH  33  34
ATOM     34  C   UNL A   1      36.175  33.879  31.981  1.00  0.00     0.042 C 
BRANCH  34  35
ATOM     35  C   UNL A   1      37.067  32.651  32.131  1.00  0.00     0.118 C 
BRANCH  35  36
ATOM     36  N   UNL A   1      36.338  31.409  31.938  1.00  0.00    -0.352 N 
ATOM     37  C   UNL A   1      36.708  30.275  31.255  1.00  0.00     0.251 C 
ATOM     38  H   UNL A   1      35.448  31.373  32.359  1.00  0.00     0.163 HD
ATOM     39  O   UNL A   1      35.873  29.405  31.026  1.00  0.00    -0.269 OA
BRANCH  37  40
ATOM     40  C   UNL A   1      38.099  30.118  30.773  1.00  0.00     0.039 A 
ATOM     41  C   UNL A   1      39.102  29.811  31.696  1.00  0.00     0.014 A 
ATOM     42  C   UNL A   1      38.414  30.267  29.420  1.00  0.00     0.014 A 
ATOM     43  C   UNL A   1      40.403  29.572  31.251  1.00  0.00     0.010 A 
ATOM     44  C   UNL A   1      39.695  29.959  28.969  1.00  0.00     0.010 A 
ATOM     45  C   UNL A   1      40.701  29.595  29.878  1.00  0.00    -0.014 A 
BRANCH  45  46
ATOM     46  C   UNL A   1      42.036  29.191  29.368  1.00  0.00     0.031 A 
ATOM     47  C   UNL A   1      43.138  30.207  29.224  1.00  0.00     0.074 A 
ATOM     48  C   UNL A   1      42.226  27.922  28.947  1.00  0.00     0.049 A 
ATOM     49  N   UNL A   1      44.330  30.058  28.707  1.00  0.00    -0.248 NA
ATOM     50  C   UNL A   1      42.859  31.571  29.704  1.00  0.00     0.031 C 
ATOM     51  C   UNL A   1      41.224  26.854  29.000  1.00  0.00     0.029 A 
ATOM     52  N   UNL A   1      43.318  27.320  28.371  1.00  0.00    -0.354 N 
ATOM     53  C   UNL A   1      44.933  31.308  28.772  1.00  0.00     0.074 A 
ATOM     54  C   UNL A   1      43.967  32.213  29.357  1.00  0.00     0.031 C 
ATOM     55  C   UNL A   1      41.752  25.729  28.491  1.00  0.00     0.029 A 
ATOM     56  C   UNL A   1      43.106  26.004  28.026  1.00  0.00     0.049 A 
ATOM     57  H   UNL A   1      44.173  27.784  28.221  1.00  0.00     0.167 HD
ATOM     58  C   UNL A   1      46.179  31.666  28.385  1.00  0.00     0.031 A 
ATOM     59  C   UNL A   1      43.897  25.125  27.378  1.00  0.00     0.031 A 
ATOM     60  C   UNL A   1      47.141  30.757  27.820  1.00  0.00     0.049 A 
ATOM     61  C   UNL A   1      45.267  25.563  26.934  1.00  0.00     0.074 A 
ATOM     62  C   UNL A   1      48.460  31.009  27.481  1.00  0.00     0.029 A 
ATOM     63  N   UNL A   1      46.890  29.434  27.494  1.00  0.00    -0.354 N 
ATOM     64  N   UNL A   1      45.856  26.723  27.106  1.00  0.00    -0.248 NA
ATOM     65  C   UNL A   1      46.080  24.577  26.208  1.00  0.00     0.031 C 
ATOM     66  C   UNL A   1      48.982  29.860  26.880  1.00  0.00     0.029 A 
ATOM     67  C   UNL A   1      48.012  28.872  26.910  1.00  0.00     0.049 A 
ATOM     68  H   UNL A   1      46.040  28.964  27.655  1.00  0.00     0.167 HD
ATOM     69  C   UNL A   1      47.115  26.595  26.529  1.00  0.00     0.074 A 
ATOM     70  C   UNL A   1      47.212  25.242  26.025  1.00  0.00     0.031 C 
ATOM     71  C   UNL A   1      48.100  27.520  26.420  1.00  0.00     0.031 A 
BRANCH  58  72
ATOM     72  C   UNL A   1      46.588  33.109  28.532  1.00  0.00    -0.014 A 
ATOM     73  C   UNL A   1      47.279  33.561  29.670  1.00  0.00     0.010 A 
ATOM     74  C   UNL A   1      46.369  34.001  27.465  1.00  0.00     0.010 A 
ATOM     75  C   UNL A   1      47.731  34.882  29.744  1.00  0.00     0.020 A 
ATOM     76  C   UNL A   1      46.842  35.315  27.524  1.00  0.00     0.020 A 
ATOM     77  C   UNL A   1      47.514  35.749  28.668  1.00  0.00     0.054 A 
BRANCH  77  78
ATOM     78  S   UNL A   1      48.171  37.436  28.766  1.00  0.00     0.124 S 
ATOM     79  O   UNL A   1      49.612  37.202  28.715  1.00  0.00    -0.237 OA
ATOM     80  O   UNL A   1      47.597  38.072  27.582  1.00  0.00    -0.237 OA
ATOM     81  O   UNL A   1      47.668  37.933  30.043  1.00  0.00    -0.744 OA
ENDBRANCH  77  78
ENDBRANCH  58  72
BRANCH  59  82
ATOM     82  C   UNL A   1      43.406  23.751  27.074  1.00  0.00    -0.014 A 
ATOM     83  C   UNL A   1      43.432  22.745  28.056  1.00  0.00     0.010 A 
ATOM     84  C   UNL A   1      42.939  23.433  25.786  1.00  0.00     0.010 A 
ATOM     85  C   UNL A   1      43.039  21.439  27.745  1.00  0.00     0.020 A 
ATOM     86  C   UNL A   1      42.510  22.138  25.480  1.00  0.00     0.020 A 
ATOM     87  C   UNL A   1      42.583  21.145  26.457  1.00  0.00     0.054 A 
BRANCH  87  88
ATOM     88  S   UNL A   1      42.068  19.447  26.077  1.00  0.00     0.124 S 
ATOM     89  O   UNL A   1      42.430  18.740  27.301  1.00  0.00    -0.237 OA
ATOM     90  O   UNL A   1      40.636  19.601  25.833  1.00  0.00    -0.237 OA
ATOM     91  O   UNL A   1      42.859  19.105  24.897  1.00  0.00    -0.744 OA
ENDBRANCH  87  88
ENDBRANCH  59  82
BRANCH  71  92
ATOM     92  C   UNL A   1      49.382  27.103  25.752  1.00  0.00    -0.014 A 
ATOM     93  C   UNL A   1      49.646  27.441  24.413  1.00  0.00     0.010 A 
ATOM     94  C   UNL A   1      50.373  26.441  26.501  1.00  0.00     0.010 A 
ATOM     95  C   UNL A   1      50.874  27.114  23.831  1.00  0.00     0.020 A 
ATOM     96  C   UNL A   1      51.613  26.140  25.931  1.00  0.00     0.020 A 
ATOM     97  C   UNL A   1      51.853  26.472  24.596  1.00  0.00     0.054 A 
BRANCH  97  98
ATOM     98  S   UNL A   1      53.465  26.132  23.838  1.00  0.00     0.124 S 
ATOM     99  O   UNL A   1      53.100  25.873  22.449  1.00  0.00    -0.237 OA
ATOM    100  O   UNL A   1      54.196  27.374  24.076  1.00  0.00    -0.237 OA
ATOM    101  O   UNL A   1      53.960  24.974  24.579  1.00  0.00    -0.744 OA
ENDBRANCH  97  98
ENDBRANCH  71  92
ENDBRANCH  45  46
ENDBRANCH  37  40
ENDBRANCH  35  36
ENDBRANCH  34  35
ENDBRANCH  33  34
ENDBRANCH   3  33
TORSDOF 20
ENDMDL
MODEL 3
REMARK VINA RESULT:     -11.3      3.492      9.968
REMARK SMILES C[C@@H](C(=O)NCCCNC(=O)c1ccc(-c2c3nc(c(-c4ccc(S(=O)(=O)[O-])cc4)c4ccc([nH]4)c(-c4ccc(S(=O)(=O)[O-])cc4)c4nc(c(-c5ccc(S(=O)(=O)[O-])cc5)c5ccc2[nH]5)C=C4)C=C3)cc1)c1ccc(-c2cccc(OC(=O)NCCC3CCCCC3)c2)c(F)c1
REMARK SMILES IDX 3 1 4 2 5 3 2 5 1 6 72 7 73 8 96 9 74 10 94 11 75 12 95 13
REMARK SMILES IDX 76 14 77 15 93 16 78 17 80 18 79 19 81 20 82 21 83 22 84 23
REMARK SMILES IDX 85 25 86 26 87 27 88 28 92 29 89 30 91 31 90 32 6 33 7 34
REMARK SMILES IDX 8 35 9 36 10 37 11 39 12 40 13 41 71 42 14 43 70 44 15 45
REMARK SMILES IDX 16 46 17 47 64 48 18 49 69 50 63 51 65 52 19 53 68 54 62 55
REMARK SMILES IDX 61 56 20 58 50 59 31 60 49 61 32 62 35 63 48 64 66 65 33 66
REMARK SMILES IDX 34 67 47 69 67 70 36 71 21 72 22 73 30 74 23 75 29 76 24 77
REMARK SMILES IDX 25 78 26 79 27 80 28 81 51 82 52 83 60 84 53 85 59 86 54 87
REMARK SMILES IDX 55 88 56 89 57 90 58 91 37 92 38 93 46 94 39 95 45 96 40 97
REMARK SMILES IDX 41 98 42 99 43 100 44 101
REMARK H PARENT 5 4 84 24 9 38 65 57 35 68
REMARK Flexibility Score: inf
ROOT
ATOM      1  C   UNL A   1      41.599  21.812  27.626  1.00  0.00     0.227 C 
ATOM      2  O   UNL A   1      42.065  22.694  28.351  1.00  0.00    -0.274 OA
ATOM      3  N   UNL A   1      41.578  20.551  28.148  1.00  0.00    -0.356 N 
ATOM      4  H   UNL A   1      41.708  20.502  29.123  1.00  0.00     0.163 HD
ENDROOT
BRANCH   1   5
ATOM      5  C   UNL A   1      41.038  22.070  26.216  1.00  0.00     0.105 C 
ATOM      6  C   UNL A   1      41.903  23.138  25.532  1.00  0.00     0.023 C 
BRANCH   5   7
ATOM      7  C   UNL A   1      39.547  22.435  26.180  1.00  0.00    -0.033 A 
ATOM      8  C   UNL A   1      39.075  23.691  26.601  1.00  0.00     0.005 A 
ATOM      9  C   UNL A   1      38.589  21.497  25.768  1.00  0.00     0.044 A 
ATOM     10  C   UNL A   1      37.717  24.028  26.517  1.00  0.00     0.012 A 
ATOM     11  C   UNL A   1      37.241  21.833  25.694  1.00  0.00     0.131 A 
ATOM     12  C   UNL A   1      36.777  23.102  26.052  1.00  0.00     0.018 A 
ATOM     13  F   UNL A   1      36.383  20.889  25.276  1.00  0.00    -0.206 F 
BRANCH  12  14
ATOM     14  C   UNL A   1      35.346  23.411  26.034  1.00  0.00    -0.012 A 
ATOM     15  C   UNL A   1      34.476  23.019  27.061  1.00  0.00     0.009 A 
ATOM     16  C   UNL A   1      34.821  24.120  24.943  1.00  0.00     0.056 A 
ATOM     17  C   UNL A   1      33.115  23.334  26.994  1.00  0.00     0.004 A 
ATOM     18  C   UNL A   1      33.464  24.407  24.860  1.00  0.00     0.133 A 
ATOM     19  C   UNL A   1      32.608  24.026  25.893  1.00  0.00     0.047 A 
BRANCH  18  20
ATOM     20  O   UNL A   1      32.870  25.078  23.765  1.00  0.00    -0.410 OA
BRANCH  20  21
ATOM     21  C   UNL A   1      33.120  24.770  22.428  1.00  0.00     0.412 C 
ATOM     22  O   UNL A   1      33.770  25.429  21.623  1.00  0.00    -0.224 OA
ATOM     23  N   UNL A   1      32.588  23.582  22.027  1.00  0.00    -0.321 N 
ATOM     24  H   UNL A   1      32.763  23.324  21.093  1.00  0.00     0.167 HD
BRANCH  23  25
ATOM     25  C   UNL A   1      31.799  22.655  22.802  1.00  0.00     0.119 C 
BRANCH  25  26
ATOM     26  C   UNL A   1      31.946  21.227  22.277  1.00  0.00     0.025 C 
BRANCH  26  27
ATOM     27  C   UNL A   1      32.678  20.263  23.237  1.00  0.00    -0.009 C 
ATOM     28  C   UNL A   1      32.365  20.569  24.710  1.00  0.00     0.003 C 
ATOM     29  C   UNL A   1      32.315  18.809  22.892  1.00  0.00     0.003 C 
ATOM     30  C   UNL A   1      33.010  19.559  25.658  1.00  0.00     0.000 C 
ATOM     31  C   UNL A   1      32.981  17.818  23.841  1.00  0.00     0.000 C 
ATOM     32  C   UNL A   1      32.639  18.125  25.294  1.00  0.00     0.000 C 
ENDBRANCH  26  27
ENDBRANCH  25  26
ENDBRANCH  23  25
ENDBRANCH  20  21
ENDBRANCH  18  20
ENDBRANCH  12  14
ENDBRANCH   5   7
ENDBRANCH   1   5
BRANCH   3  33
ATOM     33  C   UNL A   1      41.394  19.270  27.490  1.00  0.00     0.117 C 
BRANCH  33  34
ATOM     34  C   UNL A   1      42.693  18.789  26.842  1.00  0.00     0.042 C 
BRANCH  34  35
ATOM     35  C   UNL A   1      42.934  19.341  25.441  1.00  0.00     0.118 C 
BRANCH  35  36
ATOM     36  N   UNL A   1      44.237  18.969  24.915  1.00  0.00    -0.352 N 
ATOM     37  C   UNL A   1      45.300  19.768  24.569  1.00  0.00     0.251 C 
ATOM     38  H   UNL A   1      44.380  18.003  24.789  1.00  0.00     0.163 HD
ATOM     39  O   UNL A   1      46.243  19.287  23.946  1.00  0.00    -0.269 OA
BRANCH  37  40
ATOM     40  C   UNL A   1      45.296  21.205  24.920  1.00  0.00     0.039 A 
ATOM     41  C   UNL A   1      45.457  21.574  26.258  1.00  0.00     0.014 A 
ATOM     42  C   UNL A   1      45.137  22.186  23.938  1.00  0.00     0.014 A 
ATOM     43  C   UNL A   1      45.544  22.925  26.599  1.00  0.00     0.010 A 
ATOM     44  C   UNL A   1      45.295  23.530  24.269  1.00  0.00     0.010 A 
ATOM     45  C   UNL A   1      45.513  23.913  25.601  1.00  0.00    -0.014 A 
BRANCH  45  46
ATOM     46  C   UNL A   1      45.760  25.344  25.919  1.00  0.00     0.031 A 
ATOM     47  C   UNL A   1      47.156  25.905  25.878  1.00  0.00     0.074 A 
ATOM     48  C   UNL A   1      44.733  26.114  26.336  1.00  0.00     0.049 A 
ATOM     49  N   UNL A   1      47.572  27.098  26.218  1.00  0.00    -0.248 NA
ATOM     50  C   UNL A   1      48.227  25.007  25.414  1.00  0.00     0.031 C 
ATOM     51  C   UNL A   1      43.338  25.675  26.454  1.00  0.00     0.029 A 
ATOM     52  N   UNL A   1      44.702  27.421  26.758  1.00  0.00    -0.354 N 
ATOM     53  C   UNL A   1      48.950  27.087  26.037  1.00  0.00     0.074 A 
ATOM     54  C   UNL A   1      49.305  25.761  25.580  1.00  0.00     0.031 C 
ATOM     55  C   UNL A   1      42.592  26.696  26.904  1.00  0.00     0.029 A 
ATOM     56  C   UNL A   1      43.454  27.843  27.160  1.00  0.00     0.049 A 
ATOM     57  H   UNL A   1      45.496  28.002  26.771  1.00  0.00     0.167 HD
ATOM     58  C   UNL A   1      49.835  28.092  26.230  1.00  0.00     0.031 A 
ATOM     59  C   UNL A   1      43.053  29.010  27.703  1.00  0.00     0.031 A 
ATOM     60  C   UNL A   1      49.471  29.414  26.667  1.00  0.00     0.049 A 
ATOM     61  C   UNL A   1      44.067  30.098  27.932  1.00  0.00     0.074 A 
ATOM     62  C   UNL A   1      50.288  30.524  26.803  1.00  0.00     0.029 A 
ATOM     63  N   UNL A   1      48.200  29.803  27.055  1.00  0.00    -0.354 N 
ATOM     64  N   UNL A   1      45.349  30.101  27.650  1.00  0.00    -0.248 NA
ATOM     65  C   UNL A   1      43.585  31.341  28.552  1.00  0.00     0.031 C 
ATOM     66  C   UNL A   1      49.525  31.562  27.346  1.00  0.00     0.029 A 
ATOM     67  C   UNL A   1      48.219  31.121  27.480  1.00  0.00     0.049 A 
ATOM     68  H   UNL A   1      47.401  29.228  27.031  1.00  0.00     0.167 HD
ATOM     69  C   UNL A   1      45.817  31.351  28.039  1.00  0.00     0.074 A 
ATOM     70  C   UNL A   1      44.681  32.086  28.552  1.00  0.00     0.031 C 
ATOM     71  C   UNL A   1      47.079  31.844  27.982  1.00  0.00     0.031 A 
BRANCH  58  72
ATOM     72  C   UNL A   1      51.297  27.814  25.992  1.00  0.00    -0.014 A 
ATOM     73  C   UNL A   1      51.908  28.114  24.762  1.00  0.00     0.010 A 
ATOM     74  C   UNL A   1      52.092  27.345  27.055  1.00  0.00     0.010 A 
ATOM     75  C   UNL A   1      53.284  27.935  24.595  1.00  0.00     0.020 A 
ATOM     76  C   UNL A   1      53.472  27.190  26.900  1.00  0.00     0.020 A 
ATOM     77  C   UNL A   1      54.058  27.480  25.668  1.00  0.00     0.054 A 
BRANCH  77  78
ATOM     78  S   UNL A   1      55.851  27.323  25.440  1.00  0.00     0.124 S 
ATOM     79  O   UNL A   1      56.289  26.908  26.770  1.00  0.00    -0.237 OA
ATOM     80  O   UNL A   1      55.953  26.303  24.399  1.00  0.00    -0.237 OA
ATOM     81  O   UNL A   1      56.270  28.664  25.039  1.00  0.00    -0.744 OA
ENDBRANCH  77  78
ENDBRANCH  58  72
BRANCH  59  82
ATOM     82  C   UNL A   1      41.631  29.204  28.106  1.00  0.00    -0.014 A 
ATOM     83  C   UNL A   1      41.269  29.255  29.463  1.00  0.00     0.010 A 
ATOM     84  C   UNL A   1      40.624  29.306  27.128  1.00  0.00     0.010 A 
ATOM     85  C   UNL A   1      39.926  29.364  29.836  1.00  0.00     0.020 A 
ATOM     86  C   UNL A   1      39.283  29.452  27.496  1.00  0.00     0.020 A 
ATOM     87  C   UNL A   1      38.941  29.459  28.848  1.00  0.00     0.054 A 
BRANCH  87  88
ATOM     88  S   UNL A   1      37.205  29.610  29.353  1.00  0.00     0.124 S 
ATOM     89  O   UNL A   1      37.071  31.050  29.548  1.00  0.00    -0.237 OA
ATOM     90  O   UNL A   1      36.494  29.056  28.204  1.00  0.00    -0.237 OA
ATOM     91  O   UNL A   1      37.131  28.804  30.569  1.00  0.00    -0.744 OA
ENDBRANCH  87  88
ENDBRANCH  59  82
BRANCH  71  92
ATOM     92  C   UNL A   1      47.305  33.252  28.463  1.00  0.00    -0.014 A 
ATOM     93  C   UNL A   1      47.701  33.511  29.787  1.00  0.00     0.010 A 
ATOM     94  C   UNL A   1      47.204  34.322  27.555  1.00  0.00     0.010 A 
ATOM     95  C   UNL A   1      47.982  34.817  30.198  1.00  0.00     0.020 A 
ATOM     96  C   UNL A   1      47.513  35.625  27.954  1.00  0.00     0.020 A 
ATOM     97  C   UNL A   1      47.893  35.865  29.275  1.00  0.00     0.054 A 
BRANCH  97  98
ATOM     98  S   UNL A   1      48.340  37.538  29.815  1.00  0.00     0.124 S 
ATOM     99  O   UNL A   1      49.445  37.863  28.917  1.00  0.00    -0.237 OA
ATOM    100  O   UNL A   1      47.106  38.286  29.590  1.00  0.00    -0.237 OA
ATOM    101  O   UNL A   1      48.710  37.364  31.218  1.00  0.00    -0.744 OA
ENDBRANCH  97  98
ENDBRANCH  71  92
ENDBRANCH  45  46
ENDBRANCH  37  40
ENDBRANCH  35  36
ENDBRANCH  34  35
ENDBRANCH  33  34
ENDBRANCH   3  33
TORSDOF 20
ENDMDL
