MODEL 1
REMARK VINA RESULT:     -14.0      0.000      0.000
REMARK SMILES CC1=Nc2c(c(C)nn2-c2ccc(F)cc2)[C@H](c2ccc(C(=O)NCCCNC(=O)c3ccc(-c4c5nc(c(-c6ccc(S(=O)(=O)[O-])cc6)c6ccc([nH]6)c(-c6ccc(S(=O)(=O)[O-])cc6)c6nc(c(-c7ccc(S(=O)(=O)[O-])cc7)c7ccc4[nH]7)C=C6)C=C5)cc3)cc2)S1
REMARK SMILES IDX 26 1 25 2 24 3 22 4 23 5 21 7 18 8 19 9 92 10 20 11 91 12
REMARK SMILES IDX 17 13 1 14 2 15 3 16 93 17 4 18 5 19 9 20 6 21 8 22 7 23
REMARK SMILES IDX 10 24 11 25 16 26 12 27 15 28 13 29 14 30 27 31 28 32 29 33
REMARK SMILES IDX 30 35 31 36 32 37 90 38 33 39 89 40 34 41 35 42 36 43 83 44
REMARK SMILES IDX 37 45 88 46 82 47 84 48 38 49 87 50 81 51 80 52 39 54 69 55
REMARK SMILES IDX 50 56 68 57 51 58 54 59 67 60 85 61 52 62 53 63 66 65 86 66
REMARK SMILES IDX 55 67 40 68 41 69 49 70 42 71 48 72 43 73 44 74 45 75 46 76
REMARK SMILES IDX 47 77 70 78 71 79 79 80 72 81 78 82 73 83 74 84 75 85 76 86
REMARK SMILES IDX 77 87 56 88 57 89 65 90 58 91 64 92 59 93 60 94 61 95 62 96
REMARK SMILES IDX 63 97
REMARK H PARENT 24 6 28 34 84 53 54 64
REMARK Flexibility Score: inf
ROOT
ATOM      1  C   UNL A   1      37.501  21.213  25.208  1.00  0.00     0.042 C 
ENDROOT
BRANCH   1   2
ATOM      2  C   UNL A   1      36.068  21.518  25.662  1.00  0.00     0.118 C 
BRANCH   2   3
ATOM      3  N   UNL A   1      35.156  20.448  25.291  1.00  0.00    -0.352 N 
ATOM      4  C   UNL A   1      33.912  20.476  24.715  1.00  0.00     0.251 C 
ATOM      5  O   UNL A   1      33.369  19.407  24.441  1.00  0.00    -0.269 OA
ATOM      6  H   UNL A   1      35.492  19.544  25.486  1.00  0.00     0.163 HD
BRANCH   4   7
ATOM      7  C   UNL A   1      33.236  21.746  24.346  1.00  0.00     0.039 A 
ATOM      8  C   UNL A   1      31.831  24.143  23.800  1.00  0.00    -0.030 A 
ATOM      9  C   UNL A   1      32.179  23.788  25.116  1.00  0.00     0.006 A 
ATOM     10  C   UNL A   1      32.236  23.290  22.765  1.00  0.00     0.006 A 
ATOM     11  C   UNL A   1      32.887  22.614  25.383  1.00  0.00     0.014 A 
ATOM     12  C   UNL A   1      32.946  22.121  23.035  1.00  0.00     0.014 A 
BRANCH   8  13
ATOM     13  C   UNL A   1      31.121  25.463  23.546  1.00  0.00     0.119 C 
ATOM     14  C   UNL A   1      34.050  27.800  21.786  1.00  0.00     0.075 C 
ATOM     15  C   UNL A   1      32.983  27.362  22.755  1.00  0.00     0.074 C 
ATOM     16  N   UNL A   1      33.069  27.780  23.977  1.00  0.00    -0.227 NA
ATOM     17  S   UNL A   1      31.707  26.364  22.065  1.00  0.00    -0.098 SA
ATOM     18  C   UNL A   1      32.169  27.315  24.879  1.00  0.00     0.161 A 
ATOM     19  C   UNL A   1      31.300  26.254  24.786  1.00  0.00     0.038 A 
ATOM     20  N   UNL A   1      32.048  27.805  26.167  1.00  0.00    -0.215 N 
ATOM     21  C   UNL A   1      30.731  26.134  26.082  1.00  0.00     0.067 A 
ATOM     22  N   UNL A   1      31.257  27.020  26.939  1.00  0.00    -0.171 NA
ATOM     23  C   UNL A   1      29.711  25.169  26.565  1.00  0.00     0.069 C 
BRANCH  20  24
ATOM     24  C   UNL A   1      32.585  29.013  26.665  1.00  0.00     0.067 A 
ATOM     25  C   UNL A   1      31.843  30.196  26.534  1.00  0.00     0.031 A 
ATOM     26  C   UNL A   1      33.840  29.017  27.283  1.00  0.00     0.031 A 
ATOM     27  C   UNL A   1      32.364  31.392  27.019  1.00  0.00     0.041 A 
ATOM     28  C   UNL A   1      34.376  30.231  27.718  1.00  0.00     0.041 A 
ATOM     29  C   UNL A   1      33.632  31.402  27.589  1.00  0.00     0.123 A 
ATOM     30  F   UNL A   1      34.143  32.562  28.022  1.00  0.00    -0.207 F 
ENDBRANCH  20  24
ENDBRANCH   8  13
ENDBRANCH   4   7
ENDBRANCH   2   3
ENDBRANCH   1   2
BRANCH   1  31
ATOM     31  C   UNL A   1      38.481  22.245  25.734  1.00  0.00     0.118 C 
BRANCH  31  32
ATOM     32  N   UNL A   1      39.563  21.635  26.524  1.00  0.00    -0.352 N 
ATOM     33  C   UNL A   1      40.627  22.269  27.132  1.00  0.00     0.251 C 
ATOM     34  H   UNL A   1      39.523  20.657  26.632  1.00  0.00     0.163 HD
ATOM     35  O   UNL A   1      41.654  21.638  27.424  1.00  0.00    -0.269 OA
BRANCH  33  36
ATOM     36  C   UNL A   1      40.493  23.691  27.479  1.00  0.00     0.039 A 
ATOM     37  C   UNL A   1      39.284  24.389  27.534  1.00  0.00     0.014 A 
ATOM     38  C   UNL A   1      41.673  24.313  27.854  1.00  0.00     0.014 A 
ATOM     39  C   UNL A   1      39.311  25.721  27.959  1.00  0.00     0.010 A 
ATOM     40  C   UNL A   1      41.581  25.401  28.658  1.00  0.00     0.010 A 
ATOM     41  C   UNL A   1      40.500  26.234  28.503  1.00  0.00    -0.014 A 
BRANCH  41  42
ATOM     42  C   UNL A   1      40.635  27.521  29.170  1.00  0.00     0.031 A 
ATOM     43  C   UNL A   1      41.648  28.358  28.484  1.00  0.00     0.074 A 
ATOM     44  C   UNL A   1      39.779  27.977  30.123  1.00  0.00     0.049 A 
ATOM     45  N   UNL A   1      42.884  28.465  28.831  1.00  0.00    -0.248 NA
ATOM     46  C   UNL A   1      41.372  28.883  27.132  1.00  0.00     0.031 C 
ATOM     47  C   UNL A   1      38.576  27.348  30.694  1.00  0.00     0.029 A 
ATOM     48  N   UNL A   1      39.787  29.174  30.777  1.00  0.00    -0.354 N 
ATOM     49  C   UNL A   1      43.444  29.355  27.929  1.00  0.00     0.074 A 
ATOM     50  C   UNL A   1      42.573  29.354  26.783  1.00  0.00     0.031 C 
ATOM     51  C   UNL A   1      37.872  28.252  31.427  1.00  0.00     0.029 A 
ATOM     52  C   UNL A   1      38.638  29.481  31.522  1.00  0.00     0.049 A 
ATOM     53  H   UNL A   1      40.556  29.787  30.729  1.00  0.00     0.167 HD
ATOM     54  C   UNL A   1      44.371  30.259  28.351  1.00  0.00     0.031 A 
ATOM     55  C   UNL A   1      38.379  30.645  32.197  1.00  0.00     0.031 A 
ATOM     56  C   UNL A   1      44.822  29.937  29.687  1.00  0.00     0.049 A 
ATOM     57  C   UNL A   1      39.701  31.285  32.432  1.00  0.00     0.074 A 
ATOM     58  C   UNL A   1      45.440  28.849  30.268  1.00  0.00     0.029 A 
ATOM     59  N   UNL A   1      44.204  30.624  30.709  1.00  0.00    -0.354 N 
ATOM     60  N   UNL A   1      40.607  30.749  33.204  1.00  0.00    -0.248 NA
ATOM     61  C   UNL A   1      40.201  32.168  31.389  1.00  0.00     0.031 C 
ATOM     62  C   UNL A   1      44.768  28.671  31.514  1.00  0.00     0.029 A 
ATOM     63  C   UNL A   1      43.875  29.729  31.695  1.00  0.00     0.049 A 
ATOM     64  H   UNL A   1      44.029  31.592  30.729  1.00  0.00     0.167 HD
ATOM     65  C   UNL A   1      41.785  30.845  32.478  1.00  0.00     0.074 A 
ATOM     66  C   UNL A   1      41.477  31.768  31.379  1.00  0.00     0.031 C 
ATOM     67  C   UNL A   1      42.788  29.929  32.632  1.00  0.00     0.031 A 
BRANCH  54  68
ATOM     68  C   UNL A   1      44.509  31.651  27.792  1.00  0.00    -0.014 A 
ATOM     69  C   UNL A   1      45.672  31.955  27.057  1.00  0.00     0.010 A 
ATOM     70  C   UNL A   1      43.693  32.734  28.179  1.00  0.00     0.010 A 
ATOM     71  C   UNL A   1      46.028  33.277  26.773  1.00  0.00     0.020 A 
ATOM     72  C   UNL A   1      44.021  34.056  27.870  1.00  0.00     0.020 A 
ATOM     73  C   UNL A   1      45.200  34.320  27.185  1.00  0.00     0.054 A 
BRANCH  73  74
ATOM     74  S   UNL A   1      45.697  36.023  26.836  1.00  0.00     0.124 S 
ATOM     75  O   UNL A   1      44.410  36.684  26.646  1.00  0.00    -0.237 OA
ATOM     76  O   UNL A   1      46.421  36.384  28.052  1.00  0.00    -0.237 OA
ATOM     77  O   UNL A   1      46.524  35.899  25.637  1.00  0.00    -0.744 OA
ENDBRANCH  73  74
ENDBRANCH  54  68
BRANCH  55  78
ATOM     78  C   UNL A   1      37.110  31.438  32.306  1.00  0.00    -0.014 A 
ATOM     79  C   UNL A   1      36.817  32.244  33.434  1.00  0.00     0.010 A 
ATOM     80  C   UNL A   1      36.336  31.664  31.152  1.00  0.00     0.010 A 
ATOM     81  C   UNL A   1      35.842  33.268  33.385  1.00  0.00     0.020 A 
ATOM     82  C   UNL A   1      35.368  32.684  31.093  1.00  0.00     0.020 A 
ATOM     83  C   UNL A   1      35.139  33.499  32.201  1.00  0.00     0.054 A 
BRANCH  83  84
ATOM     84  S   UNL A   1      34.021  34.936  32.064  1.00  0.00     0.124 S 
ATOM     85  O   UNL A   1      34.761  35.982  32.764  1.00  0.00    -0.237 OA
ATOM     86  O   UNL A   1      33.896  35.112  30.619  1.00  0.00    -0.237 OA
ATOM     87  O   UNL A   1      32.801  34.488  32.736  1.00  0.00    -0.744 OA
ENDBRANCH  83  84
ENDBRANCH  55  78
BRANCH  67  88
ATOM     88  C   UNL A   1      42.708  28.948  33.784  1.00  0.00    -0.014 A 
ATOM     89  C   UNL A   1      43.293  29.130  35.055  1.00  0.00     0.010 A 
ATOM     90  C   UNL A   1      41.855  27.849  33.597  1.00  0.00     0.010 A 
ATOM     91  C   UNL A   1      43.048  28.213  36.096  1.00  0.00     0.020 A 
ATOM     92  C   UNL A   1      41.592  26.947  34.628  1.00  0.00     0.020 A 
ATOM     93  C   UNL A   1      42.201  27.122  35.870  1.00  0.00     0.054 A 
BRANCH  93  94
ATOM     94  S   UNL A   1      41.873  25.930  37.200  1.00  0.00     0.124 S 
ATOM     95  O   UNL A   1      42.078  24.647  36.534  1.00  0.00    -0.237 OA
ATOM     96  O   UNL A   1      42.870  26.284  38.208  1.00  0.00    -0.237 OA
ATOM     97  O   UNL A   1      40.490  26.210  37.586  1.00  0.00    -0.744 OA
ENDBRANCH  93  94
ENDBRANCH  67  88
ENDBRANCH  41  42
ENDBRANCH  33  36
ENDBRANCH  31  32
ENDBRANCH   1  31
TORSDOF 15
ENDMDL
MODEL 2
REMARK VINA RESULT:     -13.8      3.136      9.705
REMARK SMILES CC1=Nc2c(c(C)nn2-c2ccc(F)cc2)[C@H](c2ccc(C(=O)NCCCNC(=O)c3ccc(-c4c5nc(c(-c6ccc(S(=O)(=O)[O-])cc6)c6ccc([nH]6)c(-c6ccc(S(=O)(=O)[O-])cc6)c6nc(c(-c7ccc(S(=O)(=O)[O-])cc7)c7ccc4[nH]7)C=C6)C=C5)cc3)cc2)S1
REMARK SMILES IDX 26 1 25 2 24 3 22 4 23 5 21 7 18 8 19 9 92 10 20 11 91 12
REMARK SMILES IDX 17 13 1 14 2 15 3 16 93 17 4 18 5 19 9 20 6 21 8 22 7 23
REMARK SMILES IDX 10 24 11 25 16 26 12 27 15 28 13 29 14 30 27 31 28 32 29 33
REMARK SMILES IDX 30 35 31 36 32 37 90 38 33 39 89 40 34 41 35 42 36 43 83 44
REMARK SMILES IDX 37 45 88 46 82 47 84 48 38 49 87 50 81 51 80 52 39 54 69 55
REMARK SMILES IDX 50 56 68 57 51 58 54 59 67 60 85 61 52 62 53 63 66 65 86 66
REMARK SMILES IDX 55 67 40 68 41 69 49 70 42 71 48 72 43 73 44 74 45 75 46 76
REMARK SMILES IDX 47 77 70 78 71 79 79 80 72 81 78 82 73 83 74 84 75 85 76 86
REMARK SMILES IDX 77 87 56 88 57 89 65 90 58 91 64 92 59 93 60 94 61 95 62 96
REMARK SMILES IDX 63 97
REMARK H PARENT 24 6 28 34 84 53 54 64
REMARK Flexibility Score: inf
ROOT
ATOM      1  C   UNL A   1      32.417  30.868  26.752  1.00  0.00     0.042 C 
ENDROOT
BRANCH   1   2
ATOM      2  C   UNL A   1      32.528  29.987  25.500  1.00  0.00     0.118 C 
BRANCH   2   3
ATOM      3  N   UNL A   1      31.323  30.066  24.689  1.00  0.00    -0.352 N 
ATOM      4  C   UNL A   1      30.569  29.090  24.090  1.00  0.00     0.251 C 
ATOM      5  O   UNL A   1      29.541  29.423  23.502  1.00  0.00    -0.269 OA
ATOM      6  H   UNL A   1      30.990  30.981  24.546  1.00  0.00     0.163 HD
BRANCH   4   7
ATOM      7  C   UNL A   1      30.909  27.648  24.192  1.00  0.00     0.039 A 
ATOM      8  C   UNL A   1      31.396  24.860  24.278  1.00  0.00    -0.030 A 
ATOM      9  C   UNL A   1      30.935  25.481  23.103  1.00  0.00     0.006 A 
ATOM     10  C   UNL A   1      31.641  25.672  25.394  1.00  0.00     0.006 A 
ATOM     11  C   UNL A   1      30.712  26.859  23.056  1.00  0.00     0.014 A 
ATOM     12  C   UNL A   1      31.421  27.048  25.341  1.00  0.00     0.014 A 
BRANCH   8  13
ATOM     13  C   UNL A   1      31.692  23.369  24.268  1.00  0.00     0.119 C 
ATOM     14  C   UNL A   1      32.567  22.542  28.230  1.00  0.00     0.075 C 
ATOM     15  C   UNL A   1      32.728  22.629  26.734  1.00  0.00     0.074 C 
ATOM     16  N   UNL A   1      33.926  22.750  26.261  1.00  0.00    -0.227 NA
ATOM     17  S   UNL A   1      31.234  22.497  25.810  1.00  0.00    -0.098 SA
ATOM     18  C   UNL A   1      34.075  22.925  24.925  1.00  0.00     0.161 A 
ATOM     19  C   UNL A   1      33.140  23.255  23.973  1.00  0.00     0.038 A 
ATOM     20  N   UNL A   1      35.297  22.901  24.277  1.00  0.00    -0.215 N 
ATOM     21  C   UNL A   1      33.888  23.468  22.784  1.00  0.00     0.067 A 
ATOM     22  N   UNL A   1      35.205  23.341  22.998  1.00  0.00    -0.171 NA
ATOM     23  C   UNL A   1      33.400  23.831  21.429  1.00  0.00     0.069 C 
BRANCH  20  24
ATOM     24  C   UNL A   1      36.517  22.411  24.794  1.00  0.00     0.067 A 
ATOM     25  C   UNL A   1      37.376  23.292  25.469  1.00  0.00     0.031 A 
ATOM     26  C   UNL A   1      36.854  21.063  24.631  1.00  0.00     0.031 A 
ATOM     27  C   UNL A   1      38.582  22.821  25.979  1.00  0.00     0.041 A 
ATOM     28  C   UNL A   1      38.090  20.614  25.100  1.00  0.00     0.041 A 
ATOM     29  C   UNL A   1      38.936  21.492  25.774  1.00  0.00     0.123 A 
ATOM     30  F   UNL A   1      40.114  21.053  26.236  1.00  0.00    -0.207 F 
ENDBRANCH  20  24
ENDBRANCH   8  13
ENDBRANCH   4   7
ENDBRANCH   2   3
ENDBRANCH   1   2
BRANCH   1  31
ATOM     31  C   UNL A   1      33.702  30.852  27.556  1.00  0.00     0.118 C 
BRANCH  31  32
ATOM     32  N   UNL A   1      34.234  32.205  27.786  1.00  0.00    -0.352 N 
ATOM     33  C   UNL A   1      35.355  32.563  28.507  1.00  0.00     0.251 C 
ATOM     34  H   UNL A   1      33.728  32.944  27.377  1.00  0.00     0.163 HD
ATOM     35  O   UNL A   1      35.479  33.714  28.950  1.00  0.00    -0.269 OA
BRANCH  33  36
ATOM     36  C   UNL A   1      36.422  31.568  28.687  1.00  0.00     0.039 A 
ATOM     37  C   UNL A   1      36.537  30.381  27.958  1.00  0.00     0.014 A 
ATOM     38  C   UNL A   1      37.404  31.925  29.594  1.00  0.00     0.014 A 
ATOM     39  C   UNL A   1      37.655  29.573  28.189  1.00  0.00     0.010 A 
ATOM     40  C   UNL A   1      38.631  31.365  29.446  1.00  0.00     0.010 A 
ATOM     41  C   UNL A   1      38.704  30.076  28.977  1.00  0.00    -0.014 A 
BRANCH  41  42
ATOM     42  C   UNL A   1      40.008  29.452  29.143  1.00  0.00     0.031 A 
ATOM     43  C   UNL A   1      40.243  29.112  30.566  1.00  0.00     0.074 A 
ATOM     44  C   UNL A   1      40.780  29.018  28.110  1.00  0.00     0.049 A 
ATOM     45  N   UNL A   1      40.896  29.838  31.407  1.00  0.00    -0.248 NA
ATOM     46  C   UNL A   1      39.448  28.045  31.207  1.00  0.00     0.031 C 
ATOM     47  C   UNL A   1      40.531  29.055  26.661  1.00  0.00     0.029 A 
ATOM     48  N   UNL A   1      41.988  28.386  28.155  1.00  0.00    -0.354 N 
ATOM     49  C   UNL A   1      40.879  29.129  32.597  1.00  0.00     0.074 A 
ATOM     50  C   UNL A   1      39.775  28.211  32.492  1.00  0.00     0.031 C 
ATOM     51  C   UNL A   1      41.439  28.285  26.003  1.00  0.00     0.029 A 
ATOM     52  C   UNL A   1      42.438  27.823  26.951  1.00  0.00     0.049 A 
ATOM     53  H   UNL A   1      42.515  28.328  28.985  1.00  0.00     0.167 HD
ATOM     54  C   UNL A   1      41.977  29.124  33.401  1.00  0.00     0.031 A 
ATOM     55  C   UNL A   1      43.572  27.078  26.760  1.00  0.00     0.031 A 
ATOM     56  C   UNL A   1      42.925  30.127  32.972  1.00  0.00     0.049 A 
ATOM     57  C   UNL A   1      44.475  27.411  27.894  1.00  0.00     0.074 A 
ATOM     58  C   UNL A   1      42.888  31.499  32.825  1.00  0.00     0.029 A 
ATOM     59  N   UNL A   1      43.949  29.679  32.167  1.00  0.00    -0.354 N 
ATOM     60  N   UNL A   1      44.986  28.602  28.050  1.00  0.00    -0.248 NA
ATOM     61  C   UNL A   1      44.331  26.620  29.106  1.00  0.00     0.031 C 
ATOM     62  C   UNL A   1      43.559  31.752  31.592  1.00  0.00     0.029 A 
ATOM     63  C   UNL A   1      44.088  30.550  31.117  1.00  0.00     0.049 A 
ATOM     64  H   UNL A   1      44.490  28.871  32.320  1.00  0.00     0.167 HD
ATOM     65  C   UNL A   1      44.797  28.889  29.394  1.00  0.00     0.074 A 
ATOM     66  C   UNL A   1      44.421  27.607  30.004  1.00  0.00     0.031 C 
ATOM     67  C   UNL A   1      44.637  30.175  29.829  1.00  0.00     0.031 A 
BRANCH  54  68
ATOM     68  C   UNL A   1      42.407  27.945  34.235  1.00  0.00    -0.014 A 
ATOM     69  C   UNL A   1      42.714  28.173  35.592  1.00  0.00     0.010 A 
ATOM     70  C   UNL A   1      42.782  26.699  33.692  1.00  0.00     0.010 A 
ATOM     71  C   UNL A   1      43.408  27.224  36.349  1.00  0.00     0.020 A 
ATOM     72  C   UNL A   1      43.445  25.730  34.451  1.00  0.00     0.020 A 
ATOM     73  C   UNL A   1      43.771  26.009  35.771  1.00  0.00     0.054 A 
BRANCH  73  74
ATOM     74  S   UNL A   1      44.697  24.811  36.760  1.00  0.00     0.124 S 
ATOM     75  O   UNL A   1      44.139  25.019  38.092  1.00  0.00    -0.237 OA
ATOM     76  O   UNL A   1      44.345  23.548  36.116  1.00  0.00    -0.237 OA
ATOM     77  O   UNL A   1      46.087  25.227  36.587  1.00  0.00    -0.744 OA
ENDBRANCH  73  74
ENDBRANCH  54  68
BRANCH  55  78
ATOM     78  C   UNL A   1      43.790  25.842  25.939  1.00  0.00    -0.014 A 
ATOM     79  C   UNL A   1      45.084  25.408  25.558  1.00  0.00     0.010 A 
ATOM     80  C   UNL A   1      42.748  24.904  25.811  1.00  0.00     0.010 A 
ATOM     81  C   UNL A   1      45.329  24.080  25.131  1.00  0.00     0.020 A 
ATOM     82  C   UNL A   1      42.984  23.581  25.394  1.00  0.00     0.020 A 
ATOM     83  C   UNL A   1      44.275  23.165  25.077  1.00  0.00     0.054 A 
BRANCH  83  84
ATOM     84  S   UNL A   1      44.608  21.406  24.718  1.00  0.00     0.124 S 
ATOM     85  O   UNL A   1      44.601  21.373  23.258  1.00  0.00    -0.237 OA
ATOM     86  O   UNL A   1      45.907  21.187  25.347  1.00  0.00    -0.237 OA
ATOM     87  O   UNL A   1      43.492  20.708  25.356  1.00  0.00    -0.744 OA
ENDBRANCH  83  84
ENDBRANCH  55  78
BRANCH  67  88
ATOM     88  C   UNL A   1      44.916  31.310  28.865  1.00  0.00    -0.014 A 
ATOM     89  C   UNL A   1      46.120  32.043  28.792  1.00  0.00     0.010 A 
ATOM     90  C   UNL A   1      43.943  31.531  27.877  1.00  0.00     0.010 A 
ATOM     91  C   UNL A   1      46.321  32.992  27.771  1.00  0.00     0.020 A 
ATOM     92  C   UNL A   1      44.143  32.455  26.853  1.00  0.00     0.020 A 
ATOM     93  C   UNL A   1      45.324  33.195  26.810  1.00  0.00     0.054 A 
BRANCH  93  94
ATOM     94  S   UNL A   1      45.567  34.414  25.486  1.00  0.00     0.124 S 
ATOM     95  O   UNL A   1      47.017  34.406  25.310  1.00  0.00    -0.237 OA
ATOM     96  O   UNL A   1      44.796  33.852  24.379  1.00  0.00    -0.237 OA
ATOM     97  O   UNL A   1      45.020  35.649  26.044  1.00  0.00    -0.744 OA
ENDBRANCH  93  94
ENDBRANCH  67  88
ENDBRANCH  41  42
ENDBRANCH  33  36
ENDBRANCH  31  32
ENDBRANCH   1  31
TORSDOF 15
ENDMDL
MODEL 3
REMARK VINA RESULT:     -13.6      3.391      8.391
REMARK SMILES CC1=Nc2c(c(C)nn2-c2ccc(F)cc2)[C@H](c2ccc(C(=O)NCCCNC(=O)c3ccc(-c4c5nc(c(-c6ccc(S(=O)(=O)[O-])cc6)c6ccc([nH]6)c(-c6ccc(S(=O)(=O)[O-])cc6)c6nc(c(-c7ccc(S(=O)(=O)[O-])cc7)c7ccc4[nH]7)C=C6)C=C5)cc3)cc2)S1
REMARK SMILES IDX 26 1 25 2 24 3 22 4 23 5 21 7 18 8 19 9 92 10 20 11 91 12
REMARK SMILES IDX 17 13 1 14 2 15 3 16 93 17 4 18 5 19 9 20 6 21 8 22 7 23
REMARK SMILES IDX 10 24 11 25 16 26 12 27 15 28 13 29 14 30 27 31 28 32 29 33
REMARK SMILES IDX 30 35 31 36 32 37 90 38 33 39 89 40 34 41 35 42 36 43 83 44
REMARK SMILES IDX 37 45 88 46 82 47 84 48 38 49 87 50 81 51 80 52 39 54 69 55
REMARK SMILES IDX 50 56 68 57 51 58 54 59 67 60 85 61 52 62 53 63 66 65 86 66
REMARK SMILES IDX 55 67 40 68 41 69 49 70 42 71 48 72 43 73 44 74 45 75 46 76
REMARK SMILES IDX 47 77 70 78 71 79 79 80 72 81 78 82 73 83 74 84 75 85 76 86
REMARK SMILES IDX 77 87 56 88 57 89 65 90 58 91 64 92 59 93 60 94 61 95 62 96
REMARK SMILES IDX 63 97
REMARK H PARENT 24 6 28 34 84 53 54 64
REMARK Flexibility Score: inf
ROOT
ATOM      1  C   UNL A   1      31.471  30.721  26.583  1.00  0.00     0.042 C 
ENDROOT
BRANCH   1   2
ATOM      2  C   UNL A   1      31.810  29.931  25.313  1.00  0.00     0.118 C 
BRANCH   2   3
ATOM      3  N   UNL A   1      30.763  30.060  24.313  1.00  0.00    -0.352 N 
ATOM      4  C   UNL A   1      30.166  29.132  23.500  1.00  0.00     0.251 C 
ATOM      5  O   UNL A   1      29.242  29.496  22.774  1.00  0.00    -0.269 OA
ATOM      6  H   UNL A   1      30.421  30.977  24.201  1.00  0.00     0.163 HD
BRANCH   4   7
ATOM      7  C   UNL A   1      30.543  27.696  23.524  1.00  0.00     0.039 A 
ATOM      8  C   UNL A   1      31.166  24.942  23.740  1.00  0.00    -0.030 A 
ATOM      9  C   UNL A   1      29.894  25.429  24.090  1.00  0.00     0.006 A 
ATOM     10  C   UNL A   1      32.104  25.859  23.246  1.00  0.00     0.006 A 
ATOM     11  C   UNL A   1      29.581  26.785  23.967  1.00  0.00     0.014 A 
ATOM     12  C   UNL A   1      31.786  27.210  23.120  1.00  0.00     0.014 A 
BRANCH   8  13
ATOM     13  C   UNL A   1      31.444  23.450  23.824  1.00  0.00     0.119 C 
ATOM     14  C   UNL A   1      32.201  22.845  27.850  1.00  0.00     0.075 C 
ATOM     15  C   UNL A   1      32.403  22.843  26.357  1.00  0.00     0.074 C 
ATOM     16  N   UNL A   1      33.615  22.923  25.912  1.00  0.00    -0.227 NA
ATOM     17  S   UNL A   1      30.934  22.673  25.401  1.00  0.00    -0.098 SA
ATOM     18  C   UNL A   1      33.803  23.019  24.573  1.00  0.00     0.161 A 
ATOM     19  C   UNL A   1      32.898  23.303  23.577  1.00  0.00     0.038 A 
ATOM     20  N   UNL A   1      35.041  22.944  23.961  1.00  0.00    -0.215 N 
ATOM     21  C   UNL A   1      33.681  23.439  22.400  1.00  0.00     0.067 A 
ATOM     22  N   UNL A   1      34.990  23.310  22.657  1.00  0.00    -0.171 NA
ATOM     23  C   UNL A   1      33.235  23.727  21.013  1.00  0.00     0.069 C 
BRANCH  20  24
ATOM     24  C   UNL A   1      36.241  22.472  24.539  1.00  0.00     0.067 A 
ATOM     25  C   UNL A   1      36.560  21.109  24.435  1.00  0.00     0.031 A 
ATOM     26  C   UNL A   1      37.095  23.360  25.201  1.00  0.00     0.031 A 
ATOM     27  C   UNL A   1      37.738  20.633  25.004  1.00  0.00     0.041 A 
ATOM     28  C   UNL A   1      38.246  22.863  25.814  1.00  0.00     0.041 A 
ATOM     29  C   UNL A   1      38.560  21.510  25.703  1.00  0.00     0.123 A 
ATOM     30  F   UNL A   1      39.674  21.040  26.278  1.00  0.00    -0.207 F 
ENDBRANCH  20  24
ENDBRANCH   8  13
ENDBRANCH   4   7
ENDBRANCH   2   3
ENDBRANCH   1   2
BRANCH   1  31
ATOM     31  C   UNL A   1      32.681  31.465  27.113  1.00  0.00     0.118 C 
BRANCH  31  32
ATOM     32  N   UNL A   1      32.440  32.913  27.229  1.00  0.00    -0.352 N 
ATOM     33  C   UNL A   1      32.984  33.791  28.144  1.00  0.00     0.251 C 
ATOM     34  H   UNL A   1      31.815  33.302  26.575  1.00  0.00     0.163 HD
ATOM     35  O   UNL A   1      32.427  34.871  28.391  1.00  0.00    -0.269 OA
BRANCH  33  36
ATOM     36  C   UNL A   1      34.267  33.445  28.774  1.00  0.00     0.039 A 
ATOM     37  C   UNL A   1      34.403  32.713  29.957  1.00  0.00     0.014 A 
ATOM     38  C   UNL A   1      35.389  33.821  28.055  1.00  0.00     0.014 A 
ATOM     39  C   UNL A   1      35.695  32.394  30.388  1.00  0.00     0.010 A 
ATOM     40  C   UNL A   1      36.532  33.121  28.263  1.00  0.00     0.010 A 
ATOM     41  C   UNL A   1      36.776  32.636  29.525  1.00  0.00    -0.014 A 
BRANCH  41  42
ATOM     42  C   UNL A   1      38.143  32.180  29.737  1.00  0.00     0.031 A 
ATOM     43  C   UNL A   1      38.265  30.740  29.414  1.00  0.00     0.074 A 
ATOM     44  C   UNL A   1      39.196  33.013  29.954  1.00  0.00     0.049 A 
ATOM     45  N   UNL A   1      38.205  29.777  30.269  1.00  0.00    -0.248 NA
ATOM     46  C   UNL A   1      38.139  30.288  28.014  1.00  0.00     0.031 C 
ATOM     47  C   UNL A   1      39.243  34.482  30.026  1.00  0.00     0.029 A 
ATOM     48  N   UNL A   1      40.513  32.698  30.121  1.00  0.00    -0.354 N 
ATOM     49  C   UNL A   1      38.386  28.618  29.531  1.00  0.00     0.074 A 
ATOM     50  C   UNL A   1      38.065  28.963  28.171  1.00  0.00     0.031 C 
ATOM     51  C   UNL A   1      40.531  34.917  30.000  1.00  0.00     0.029 A 
ATOM     52  C   UNL A   1      41.417  33.769  30.072  1.00  0.00     0.049 A 
ATOM     53  H   UNL A   1      40.811  31.771  30.269  1.00  0.00     0.167 HD
ATOM     54  C   UNL A   1      39.111  27.589  30.050  1.00  0.00     0.031 A 
ATOM     55  C   UNL A   1      42.784  33.700  30.135  1.00  0.00     0.031 A 
ATOM     56  C   UNL A   1      39.356  27.800  31.459  1.00  0.00     0.049 A 
ATOM     57  C   UNL A   1      43.098  32.394  30.776  1.00  0.00     0.074 A 
ATOM     58  C   UNL A   1      38.555  27.957  32.572  1.00  0.00     0.029 A 
ATOM     59  N   UNL A   1      40.576  28.354  31.778  1.00  0.00    -0.354 N 
ATOM     60  N   UNL A   1      42.780  32.132  32.014  1.00  0.00    -0.248 NA
ATOM     61  C   UNL A   1      43.222  31.241  29.897  1.00  0.00     0.031 C 
ATOM     62  C   UNL A   1      39.166  29.010  33.315  1.00  0.00     0.029 A 
ATOM     63  C   UNL A   1      40.372  29.351  32.698  1.00  0.00     0.049 A 
ATOM     64  H   UNL A   1      41.447  28.082  31.409  1.00  0.00     0.167 HD
ATOM     65  C   UNL A   1      42.217  30.865  31.969  1.00  0.00     0.074 A 
ATOM     66  C   UNL A   1      42.554  30.350  30.636  1.00  0.00     0.031 C 
ATOM     67  C   UNL A   1      41.261  30.482  32.869  1.00  0.00     0.031 A 
BRANCH  54  68
ATOM     68  C   UNL A   1      39.985  26.676  29.230  1.00  0.00    -0.014 A 
ATOM     69  C   UNL A   1      41.310  27.081  28.977  1.00  0.00     0.010 A 
ATOM     70  C   UNL A   1      39.493  25.587  28.481  1.00  0.00     0.010 A 
ATOM     71  C   UNL A   1      42.083  26.466  27.987  1.00  0.00     0.020 A 
ATOM     72  C   UNL A   1      40.269  24.942  27.515  1.00  0.00     0.020 A 
ATOM     73  C   UNL A   1      41.554  25.401  27.260  1.00  0.00     0.054 A 
BRANCH  73  74
ATOM     74  S   UNL A   1      42.560  24.642  25.963  1.00  0.00     0.124 S 
ATOM     75  O   UNL A   1      43.887  24.638  26.568  1.00  0.00    -0.237 OA
ATOM     76  O   UNL A   1      41.926  23.334  25.814  1.00  0.00    -0.237 OA
ATOM     77  O   UNL A   1      42.389  25.544  24.826  1.00  0.00    -0.744 OA
ENDBRANCH  73  74
ENDBRANCH  54  68
BRANCH  55  78
ATOM     78  C   UNL A   1      43.828  34.446  29.358  1.00  0.00    -0.014 A 
ATOM     79  C   UNL A   1      45.201  34.407  29.707  1.00  0.00     0.010 A 
ATOM     80  C   UNL A   1      43.518  34.930  28.073  1.00  0.00     0.010 A 
ATOM     81  C   UNL A   1      46.214  34.775  28.790  1.00  0.00     0.020 A 
ATOM     82  C   UNL A   1      44.519  35.292  27.153  1.00  0.00     0.020 A 
ATOM     83  C   UNL A   1      45.864  35.192  27.503  1.00  0.00     0.054 A 
BRANCH  83  84
ATOM     84  S   UNL A   1      47.161  35.482  26.250  1.00  0.00     0.124 S 
ATOM     85  O   UNL A   1      48.387  35.409  27.039  1.00  0.00    -0.237 OA
ATOM     86  O   UNL A   1      46.951  34.385  25.309  1.00  0.00    -0.237 OA
ATOM     87  O   UNL A   1      46.842  36.810  25.727  1.00  0.00    -0.744 OA
ENDBRANCH  83  84
ENDBRANCH  55  78
BRANCH  67  88
ATOM     88  C   UNL A   1      40.998  31.364  34.072  1.00  0.00    -0.014 A 
ATOM     89  C   UNL A   1      40.073  32.428  34.119  1.00  0.00     0.010 A 
ATOM     90  C   UNL A   1      41.627  30.978  35.267  1.00  0.00     0.010 A 
ATOM     91  C   UNL A   1      39.814  33.100  35.330  1.00  0.00     0.020 A 
ATOM     92  C   UNL A   1      41.362  31.626  36.472  1.00  0.00     0.020 A 
ATOM     93  C   UNL A   1      40.469  32.696  36.499  1.00  0.00     0.054 A 
BRANCH  93  94
ATOM     94  S   UNL A   1      40.146  33.551  38.068  1.00  0.00     0.124 S 
ATOM     95  O   UNL A   1      40.439  32.518  39.058  1.00  0.00    -0.237 OA
ATOM     96  O   UNL A   1      41.085  34.670  38.029  1.00  0.00    -0.237 OA
ATOM     97  O   UNL A   1      38.738  33.934  37.974  1.00  0.00    -0.744 OA
ENDBRANCH  93  94
ENDBRANCH  67  88
ENDBRANCH  41  42
ENDBRANCH  33  36
ENDBRANCH  31  32
ENDBRANCH   1  31
TORSDOF 15
ENDMDL
