MODEL 1
REMARK VINA RESULT:     -12.3      0.000      0.000
REMARK SMILES O=C(NCCCNC(=O)C1(C/C=C/c2ccccc2)Cc2ccccc2C1)c1ccc(-c2c3nc(c(-c4ccc(S(=O)(=O)[O-])cc4)c4ccc([nH]4)c(-c4ccc(S(=O)(=O)[O-])cc4)c4nc(c(-c5ccc(S(=O)(=O)[O-])cc5)c5ccc2[nH]5)C=C4)C=C3)cc1
REMARK SMILES IDX 5 1 4 2 3 3 1 4 2 5 28 7 29 8 87 9 30 10 86 11 31 12 32 13
REMARK SMILES IDX 33 14 80 15 34 16 85 17 79 18 81 19 35 20 84 21 78 22 77 23
REMARK SMILES IDX 36 25 66 26 47 27 65 28 48 29 51 30 64 31 82 32 49 33 50 34
REMARK SMILES IDX 63 36 83 37 52 38 37 39 38 40 46 41 39 42 45 43 40 44 41 45
REMARK SMILES IDX 42 46 43 47 44 48 67 49 68 50 76 51 69 52 75 53 70 54 71 55
REMARK SMILES IDX 72 56 73 57 74 58 53 59 54 60 62 61 55 62 61 63 56 64 57 65
REMARK SMILES IDX 58 66 59 67 60 68 6 69 7 70 8 71 9 73 10 74 20 75 27 76
REMARK SMILES IDX 21 77 26 78 22 79 25 80 23 81 24 82 11 83 12 84 13 85 14 86
REMARK SMILES IDX 15 87 19 88 16 89 18 90 17 91
REMARK H PARENT 3 6 81 24 51 35 7 72
REMARK Flexibility Score: inf
ROOT
ATOM      1  C   UNL A   1      35.143  22.788  26.144  1.00  0.00     0.042 C 
ENDROOT
BRANCH   1   2
ATOM      2  C   UNL A   1      36.484  23.442  25.816  1.00  0.00     0.118 C 
BRANCH   2   3
ATOM      3  N   UNL A   1      37.593  22.523  25.992  1.00  0.00    -0.352 N 
ATOM      4  O   UNL A   1      39.742  21.908  26.190  1.00  0.00    -0.269 OA
ATOM      5  C   UNL A   1      38.893  22.781  26.348  1.00  0.00     0.251 C 
ATOM      6  H   UNL A   1      37.381  21.574  25.834  1.00  0.00     0.163 HD
BRANCH   5   7
ATOM      7  C   UNL A   1      39.276  24.095  26.913  1.00  0.00     0.039 A 
ATOM      8  C   UNL A   1      38.999  24.423  28.244  1.00  0.00     0.014 A 
ATOM      9  C   UNL A   1      39.999  24.983  26.112  1.00  0.00     0.014 A 
ATOM     10  C   UNL A   1      39.368  25.670  28.748  1.00  0.00     0.010 A 
ATOM     11  C   UNL A   1      40.421  26.207  26.635  1.00  0.00     0.010 A 
ATOM     12  C   UNL A   1      40.098  26.565  27.953  1.00  0.00    -0.014 A 
BRANCH  12  13
ATOM     13  C   UNL A   1      40.590  27.848  28.516  1.00  0.00     0.031 A 
ATOM     14  C   UNL A   1      41.993  27.970  29.036  1.00  0.00     0.074 A 
ATOM     15  C   UNL A   1      39.743  28.891  28.609  1.00  0.00     0.049 A 
ATOM     16  N   UNL A   1      42.562  28.979  29.645  1.00  0.00    -0.248 NA
ATOM     17  C   UNL A   1      42.868  26.801  28.859  1.00  0.00     0.031 C 
ATOM     18  C   UNL A   1      38.354  28.892  28.145  1.00  0.00     0.029 A 
ATOM     19  N   UNL A   1      39.917  30.144  29.140  1.00  0.00    -0.354 N 
ATOM     20  C   UNL A   1      43.852  28.562  29.949  1.00  0.00     0.074 A 
ATOM     21  C   UNL A   1      43.974  27.199  29.472  1.00  0.00     0.031 C 
ATOM     22  C   UNL A   1      37.803  30.085  28.413  1.00  0.00     0.029 A 
ATOM     23  C   UNL A   1      38.778  30.913  29.114  1.00  0.00     0.049 A 
ATOM     24  H   UNL A   1      40.775  30.461  29.506  1.00  0.00     0.167 HD
ATOM     25  C   UNL A   1      44.840  29.248  30.572  1.00  0.00     0.031 A 
ATOM     26  C   UNL A   1      38.529  32.133  29.625  1.00  0.00     0.031 A 
ATOM     27  C   UNL A   1      44.703  30.598  31.055  1.00  0.00     0.049 A 
ATOM     28  C   UNL A   1      39.626  32.869  30.339  1.00  0.00     0.074 A 
ATOM     29  C   UNL A   1      45.656  31.394  31.666  1.00  0.00     0.029 A 
ATOM     30  N   UNL A   1      43.535  31.345  30.998  1.00  0.00    -0.354 N 
ATOM     31  N   UNL A   1      40.855  32.476  30.576  1.00  0.00    -0.248 NA
ATOM     32  C   UNL A   1      39.309  34.209  30.847  1.00  0.00     0.031 C 
ATOM     33  C   UNL A   1      45.051  32.604  32.024  1.00  0.00     0.029 A 
ATOM     34  C   UNL A   1      43.735  32.584  31.584  1.00  0.00     0.049 A 
ATOM     35  H   UNL A   1      42.689  31.041  30.598  1.00  0.00     0.167 HD
ATOM     36  C   UNL A   1      41.466  33.530  31.242  1.00  0.00     0.074 A 
ATOM     37  C   UNL A   1      40.473  34.579  31.368  1.00  0.00     0.031 C 
ATOM     38  C   UNL A   1      42.739  33.620  31.700  1.00  0.00     0.031 A 
BRANCH  25  39
ATOM     39  C   UNL A   1      46.140  28.526  30.803  1.00  0.00    -0.014 A 
ATOM     40  C   UNL A   1      46.362  27.772  31.970  1.00  0.00     0.010 A 
ATOM     41  C   UNL A   1      47.160  28.604  29.837  1.00  0.00     0.010 A 
ATOM     42  C   UNL A   1      47.603  27.168  32.197  1.00  0.00     0.020 A 
ATOM     43  C   UNL A   1      48.393  27.979  30.048  1.00  0.00     0.020 A 
ATOM     44  C   UNL A   1      48.615  27.289  31.241  1.00  0.00     0.054 A 
BRANCH  44  45
ATOM     45  S   UNL A   1      50.228  26.529  31.576  1.00  0.00     0.124 S 
ATOM     46  O   UNL A   1      49.906  25.105  31.514  1.00  0.00    -0.237 OA
ATOM     47  O   UNL A   1      51.055  27.032  30.482  1.00  0.00    -0.237 OA
ATOM     48  O   UNL A   1      50.580  27.032  32.901  1.00  0.00    -0.744 OA
ENDBRANCH  44  45
ENDBRANCH  25  39
BRANCH  26  49
ATOM     49  C   UNL A   1      37.166  32.709  29.479  1.00  0.00    -0.014 A 
ATOM     50  C   UNL A   1      36.280  32.737  30.567  1.00  0.00     0.010 A 
ATOM     51  C   UNL A   1      36.787  33.322  28.269  1.00  0.00     0.010 A 
ATOM     52  C   UNL A   1      35.044  33.382  30.455  1.00  0.00     0.020 A 
ATOM     53  C   UNL A   1      35.564  33.987  28.160  1.00  0.00     0.020 A 
ATOM     54  C   UNL A   1      34.699  34.013  29.256  1.00  0.00     0.054 A 
BRANCH  54  55
ATOM     55  S   UNL A   1      33.141  34.940  29.170  1.00  0.00     0.124 S 
ATOM     56  O   UNL A   1      33.591  36.248  28.708  1.00  0.00    -0.237 OA
ATOM     57  O   UNL A   1      32.363  34.161  28.210  1.00  0.00    -0.237 OA
ATOM     58  O   UNL A   1      32.642  34.896  30.543  1.00  0.00    -0.744 OA
ENDBRANCH  54  55
ENDBRANCH  26  49
BRANCH  38  59
ATOM     59  C   UNL A   1      43.158  34.909  32.352  1.00  0.00    -0.014 A 
ATOM     60  C   UNL A   1      43.728  35.953  31.603  1.00  0.00     0.010 A 
ATOM     61  C   UNL A   1      42.880  35.113  33.716  1.00  0.00     0.010 A 
ATOM     62  C   UNL A   1      44.013  37.179  32.209  1.00  0.00     0.020 A 
ATOM     63  C   UNL A   1      43.145  36.344  34.320  1.00  0.00     0.020 A 
ATOM     64  C   UNL A   1      43.714  37.370  33.562  1.00  0.00     0.054 A 
BRANCH  64  65
ATOM     65  S   UNL A   1      44.006  39.000  34.303  1.00  0.00     0.124 S 
ATOM     66  O   UNL A   1      45.303  39.363  33.737  1.00  0.00    -0.237 OA
ATOM     67  O   UNL A   1      42.869  39.781  33.822  1.00  0.00    -0.237 OA
ATOM     68  O   UNL A   1      44.007  38.733  35.739  1.00  0.00    -0.744 OA
ENDBRANCH  64  65
ENDBRANCH  38  59
ENDBRANCH  12  13
ENDBRANCH   5   7
ENDBRANCH   2   3
ENDBRANCH   1   2
BRANCH   1  69
ATOM     69  C   UNL A   1      34.009  23.190  25.196  1.00  0.00     0.117 C 
BRANCH  69  70
ATOM     70  N   UNL A   1      32.758  23.329  25.921  1.00  0.00    -0.356 N 
ATOM     71  C   UNL A   1      32.071  24.410  26.377  1.00  0.00     0.227 C 
ATOM     72  H   UNL A   1      32.320  22.470  26.122  1.00  0.00     0.163 HD
ATOM     73  O   UNL A   1      31.223  24.146  27.235  1.00  0.00    -0.274 OA
BRANCH  71  74
ATOM     74  C   UNL A   1      32.276  25.839  25.836  1.00  0.00     0.061 C 
ATOM     75  C   UNL A   1      31.315  26.875  26.494  1.00  0.00     0.053 C 
ATOM     76  C   UNL A   1      33.724  26.323  26.141  1.00  0.00     0.053 C 
ATOM     77  C   UNL A   1      32.193  28.068  26.711  1.00  0.00    -0.044 A 
ATOM     78  C   UNL A   1      33.536  27.766  26.490  1.00  0.00    -0.044 A 
ATOM     79  C   UNL A   1      31.804  29.337  27.107  1.00  0.00     0.004 A 
ATOM     80  C   UNL A   1      34.519  28.732  26.635  1.00  0.00     0.004 A 
ATOM     81  C   UNL A   1      32.786  30.319  27.255  1.00  0.00     0.000 A 
ATOM     82  C   UNL A   1      34.135  30.020  27.014  1.00  0.00     0.000 A 
BRANCH  74  83
ATOM     83  C   UNL A   1      31.979  25.883  24.296  1.00  0.00     0.045 C 
BRANCH  83  84
ATOM     84  C   UNL A   1      30.805  26.711  23.836  1.00  0.00    -0.025 C 
ATOM     85  C   UNL A   1      30.947  27.845  23.131  1.00  0.00     0.004 C 
BRANCH  85  86
ATOM     86  C   UNL A   1      29.827  28.695  22.720  1.00  0.00    -0.026 A 
ATOM     87  C   UNL A   1      30.070  29.806  21.905  1.00  0.00     0.008 A 
ATOM     88  C   UNL A   1      28.528  28.465  23.191  1.00  0.00     0.008 A 
ATOM     89  C   UNL A   1      29.025  30.659  21.544  1.00  0.00     0.001 A 
ATOM     90  C   UNL A   1      27.484  29.320  22.832  1.00  0.00     0.001 A 
ATOM     91  C   UNL A   1      27.733  30.415  22.007  1.00  0.00     0.000 A 
ENDBRANCH  85  86
ENDBRANCH  83  84
ENDBRANCH  74  83
ENDBRANCH  71  74
ENDBRANCH  69  70
ENDBRANCH   1  69
TORSDOF 16
ENDMDL
MODEL 2
REMARK VINA RESULT:     -12.0      2.915      9.538
REMARK SMILES O=C(NCCCNC(=O)C1(C/C=C/c2ccccc2)Cc2ccccc2C1)c1ccc(-c2c3nc(c(-c4ccc(S(=O)(=O)[O-])cc4)c4ccc([nH]4)c(-c4ccc(S(=O)(=O)[O-])cc4)c4nc(c(-c5ccc(S(=O)(=O)[O-])cc5)c5ccc2[nH]5)C=C4)C=C3)cc1
REMARK SMILES IDX 5 1 4 2 3 3 1 4 2 5 28 7 29 8 87 9 30 10 86 11 31 12 32 13
REMARK SMILES IDX 33 14 80 15 34 16 85 17 79 18 81 19 35 20 84 21 78 22 77 23
REMARK SMILES IDX 36 25 66 26 47 27 65 28 48 29 51 30 64 31 82 32 49 33 50 34
REMARK SMILES IDX 63 36 83 37 52 38 37 39 38 40 46 41 39 42 45 43 40 44 41 45
REMARK SMILES IDX 42 46 43 47 44 48 67 49 68 50 76 51 69 52 75 53 70 54 71 55
REMARK SMILES IDX 72 56 73 57 74 58 53 59 54 60 62 61 55 62 61 63 56 64 57 65
REMARK SMILES IDX 58 66 59 67 60 68 6 69 7 70 8 71 9 73 10 74 20 75 27 76
REMARK SMILES IDX 21 77 26 78 22 79 25 80 23 81 24 82 11 83 12 84 13 85 14 86
REMARK SMILES IDX 15 87 19 88 16 89 18 90 17 91
REMARK H PARENT 3 6 81 24 51 35 7 72
REMARK Flexibility Score: inf
ROOT
ATOM      1  C   UNL A   1      34.024  27.759  25.149  1.00  0.00     0.042 C 
ENDROOT
BRANCH   1   2
ATOM      2  C   UNL A   1      33.939  28.019  26.652  1.00  0.00     0.118 C 
BRANCH   2   3
ATOM      3  N   UNL A   1      33.669  29.414  26.947  1.00  0.00    -0.352 N 
ATOM      4  O   UNL A   1      33.862  31.355  28.056  1.00  0.00    -0.269 OA
ATOM      5  C   UNL A   1      34.386  30.299  27.712  1.00  0.00     0.251 C 
ATOM      6  H   UNL A   1      32.852  29.779  26.537  1.00  0.00     0.163 HD
BRANCH   5   7
ATOM      7  C   UNL A   1      35.774  29.991  28.126  1.00  0.00     0.039 A 
ATOM      8  C   UNL A   1      36.065  29.539  29.417  1.00  0.00     0.014 A 
ATOM      9  C   UNL A   1      36.792  30.080  27.172  1.00  0.00     0.014 A 
ATOM     10  C   UNL A   1      37.383  29.259  29.779  1.00  0.00     0.010 A 
ATOM     11  C   UNL A   1      38.102  29.743  27.519  1.00  0.00     0.010 A 
ATOM     12  C   UNL A   1      38.410  29.341  28.828  1.00  0.00    -0.014 A 
BRANCH  12  13
ATOM     13  C   UNL A   1      39.796  28.940  29.175  1.00  0.00     0.031 A 
ATOM     14  C   UNL A   1      40.751  29.927  29.782  1.00  0.00     0.074 A 
ATOM     15  C   UNL A   1      40.210  27.691  28.885  1.00  0.00     0.049 A 
ATOM     16  N   UNL A   1      42.021  29.780  30.062  1.00  0.00    -0.248 NA
ATOM     17  C   UNL A   1      40.211  31.255  30.109  1.00  0.00     0.031 C 
ATOM     18  C   UNL A   1      39.377  26.646  28.286  1.00  0.00     0.029 A 
ATOM     19  N   UNL A   1      41.437  27.096  29.034  1.00  0.00    -0.354 N 
ATOM     20  C   UNL A   1      42.442  31.003  30.571  1.00  0.00     0.074 A 
ATOM     21  C   UNL A   1      41.293  31.885  30.545  1.00  0.00     0.031 C 
ATOM     22  C   UNL A   1      40.115  25.539  28.119  1.00  0.00     0.029 A 
ATOM     23  C   UNL A   1      41.484  25.811  28.546  1.00  0.00     0.049 A 
ATOM     24  H   UNL A   1      42.208  27.544  29.450  1.00  0.00     0.167 HD
ATOM     25  C   UNL A   1      43.672  31.357  31.015  1.00  0.00     0.031 A 
ATOM     26  C   UNL A   1      42.516  24.956  28.419  1.00  0.00     0.031 A 
ATOM     27  C   UNL A   1      44.811  30.477  31.022  1.00  0.00     0.049 A 
ATOM     28  C   UNL A   1      43.879  25.375  28.888  1.00  0.00     0.074 A 
ATOM     29  C   UNL A   1      46.091  30.730  31.486  1.00  0.00     0.029 A 
ATOM     30  N   UNL A   1      44.813  29.180  30.530  1.00  0.00    -0.354 N 
ATOM     31  N   UNL A   1      44.248  26.521  29.411  1.00  0.00    -0.248 NA
ATOM     32  C   UNL A   1      44.961  24.392  28.758  1.00  0.00     0.031 C 
ATOM     33  C   UNL A   1      46.879  29.603  31.227  1.00  0.00     0.029 A 
ATOM     34  C   UNL A   1      46.077  28.627  30.654  1.00  0.00     0.049 A 
ATOM     35  H   UNL A   1      44.031  28.720  30.149  1.00  0.00     0.167 HD
ATOM     36  C   UNL A   1      45.601  26.388  29.694  1.00  0.00     0.074 A 
ATOM     37  C   UNL A   1      45.985  25.051  29.287  1.00  0.00     0.031 C 
ATOM     38  C   UNL A   1      46.445  27.293  30.247  1.00  0.00     0.031 A 
BRANCH  25  39
ATOM     39  C   UNL A   1      43.852  32.777  31.484  1.00  0.00    -0.014 A 
ATOM     40  C   UNL A   1      44.268  33.792  30.604  1.00  0.00     0.010 A 
ATOM     41  C   UNL A   1      43.602  33.100  32.831  1.00  0.00     0.010 A 
ATOM     42  C   UNL A   1      44.497  35.088  31.076  1.00  0.00     0.020 A 
ATOM     43  C   UNL A   1      43.804  34.401  33.301  1.00  0.00     0.020 A 
ATOM     44  C   UNL A   1      44.278  35.380  32.426  1.00  0.00     0.054 A 
BRANCH  44  45
ATOM     45  S   UNL A   1      44.619  37.058  33.023  1.00  0.00     0.124 S 
ATOM     46  O   UNL A   1      43.618  37.841  32.302  1.00  0.00    -0.237 OA
ATOM     47  O   UNL A   1      44.403  36.939  34.463  1.00  0.00    -0.237 OA
ATOM     48  O   UNL A   1      46.004  37.295  32.621  1.00  0.00    -0.744 OA
ENDBRANCH  44  45
ENDBRANCH  25  39
BRANCH  26  49
ATOM     49  C   UNL A   1      42.274  23.624  27.804  1.00  0.00    -0.014 A 
ATOM     50  C   UNL A   1      42.406  23.441  26.419  1.00  0.00     0.010 A 
ATOM     51  C   UNL A   1      42.006  22.510  28.622  1.00  0.00     0.010 A 
ATOM     52  C   UNL A   1      42.290  22.163  25.862  1.00  0.00     0.020 A 
ATOM     53  C   UNL A   1      41.912  21.229  28.072  1.00  0.00     0.020 A 
ATOM     54  C   UNL A   1      42.056  21.064  26.694  1.00  0.00     0.054 A 
BRANCH  54  55
ATOM     55  S   UNL A   1      42.023  19.403  25.962  1.00  0.00     0.124 S 
ATOM     56  O   UNL A   1      42.526  18.580  27.056  1.00  0.00    -0.237 OA
ATOM     57  O   UNL A   1      40.609  19.230  25.637  1.00  0.00    -0.237 OA
ATOM     58  O   UNL A   1      42.909  19.521  24.806  1.00  0.00    -0.744 OA
ENDBRANCH  54  55
ENDBRANCH  26  49
BRANCH  38  59
ATOM     59  C   UNL A   1      47.868  26.868  30.488  1.00  0.00    -0.014 A 
ATOM     60  C   UNL A   1      48.875  27.125  29.542  1.00  0.00     0.010 A 
ATOM     61  C   UNL A   1      48.215  26.296  31.726  1.00  0.00     0.010 A 
ATOM     62  C   UNL A   1      50.207  26.816  29.831  1.00  0.00     0.020 A 
ATOM     63  C   UNL A   1      49.548  26.006  32.025  1.00  0.00     0.020 A 
ATOM     64  C   UNL A   1      50.536  26.265  31.074  1.00  0.00     0.054 A 
BRANCH  64  65
ATOM     65  S   UNL A   1      52.283  25.959  31.461  1.00  0.00     0.124 S 
ATOM     66  O   UNL A   1      52.235  24.624  32.051  1.00  0.00    -0.237 OA
ATOM     67  O   UNL A   1      52.922  26.045  30.150  1.00  0.00    -0.237 OA
ATOM     68  O   UNL A   1      52.625  27.037  32.385  1.00  0.00    -0.744 OA
ENDBRANCH  64  65
ENDBRANCH  38  59
ENDBRANCH  12  13
ENDBRANCH   5   7
ENDBRANCH   2   3
ENDBRANCH   1   2
BRANCH   1  69
ATOM     69  C   UNL A   1      32.844  26.957  24.592  1.00  0.00     0.117 C 
BRANCH  69  70
ATOM     70  N   UNL A   1      32.046  26.400  25.670  1.00  0.00    -0.356 N 
ATOM     71  C   UNL A   1      31.840  25.127  26.103  1.00  0.00     0.227 C 
ATOM     72  H   UNL A   1      31.555  27.077  26.190  1.00  0.00     0.163 HD
ATOM     73  O   UNL A   1      30.848  24.993  26.825  1.00  0.00    -0.274 OA
BRANCH  71  74
ATOM     74  C   UNL A   1      32.789  23.955  25.783  1.00  0.00     0.061 C 
ATOM     75  C   UNL A   1      33.053  23.796  24.254  1.00  0.00     0.053 C 
ATOM     76  C   UNL A   1      34.177  24.194  26.448  1.00  0.00     0.053 C 
ATOM     77  C   UNL A   1      34.517  23.493  24.189  1.00  0.00    -0.044 A 
ATOM     78  C   UNL A   1      35.140  23.691  25.420  1.00  0.00    -0.044 A 
ATOM     79  C   UNL A   1      35.242  23.086  23.080  1.00  0.00     0.004 A 
ATOM     80  C   UNL A   1      36.498  23.465  25.579  1.00  0.00     0.004 A 
ATOM     81  C   UNL A   1      36.612  22.854  23.229  1.00  0.00     0.000 A 
ATOM     82  C   UNL A   1      37.234  23.035  24.473  1.00  0.00     0.000 A 
BRANCH  74  83
ATOM     83  C   UNL A   1      32.159  22.601  26.262  1.00  0.00     0.045 C 
BRANCH  83  84
ATOM     84  C   UNL A   1      32.263  21.417  25.333  1.00  0.00    -0.025 C 
ATOM     85  C   UNL A   1      33.208  20.471  25.464  1.00  0.00     0.004 C 
BRANCH  85  86
ATOM     86  C   UNL A   1      33.363  19.342  24.545  1.00  0.00    -0.026 A 
ATOM     87  C   UNL A   1      32.423  19.148  23.528  1.00  0.00     0.008 A 
ATOM     88  C   UNL A   1      34.389  18.403  24.713  1.00  0.00     0.008 A 
ATOM     89  C   UNL A   1      32.521  18.048  22.674  1.00  0.00     0.001 A 
ATOM     90  C   UNL A   1      34.486  17.301  23.860  1.00  0.00     0.001 A 
ATOM     91  C   UNL A   1      33.554  17.126  22.839  1.00  0.00     0.000 A 
ENDBRANCH  85  86
ENDBRANCH  83  84
ENDBRANCH  74  83
ENDBRANCH  71  74
ENDBRANCH  69  70
ENDBRANCH   1  69
TORSDOF 16
ENDMDL
MODEL 3
REMARK VINA RESULT:     -11.6      3.402      4.008
REMARK SMILES O=C(NCCCNC(=O)C1(C/C=C/c2ccccc2)Cc2ccccc2C1)c1ccc(-c2c3nc(c(-c4ccc(S(=O)(=O)[O-])cc4)c4ccc([nH]4)c(-c4ccc(S(=O)(=O)[O-])cc4)c4nc(c(-c5ccc(S(=O)(=O)[O-])cc5)c5ccc2[nH]5)C=C4)C=C3)cc1
REMARK SMILES IDX 5 1 4 2 3 3 1 4 2 5 28 7 29 8 87 9 30 10 86 11 31 12 32 13
REMARK SMILES IDX 33 14 80 15 34 16 85 17 79 18 81 19 35 20 84 21 78 22 77 23
REMARK SMILES IDX 36 25 66 26 47 27 65 28 48 29 51 30 64 31 82 32 49 33 50 34
REMARK SMILES IDX 63 36 83 37 52 38 37 39 38 40 46 41 39 42 45 43 40 44 41 45
REMARK SMILES IDX 42 46 43 47 44 48 67 49 68 50 76 51 69 52 75 53 70 54 71 55
REMARK SMILES IDX 72 56 73 57 74 58 53 59 54 60 62 61 55 62 61 63 56 64 57 65
REMARK SMILES IDX 58 66 59 67 60 68 6 69 7 70 8 71 9 73 10 74 20 75 27 76
REMARK SMILES IDX 21 77 26 78 22 79 25 80 23 81 24 82 11 83 12 84 13 85 14 86
REMARK SMILES IDX 15 87 19 88 16 89 18 90 17 91
REMARK H PARENT 3 6 81 24 51 35 7 72
REMARK Flexibility Score: inf
ROOT
ATOM      1  C   UNL A   1      36.908  23.681  25.391  1.00  0.00     0.042 C 
ENDROOT
BRANCH   1   2
ATOM      2  C   UNL A   1      37.824  24.182  26.505  1.00  0.00     0.118 C 
BRANCH   2   3
ATOM      3  N   UNL A   1      39.223  23.924  26.214  1.00  0.00    -0.352 N 
ATOM      4  O   UNL A   1      41.401  24.414  25.994  1.00  0.00    -0.269 OA
ATOM      5  C   UNL A   1      40.334  24.653  26.553  1.00  0.00     0.251 C 
ATOM      6  H   UNL A   1      39.399  23.104  25.697  1.00  0.00     0.163 HD
BRANCH   5   7
ATOM      7  C   UNL A   1      40.256  25.720  27.576  1.00  0.00     0.039 A 
ATOM      8  C   UNL A   1      39.453  25.581  28.713  1.00  0.00     0.014 A 
ATOM      9  C   UNL A   1      41.069  26.848  27.430  1.00  0.00     0.014 A 
ATOM     10  C   UNL A   1      39.396  26.605  29.658  1.00  0.00     0.010 A 
ATOM     11  C   UNL A   1      41.056  27.846  28.407  1.00  0.00     0.010 A 
ATOM     12  C   UNL A   1      40.211  27.738  29.523  1.00  0.00    -0.014 A 
BRANCH  12  13
ATOM     13  C   UNL A   1      40.239  28.780  30.579  1.00  0.00     0.031 A 
ATOM     14  C   UNL A   1      41.174  28.663  31.748  1.00  0.00     0.074 A 
ATOM     15  C   UNL A   1      39.371  29.808  30.509  1.00  0.00     0.049 A 
ATOM     16  N   UNL A   1      41.268  29.426  32.807  1.00  0.00    -0.248 NA
ATOM     17  C   UNL A   1      42.119  27.537  31.729  1.00  0.00     0.031 C 
ATOM     18  C   UNL A   1      38.408  30.025  29.427  1.00  0.00     0.029 A 
ATOM     19  N   UNL A   1      39.143  30.850  31.372  1.00  0.00    -0.354 N 
ATOM     20  C   UNL A   1      42.262  28.860  33.596  1.00  0.00     0.074 A 
ATOM     21  C   UNL A   1      42.728  27.678  32.898  1.00  0.00     0.031 C 
ATOM     22  C   UNL A   1      37.694  31.129  29.690  1.00  0.00     0.029 A 
ATOM     23  C   UNL A   1      38.109  31.667  30.982  1.00  0.00     0.049 A 
ATOM     24  H   UNL A   1      39.670  30.999  32.190  1.00  0.00     0.167 HD
ATOM     25  C   UNL A   1      42.739  29.283  34.791  1.00  0.00     0.031 A 
ATOM     26  C   UNL A   1      37.529  32.710  31.604  1.00  0.00     0.031 A 
ATOM     27  C   UNL A   1      42.259  30.451  35.483  1.00  0.00     0.049 A 
ATOM     28  C   UNL A   1      38.050  33.148  32.942  1.00  0.00     0.074 A 
ATOM     29  C   UNL A   1      42.702  30.984  36.681  1.00  0.00     0.029 A 
ATOM     30  N   UNL A   1      41.217  31.257  35.048  1.00  0.00    -0.354 N 
ATOM     31  N   UNL A   1      39.023  32.628  33.652  1.00  0.00    -0.248 NA
ATOM     32  C   UNL A   1      37.404  34.313  33.561  1.00  0.00     0.031 C 
ATOM     33  C   UNL A   1      41.895  32.083  36.995  1.00  0.00     0.029 A 
ATOM     34  C   UNL A   1      40.986  32.269  35.965  1.00  0.00     0.049 A 
ATOM     35  H   UNL A   1      40.717  31.130  34.210  1.00  0.00     0.167 HD
ATOM     36  C   UNL A   1      39.122  33.416  34.792  1.00  0.00     0.074 A 
ATOM     37  C   UNL A   1      38.111  34.449  34.677  1.00  0.00     0.031 C 
ATOM     38  C   UNL A   1      39.978  33.293  35.835  1.00  0.00     0.031 A 
BRANCH  25  39
ATOM     39  C   UNL A   1      43.805  28.444  35.444  1.00  0.00    -0.014 A 
ATOM     40  C   UNL A   1      45.170  28.656  35.177  1.00  0.00     0.010 A 
ATOM     41  C   UNL A   1      43.435  27.422  36.339  1.00  0.00     0.010 A 
ATOM     42  C   UNL A   1      46.140  27.820  35.739  1.00  0.00     0.020 A 
ATOM     43  C   UNL A   1      44.404  26.601  36.923  1.00  0.00     0.020 A 
ATOM     44  C   UNL A   1      45.748  26.788  36.596  1.00  0.00     0.054 A 
BRANCH  44  45
ATOM     45  S   UNL A   1      47.021  25.692  37.282  1.00  0.00     0.124 S 
ATOM     46  O   UNL A   1      46.854  24.492  36.464  1.00  0.00    -0.237 OA
ATOM     47  O   UNL A   1      48.253  26.441  37.050  1.00  0.00    -0.237 OA
ATOM     48  O   UNL A   1      46.636  25.548  38.684  1.00  0.00    -0.744 OA
ENDBRANCH  44  45
ENDBRANCH  25  39
BRANCH  26  49
ATOM     49  C   UNL A   1      36.380  33.389  30.951  1.00  0.00    -0.014 A 
ATOM     50  C   UNL A   1      35.179  33.596  31.649  1.00  0.00     0.010 A 
ATOM     51  C   UNL A   1      36.520  33.920  29.654  1.00  0.00     0.010 A 
ATOM     52  C   UNL A   1      34.144  34.336  31.069  1.00  0.00     0.020 A 
ATOM     53  C   UNL A   1      35.497  34.679  29.081  1.00  0.00     0.020 A 
ATOM     54  C   UNL A   1      34.314  34.882  29.793  1.00  0.00     0.054 A 
BRANCH  54  55
ATOM     55  S   UNL A   1      33.002  35.933  29.108  1.00  0.00     0.124 S 
ATOM     56  O   UNL A   1      33.767  37.013  28.494  1.00  0.00    -0.237 OA
ATOM     57  O   UNL A   1      32.326  35.028  28.181  1.00  0.00    -0.237 OA
ATOM     58  O   UNL A   1      32.216  36.308  30.282  1.00  0.00    -0.744 OA
ENDBRANCH  54  55
ENDBRANCH  26  49
BRANCH  38  59
ATOM     59  C   UNL A   1      39.898  34.322  36.931  1.00  0.00    -0.014 A 
ATOM     60  C   UNL A   1      40.528  35.572  36.804  1.00  0.00     0.010 A 
ATOM     61  C   UNL A   1      39.092  34.068  38.056  1.00  0.00     0.010 A 
ATOM     62  C   UNL A   1      40.353  36.550  37.786  1.00  0.00     0.020 A 
ATOM     63  C   UNL A   1      38.899  35.051  39.029  1.00  0.00     0.020 A 
ATOM     64  C   UNL A   1      39.534  36.286  38.890  1.00  0.00     0.054 A 
BRANCH  64  65
ATOM     65  S   UNL A   1      39.248  37.604  40.103  1.00  0.00     0.124 S 
ATOM     66  O   UNL A   1      38.890  36.845  41.299  1.00  0.00    -0.237 OA
ATOM     67  O   UNL A   1      40.542  38.282  40.153  1.00  0.00    -0.237 OA
ATOM     68  O   UNL A   1      38.165  38.388  39.514  1.00  0.00    -0.744 OA
ENDBRANCH  64  65
ENDBRANCH  38  59
ENDBRANCH  12  13
ENDBRANCH   5   7
ENDBRANCH   2   3
ENDBRANCH   1   2
BRANCH   1  69
ATOM     69  C   UNL A   1      35.450  24.129  25.539  1.00  0.00     0.117 C 
BRANCH  69  70
ATOM     70  N   UNL A   1      34.614  23.497  24.534  1.00  0.00    -0.356 N 
ATOM     71  C   UNL A   1      33.363  23.766  24.073  1.00  0.00     0.227 C 
ATOM     72  H   UNL A   1      35.035  22.720  24.100  1.00  0.00     0.163 HD
ATOM     73  O   UNL A   1      32.838  22.832  23.459  1.00  0.00    -0.274 OA
BRANCH  71  74
ATOM     74  C   UNL A   1      32.671  25.134  24.237  1.00  0.00     0.061 C 
ATOM     75  C   UNL A   1      32.059  25.331  25.657  1.00  0.00     0.053 C 
ATOM     76  C   UNL A   1      33.703  26.282  24.037  1.00  0.00     0.053 C 
ATOM     77  C   UNL A   1      32.395  26.754  25.980  1.00  0.00    -0.044 A 
ATOM     78  C   UNL A   1      33.293  27.292  25.061  1.00  0.00    -0.044 A 
ATOM     79  C   UNL A   1      31.934  27.504  27.050  1.00  0.00     0.004 A 
ATOM     80  C   UNL A   1      33.735  28.601  25.176  1.00  0.00     0.004 A 
ATOM     81  C   UNL A   1      32.372  28.824  27.175  1.00  0.00     0.000 A 
ATOM     82  C   UNL A   1      33.262  29.372  26.240  1.00  0.00     0.000 A 
BRANCH  74  83
ATOM     83  C   UNL A   1      31.479  25.263  23.225  1.00  0.00     0.045 C 
BRANCH  83  84
ATOM     84  C   UNL A   1      30.467  26.353  23.475  1.00  0.00    -0.025 C 
ATOM     85  C   UNL A   1      30.507  27.540  22.848  1.00  0.00     0.004 C 
BRANCH  85  86
ATOM     86  C   UNL A   1      29.569  28.634  23.113  1.00  0.00    -0.026 A 
ATOM     87  C   UNL A   1      28.200  28.428  22.914  1.00  0.00     0.008 A 
ATOM     88  C   UNL A   1      30.021  29.907  23.483  1.00  0.00     0.008 A 
ATOM     89  C   UNL A   1      27.293  29.472  23.109  1.00  0.00     0.001 A 
ATOM     90  C   UNL A   1      29.115  30.951  23.675  1.00  0.00     0.001 A 
ATOM     91  C   UNL A   1      27.751  30.733  23.490  1.00  0.00     0.000 A 
ENDBRANCH  85  86
ENDBRANCH  83  84
ENDBRANCH  74  83
ENDBRANCH  71  74
ENDBRANCH  69  70
ENDBRANCH   1  69
TORSDOF 16
ENDMDL
