MODEL 1
REMARK VINA RESULT:     -12.3      0.000      0.000
REMARK SMILES COc1c[nH]c(C[N@H+]2CCC[C@@H](c3ccc(C(=O)NCCCNC(=O)c4ccc(-c5c6nc(c(-c7ccc(S(=O)(=O)[O-])cc7)c7ccc([nH]7)c(-c7ccc(S(=O)(=O)[O-])cc7)c7nc(c(-c8ccc(S(=O)(=O)[O-])cc8)c8ccc5[nH]8)C=C7)C=C6)cc4)cc3)C2)cc1=O
REMARK SMILES IDX 20 1 19 2 17 3 18 4 16 6 13 7 14 8 87 9 15 10 86 11 12 12
REMARK SMILES IDX 8 13 9 14 88 15 10 17 11 18 7 19 6 20 3 21 4 22 90 23 5 24
REMARK SMILES IDX 89 25 91 26 2 28 1 29 21 30 22 31 23 32 24 33 25 35 26 36
REMARK SMILES IDX 27 37 85 38 28 39 84 40 29 41 30 42 31 43 78 44 32 45 83 46
REMARK SMILES IDX 77 47 79 48 33 49 82 50 76 51 75 52 34 54 64 55 45 56 63 57
REMARK SMILES IDX 46 58 49 59 62 60 80 61 47 62 48 63 61 65 81 66 50 67 35 68
REMARK SMILES IDX 36 69 44 70 37 71 43 72 38 73 39 74 40 75 41 76 42 77 65 78
REMARK SMILES IDX 66 79 74 80 67 81 73 82 68 83 69 84 70 85 71 86 72 87 51 88
REMARK SMILES IDX 52 89 60 90 53 91 59 92 54 93 55 94 56 95 57 96 58 97
REMARK H PARENT 19 5 8 16 5 27 23 34 79 53 49 64
REMARK Flexibility Score: inf
ROOT
ATOM      1  C   UNL A   1      42.896  21.905  25.561  1.00  0.00     0.118 C 
ENDROOT
BRANCH   1   2
ATOM      2  N   UNL A   1      42.531  20.544  25.903  1.00  0.00    -0.352 N 
ATOM      3  C   UNL A   1      41.315  19.932  26.057  1.00  0.00     0.251 C 
ATOM      4  O   UNL A   1      41.309  18.722  26.287  1.00  0.00    -0.269 OA
ATOM      5  H   UNL A   1      43.300  19.947  26.052  1.00  0.00     0.163 HD
BRANCH   3   6
ATOM      6  C   UNL A   1      40.018  20.644  25.892  1.00  0.00     0.039 A 
ATOM      7  C   UNL A   1      37.509  21.858  25.409  1.00  0.00    -0.039 A 
ATOM      8  C   UNL A   1      37.750  20.529  25.031  1.00  0.00     0.005 A 
ATOM      9  C   UNL A   1      38.513  22.544  26.099  1.00  0.00     0.005 A 
ATOM     10  C   UNL A   1      38.993  19.935  25.256  1.00  0.00     0.014 A 
ATOM     11  C   UNL A   1      39.746  21.932  26.357  1.00  0.00     0.014 A 
BRANCH   7  12
ATOM     12  C   UNL A   1      36.198  22.558  25.083  1.00  0.00     0.074 C 
ATOM     13  N   UNL A   1      33.686  22.290  25.246  1.00  0.00    -0.329 N 
ATOM     14  C   UNL A   1      33.597  23.552  25.992  1.00  0.00     0.262 C 
ATOM     15  C   UNL A   1      34.996  21.653  25.431  1.00  0.00     0.270 C 
ATOM     16  H   UNL A   1      33.602  22.514  24.254  1.00  0.00     0.348 HD
ATOM     17  C   UNL A   1      34.712  24.519  25.588  1.00  0.00     0.062 C 
ATOM     18  C   UNL A   1      36.091  23.904  25.808  1.00  0.00     0.020 C 
BRANCH  13  19
ATOM     19  C   UNL A   1      32.562  21.379  25.549  1.00  0.00     0.317 C 
BRANCH  19  20
ATOM     20  C   UNL A   1      32.718  19.921  25.121  1.00  0.00     0.074 A 
ATOM     21  C   UNL A   1      32.789  17.113  24.599  1.00  0.00     0.182 A 
ATOM     22  C   UNL A   1      32.912  17.624  25.830  1.00  0.00     0.133 A 
ATOM     23  C   UNL A   1      32.693  18.106  23.470  1.00  0.00     0.223 A 
ATOM     24  N   UNL A   1      32.955  18.966  26.094  1.00  0.00    -0.357 N 
ATOM     25  C   UNL A   1      32.623  19.554  23.829  1.00  0.00     0.083 A 
ATOM     26  O   UNL A   1      32.654  17.773  22.289  1.00  0.00    -0.286 OA
ATOM     27  H   UNL A   1      33.161  19.263  27.010  1.00  0.00     0.166 HD
BRANCH  21  28
ATOM     28  O   UNL A   1      32.667  15.752  24.403  1.00  0.00    -0.491 OA
ATOM     29  C   UNL A   1      32.867  15.019  25.605  1.00  0.00     0.278 C 
ENDBRANCH  21  28
ENDBRANCH  19  20
ENDBRANCH  13  19
ENDBRANCH   7  12
ENDBRANCH   3   6
ENDBRANCH   1   2
BRANCH   1  30
ATOM     30  C   UNL A   1      43.676  22.566  26.695  1.00  0.00     0.042 C 
BRANCH  30  31
ATOM     31  C   UNL A   1      43.118  23.926  27.102  1.00  0.00     0.118 C 
BRANCH  31  32
ATOM     32  N   UNL A   1      42.406  24.568  26.007  1.00  0.00    -0.352 N 
ATOM     33  C   UNL A   1      41.500  25.598  26.037  1.00  0.00     0.251 C 
ATOM     34  H   UNL A   1      42.604  24.210  25.112  1.00  0.00     0.163 HD
ATOM     35  O   UNL A   1      40.830  25.836  25.036  1.00  0.00    -0.269 OA
BRANCH  33  36
ATOM     36  C   UNL A   1      41.323  26.411  27.261  1.00  0.00     0.039 A 
ATOM     37  C   UNL A   1      42.166  27.506  27.469  1.00  0.00     0.014 A 
ATOM     38  C   UNL A   1      40.368  26.072  28.225  1.00  0.00     0.014 A 
ATOM     39  C   UNL A   1      42.020  28.287  28.618  1.00  0.00     0.010 A 
ATOM     40  C   UNL A   1      40.179  26.890  29.336  1.00  0.00     0.010 A 
ATOM     41  C   UNL A   1      41.009  28.001  29.549  1.00  0.00    -0.014 A 
BRANCH  41  42
ATOM     42  C   UNL A   1      40.814  28.842  30.758  1.00  0.00     0.031 A 
ATOM     43  C   UNL A   1      39.747  29.905  30.773  1.00  0.00     0.074 A 
ATOM     44  C   UNL A   1      41.630  28.683  31.818  1.00  0.00     0.049 A 
ATOM     45  N   UNL A   1      39.479  30.789  31.700  1.00  0.00    -0.248 NA
ATOM     46  C   UNL A   1      38.881  29.999  29.586  1.00  0.00     0.031 C 
ATOM     47  C   UNL A   1      42.721  27.708  31.913  1.00  0.00     0.029 A 
ATOM     48  N   UNL A   1      41.676  29.345  33.020  1.00  0.00    -0.354 N 
ATOM     49  C   UNL A   1      38.425  31.548  31.206  1.00  0.00     0.074 A 
ATOM     50  C   UNL A   1      38.132  31.053  29.879  1.00  0.00     0.031 C 
ATOM     51  C   UNL A   1      43.315  27.826  33.111  1.00  0.00     0.029 A 
ATOM     52  C   UNL A   1      42.677  28.908  33.855  1.00  0.00     0.049 A 
ATOM     53  H   UNL A   1      41.050  30.066  33.261  1.00  0.00     0.167 HD
ATOM     54  C   UNL A   1      37.744  32.550  31.812  1.00  0.00     0.031 A 
ATOM     55  C   UNL A   1      43.049  29.336  35.076  1.00  0.00     0.031 A 
ATOM     56  C   UNL A   1      38.029  33.031  33.138  1.00  0.00     0.049 A 
ATOM     57  C   UNL A   1      42.287  30.465  35.718  1.00  0.00     0.074 A 
ATOM     58  C   UNL A   1      37.379  34.025  33.849  1.00  0.00     0.029 A 
ATOM     59  N   UNL A   1      39.038  32.549  33.955  1.00  0.00    -0.354 N 
ATOM     60  N   UNL A   1      41.266  31.142  35.249  1.00  0.00    -0.248 NA
ATOM     61  C   UNL A   1      42.720  30.880  37.060  1.00  0.00     0.031 C 
ATOM     62  C   UNL A   1      38.019  34.169  35.084  1.00  0.00     0.029 A 
ATOM     63  C   UNL A   1      39.034  33.229  35.161  1.00  0.00     0.049 A 
ATOM     64  H   UNL A   1      39.664  31.828  33.715  1.00  0.00     0.167 HD
ATOM     65  C   UNL A   1      40.917  32.040  36.251  1.00  0.00     0.074 A 
ATOM     66  C   UNL A   1      41.823  31.809  37.357  1.00  0.00     0.031 C 
ATOM     67  C   UNL A   1      39.935  32.974  36.255  1.00  0.00     0.031 A 
BRANCH  54  68
ATOM     68  C   UNL A   1      36.611  33.187  31.053  1.00  0.00    -0.014 A 
ATOM     69  C   UNL A   1      35.310  33.202  31.587  1.00  0.00     0.010 A 
ATOM     70  C   UNL A   1      36.858  33.840  29.832  1.00  0.00     0.010 A 
ATOM     71  C   UNL A   1      34.271  33.837  30.902  1.00  0.00     0.020 A 
ATOM     72  C   UNL A   1      35.827  34.500  29.156  1.00  0.00     0.020 A 
ATOM     73  C   UNL A   1      34.536  34.484  29.691  1.00  0.00     0.054 A 
BRANCH  73  74
ATOM     74  S   UNL A   1      33.179  35.346  28.852  1.00  0.00     0.124 S 
ATOM     75  O   UNL A   1      32.400  35.850  29.981  1.00  0.00    -0.237 OA
ATOM     76  O   UNL A   1      33.879  36.360  28.069  1.00  0.00    -0.237 OA
ATOM     77  O   UNL A   1      32.531  34.297  28.069  1.00  0.00    -0.744 OA
ENDBRANCH  73  74
ENDBRANCH  54  68
BRANCH  55  78
ATOM     78  C   UNL A   1      44.201  28.706  35.778  1.00  0.00    -0.014 A 
ATOM     79  C   UNL A   1      44.024  27.535  36.535  1.00  0.00     0.010 A 
ATOM     80  C   UNL A   1      45.477  29.293  35.714  1.00  0.00     0.010 A 
ATOM     81  C   UNL A   1      45.093  26.985  37.250  1.00  0.00     0.020 A 
ATOM     82  C   UNL A   1      46.555  28.730  36.402  1.00  0.00     0.020 A 
ATOM     83  C   UNL A   1      46.351  27.591  37.184  1.00  0.00     0.054 A 
BRANCH  83  84
ATOM     84  S   UNL A   1      47.729  26.858  38.110  1.00  0.00     0.124 S 
ATOM     85  O   UNL A   1      48.165  25.796  37.212  1.00  0.00    -0.237 OA
ATOM     86  O   UNL A   1      48.648  27.984  38.257  1.00  0.00    -0.237 OA
ATOM     87  O   UNL A   1      47.102  26.412  39.353  1.00  0.00    -0.744 OA
ENDBRANCH  83  84
ENDBRANCH  55  78
BRANCH  67  88
ATOM     88  C   UNL A   1      39.757  33.785  37.511  1.00  0.00    -0.014 A 
ATOM     89  C   UNL A   1      40.283  35.085  37.620  1.00  0.00     0.010 A 
ATOM     90  C   UNL A   1      39.005  33.255  38.575  1.00  0.00     0.010 A 
ATOM     91  C   UNL A   1      40.087  35.827  38.787  1.00  0.00     0.020 A 
ATOM     92  C   UNL A   1      38.785  34.005  39.732  1.00  0.00     0.020 A 
ATOM     93  C   UNL A   1      39.340  35.283  39.837  1.00  0.00     0.054 A 
BRANCH  93  94
ATOM     94  S   UNL A   1      39.062  36.283  41.323  1.00  0.00     0.124 S 
ATOM     95  O   UNL A   1      37.862  35.668  41.882  1.00  0.00    -0.237 OA
ATOM     96  O   UNL A   1      40.291  36.073  42.086  1.00  0.00    -0.237 OA
ATOM     97  O   UNL A   1      38.884  37.637  40.802  1.00  0.00    -0.744 OA
ENDBRANCH  93  94
ENDBRANCH  67  88
ENDBRANCH  41  42
ENDBRANCH  33  36
ENDBRANCH  31  32
ENDBRANCH  30  31
ENDBRANCH   1  30
TORSDOF 17
ENDMDL
MODEL 2
REMARK VINA RESULT:     -11.9      6.053     11.828
REMARK SMILES COc1c[nH]c(C[N@H+]2CCC[C@@H](c3ccc(C(=O)NCCCNC(=O)c4ccc(-c5c6nc(c(-c7ccc(S(=O)(=O)[O-])cc7)c7ccc([nH]7)c(-c7ccc(S(=O)(=O)[O-])cc7)c7nc(c(-c8ccc(S(=O)(=O)[O-])cc8)c8ccc5[nH]8)C=C7)C=C6)cc4)cc3)C2)cc1=O
REMARK SMILES IDX 20 1 19 2 17 3 18 4 16 6 13 7 14 8 87 9 15 10 86 11 12 12
REMARK SMILES IDX 8 13 9 14 88 15 10 17 11 18 7 19 6 20 3 21 4 22 90 23 5 24
REMARK SMILES IDX 89 25 91 26 2 28 1 29 21 30 22 31 23 32 24 33 25 35 26 36
REMARK SMILES IDX 27 37 85 38 28 39 84 40 29 41 30 42 31 43 78 44 32 45 83 46
REMARK SMILES IDX 77 47 79 48 33 49 82 50 76 51 75 52 34 54 64 55 45 56 63 57
REMARK SMILES IDX 46 58 49 59 62 60 80 61 47 62 48 63 61 65 81 66 50 67 35 68
REMARK SMILES IDX 36 69 44 70 37 71 43 72 38 73 39 74 40 75 41 76 42 77 65 78
REMARK SMILES IDX 66 79 74 80 67 81 73 82 68 83 69 84 70 85 71 86 72 87 51 88
REMARK SMILES IDX 52 89 60 90 53 91 59 92 54 93 55 94 56 95 57 96 58 97
REMARK H PARENT 19 5 8 16 5 27 23 34 79 53 49 64
REMARK Flexibility Score: inf
ROOT
ATOM      1  C   UNL A   1      34.291  30.711  27.278  1.00  0.00     0.118 C 
ENDROOT
BRANCH   1   2
ATOM      2  N   UNL A   1      33.073  30.764  26.493  1.00  0.00    -0.352 N 
ATOM      3  C   UNL A   1      32.370  29.797  25.826  1.00  0.00     0.251 C 
ATOM      4  O   UNL A   1      31.311  30.128  25.291  1.00  0.00    -0.269 OA
ATOM      5  H   UNL A   1      32.677  31.664  26.427  1.00  0.00     0.163 HD
BRANCH   3   6
ATOM      6  C   UNL A   1      32.789  28.370  25.779  1.00  0.00     0.039 A 
ATOM      7  C   UNL A   1      33.549  25.648  25.912  1.00  0.00    -0.039 A 
ATOM      8  C   UNL A   1      32.677  26.199  26.862  1.00  0.00     0.005 A 
ATOM      9  C   UNL A   1      33.973  26.457  24.853  1.00  0.00     0.005 A 
ATOM     10  C   UNL A   1      32.314  27.545  26.805  1.00  0.00     0.014 A 
ATOM     11  C   UNL A   1      33.577  27.798  24.778  1.00  0.00     0.014 A 
BRANCH   7  12
ATOM     12  C   UNL A   1      34.038  24.210  26.012  1.00  0.00     0.074 C 
ATOM     13  N   UNL A   1      33.467  21.844  25.318  1.00  0.00    -0.329 N 
ATOM     14  C   UNL A   1      34.775  21.717  24.662  1.00  0.00     0.262 C 
ATOM     15  C   UNL A   1      33.026  23.244  25.360  1.00  0.00     0.270 C 
ATOM     16  H   UNL A   1      33.578  21.538  26.284  1.00  0.00     0.348 HD
ATOM     17  C   UNL A   1      35.833  22.580  25.356  1.00  0.00     0.062 C 
ATOM     18  C   UNL A   1      35.425  24.050  25.379  1.00  0.00     0.020 C 
BRANCH  13  19
ATOM     19  C   UNL A   1      32.454  20.945  24.724  1.00  0.00     0.317 C 
BRANCH  19  20
ATOM     20  C   UNL A   1      32.791  19.455  24.684  1.00  0.00     0.074 A 
ATOM     21  C   UNL A   1      33.131  16.623  24.826  1.00  0.00     0.182 A 
ATOM     22  C   UNL A   1      32.872  17.376  25.902  1.00  0.00     0.133 A 
ATOM     23  C   UNL A   1      33.322  17.359  23.526  1.00  0.00     0.223 A 
ATOM     24  N   UNL A   1      32.778  18.740  25.869  1.00  0.00    -0.357 N 
ATOM     25  C   UNL A   1      33.087  18.834  23.527  1.00  0.00     0.083 A 
ATOM     26  O   UNL A   1      33.639  16.798  22.481  1.00  0.00    -0.286 OA
ATOM     27  H   UNL A   1      32.699  19.231  26.718  1.00  0.00     0.166 HD
BRANCH  21  28
ATOM     28  O   UNL A   1      33.131  15.245  24.906  1.00  0.00    -0.491 OA
ATOM     29  C   UNL A   1      32.174  14.763  25.842  1.00  0.00     0.278 C 
ENDBRANCH  21  28
ENDBRANCH  19  20
ENDBRANCH  13  19
ENDBRANCH   7  12
ENDBRANCH   3   6
ENDBRANCH   1   2
BRANCH   1  30
ATOM     30  C   UNL A   1      34.577  32.056  27.942  1.00  0.00     0.042 C 
BRANCH  30  31
ATOM     31  C   UNL A   1      35.848  32.057  28.785  1.00  0.00     0.118 C 
BRANCH  31  32
ATOM     32  N   UNL A   1      35.639  31.424  30.079  1.00  0.00    -0.352 N 
ATOM     33  C   UNL A   1      36.390  30.470  30.718  1.00  0.00     0.251 C 
ATOM     34  H   UNL A   1      34.841  31.725  30.569  1.00  0.00     0.163 HD
ATOM     35  O   UNL A   1      35.920  29.890  31.692  1.00  0.00    -0.269 OA
BRANCH  33  36
ATOM     36  C   UNL A   1      37.750  30.135  30.238  1.00  0.00     0.039 A 
ATOM     37  C   UNL A   1      37.967  30.019  28.862  1.00  0.00     0.014 A 
ATOM     38  C   UNL A   1      38.795  29.887  31.134  1.00  0.00     0.014 A 
ATOM     39  C   UNL A   1      39.242  29.701  28.384  1.00  0.00     0.010 A 
ATOM     40  C   UNL A   1      40.079  29.637  30.654  1.00  0.00     0.010 A 
ATOM     41  C   UNL A   1      40.313  29.533  29.275  1.00  0.00    -0.014 A 
BRANCH  41  42
ATOM     42  C   UNL A   1      41.683  29.231  28.785  1.00  0.00     0.031 A 
ATOM     43  C   UNL A   1      42.032  27.838  28.334  1.00  0.00     0.074 A 
ATOM     44  C   UNL A   1      42.622  30.198  28.795  1.00  0.00     0.049 A 
ATOM     45  N   UNL A   1      43.190  27.362  27.951  1.00  0.00    -0.248 NA
ATOM     46  C   UNL A   1      40.945  26.845  28.329  1.00  0.00     0.031 C 
ATOM     47  C   UNL A   1      42.414  31.580  29.237  1.00  0.00     0.029 A 
ATOM     48  N   UNL A   1      43.945  30.164  28.429  1.00  0.00    -0.354 N 
ATOM     49  C   UNL A   1      42.973  26.018  27.670  1.00  0.00     0.074 A 
ATOM     50  C   UNL A   1      41.587  25.741  27.972  1.00  0.00     0.031 C 
ATOM     51  C   UNL A   1      43.563  32.263  29.102  1.00  0.00     0.029 A 
ATOM     52  C   UNL A   1      44.596  31.363  28.602  1.00  0.00     0.049 A 
ATOM     53  H   UNL A   1      44.385  29.358  28.076  1.00  0.00     0.167 HD
ATOM     54  C   UNL A   1      43.844  25.103  27.182  1.00  0.00     0.031 A 
ATOM     55  C   UNL A   1      45.884  31.697  28.393  1.00  0.00     0.031 A 
ATOM     56  C   UNL A   1      45.220  25.385  26.871  1.00  0.00     0.049 A 
ATOM     57  C   UNL A   1      46.835  30.655  27.869  1.00  0.00     0.074 A 
ATOM     58  C   UNL A   1      46.176  24.530  26.347  1.00  0.00     0.029 A 
ATOM     59  N   UNL A   1      45.835  26.614  27.042  1.00  0.00    -0.354 N 
ATOM     60  N   UNL A   1      46.598  29.399  27.572  1.00  0.00    -0.248 NA
ATOM     61  C   UNL A   1      48.224  31.078  27.639  1.00  0.00     0.031 C 
ATOM     62  C   UNL A   1      47.378  25.235  26.237  1.00  0.00     0.029 A 
ATOM     63  C   UNL A   1      47.157  26.541  26.643  1.00  0.00     0.049 A 
ATOM     64  H   UNL A   1      45.395  27.421  27.396  1.00  0.00     0.167 HD
ATOM     65  C   UNL A   1      47.801  28.892  27.092  1.00  0.00     0.074 A 
ATOM     66  C   UNL A   1      48.757  29.980  27.122  1.00  0.00     0.031 C 
ATOM     67  C   UNL A   1      48.090  27.638  26.666  1.00  0.00     0.031 A 
BRANCH  54  68
ATOM     68  C   UNL A   1      43.332  23.708  26.939  1.00  0.00    -0.014 A 
ATOM     69  C   UNL A   1      43.162  23.225  25.628  1.00  0.00     0.010 A 
ATOM     70  C   UNL A   1      43.087  22.846  28.023  1.00  0.00     0.010 A 
ATOM     71  C   UNL A   1      42.734  21.914  25.407  1.00  0.00     0.020 A 
ATOM     72  C   UNL A   1      42.683  21.525  27.806  1.00  0.00     0.020 A 
ATOM     73  C   UNL A   1      42.498  21.071  26.497  1.00  0.00     0.054 A 
BRANCH  73  74
ATOM     74  S   UNL A   1      41.995  19.359  26.177  1.00  0.00     0.124 S 
ATOM     75  O   UNL A   1      40.557  19.504  25.957  1.00  0.00    -0.237 OA
ATOM     76  O   UNL A   1      42.778  19.011  24.994  1.00  0.00    -0.237 OA
ATOM     77  O   UNL A   1      42.369  18.651  27.398  1.00  0.00    -0.744 OA
ENDBRANCH  73  74
ENDBRANCH  54  68
BRANCH  55  78
ATOM     78  C   UNL A   1      46.361  33.077  28.685  1.00  0.00    -0.014 A 
ATOM     79  C   UNL A   1      46.229  34.098  27.727  1.00  0.00     0.010 A 
ATOM     80  C   UNL A   1      46.977  33.370  29.915  1.00  0.00     0.010 A 
ATOM     81  C   UNL A   1      46.740  35.375  27.976  1.00  0.00     0.020 A 
ATOM     82  C   UNL A   1      47.463  34.653  30.180  1.00  0.00     0.020 A 
ATOM     83  C   UNL A   1      47.361  35.643  29.200  1.00  0.00     0.054 A 
BRANCH  83  84
ATOM     84  S   UNL A   1      48.011  37.308  29.510  1.00  0.00     0.124 S 
ATOM     85  O   UNL A   1      46.863  38.146  29.181  1.00  0.00    -0.237 OA
ATOM     86  O   UNL A   1      48.372  37.250  30.924  1.00  0.00    -0.237 OA
ATOM     87  O   UNL A   1      49.143  37.406  28.590  1.00  0.00    -0.744 OA
ENDBRANCH  83  84
ENDBRANCH  55  78
BRANCH  67  88
ATOM     88  C   UNL A   1      49.482  27.385  26.153  1.00  0.00    -0.014 A 
ATOM     89  C   UNL A   1      50.556  27.168  27.034  1.00  0.00     0.010 A 
ATOM     90  C   UNL A   1      49.704  27.312  24.766  1.00  0.00     0.010 A 
ATOM     91  C   UNL A   1      51.835  26.913  26.535  1.00  0.00     0.020 A 
ATOM     92  C   UNL A   1      50.976  27.030  24.264  1.00  0.00     0.020 A 
ATOM     93  C   UNL A   1      52.038  26.847  25.153  1.00  0.00     0.054 A 
BRANCH  93  94
ATOM     94  S   UNL A   1      53.699  26.471  24.530  1.00  0.00     0.124 S 
ATOM     95  O   UNL A   1      53.615  25.033  24.292  1.00  0.00    -0.237 OA
ATOM     96  O   UNL A   1      53.789  27.304  23.332  1.00  0.00    -0.237 OA
ATOM     97  O   UNL A   1      54.579  26.872  25.626  1.00  0.00    -0.744 OA
ENDBRANCH  93  94
ENDBRANCH  67  88
ENDBRANCH  41  42
ENDBRANCH  33  36
ENDBRANCH  31  32
ENDBRANCH  30  31
ENDBRANCH   1  30
TORSDOF 17
ENDMDL
MODEL 3
REMARK VINA RESULT:     -11.9      2.920      9.207
REMARK SMILES COc1c[nH]c(C[N@H+]2CCC[C@@H](c3ccc(C(=O)NCCCNC(=O)c4ccc(-c5c6nc(c(-c7ccc(S(=O)(=O)[O-])cc7)c7ccc([nH]7)c(-c7ccc(S(=O)(=O)[O-])cc7)c7nc(c(-c8ccc(S(=O)(=O)[O-])cc8)c8ccc5[nH]8)C=C7)C=C6)cc4)cc3)C2)cc1=O
REMARK SMILES IDX 20 1 19 2 17 3 18 4 16 6 13 7 14 8 87 9 15 10 86 11 12 12
REMARK SMILES IDX 8 13 9 14 88 15 10 17 11 18 7 19 6 20 3 21 4 22 90 23 5 24
REMARK SMILES IDX 89 25 91 26 2 28 1 29 21 30 22 31 23 32 24 33 25 35 26 36
REMARK SMILES IDX 27 37 85 38 28 39 84 40 29 41 30 42 31 43 78 44 32 45 83 46
REMARK SMILES IDX 77 47 79 48 33 49 82 50 76 51 75 52 34 54 64 55 45 56 63 57
REMARK SMILES IDX 46 58 49 59 62 60 80 61 47 62 48 63 61 65 81 66 50 67 35 68
REMARK SMILES IDX 36 69 44 70 37 71 43 72 38 73 39 74 40 75 41 76 42 77 65 78
REMARK SMILES IDX 66 79 74 80 67 81 73 82 68 83 69 84 70 85 71 86 72 87 51 88
REMARK SMILES IDX 52 89 60 90 53 91 59 92 54 93 55 94 56 95 57 96 58 97
REMARK H PARENT 19 5 8 16 5 27 23 34 79 53 49 64
REMARK Flexibility Score: inf
ROOT
ATOM      1  C   UNL A   1      39.326  22.365  26.348  1.00  0.00     0.118 C 
ENDROOT
BRANCH   1   2
ATOM      2  N   UNL A   1      38.737  21.203  25.711  1.00  0.00    -0.352 N 
ATOM      3  C   UNL A   1      37.478  20.962  25.228  1.00  0.00     0.251 C 
ATOM      4  O   UNL A   1      37.280  19.885  24.664  1.00  0.00    -0.269 OA
ATOM      5  H   UNL A   1      39.358  20.446  25.605  1.00  0.00     0.163 HD
BRANCH   3   6
ATOM      6  C   UNL A   1      36.375  21.959  25.293  1.00  0.00     0.039 A 
ATOM      7  C   UNL A   1      34.429  24.012  25.358  1.00  0.00    -0.039 A 
ATOM      8  C   UNL A   1      35.581  24.137  24.566  1.00  0.00     0.005 A 
ATOM      9  C   UNL A   1      34.230  22.815  26.054  1.00  0.00     0.005 A 
ATOM     10  C   UNL A   1      36.548  23.130  24.546  1.00  0.00     0.014 A 
ATOM     11  C   UNL A   1      35.184  21.792  26.002  1.00  0.00     0.014 A 
BRANCH   7  12
ATOM     12  C   UNL A   1      33.412  25.137  25.475  1.00  0.00     0.074 C 
ATOM     13  N   UNL A   1      31.588  26.334  24.191  1.00  0.00    -0.329 N 
ATOM     14  C   UNL A   1      30.630  26.029  25.262  1.00  0.00     0.262 C 
ATOM     15  C   UNL A   1      32.664  25.336  24.139  1.00  0.00     0.270 C 
ATOM     16  H   UNL A   1      32.023  27.229  24.415  1.00  0.00     0.348 HD
ATOM     17  C   UNL A   1      31.325  25.936  26.622  1.00  0.00     0.062 C 
ATOM     18  C   UNL A   1      32.423  24.876  26.616  1.00  0.00     0.020 C 
BRANCH  13  19
ATOM     19  C   UNL A   1      30.924  26.525  22.883  1.00  0.00     0.317 C 
BRANCH  19  20
ATOM     20  C   UNL A   1      30.099  27.799  22.707  1.00  0.00     0.074 A 
ATOM     21  C   UNL A   1      28.690  30.191  22.036  1.00  0.00     0.182 A 
ATOM     22  C   UNL A   1      29.980  30.001  21.732  1.00  0.00     0.133 A 
ATOM     23  C   UNL A   1      28.025  29.103  22.836  1.00  0.00     0.223 A 
ATOM     24  N   UNL A   1      30.693  28.895  22.107  1.00  0.00    -0.357 N 
ATOM     25  C   UNL A   1      28.817  27.867  23.112  1.00  0.00     0.083 A 
ATOM     26  O   UNL A   1      26.871  29.185  23.247  1.00  0.00    -0.286 OA
ATOM     27  H   UNL A   1      31.664  28.879  21.945  1.00  0.00     0.166 HD
BRANCH  21  28
ATOM     28  O   UNL A   1      28.002  31.288  21.558  1.00  0.00    -0.491 OA
ATOM     29  C   UNL A   1      28.250  32.455  22.333  1.00  0.00     0.278 C 
ENDBRANCH  21  28
ENDBRANCH  19  20
ENDBRANCH  13  19
ENDBRANCH   7  12
ENDBRANCH   3   6
ENDBRANCH   1   2
BRANCH   1  30
ATOM     30  C   UNL A   1      40.450  21.960  27.298  1.00  0.00     0.042 C 
BRANCH  30  31
ATOM     31  C   UNL A   1      41.442  23.085  27.577  1.00  0.00     0.118 C 
BRANCH  31  32
ATOM     32  N   UNL A   1      41.766  23.832  26.371  1.00  0.00    -0.352 N 
ATOM     33  C   UNL A   1      41.684  25.180  26.128  1.00  0.00     0.251 C 
ATOM     34  H   UNL A   1      42.092  23.290  25.618  1.00  0.00     0.163 HD
ATOM     35  O   UNL A   1      41.772  25.588  24.974  1.00  0.00    -0.269 OA
BRANCH  33  36
ATOM     36  C   UNL A   1      41.484  26.136  27.240  1.00  0.00     0.039 A 
ATOM     37  C   UNL A   1      40.394  25.952  28.096  1.00  0.00     0.014 A 
ATOM     38  C   UNL A   1      42.330  27.235  27.414  1.00  0.00     0.014 A 
ATOM     39  C   UNL A   1      40.182  26.843  29.152  1.00  0.00     0.010 A 
ATOM     40  C   UNL A   1      42.157  28.082  28.506  1.00  0.00     0.010 A 
ATOM     41  C   UNL A   1      41.076  27.900  29.381  1.00  0.00    -0.014 A 
BRANCH  41  42
ATOM     42  C   UNL A   1      40.889  28.835  30.520  1.00  0.00     0.031 A 
ATOM     43  C   UNL A   1      41.755  28.713  31.746  1.00  0.00     0.074 A 
ATOM     44  C   UNL A   1      39.906  29.756  30.472  1.00  0.00     0.049 A 
ATOM     45  N   UNL A   1      41.690  29.380  32.870  1.00  0.00    -0.248 NA
ATOM     46  C   UNL A   1      42.822  27.698  31.712  1.00  0.00     0.031 C 
ATOM     47  C   UNL A   1      38.981  29.953  29.352  1.00  0.00     0.029 A 
ATOM     48  N   UNL A   1      39.515  30.697  31.391  1.00  0.00    -0.354 N 
ATOM     49  C   UNL A   1      42.695  28.861  33.678  1.00  0.00     0.074 A 
ATOM     50  C   UNL A   1      43.325  27.792  32.935  1.00  0.00     0.031 C 
ATOM     51  C   UNL A   1      38.142  30.960  29.645  1.00  0.00     0.029 A 
ATOM     52  C   UNL A   1      38.442  31.455  30.984  1.00  0.00     0.049 A 
ATOM     53  H   UNL A   1      39.961  30.817  32.260  1.00  0.00     0.167 HD
ATOM     54  C   UNL A   1      43.076  29.255  34.916  1.00  0.00     0.031 A 
ATOM     55  C   UNL A   1      37.768  32.431  31.622  1.00  0.00     0.031 A 
ATOM     56  C   UNL A   1      42.456  30.327  35.648  1.00  0.00     0.049 A 
ATOM     57  C   UNL A   1      38.201  32.836  33.006  1.00  0.00     0.074 A 
ATOM     58  C   UNL A   1      42.787  30.819  36.899  1.00  0.00     0.029 A 
ATOM     59  N   UNL A   1      41.386  31.081  35.192  1.00  0.00    -0.354 N 
ATOM     60  N   UNL A   1      39.181  32.358  33.735  1.00  0.00    -0.248 NA
ATOM     61  C   UNL A   1      37.444  33.920  33.648  1.00  0.00     0.031 C 
ATOM     62  C   UNL A   1      41.893  31.846  37.215  1.00  0.00     0.029 A 
ATOM     63  C   UNL A   1      41.039  32.028  36.140  1.00  0.00     0.049 A 
ATOM     64  H   UNL A   1      40.940  30.961  34.323  1.00  0.00     0.167 HD
ATOM     65  C   UNL A   1      39.177  33.105  34.908  1.00  0.00     0.074 A 
ATOM     66  C   UNL A   1      38.109  34.075  34.784  1.00  0.00     0.031 C 
ATOM     67  C   UNL A   1      39.983  32.996  35.992  1.00  0.00     0.031 A 
BRANCH  54  68
ATOM     68  C   UNL A   1      44.231  28.532  35.558  1.00  0.00    -0.014 A 
ATOM     69  C   UNL A   1      44.012  27.384  36.340  1.00  0.00     0.010 A 
ATOM     70  C   UNL A   1      45.550  28.957  35.319  1.00  0.00     0.010 A 
ATOM     71  C   UNL A   1      45.090  26.688  36.892  1.00  0.00     0.020 A 
ATOM     72  C   UNL A   1      46.633  28.249  35.849  1.00  0.00     0.020 A 
ATOM     73  C   UNL A   1      46.394  27.123  36.642  1.00  0.00     0.054 A 
BRANCH  73  74
ATOM     74  S   UNL A   1      47.775  26.168  37.329  1.00  0.00     0.124 S 
ATOM     75  O   UNL A   1      48.883  27.113  37.208  1.00  0.00    -0.237 OA
ATOM     76  O   UNL A   1      47.328  25.896  38.693  1.00  0.00    -0.237 OA
ATOM     77  O   UNL A   1      47.856  24.999  36.459  1.00  0.00    -0.744 OA
ENDBRANCH  73  74
ENDBRANCH  54  68
BRANCH  55  78
ATOM     78  C   UNL A   1      36.606  33.094  30.969  1.00  0.00    -0.014 A 
ATOM     79  C   UNL A   1      36.772  33.814  29.773  1.00  0.00     0.010 A 
ATOM     80  C   UNL A   1      35.330  33.033  31.558  1.00  0.00     0.010 A 
ATOM     81  C   UNL A   1      35.693  34.494  29.199  1.00  0.00     0.020 A 
ATOM     82  C   UNL A   1      34.243  33.687  30.972  1.00  0.00     0.020 A 
ATOM     83  C   UNL A   1      34.436  34.432  29.807  1.00  0.00     0.054 A 
BRANCH  83  84
ATOM     84  S   UNL A   1      33.046  35.313  29.044  1.00  0.00     0.124 S 
ATOM     85  O   UNL A   1      32.572  34.340  28.066  1.00  0.00    -0.237 OA
ATOM     86  O   UNL A   1      32.161  35.555  30.180  1.00  0.00    -0.237 OA
ATOM     87  O   UNL A   1      33.670  36.511  28.485  1.00  0.00    -0.744 OA
ENDBRANCH  83  84
ENDBRANCH  55  78
BRANCH  67  88
ATOM     88  C   UNL A   1      39.774  33.980  37.111  1.00  0.00    -0.014 A 
ATOM     89  C   UNL A   1      39.097  33.614  38.288  1.00  0.00     0.010 A 
ATOM     90  C   UNL A   1      40.311  35.276  37.002  1.00  0.00     0.010 A 
ATOM     91  C   UNL A   1      38.934  34.538  39.322  1.00  0.00     0.020 A 
ATOM     92  C   UNL A   1      40.174  36.193  38.045  1.00  0.00     0.020 A 
ATOM     93  C   UNL A   1      39.472  35.823  39.195  1.00  0.00     0.054 A 
BRANCH  93  94
ATOM     94  S   UNL A   1      39.286  36.990  40.570  1.00  0.00     0.124 S 
ATOM     95  O   UNL A   1      40.670  37.186  40.991  1.00  0.00    -0.237 OA
ATOM     96  O   UNL A   1      38.653  38.141  39.930  1.00  0.00    -0.237 OA
ATOM     97  O   UNL A   1      38.440  36.272  41.522  1.00  0.00    -0.744 OA
ENDBRANCH  93  94
ENDBRANCH  67  88
ENDBRANCH  41  42
ENDBRANCH  33  36
ENDBRANCH  31  32
ENDBRANCH  30  31
ENDBRANCH   1  30
TORSDOF 17
ENDMDL
