MODEL 1
REMARK VINA RESULT:     -11.2      0.000      0.000
REMARK SMILES C[C@@H]1[C@@H](C(=O)NCCCNC(=O)c2ccc(-c3c4nc(c(-c5ccc(S(=O)(=O)[O-])cc5)c5ccc([nH]5)c(-c5ccc(S(=O)(=O)[O-])cc5)c5nc(c(-c6ccc(S(=O)(=O)[O-])cc6)c6ccc3[nH]6)C=C5)C=C4)cc2)CCN1C(=O)c1cc(Cl)ccc1O
REMARK SMILES IDX 8 1 7 2 6 3 4 4 5 5 3 7 1 8 2 9 75 10 73 11 74 12 76 13
REMARK SMILES IDX 77 14 78 15 79 16 84 17 80 18 83 19 81 20 82 21 85 22 9 24
REMARK SMILES IDX 10 25 11 26 12 28 13 29 14 30 72 31 15 32 71 33 16 34 17 35
REMARK SMILES IDX 18 36 65 37 19 38 70 39 64 40 66 41 20 42 69 43 63 44 62 45
REMARK SMILES IDX 21 47 51 48 32 49 50 50 33 51 36 52 49 53 67 54 34 55 35 56
REMARK SMILES IDX 48 58 68 59 37 60 22 61 23 62 31 63 24 64 30 65 25 66 26 67
REMARK SMILES IDX 27 68 28 69 29 70 52 71 53 72 61 73 54 74 60 75 55 76 56 77
REMARK SMILES IDX 57 78 58 79 59 80 38 81 39 82 47 83 40 84 46 85 41 86 42 87
REMARK SMILES IDX 43 88 44 89 45 90
REMARK H PARENT 6 6 85 23 10 27 66 46 36 57
REMARK Flexibility Score: inf
ROOT
ATOM      1  C   UNL A   1      34.063  27.940  26.284  1.00  0.00     0.042 C 
ENDROOT
BRANCH   1   2
ATOM      2  C   UNL A   1      33.376  28.123  24.944  1.00  0.00     0.117 C 
BRANCH   2   3
ATOM      3  N   UNL A   1      33.694  27.087  23.980  1.00  0.00    -0.356 N 
ATOM      4  C   UNL A   1      32.888  26.142  23.423  1.00  0.00     0.225 C 
ATOM      5  O   UNL A   1      33.386  25.398  22.578  1.00  0.00    -0.275 OA
ATOM      6  H   UNL A   1      34.633  27.066  23.682  1.00  0.00     0.163 HD
BRANCH   4   7
ATOM      7  C   UNL A   1      31.458  25.980  23.924  1.00  0.00     0.102 C 
ATOM      8  C   UNL A   1      30.225  26.182  26.100  1.00  0.00     0.032 C 
ATOM      9  C   UNL A   1      31.438  25.548  25.413  1.00  0.00     0.094 C 
ATOM     10  N   UNL A   1      31.371  24.067  25.344  1.00  0.00    -0.335 N 
ATOM     11  C   UNL A   1      30.664  24.857  23.249  1.00  0.00     0.037 C 
ATOM     12  C   UNL A   1      31.111  23.621  23.991  1.00  0.00     0.121 C 
BRANCH  10  13
ATOM     13  C   UNL A   1      31.884  23.126  26.220  1.00  0.00     0.257 C 
ATOM     14  O   UNL A   1      31.370  22.876  27.310  1.00  0.00    -0.269 OA
BRANCH  13  15
ATOM     15  C   UNL A   1      33.127  22.422  25.894  1.00  0.00     0.083 A 
ATOM     16  C   UNL A   1      34.295  23.182  25.767  1.00  0.00     0.038 A 
ATOM     17  C   UNL A   1      33.122  21.072  25.536  1.00  0.00     0.128 A 
ATOM     18  C   UNL A   1      35.465  22.564  25.335  1.00  0.00     0.042 A 
ATOM     19  C   UNL A   1      34.304  20.452  25.142  1.00  0.00     0.048 A 
ATOM     20  Cl  UNL A   1      36.898  23.493  25.124  1.00  0.00    -0.084 Cl
ATOM     21  C   UNL A   1      35.480  21.200  25.041  1.00  0.00     0.024 A 
BRANCH  17  22
ATOM     22  O   UNL A   1      31.991  20.305  25.494  1.00  0.00    -0.507 OA
ATOM     23  H   UNL A   1      31.938  19.519  26.002  1.00  0.00     0.293 HD
ENDBRANCH  17  22
ENDBRANCH  13  15
ENDBRANCH  10  13
ENDBRANCH   4   7
ENDBRANCH   2   3
ENDBRANCH   1   2
BRANCH   1  24
ATOM     24  C   UNL A   1      33.280  28.458  27.477  1.00  0.00     0.118 C 
BRANCH  24  25
ATOM     25  N   UNL A   1      33.346  29.904  27.635  1.00  0.00    -0.352 N 
ATOM     26  C   UNL A   1      34.383  30.712  28.050  1.00  0.00     0.251 C 
ATOM     27  H   UNL A   1      32.516  30.382  27.408  1.00  0.00     0.163 HD
ATOM     28  O   UNL A   1      34.181  31.901  28.248  1.00  0.00    -0.269 OA
BRANCH  26  29
ATOM     29  C   UNL A   1      35.724  30.133  28.296  1.00  0.00     0.039 A 
ATOM     30  C   UNL A   1      36.657  30.116  27.255  1.00  0.00     0.014 A 
ATOM     31  C   UNL A   1      36.073  29.627  29.549  1.00  0.00     0.014 A 
ATOM     32  C   UNL A   1      37.963  29.683  27.503  1.00  0.00     0.010 A 
ATOM     33  C   UNL A   1      37.400  29.313  29.823  1.00  0.00     0.010 A 
ATOM     34  C   UNL A   1      38.360  29.331  28.803  1.00  0.00    -0.014 A 
BRANCH  34  35
ATOM     35  C   UNL A   1      39.766  28.967  29.121  1.00  0.00     0.031 A 
ATOM     36  C   UNL A   1      40.681  29.980  29.760  1.00  0.00     0.074 A 
ATOM     37  C   UNL A   1      40.243  27.755  28.769  1.00  0.00     0.049 A 
ATOM     38  N   UNL A   1      41.957  29.881  30.036  1.00  0.00    -0.248 NA
ATOM     39  C   UNL A   1      40.095  31.287  30.103  1.00  0.00     0.031 C 
ATOM     40  C   UNL A   1      39.476  26.700  28.102  1.00  0.00     0.029 A 
ATOM     41  N   UNL A   1      41.494  27.207  28.918  1.00  0.00    -0.354 N 
ATOM     42  C   UNL A   1      42.327  31.113  30.563  1.00  0.00     0.074 A 
ATOM     43  C   UNL A   1      41.158  31.964  30.510  1.00  0.00     0.031 C 
ATOM     44  C   UNL A   1      40.259  25.622  27.935  1.00  0.00     0.029 A 
ATOM     45  C   UNL A   1      41.596  25.922  28.436  1.00  0.00     0.049 A 
ATOM     46  H   UNL A   1      42.246  27.688  29.332  1.00  0.00     0.167 HD
ATOM     47  C   UNL A   1      43.522  31.498  31.070  1.00  0.00     0.031 A 
ATOM     48  C   UNL A   1      42.648  25.082  28.396  1.00  0.00     0.031 A 
ATOM     49  C   UNL A   1      44.676  30.645  31.141  1.00  0.00     0.049 A 
ATOM     50  C   UNL A   1      43.968  25.533  28.959  1.00  0.00     0.074 A 
ATOM     51  C   UNL A   1      45.917  30.920  31.689  1.00  0.00     0.029 A 
ATOM     52  N   UNL A   1      44.733  29.348  30.653  1.00  0.00    -0.354 N 
ATOM     53  N   UNL A   1      44.280  26.683  29.508  1.00  0.00    -0.248 NA
ATOM     54  C   UNL A   1      45.076  24.569  28.907  1.00  0.00     0.031 C 
ATOM     55  C   UNL A   1      46.740  29.810  31.485  1.00  0.00     0.029 A 
ATOM     56  C   UNL A   1      45.994  28.818  30.867  1.00  0.00     0.049 A 
ATOM     57  H   UNL A   1      43.987  28.874  30.219  1.00  0.00     0.167 HD
ATOM     58  C   UNL A   1      45.611  26.569  29.894  1.00  0.00     0.074 A 
ATOM     59  C   UNL A   1      46.040  25.235  29.528  1.00  0.00     0.031 C 
ATOM     60  C   UNL A   1      46.406  27.487  30.499  1.00  0.00     0.031 A 
BRANCH  47  61
ATOM     61  C   UNL A   1      43.636  32.908  31.588  1.00  0.00    -0.014 A 
ATOM     62  C   UNL A   1      43.480  33.194  32.957  1.00  0.00     0.010 A 
ATOM     63  C   UNL A   1      43.940  33.958  30.703  1.00  0.00     0.010 A 
ATOM     64  C   UNL A   1      43.579  34.507  33.423  1.00  0.00     0.020 A 
ATOM     65  C   UNL A   1      44.073  35.269  31.169  1.00  0.00     0.020 A 
ATOM     66  C   UNL A   1      43.874  35.537  32.526  1.00  0.00     0.054 A 
BRANCH  66  67
ATOM     67  S   UNL A   1      44.020  37.229  33.163  1.00  0.00     0.124 S 
ATOM     68  O   UNL A   1      44.099  38.009  31.930  1.00  0.00    -0.237 OA
ATOM     69  O   UNL A   1      42.785  37.389  33.927  1.00  0.00    -0.237 OA
ATOM     70  O   UNL A   1      45.243  37.196  33.960  1.00  0.00    -0.744 OA
ENDBRANCH  66  67
ENDBRANCH  47  61
BRANCH  48  71
ATOM     71  C   UNL A   1      42.490  23.717  27.819  1.00  0.00    -0.014 A 
ATOM     72  C   UNL A   1      42.152  22.629  28.644  1.00  0.00     0.010 A 
ATOM     73  C   UNL A   1      42.668  23.499  26.441  1.00  0.00     0.010 A 
ATOM     74  C   UNL A   1      42.013  21.347  28.104  1.00  0.00     0.020 A 
ATOM     75  C   UNL A   1      42.500  22.225  25.893  1.00  0.00     0.020 A 
ATOM     76  C   UNL A   1      42.185  21.152  26.731  1.00  0.00     0.054 A 
BRANCH  76  77
ATOM     77  S   UNL A   1      41.948  19.490  26.046  1.00  0.00     0.124 S 
ATOM     78  O   UNL A   1      42.424  18.642  27.134  1.00  0.00    -0.237 OA
ATOM     79  O   UNL A   1      40.511  19.454  25.795  1.00  0.00    -0.237 OA
ATOM     80  O   UNL A   1      42.781  19.495  24.844  1.00  0.00    -0.744 OA
ENDBRANCH  76  77
ENDBRANCH  48  71
BRANCH  60  81
ATOM     81  C   UNL A   1      47.811  27.070  30.841  1.00  0.00    -0.014 A 
ATOM     82  C   UNL A   1      48.882  27.320  29.967  1.00  0.00     0.010 A 
ATOM     83  C   UNL A   1      48.069  26.471  32.088  1.00  0.00     0.010 A 
ATOM     84  C   UNL A   1      50.183  26.950  30.319  1.00  0.00     0.020 A 
ATOM     85  C   UNL A   1      49.371  26.126  32.457  1.00  0.00     0.020 A 
ATOM     86  C   UNL A   1      50.418  26.356  31.564  1.00  0.00     0.054 A 
BRANCH  86  87
ATOM     87  S   UNL A   1      52.122  25.926  32.016  1.00  0.00     0.124 S 
ATOM     88  O   UNL A   1      52.429  26.929  33.031  1.00  0.00    -0.237 OA
ATOM     89  O   UNL A   1      51.987  24.556  32.504  1.00  0.00    -0.237 OA
ATOM     90  O   UNL A   1      52.859  26.064  30.760  1.00  0.00    -0.744 OA
ENDBRANCH  86  87
ENDBRANCH  60  81
ENDBRANCH  34  35
ENDBRANCH  26  29
ENDBRANCH  24  25
ENDBRANCH   1  24
TORSDOF 16
ENDMDL
MODEL 2
REMARK VINA RESULT:     -11.2      3.078      3.980
REMARK SMILES C[C@@H]1[C@@H](C(=O)NCCCNC(=O)c2ccc(-c3c4nc(c(-c5ccc(S(=O)(=O)[O-])cc5)c5ccc([nH]5)c(-c5ccc(S(=O)(=O)[O-])cc5)c5nc(c(-c6ccc(S(=O)(=O)[O-])cc6)c6ccc3[nH]6)C=C5)C=C4)cc2)CCN1C(=O)c1cc(Cl)ccc1O
REMARK SMILES IDX 8 1 7 2 6 3 4 4 5 5 3 7 1 8 2 9 75 10 73 11 74 12 76 13
REMARK SMILES IDX 77 14 78 15 79 16 84 17 80 18 83 19 81 20 82 21 85 22 9 24
REMARK SMILES IDX 10 25 11 26 12 28 13 29 14 30 72 31 15 32 71 33 16 34 17 35
REMARK SMILES IDX 18 36 65 37 19 38 70 39 64 40 66 41 20 42 69 43 63 44 62 45
REMARK SMILES IDX 21 47 51 48 32 49 50 50 33 51 36 52 49 53 67 54 34 55 35 56
REMARK SMILES IDX 48 58 68 59 37 60 22 61 23 62 31 63 24 64 30 65 25 66 26 67
REMARK SMILES IDX 27 68 28 69 29 70 52 71 53 72 61 73 54 74 60 75 55 76 56 77
REMARK SMILES IDX 57 78 58 79 59 80 38 81 39 82 47 83 40 84 46 85 41 86 42 87
REMARK SMILES IDX 43 88 44 89 45 90
REMARK H PARENT 6 6 85 23 10 27 66 46 36 57
REMARK Flexibility Score: inf
ROOT
ATOM      1  C   UNL A   1      34.435  31.142  27.580  1.00  0.00     0.042 C 
ENDROOT
BRANCH   1   2
ATOM      2  C   UNL A   1      33.330  30.442  26.813  1.00  0.00     0.117 C 
BRANCH   2   3
ATOM      3  N   UNL A   1      32.552  29.523  27.620  1.00  0.00    -0.356 N 
ATOM      4  C   UNL A   1      31.993  28.329  27.280  1.00  0.00     0.225 C 
ATOM      5  O   UNL A   1      31.415  27.700  28.167  1.00  0.00    -0.275 OA
ATOM      6  H   UNL A   1      32.407  29.803  28.553  1.00  0.00     0.163 HD
BRANCH   4   7
ATOM      7  C   UNL A   1      32.019  27.870  25.827  1.00  0.00     0.102 C 
ATOM      8  C   UNL A   1      30.438  26.811  24.192  1.00  0.00     0.032 C 
ATOM      9  C   UNL A   1      31.031  26.696  25.599  1.00  0.00     0.094 C 
ATOM     10  N   UNL A   1      31.874  25.490  25.789  1.00  0.00    -0.335 N 
ATOM     11  C   UNL A   1      33.350  27.267  25.368  1.00  0.00     0.037 C 
ATOM     12  C   UNL A   1      33.276  25.843  25.863  1.00  0.00     0.121 C 
BRANCH  10  13
ATOM     13  C   UNL A   1      31.521  24.243  26.275  1.00  0.00     0.257 C 
ATOM     14  O   UNL A   1      30.760  24.087  27.228  1.00  0.00    -0.269 OA
BRANCH  13  15
ATOM     15  C   UNL A   1      32.111  23.036  25.690  1.00  0.00     0.083 A 
ATOM     16  C   UNL A   1      31.864  22.776  24.338  1.00  0.00     0.038 A 
ATOM     17  C   UNL A   1      32.740  22.078  26.490  1.00  0.00     0.128 A 
ATOM     18  C   UNL A   1      32.304  21.575  23.785  1.00  0.00     0.042 A 
ATOM     19  C   UNL A   1      33.211  20.898  25.921  1.00  0.00     0.048 A 
ATOM     20  Cl  UNL A   1      31.964  21.216  22.137  1.00  0.00    -0.084 Cl
ATOM     21  C   UNL A   1      32.992  20.645  24.565  1.00  0.00     0.024 A 
BRANCH  17  22
ATOM     22  O   UNL A   1      32.884  22.199  27.844  1.00  0.00    -0.507 OA
ATOM     23  H   UNL A   1      32.875  21.436  28.387  1.00  0.00     0.293 HD
ENDBRANCH  17  22
ENDBRANCH  13  15
ENDBRANCH  10  13
ENDBRANCH   4   7
ENDBRANCH   2   3
ENDBRANCH   1   2
BRANCH   1  24
ATOM     24  C   UNL A   1      35.470  30.215  28.194  1.00  0.00     0.118 C 
BRANCH  24  25
ATOM     25  N   UNL A   1      35.531  30.290  29.647  1.00  0.00    -0.352 N 
ATOM     26  C   UNL A   1      36.509  29.872  30.524  1.00  0.00     0.251 C 
ATOM     27  H   UNL A   1      34.746  30.706  30.071  1.00  0.00     0.163 HD
ATOM     28  O   UNL A   1      36.296  29.903  31.727  1.00  0.00    -0.269 OA
BRANCH  26  29
ATOM     29  C   UNL A   1      37.796  29.349  30.008  1.00  0.00     0.039 A 
ATOM     30  C   UNL A   1      38.171  29.647  28.694  1.00  0.00     0.014 A 
ATOM     31  C   UNL A   1      38.641  28.587  30.815  1.00  0.00     0.014 A 
ATOM     32  C   UNL A   1      39.432  29.263  28.231  1.00  0.00     0.010 A 
ATOM     33  C   UNL A   1      39.937  28.314  30.394  1.00  0.00     0.010 A 
ATOM     34  C   UNL A   1      40.348  28.641  29.096  1.00  0.00    -0.014 A 
BRANCH  34  35
ATOM     35  C   UNL A   1      41.733  28.314  28.666  1.00  0.00     0.031 A 
ATOM     36  C   UNL A   1      42.780  29.397  28.607  1.00  0.00     0.074 A 
ATOM     37  C   UNL A   1      42.033  27.064  28.257  1.00  0.00     0.049 A 
ATOM     38  N   UNL A   1      44.015  29.328  28.180  1.00  0.00    -0.248 NA
ATOM     39  C   UNL A   1      42.377  30.742  29.054  1.00  0.00     0.031 C 
ATOM     40  C   UNL A   1      41.100  25.934  28.220  1.00  0.00     0.029 A 
ATOM     41  N   UNL A   1      43.210  26.533  27.789  1.00  0.00    -0.354 N 
ATOM     42  C   UNL A   1      44.525  30.617  28.288  1.00  0.00     0.074 A 
ATOM     43  C   UNL A   1      43.449  31.461  28.759  1.00  0.00     0.031 C 
ATOM     44  C   UNL A   1      41.749  24.840  27.792  1.00  0.00     0.029 A 
ATOM     45  C   UNL A   1      43.128  25.196  27.476  1.00  0.00     0.049 A 
ATOM     46  H   UNL A   1      44.035  27.061  27.687  1.00  0.00     0.167 HD
ATOM     47  C   UNL A   1      45.782  31.058  28.042  1.00  0.00     0.031 A 
ATOM     48  C   UNL A   1      44.056  24.351  26.986  1.00  0.00     0.031 A 
ATOM     49  C   UNL A   1      46.856  30.215  27.593  1.00  0.00     0.049 A 
ATOM     50  C   UNL A   1      45.444  24.865  26.714  1.00  0.00     0.074 A 
ATOM     51  C   UNL A   1      48.179  30.554  27.371  1.00  0.00     0.029 A 
ATOM     52  N   UNL A   1      46.733  28.866  27.301  1.00  0.00    -0.354 N 
ATOM     53  N   UNL A   1      45.921  26.076  26.880  1.00  0.00    -0.248 NA
ATOM     54  C   UNL A   1      46.421  23.896  26.198  1.00  0.00     0.031 C 
ATOM     55  C   UNL A   1      48.844  29.421  26.893  1.00  0.00     0.029 A 
ATOM     56  C   UNL A   1      47.951  28.361  26.879  1.00  0.00     0.049 A 
ATOM     57  H   UNL A   1      45.902  28.343  27.382  1.00  0.00     0.167 HD
ATOM     58  C   UNL A   1      47.262  26.006  26.518  1.00  0.00     0.074 A 
ATOM     59  C   UNL A   1      47.522  24.633  26.139  1.00  0.00     0.031 C 
ATOM     60  C   UNL A   1      48.195  26.991  26.505  1.00  0.00     0.031 A 
BRANCH  47  61
ATOM     61  C   UNL A   1      46.059  32.524  28.257  1.00  0.00    -0.014 A 
ATOM     62  C   UNL A   1      45.885  33.457  27.217  1.00  0.00     0.010 A 
ATOM     63  C   UNL A   1      46.463  32.982  29.524  1.00  0.00     0.010 A 
ATOM     64  C   UNL A   1      46.155  34.811  27.428  1.00  0.00     0.020 A 
ATOM     65  C   UNL A   1      46.703  34.341  29.747  1.00  0.00     0.020 A 
ATOM     66  C   UNL A   1      46.564  35.245  28.691  1.00  0.00     0.054 A 
BRANCH  66  67
ATOM     67  S   UNL A   1      46.884  37.012  28.941  1.00  0.00     0.124 S 
ATOM     68  O   UNL A   1      47.659  37.005  30.180  1.00  0.00    -0.237 OA
ATOM     69  O   UNL A   1      47.630  37.374  27.738  1.00  0.00    -0.237 OA
ATOM     70  O   UNL A   1      45.550  37.597  29.044  1.00  0.00    -0.744 OA
ENDBRANCH  66  67
ENDBRANCH  47  61
BRANCH  48  71
ATOM     71  C   UNL A   1      43.709  22.924  26.739  1.00  0.00    -0.014 A 
ATOM     72  C   UNL A   1      44.241  22.242  25.630  1.00  0.00     0.010 A 
ATOM     73  C   UNL A   1      42.851  22.235  27.616  1.00  0.00     0.010 A 
ATOM     74  C   UNL A   1      43.909  20.904  25.394  1.00  0.00     0.020 A 
ATOM     75  C   UNL A   1      42.540  20.890  27.399  1.00  0.00     0.020 A 
ATOM     76  C   UNL A   1      43.062  20.235  26.281  1.00  0.00     0.054 A 
BRANCH  76  77
ATOM     77  S   UNL A   1      42.686  18.487  25.982  1.00  0.00     0.124 S 
ATOM     78  O   UNL A   1      41.245  18.521  25.750  1.00  0.00    -0.237 OA
ATOM     79  O   UNL A   1      43.509  18.182  24.815  1.00  0.00    -0.237 OA
ATOM     80  O   UNL A   1      43.106  17.830  27.219  1.00  0.00    -0.744 OA
ENDBRANCH  76  77
ENDBRANCH  48  71
BRANCH  60  81
ATOM     81  C   UNL A   1      49.596  26.615  26.102  1.00  0.00    -0.014 A 
ATOM     82  C   UNL A   1      50.058  26.811  24.790  1.00  0.00     0.010 A 
ATOM     83  C   UNL A   1      50.481  26.111  27.073  1.00  0.00     0.010 A 
ATOM     84  C   UNL A   1      51.371  26.481  24.447  1.00  0.00     0.020 A 
ATOM     85  C   UNL A   1      51.804  25.808  26.742  1.00  0.00     0.020 A 
ATOM     86  C   UNL A   1      52.236  25.982  25.427  1.00  0.00     0.054 A 
BRANCH  86  87
ATOM     87  S   UNL A   1      53.950  25.604  24.966  1.00  0.00     0.124 S 
ATOM     88  O   UNL A   1      54.020  26.123  23.603  1.00  0.00    -0.237 OA
ATOM     89  O   UNL A   1      54.719  26.345  25.962  1.00  0.00    -0.237 OA
ATOM     90  O   UNL A   1      54.027  24.149  25.084  1.00  0.00    -0.744 OA
ENDBRANCH  86  87
ENDBRANCH  60  81
ENDBRANCH  34  35
ENDBRANCH  26  29
ENDBRANCH  24  25
ENDBRANCH   1  24
TORSDOF 16
ENDMDL
MODEL 3
REMARK VINA RESULT:     -11.1      4.567     10.259
REMARK SMILES C[C@@H]1[C@@H](C(=O)NCCCNC(=O)c2ccc(-c3c4nc(c(-c5ccc(S(=O)(=O)[O-])cc5)c5ccc([nH]5)c(-c5ccc(S(=O)(=O)[O-])cc5)c5nc(c(-c6ccc(S(=O)(=O)[O-])cc6)c6ccc3[nH]6)C=C5)C=C4)cc2)CCN1C(=O)c1cc(Cl)ccc1O
REMARK SMILES IDX 8 1 7 2 6 3 4 4 5 5 3 7 1 8 2 9 75 10 73 11 74 12 76 13
REMARK SMILES IDX 77 14 78 15 79 16 84 17 80 18 83 19 81 20 82 21 85 22 9 24
REMARK SMILES IDX 10 25 11 26 12 28 13 29 14 30 72 31 15 32 71 33 16 34 17 35
REMARK SMILES IDX 18 36 65 37 19 38 70 39 64 40 66 41 20 42 69 43 63 44 62 45
REMARK SMILES IDX 21 47 51 48 32 49 50 50 33 51 36 52 49 53 67 54 34 55 35 56
REMARK SMILES IDX 48 58 68 59 37 60 22 61 23 62 31 63 24 64 30 65 25 66 26 67
REMARK SMILES IDX 27 68 28 69 29 70 52 71 53 72 61 73 54 74 60 75 55 76 56 77
REMARK SMILES IDX 57 78 58 79 59 80 38 81 39 82 47 83 40 84 46 85 41 86 42 87
REMARK SMILES IDX 43 88 44 89 45 90
REMARK H PARENT 6 6 85 23 10 27 66 46 36 57
REMARK Flexibility Score: inf
ROOT
ATOM      1  C   UNL A   1      37.772  22.746  26.096  1.00  0.00     0.042 C 
ENDROOT
BRANCH   1   2
ATOM      2  C   UNL A   1      36.511  22.885  25.265  1.00  0.00     0.117 C 
BRANCH   2   3
ATOM      3  N   UNL A   1      35.881  24.186  25.375  1.00  0.00    -0.356 N 
ATOM      4  C   UNL A   1      34.558  24.511  25.397  1.00  0.00     0.225 C 
ATOM      5  O   UNL A   1      34.269  25.697  25.552  1.00  0.00    -0.275 OA
ATOM      6  H   UNL A   1      36.501  24.948  25.444  1.00  0.00     0.163 HD
BRANCH   4   7
ATOM      7  C   UNL A   1      33.513  23.433  25.140  1.00  0.00     0.102 C 
ATOM      8  C   UNL A   1      31.612  23.040  23.550  1.00  0.00     0.032 C 
ATOM      9  C   UNL A   1      32.225  24.045  24.529  1.00  0.00     0.094 C 
ATOM     10  N   UNL A   1      31.372  24.312  25.713  1.00  0.00    -0.335 N 
ATOM     11  C   UNL A   1      32.978  22.743  26.399  1.00  0.00     0.037 C 
ATOM     12  C   UNL A   1      31.930  23.704  26.903  1.00  0.00     0.121 C 
BRANCH  10  13
ATOM     13  C   UNL A   1      30.432  25.310  25.909  1.00  0.00     0.257 C 
ATOM     14  O   UNL A   1      29.496  25.202  26.700  1.00  0.00    -0.269 OA
BRANCH  13  15
ATOM     15  C   UNL A   1      30.489  26.536  25.109  1.00  0.00     0.083 A 
ATOM     16  C   UNL A   1      31.380  27.538  25.509  1.00  0.00     0.038 A 
ATOM     17  C   UNL A   1      29.559  26.782  24.095  1.00  0.00     0.128 A 
ATOM     18  C   UNL A   1      31.367  28.763  24.847  1.00  0.00     0.042 A 
ATOM     19  C   UNL A   1      29.580  27.994  23.412  1.00  0.00     0.048 A 
ATOM     20  Cl  UNL A   1      32.420  30.024  25.359  1.00  0.00    -0.084 Cl
ATOM     21  C   UNL A   1      30.486  28.989  23.788  1.00  0.00     0.024 A 
BRANCH  17  22
ATOM     22  O   UNL A   1      28.567  25.907  23.750  1.00  0.00    -0.507 OA
ATOM     23  H   UNL A   1      28.708  25.283  23.066  1.00  0.00     0.293 HD
ENDBRANCH  17  22
ENDBRANCH  13  15
ENDBRANCH  10  13
ENDBRANCH   4   7
ENDBRANCH   2   3
ENDBRANCH   1   2
BRANCH   1  24
ATOM     24  C   UNL A   1      38.503  24.050  26.366  1.00  0.00     0.118 C 
BRANCH  24  25
ATOM     25  N   UNL A   1      39.930  23.988  26.083  1.00  0.00    -0.352 N 
ATOM     26  C   UNL A   1      40.960  24.807  26.493  1.00  0.00     0.251 C 
ATOM     27  H   UNL A   1      40.204  23.239  25.505  1.00  0.00     0.163 HD
ATOM     28  O   UNL A   1      42.078  24.656  26.021  1.00  0.00    -0.269 OA
BRANCH  26  29
ATOM     29  C   UNL A   1      40.703  25.892  27.469  1.00  0.00     0.039 A 
ATOM     30  C   UNL A   1      39.755  25.688  28.475  1.00  0.00     0.014 A 
ATOM     31  C   UNL A   1      41.404  27.097  27.410  1.00  0.00     0.014 A 
ATOM     32  C   UNL A   1      39.585  26.652  29.473  1.00  0.00     0.010 A 
ATOM     33  C   UNL A   1      41.323  27.997  28.467  1.00  0.00     0.010 A 
ATOM     34  C   UNL A   1      40.408  27.790  29.508  1.00  0.00    -0.014 A 
BRANCH  34  35
ATOM     35  C   UNL A   1      40.326  28.783  30.612  1.00  0.00     0.031 A 
ATOM     36  C   UNL A   1      41.221  28.645  31.817  1.00  0.00     0.074 A 
ATOM     37  C   UNL A   1      39.399  29.762  30.568  1.00  0.00     0.049 A 
ATOM     38  N   UNL A   1      41.241  29.357  32.915  1.00  0.00    -0.248 NA
ATOM     39  C   UNL A   1      42.199  27.543  31.802  1.00  0.00     0.031 C 
ATOM     40  C   UNL A   1      38.440  29.978  29.482  1.00  0.00     0.029 A 
ATOM     41  N   UNL A   1      39.107  30.759  31.467  1.00  0.00    -0.354 N 
ATOM     42  C   UNL A   1      42.212  28.778  33.724  1.00  0.00     0.074 A 
ATOM     43  C   UNL A   1      42.715  27.620  33.019  1.00  0.00     0.031 C 
ATOM     44  C   UNL A   1      37.695  31.059  29.759  1.00  0.00     0.029 A 
ATOM     45  C   UNL A   1      38.085  31.587  31.062  1.00  0.00     0.049 A 
ATOM     46  H   UNL A   1      39.585  30.871  32.320  1.00  0.00     0.167 HD
ATOM     47  C   UNL A   1      42.666  29.185  34.933  1.00  0.00     0.031 A 
ATOM     48  C   UNL A   1      37.521  32.647  31.673  1.00  0.00     0.031 A 
ATOM     49  C   UNL A   1      42.179  30.348  35.624  1.00  0.00     0.049 A 
ATOM     50  C   UNL A   1      38.037  33.077  33.019  1.00  0.00     0.074 A 
ATOM     51  C   UNL A   1      42.614  30.878  36.826  1.00  0.00     0.029 A 
ATOM     52  N   UNL A   1      41.153  31.164  35.173  1.00  0.00    -0.354 N 
ATOM     53  N   UNL A   1      38.999  32.550  33.740  1.00  0.00    -0.248 NA
ATOM     54  C   UNL A   1      37.398  34.251  33.630  1.00  0.00     0.031 C 
ATOM     55  C   UNL A   1      41.814  31.984  37.129  1.00  0.00     0.029 A 
ATOM     56  C   UNL A   1      40.925  32.182  36.084  1.00  0.00     0.049 A 
ATOM     57  H   UNL A   1      40.661  31.040  34.330  1.00  0.00     0.167 HD
ATOM     58  C   UNL A   1      39.100  33.347  34.875  1.00  0.00     0.074 A 
ATOM     59  C   UNL A   1      38.113  34.398  34.737  1.00  0.00     0.031 C 
ATOM     60  C   UNL A   1      39.939  33.222  35.933  1.00  0.00     0.031 A 
BRANCH  47  61
ATOM     61  C   UNL A   1      43.746  28.361  35.584  1.00  0.00    -0.014 A 
ATOM     62  C   UNL A   1      43.428  27.300  36.452  1.00  0.00     0.010 A 
ATOM     63  C   UNL A   1      45.098  28.626  35.297  1.00  0.00     0.010 A 
ATOM     64  C   UNL A   1      44.441  26.550  37.056  1.00  0.00     0.020 A 
ATOM     65  C   UNL A   1      46.113  27.858  35.874  1.00  0.00     0.020 A 
ATOM     66  C   UNL A   1      45.777  26.835  36.764  1.00  0.00     0.054 A 
BRANCH  66  67
ATOM     67  S   UNL A   1      47.069  25.830  37.545  1.00  0.00     0.124 S 
ATOM     68  O   UNL A   1      47.386  26.618  38.734  1.00  0.00    -0.237 OA
ATOM     69  O   UNL A   1      46.382  24.566  37.797  1.00  0.00    -0.237 OA
ATOM     70  O   UNL A   1      48.124  25.773  36.536  1.00  0.00    -0.744 OA
ENDBRANCH  66  67
ENDBRANCH  47  61
BRANCH  48  71
ATOM     71  C   UNL A   1      36.416  33.390  31.006  1.00  0.00    -0.014 A 
ATOM     72  C   UNL A   1      35.197  33.606  31.674  1.00  0.00     0.010 A 
ATOM     73  C   UNL A   1      36.578  33.894  29.703  1.00  0.00     0.010 A 
ATOM     74  C   UNL A   1      34.156  34.296  31.045  1.00  0.00     0.020 A 
ATOM     75  C   UNL A   1      35.550  34.610  29.082  1.00  0.00     0.020 A 
ATOM     76  C   UNL A   1      34.340  34.796  29.753  1.00  0.00     0.054 A 
BRANCH  76  77
ATOM     77  S   UNL A   1      32.994  35.732  28.978  1.00  0.00     0.124 S 
ATOM     78  O   UNL A   1      33.721  36.779  28.267  1.00  0.00    -0.237 OA
ATOM     79  O   UNL A   1      32.352  34.725  28.138  1.00  0.00    -0.237 OA
ATOM     80  O   UNL A   1      32.194  36.185  30.115  1.00  0.00    -0.744 OA
ENDBRANCH  76  77
ENDBRANCH  48  71
BRANCH  60  81
ATOM     81  C   UNL A   1      39.854  34.267  37.013  1.00  0.00    -0.014 A 
ATOM     82  C   UNL A   1      40.415  35.544  36.841  1.00  0.00     0.010 A 
ATOM     83  C   UNL A   1      39.149  33.981  38.197  1.00  0.00     0.010 A 
ATOM     84  C   UNL A   1      40.298  36.508  37.847  1.00  0.00     0.020 A 
ATOM     85  C   UNL A   1      39.004  34.951  39.192  1.00  0.00     0.020 A 
ATOM     86  C   UNL A   1      39.592  36.204  39.016  1.00  0.00     0.054 A 
BRANCH  86  87
ATOM     87  S   UNL A   1      39.417  37.487  40.286  1.00  0.00     0.124 S 
ATOM     88  O   UNL A   1      40.807  37.847  40.549  1.00  0.00    -0.237 OA
ATOM     89  O   UNL A   1      38.621  38.504  39.605  1.00  0.00    -0.237 OA
ATOM     90  O   UNL A   1      38.733  36.800  41.381  1.00  0.00    -0.744 OA
ENDBRANCH  86  87
ENDBRANCH  60  81
ENDBRANCH  34  35
ENDBRANCH  26  29
ENDBRANCH  24  25
ENDBRANCH   1  24
TORSDOF 16
ENDMDL
