MODEL 1
REMARK VINA RESULT:     -10.1      0.000      0.000
REMARK SMILES O=C(C[C@H]1CN(C(=O)CSc2ccccc2F)CCO1)NCCCNC(=O)c1ccc(-c2c3nc(c(-c4ccc(S(=O)(=O)[O-])cc4)c4ccc([nH]4)c(-c4ccc(S(=O)(=O)[O-])cc4)c4nc(c(-c5ccc(S(=O)(=O)[O-])cc5)c5ccc2[nH]5)C=C4)C=C3)cc1
REMARK SMILES IDX 22 1 21 2 1 3 2 4 3 6 4 7 5 8 20 9 6 10 19 11 18 12 7 13
REMARK SMILES IDX 8 14 9 15 10 16 11 17 12 18 16 19 13 20 15 21 17 22 14 23
REMARK SMILES IDX 23 24 24 25 25 26 26 27 27 29 28 30 29 31 87 32 30 33 86 34
REMARK SMILES IDX 31 35 32 36 33 37 80 38 34 39 85 40 79 41 81 42 35 43 84 44
REMARK SMILES IDX 78 45 77 46 36 48 66 49 47 50 65 51 48 52 51 53 64 54 82 55
REMARK SMILES IDX 49 56 50 57 63 59 83 60 52 61 37 62 38 63 46 64 39 65 45 66
REMARK SMILES IDX 40 67 41 68 42 69 43 70 44 71 67 72 68 73 76 74 69 75 75 76
REMARK SMILES IDX 70 77 71 78 72 79 73 80 74 81 53 82 54 83 62 84 55 85 61 86
REMARK SMILES IDX 56 87 57 88 58 89 59 90 60 91
REMARK H PARENT 21 5 25 28 81 47 51 58
REMARK Flexibility Score: inf
ROOT
ATOM      1  C   UNL A   1      34.297  23.701  26.621  1.00  0.00     0.117 C 
ENDROOT
BRANCH   1   2
ATOM      2  N   UNL A   1      33.320  24.601  26.052  1.00  0.00    -0.356 N 
ATOM      3  O   UNL A   1      31.555  23.821  27.282  1.00  0.00    -0.275 OA
ATOM      4  C   UNL A   1      32.020  24.632  26.484  1.00  0.00     0.222 C 
ATOM      5  H   UNL A   1      33.597  25.212  25.331  1.00  0.00     0.163 HD
BRANCH   4   6
ATOM      6  C   UNL A   1      31.154  25.714  25.883  1.00  0.00     0.133 C 
BRANCH   6   7
ATOM      7  C   UNL A   1      30.326  25.355  24.636  1.00  0.00     0.147 C 
ATOM      8  C   UNL A   1      29.657  26.611  24.037  1.00  0.00     0.152 C 
ATOM      9  O   UNL A   1      31.033  24.625  23.617  1.00  0.00    -0.374 OA
ATOM     10  N   UNL A   1      30.644  27.417  23.309  1.00  0.00    -0.337 N 
ATOM     11  C   UNL A   1      32.009  25.415  22.915  1.00  0.00     0.182 C 
ATOM     12  C   UNL A   1      31.384  26.662  22.298  1.00  0.00     0.148 C 
BRANCH  10  13
ATOM     13  C   UNL A   1      30.949  28.747  23.530  1.00  0.00     0.233 C 
ATOM     14  O   UNL A   1      30.238  29.649  23.074  1.00  0.00    -0.274 OA
BRANCH  13  15
ATOM     15  C   UNL A   1      32.167  29.114  24.359  1.00  0.00     0.175 C 
BRANCH  15  16
ATOM     16  S   UNL A   1      31.774  29.545  26.093  1.00  0.00    -0.113 SA
BRANCH  16  17
ATOM     17  C   UNL A   1      33.340  30.023  26.810  1.00  0.00     0.044 A 
ATOM     18  C   UNL A   1      33.581  31.274  27.386  1.00  0.00     0.018 A 
ATOM     19  C   UNL A   1      34.346  29.053  26.919  1.00  0.00     0.136 A 
ATOM     20  C   UNL A   1      34.798  31.557  28.016  1.00  0.00     0.001 A 
ATOM     21  C   UNL A   1      35.556  29.323  27.558  1.00  0.00     0.040 A 
ATOM     22  F   UNL A   1      34.162  27.819  26.422  1.00  0.00    -0.206 F 
ATOM     23  C   UNL A   1      35.785  30.581  28.105  1.00  0.00     0.003 A 
ENDBRANCH  16  17
ENDBRANCH  15  16
ENDBRANCH  13  15
ENDBRANCH  10  13
ENDBRANCH   6   7
ENDBRANCH   4   6
ENDBRANCH   1   2
BRANCH   1  24
ATOM     24  C   UNL A   1      35.382  23.306  25.632  1.00  0.00     0.042 C 
BRANCH  24  25
ATOM     25  C   UNL A   1      36.793  23.692  26.062  1.00  0.00     0.118 C 
BRANCH  25  26
ATOM     26  N   UNL A   1      37.723  22.571  26.063  1.00  0.00    -0.352 N 
ATOM     27  C   UNL A   1      39.070  22.536  26.308  1.00  0.00     0.251 C 
ATOM     28  H   UNL A   1      37.318  21.698  25.852  1.00  0.00     0.163 HD
ATOM     29  O   UNL A   1      39.684  21.482  26.125  1.00  0.00    -0.269 OA
BRANCH  27  30
ATOM     30  C   UNL A   1      39.799  23.741  26.762  1.00  0.00     0.039 A 
ATOM     31  C   UNL A   1      39.900  24.827  25.887  1.00  0.00     0.014 A 
ATOM     32  C   UNL A   1      40.404  23.808  28.020  1.00  0.00     0.014 A 
ATOM     33  C   UNL A   1      40.555  25.992  26.294  1.00  0.00     0.010 A 
ATOM     34  C   UNL A   1      40.985  25.000  28.455  1.00  0.00     0.010 A 
ATOM     35  C   UNL A   1      41.073  26.103  27.596  1.00  0.00    -0.014 A 
BRANCH  35  36
ATOM     36  C   UNL A   1      41.694  27.374  28.055  1.00  0.00     0.031 A 
ATOM     37  C   UNL A   1      43.180  27.593  27.947  1.00  0.00     0.074 A 
ATOM     38  C   UNL A   1      40.912  28.331  28.597  1.00  0.00     0.049 A 
ATOM     39  N   UNL A   1      43.881  28.656  28.256  1.00  0.00    -0.248 NA
ATOM     40  C   UNL A   1      43.989  26.469  27.449  1.00  0.00     0.031 C 
ATOM     41  C   UNL A   1      39.468  28.221  28.816  1.00  0.00     0.029 A 
ATOM     42  N   UNL A   1      41.221  29.589  29.054  1.00  0.00    -0.354 N 
ATOM     43  C   UNL A   1      45.207  28.327  27.999  1.00  0.00     0.074 A 
ATOM     44  C   UNL A   1      45.219  26.948  27.562  1.00  0.00     0.031 C 
ATOM     45  C   UNL A   1      39.010  29.378  29.320  1.00  0.00     0.029 A 
ATOM     46  C   UNL A   1      40.128  30.299  29.493  1.00  0.00     0.049 A 
ATOM     47  H   UNL A   1      42.138  29.947  29.066  1.00  0.00     0.167 HD
ATOM     48  C   UNL A   1      46.311  29.106  28.093  1.00  0.00     0.031 A 
ATOM     49  C   UNL A   1      40.031  31.555  29.971  1.00  0.00     0.031 A 
ATOM     50  C   UNL A   1      46.297  30.481  28.523  1.00  0.00     0.049 A 
ATOM     51  C   UNL A   1      41.269  32.406  30.050  1.00  0.00     0.074 A 
ATOM     52  C   UNL A   1      47.354  31.371  28.601  1.00  0.00     0.029 A 
ATOM     53  N   UNL A   1      45.169  31.166  28.952  1.00  0.00    -0.354 N 
ATOM     54  N   UNL A   1      42.502  32.099  29.728  1.00  0.00    -0.248 NA
ATOM     55  C   UNL A   1      41.094  33.780  30.538  1.00  0.00     0.031 C 
ATOM     56  C   UNL A   1      46.876  32.577  29.124  1.00  0.00     0.029 A 
ATOM     57  C   UNL A   1      45.509  32.459  29.314  1.00  0.00     0.049 A 
ATOM     58  H   UNL A   1      44.261  30.788  28.993  1.00  0.00     0.167 HD
ATOM     59  C   UNL A   1      43.248  33.253  29.950  1.00  0.00     0.074 A 
ATOM     60  C   UNL A   1      42.321  34.266  30.410  1.00  0.00     0.031 C 
ATOM     61  C   UNL A   1      44.580  33.455  29.785  1.00  0.00     0.031 A 
BRANCH  48  62
ATOM     62  C   UNL A   1      47.635  28.486  27.724  1.00  0.00    -0.014 A 
ATOM     63  C   UNL A   1      48.442  27.862  28.694  1.00  0.00     0.010 A 
ATOM     64  C   UNL A   1      48.062  28.490  26.383  1.00  0.00     0.010 A 
ATOM     65  C   UNL A   1      49.669  27.295  28.340  1.00  0.00     0.020 A 
ATOM     66  C   UNL A   1      49.275  27.896  26.019  1.00  0.00     0.020 A 
ATOM     67  C   UNL A   1      50.078  27.318  27.003  1.00  0.00     0.054 A 
BRANCH  67  68
ATOM     68  S   UNL A   1      51.665  26.554  26.569  1.00  0.00     0.124 S 
ATOM     69  O   UNL A   1      52.454  27.713  26.158  1.00  0.00    -0.237 OA
ATOM     70  O   UNL A   1      52.075  25.929  27.823  1.00  0.00    -0.237 OA
ATOM     71  O   UNL A   1      51.321  25.624  25.496  1.00  0.00    -0.744 OA
ENDBRANCH  67  68
ENDBRANCH  48  62
BRANCH  49  72
ATOM     72  C   UNL A   1      38.705  32.094  30.378  1.00  0.00    -0.014 A 
ATOM     73  C   UNL A   1      38.100  31.676  31.576  1.00  0.00     0.010 A 
ATOM     74  C   UNL A   1      38.044  33.040  29.573  1.00  0.00     0.010 A 
ATOM     75  C   UNL A   1      36.848  32.175  31.951  1.00  0.00     0.020 A 
ATOM     76  C   UNL A   1      36.807  33.564  29.959  1.00  0.00     0.020 A 
ATOM     77  C   UNL A   1      36.211  33.118  31.140  1.00  0.00     0.054 A 
BRANCH  77  78
ATOM     78  S   UNL A   1      34.611  33.790  31.670  1.00  0.00     0.124 S 
ATOM     79  O   UNL A   1      35.015  34.966  32.436  1.00  0.00    -0.237 OA
ATOM     80  O   UNL A   1      33.945  34.060  30.398  1.00  0.00    -0.237 OA
ATOM     81  O   UNL A   1      34.026  32.704  32.452  1.00  0.00    -0.744 OA
ENDBRANCH  77  78
ENDBRANCH  49  72
BRANCH  61  82
ATOM     82  C   UNL A   1      45.103  34.837  30.077  1.00  0.00    -0.014 A 
ATOM     83  C   UNL A   1      45.152  35.828  29.079  1.00  0.00     0.010 A 
ATOM     84  C   UNL A   1      45.547  35.151  31.374  1.00  0.00     0.010 A 
ATOM     85  C   UNL A   1      45.691  37.086  29.359  1.00  0.00     0.020 A 
ATOM     86  C   UNL A   1      46.055  36.419  31.666  1.00  0.00     0.020 A 
ATOM     87  C   UNL A   1      46.148  37.371  30.650  1.00  0.00     0.054 A 
BRANCH  87  88
ATOM     88  S   UNL A   1      46.846  39.010  30.989  1.00  0.00     0.124 S 
ATOM     89  O   UNL A   1      45.851  39.894  30.388  1.00  0.00    -0.237 OA
ATOM     90  O   UNL A   1      46.911  39.037  32.448  1.00  0.00    -0.237 OA
ATOM     91  O   UNL A   1      48.142  38.980  30.314  1.00  0.00    -0.744 OA
ENDBRANCH  87  88
ENDBRANCH  61  82
ENDBRANCH  35  36
ENDBRANCH  27  30
ENDBRANCH  25  26
ENDBRANCH  24  25
ENDBRANCH   1  24
TORSDOF 18
ENDMDL
MODEL 2
REMARK VINA RESULT:      -9.9      3.103      9.349
REMARK SMILES O=C(C[C@H]1CN(C(=O)CSc2ccccc2F)CCO1)NCCCNC(=O)c1ccc(-c2c3nc(c(-c4ccc(S(=O)(=O)[O-])cc4)c4ccc([nH]4)c(-c4ccc(S(=O)(=O)[O-])cc4)c4nc(c(-c5ccc(S(=O)(=O)[O-])cc5)c5ccc2[nH]5)C=C4)C=C3)cc1
REMARK SMILES IDX 22 1 21 2 1 3 2 4 3 6 4 7 5 8 20 9 6 10 19 11 18 12 7 13
REMARK SMILES IDX 8 14 9 15 10 16 11 17 12 18 16 19 13 20 15 21 17 22 14 23
REMARK SMILES IDX 23 24 24 25 25 26 26 27 27 29 28 30 29 31 87 32 30 33 86 34
REMARK SMILES IDX 31 35 32 36 33 37 80 38 34 39 85 40 79 41 81 42 35 43 84 44
REMARK SMILES IDX 78 45 77 46 36 48 66 49 47 50 65 51 48 52 51 53 64 54 82 55
REMARK SMILES IDX 49 56 50 57 63 59 83 60 52 61 37 62 38 63 46 64 39 65 45 66
REMARK SMILES IDX 40 67 41 68 42 69 43 70 44 71 67 72 68 73 76 74 69 75 75 76
REMARK SMILES IDX 70 77 71 78 72 79 73 80 74 81 53 82 54 83 62 84 55 85 61 86
REMARK SMILES IDX 56 87 57 88 58 89 59 90 60 91
REMARK H PARENT 21 5 25 28 81 47 51 58
REMARK Flexibility Score: inf
ROOT
ATOM      1  C   UNL A   1      33.491  29.598  26.002  1.00  0.00     0.117 C 
ENDROOT
BRANCH   1   2
ATOM      2  N   UNL A   1      33.125  28.258  26.403  1.00  0.00    -0.356 N 
ATOM      3  O   UNL A   1      31.961  27.764  24.496  1.00  0.00    -0.275 OA
ATOM      4  C   UNL A   1      32.434  27.414  25.575  1.00  0.00     0.222 C 
ATOM      5  H   UNL A   1      33.381  27.943  27.300  1.00  0.00     0.163 HD
BRANCH   4   6
ATOM      6  C   UNL A   1      32.240  26.006  26.087  1.00  0.00     0.133 C 
BRANCH   6   7
ATOM      7  C   UNL A   1      30.903  25.310  25.774  1.00  0.00     0.147 C 
ATOM      8  C   UNL A   1      30.990  24.512  24.455  1.00  0.00     0.152 C 
ATOM      9  O   UNL A   1      30.376  24.486  26.829  1.00  0.00    -0.374 OA
ATOM     10  N   UNL A   1      31.738  23.266  24.662  1.00  0.00    -0.337 N 
ATOM     11  C   UNL A   1      31.120  23.273  27.037  1.00  0.00     0.182 C 
ATOM     12  C   UNL A   1      31.220  22.449  25.758  1.00  0.00     0.148 C 
BRANCH  10  13
ATOM     13  C   UNL A   1      32.865  22.856  23.974  1.00  0.00     0.233 C 
ATOM     14  O   UNL A   1      33.567  23.666  23.360  1.00  0.00    -0.274 OA
BRANCH  13  15
ATOM     15  C   UNL A   1      33.262  21.391  23.983  1.00  0.00     0.175 C 
BRANCH  15  16
ATOM     16  S   UNL A   1      34.099  20.863  25.522  1.00  0.00    -0.113 SA
BRANCH  16  17
ATOM     17  C   UNL A   1      35.603  21.826  25.576  1.00  0.00     0.044 A 
ATOM     18  C   UNL A   1      35.657  23.158  26.000  1.00  0.00     0.018 A 
ATOM     19  C   UNL A   1      36.817  21.182  25.303  1.00  0.00     0.136 A 
ATOM     20  C   UNL A   1      36.879  23.832  26.111  1.00  0.00     0.001 A 
ATOM     21  C   UNL A   1      38.039  21.841  25.425  1.00  0.00     0.040 A 
ATOM     22  F   UNL A   1      36.837  19.891  24.930  1.00  0.00    -0.206 F 
ATOM     23  C   UNL A   1      38.071  23.173  25.826  1.00  0.00     0.003 A 
ENDBRANCH  16  17
ENDBRANCH  15  16
ENDBRANCH  13  15
ENDBRANCH  10  13
ENDBRANCH   6   7
ENDBRANCH   4   6
ENDBRANCH   1   2
BRANCH   1  24
ATOM     24  C   UNL A   1      34.397  30.289  27.009  1.00  0.00     0.042 C 
BRANCH  24  25
ATOM     25  C   UNL A   1      35.227  29.337  27.863  1.00  0.00     0.118 C 
BRANCH  25  26
ATOM     26  N   UNL A   1      35.287  29.724  29.266  1.00  0.00    -0.352 N 
ATOM     27  C   UNL A   1      36.354  29.794  30.122  1.00  0.00     0.251 C 
ATOM     28  H   UNL A   1      34.421  29.975  29.663  1.00  0.00     0.163 HD
ATOM     29  O   UNL A   1      36.148  30.026  31.315  1.00  0.00    -0.269 OA
BRANCH  27  30
ATOM     30  C   UNL A   1      37.737  29.571  29.644  1.00  0.00     0.039 A 
ATOM     31  C   UNL A   1      38.710  29.193  30.575  1.00  0.00     0.014 A 
ATOM     32  C   UNL A   1      38.094  29.753  28.305  1.00  0.00     0.014 A 
ATOM     33  C   UNL A   1      40.018  28.946  30.153  1.00  0.00     0.010 A 
ATOM     34  C   UNL A   1      39.379  29.426  27.873  1.00  0.00     0.010 A 
ATOM     35  C   UNL A   1      40.358  29.025  28.792  1.00  0.00    -0.014 A 
BRANCH  35  36
ATOM     36  C   UNL A   1      41.730  28.678  28.335  1.00  0.00     0.031 A 
ATOM     37  C   UNL A   1      42.811  29.724  28.266  1.00  0.00     0.074 A 
ATOM     38  C   UNL A   1      41.998  27.411  27.955  1.00  0.00     0.049 A 
ATOM     39  N   UNL A   1      44.071  29.587  27.935  1.00  0.00    -0.248 NA
ATOM     40  C   UNL A   1      42.426  31.107  28.588  1.00  0.00     0.031 C 
ATOM     41  C   UNL A   1      41.025  26.316  27.915  1.00  0.00     0.029 A 
ATOM     42  N   UNL A   1      43.169  26.828  27.540  1.00  0.00    -0.354 N 
ATOM     43  C   UNL A   1      44.625  30.860  28.001  1.00  0.00     0.074 A 
ATOM     44  C   UNL A   1      43.551  31.766  28.349  1.00  0.00     0.031 C 
ATOM     45  C   UNL A   1      41.650  25.187  27.544  1.00  0.00     0.029 A 
ATOM     46  C   UNL A   1      43.055  25.481  27.287  1.00  0.00     0.049 A 
ATOM     47  H   UNL A   1      44.011  27.327  27.432  1.00  0.00     0.167 HD
ATOM     48  C   UNL A   1      45.911  31.241  27.814  1.00  0.00     0.031 A 
ATOM     49  C   UNL A   1      43.978  24.578  26.902  1.00  0.00     0.031 A 
ATOM     50  C   UNL A   1      46.981  30.337  27.473  1.00  0.00     0.049 A 
ATOM     51  C   UNL A   1      45.403  25.021  26.716  1.00  0.00     0.074 A 
ATOM     52  C   UNL A   1      48.327  30.616  27.316  1.00  0.00     0.029 A 
ATOM     53  N   UNL A   1      46.825  28.980  27.233  1.00  0.00    -0.354 N 
ATOM     54  N   UNL A   1      45.920  26.218  26.860  1.00  0.00    -0.248 NA
ATOM     55  C   UNL A   1      46.373  23.985  26.339  1.00  0.00     0.031 C 
ATOM     56  C   UNL A   1      48.977  29.438  26.931  1.00  0.00     0.029 A 
ATOM     57  C   UNL A   1      48.047  28.412  26.910  1.00  0.00     0.049 A 
ATOM     58  H   UNL A   1      45.972  28.491  27.286  1.00  0.00     0.167 HD
ATOM     59  C   UNL A   1      47.282  26.073  26.615  1.00  0.00     0.074 A 
ATOM     60  C   UNL A   1      47.508  24.669  26.339  1.00  0.00     0.031 C 
ATOM     61  C   UNL A   1      48.257  27.016  26.621  1.00  0.00     0.031 A 
BRANCH  48  62
ATOM     62  C   UNL A   1      46.236  32.704  27.974  1.00  0.00    -0.014 A 
ATOM     63  C   UNL A   1      46.616  33.233  29.222  1.00  0.00     0.010 A 
ATOM     64  C   UNL A   1      46.201  33.557  26.855  1.00  0.00     0.010 A 
ATOM     65  C   UNL A   1      46.911  34.592  29.358  1.00  0.00     0.020 A 
ATOM     66  C   UNL A   1      46.526  34.912  26.981  1.00  0.00     0.020 A 
ATOM     67  C   UNL A   1      46.861  35.424  28.236  1.00  0.00     0.054 A 
BRANCH  67  68
ATOM     68  S   UNL A   1      47.270  37.180  28.437  1.00  0.00     0.124 S 
ATOM     69  O   UNL A   1      48.729  37.159  28.365  1.00  0.00    -0.237 OA
ATOM     70  O   UNL A   1      46.594  37.799  27.300  1.00  0.00    -0.237 OA
ATOM     71  O   UNL A   1      46.717  37.518  29.746  1.00  0.00    -0.744 OA
ENDBRANCH  67  68
ENDBRANCH  48  62
BRANCH  49  72
ATOM     72  C   UNL A   1      43.587  23.157  26.700  1.00  0.00    -0.014 A 
ATOM     73  C   UNL A   1      43.733  22.546  25.441  1.00  0.00     0.010 A 
ATOM     74  C   UNL A   1      43.076  22.400  27.770  1.00  0.00     0.010 A 
ATOM     75  C   UNL A   1      43.353  21.213  25.250  1.00  0.00     0.020 A 
ATOM     76  C   UNL A   1      42.725  21.059  27.591  1.00  0.00     0.020 A 
ATOM     77  C   UNL A   1      42.854  20.478  26.328  1.00  0.00     0.054 A 
BRANCH  77  78
ATOM     78  S   UNL A   1      42.416  18.736  26.072  1.00  0.00     0.124 S 
ATOM     79  O   UNL A   1      43.354  18.338  25.026  1.00  0.00    -0.237 OA
ATOM     80  O   UNL A   1      42.652  18.154  27.391  1.00  0.00    -0.237 OA
ATOM     81  O   UNL A   1      41.013  18.793  25.667  1.00  0.00    -0.744 OA
ENDBRANCH  77  78
ENDBRANCH  49  72
BRANCH  61  82
ATOM     82  C   UNL A   1      49.663  26.549  26.350  1.00  0.00    -0.014 A 
ATOM     83  C   UNL A   1      50.260  26.715  25.087  1.00  0.00     0.010 A 
ATOM     84  C   UNL A   1      50.402  25.939  27.380  1.00  0.00     0.010 A 
ATOM     85  C   UNL A   1      51.546  26.227  24.843  1.00  0.00     0.020 A 
ATOM     86  C   UNL A   1      51.701  25.479  27.149  1.00  0.00     0.020 A 
ATOM     87  C   UNL A   1      52.256  25.603  25.874  1.00  0.00     0.054 A 
BRANCH  87  88
ATOM     88  S   UNL A   1      53.922  24.974  25.534  1.00  0.00     0.124 S 
ATOM     89  O   UNL A   1      53.686  23.537  25.419  1.00  0.00    -0.237 OA
ATOM     90  O   UNL A   1      54.276  25.654  24.291  1.00  0.00    -0.237 OA
ATOM     91  O   UNL A   1      54.693  25.387  26.704  1.00  0.00    -0.744 OA
ENDBRANCH  87  88
ENDBRANCH  61  82
ENDBRANCH  35  36
ENDBRANCH  27  30
ENDBRANCH  25  26
ENDBRANCH  24  25
ENDBRANCH   1  24
TORSDOF 18
ENDMDL
MODEL 3
REMARK VINA RESULT:      -9.7      0.962      8.262
REMARK SMILES O=C(C[C@H]1CN(C(=O)CSc2ccccc2F)CCO1)NCCCNC(=O)c1ccc(-c2c3nc(c(-c4ccc(S(=O)(=O)[O-])cc4)c4ccc([nH]4)c(-c4ccc(S(=O)(=O)[O-])cc4)c4nc(c(-c5ccc(S(=O)(=O)[O-])cc5)c5ccc2[nH]5)C=C4)C=C3)cc1
REMARK SMILES IDX 22 1 21 2 1 3 2 4 3 6 4 7 5 8 20 9 6 10 19 11 18 12 7 13
REMARK SMILES IDX 8 14 9 15 10 16 11 17 12 18 16 19 13 20 15 21 17 22 14 23
REMARK SMILES IDX 23 24 24 25 25 26 26 27 27 29 28 30 29 31 87 32 30 33 86 34
REMARK SMILES IDX 31 35 32 36 33 37 80 38 34 39 85 40 79 41 81 42 35 43 84 44
REMARK SMILES IDX 78 45 77 46 36 48 66 49 47 50 65 51 48 52 51 53 64 54 82 55
REMARK SMILES IDX 49 56 50 57 63 59 83 60 52 61 37 62 38 63 46 64 39 65 45 66
REMARK SMILES IDX 40 67 41 68 42 69 43 70 44 71 67 72 68 73 76 74 69 75 75 76
REMARK SMILES IDX 70 77 71 78 72 79 73 80 74 81 53 82 54 83 62 84 55 85 61 86
REMARK SMILES IDX 56 87 57 88 58 89 59 90 60 91
REMARK H PARENT 21 5 25 28 81 47 51 58
REMARK Flexibility Score: inf
ROOT
ATOM      1  C   UNL A   1      34.372  23.279  26.814  1.00  0.00     0.117 C 
ENDROOT
BRANCH   1   2
ATOM      2  N   UNL A   1      33.465  24.230  26.213  1.00  0.00    -0.356 N 
ATOM      3  O   UNL A   1      31.557  23.087  26.746  1.00  0.00    -0.275 OA
ATOM      4  C   UNL A   1      32.106  24.086  26.287  1.00  0.00     0.222 C 
ATOM      5  H   UNL A   1      33.837  25.007  25.735  1.00  0.00     0.163 HD
BRANCH   4   6
ATOM      6  C   UNL A   1      31.292  25.227  25.723  1.00  0.00     0.133 C 
BRANCH   6   7
ATOM      7  C   UNL A   1      30.463  24.955  24.456  1.00  0.00     0.147 C 
ATOM      8  C   UNL A   1      29.819  26.254  23.926  1.00  0.00     0.152 C 
ATOM      9  O   UNL A   1      31.160  24.270  23.399  1.00  0.00    -0.374 OA
ATOM     10  N   UNL A   1      30.823  27.081  23.247  1.00  0.00    -0.337 N 
ATOM     11  C   UNL A   1      32.152  25.079  22.745  1.00  0.00     0.182 C 
ATOM     12  C   UNL A   1      31.552  26.370  22.198  1.00  0.00     0.148 C 
BRANCH  10  13
ATOM     13  C   UNL A   1      31.152  28.391  23.543  1.00  0.00     0.233 C 
ATOM     14  O   UNL A   1      30.509  29.333  23.067  1.00  0.00    -0.274 OA
BRANCH  13  15
ATOM     15  C   UNL A   1      32.310  28.685  24.480  1.00  0.00     0.175 C 
BRANCH  15  16
ATOM     16  S   UNL A   1      31.794  29.370  26.096  1.00  0.00    -0.113 SA
BRANCH  16  17
ATOM     17  C   UNL A   1      33.323  29.799  26.917  1.00  0.00     0.044 A 
ATOM     18  C   UNL A   1      34.414  28.932  27.030  1.00  0.00     0.018 A 
ATOM     19  C   UNL A   1      33.492  31.117  27.363  1.00  0.00     0.136 A 
ATOM     20  C   UNL A   1      35.618  29.357  27.601  1.00  0.00     0.001 A 
ATOM     21  C   UNL A   1      34.693  31.553  27.920  1.00  0.00     0.040 A 
ATOM     22  F   UNL A   1      32.495  32.011  27.246  1.00  0.00    -0.206 F 
ATOM     23  C   UNL A   1      35.760  30.669  28.044  1.00  0.00     0.003 A 
ENDBRANCH  16  17
ENDBRANCH  15  16
ENDBRANCH  13  15
ENDBRANCH  10  13
ENDBRANCH   6   7
ENDBRANCH   4   6
ENDBRANCH   1   2
BRANCH   1  24
ATOM     24  C   UNL A   1      35.356  22.690  25.816  1.00  0.00     0.042 C 
BRANCH  24  25
ATOM     25  C   UNL A   1      36.773  23.241  25.931  1.00  0.00     0.118 C 
BRANCH  25  26
ATOM     26  N   UNL A   1      37.789  22.202  26.039  1.00  0.00    -0.352 N 
ATOM     27  C   UNL A   1      39.123  22.294  26.336  1.00  0.00     0.251 C 
ATOM     28  H   UNL A   1      37.465  21.288  25.871  1.00  0.00     0.163 HD
ATOM     29  O   UNL A   1      39.826  21.285  26.246  1.00  0.00    -0.269 OA
BRANCH  27  30
ATOM     30  C   UNL A   1      39.733  23.582  26.737  1.00  0.00     0.039 A 
ATOM     31  C   UNL A   1      40.316  23.676  28.004  1.00  0.00     0.014 A 
ATOM     32  C   UNL A   1      39.716  24.699  25.898  1.00  0.00     0.014 A 
ATOM     33  C   UNL A   1      40.928  24.867  28.403  1.00  0.00     0.010 A 
ATOM     34  C   UNL A   1      40.398  25.860  26.265  1.00  0.00     0.010 A 
ATOM     35  C   UNL A   1      41.006  25.960  27.523  1.00  0.00    -0.014 A 
BRANCH  35  36
ATOM     36  C   UNL A   1      41.732  27.197  27.918  1.00  0.00     0.031 A 
ATOM     37  C   UNL A   1      40.996  28.372  28.506  1.00  0.00     0.074 A 
ATOM     38  C   UNL A   1      43.065  27.270  27.722  1.00  0.00     0.049 A 
ATOM     39  N   UNL A   1      41.477  29.508  28.947  1.00  0.00    -0.248 NA
ATOM     40  C   UNL A   1      39.531  28.271  28.591  1.00  0.00     0.031 C 
ATOM     41  C   UNL A   1      43.889  26.226  27.105  1.00  0.00     0.029 A 
ATOM     42  N   UNL A   1      43.964  28.261  28.030  1.00  0.00    -0.354 N 
ATOM     43  C   UNL A   1      40.378  30.256  29.352  1.00  0.00     0.074 A 
ATOM     44  C   UNL A   1      39.201  29.468  29.053  1.00  0.00     0.031 C 
ATOM     45  C   UNL A   1      45.174  26.613  27.123  1.00  0.00     0.029 A 
ATOM     46  C   UNL A   1      45.265  27.941  27.719  1.00  0.00     0.049 A 
ATOM     47  H   UNL A   1      43.702  29.119  28.435  1.00  0.00     0.167 HD
ATOM     48  C   UNL A   1      40.347  31.476  29.941  1.00  0.00     0.031 A 
ATOM     49  C   UNL A   1      46.407  28.633  27.902  1.00  0.00     0.031 A 
ATOM     50  C   UNL A   1      41.519  32.257  30.244  1.00  0.00     0.049 A 
ATOM     51  C   UNL A   1      46.350  29.977  28.573  1.00  0.00     0.074 A 
ATOM     52  C   UNL A   1      41.597  33.479  30.888  1.00  0.00     0.029 A 
ATOM     53  N   UNL A   1      42.819  31.895  29.919  1.00  0.00    -0.354 N 
ATOM     54  N   UNL A   1      45.305  30.632  29.019  1.00  0.00    -0.248 NA
ATOM     55  C   UNL A   1      47.631  30.664  28.785  1.00  0.00     0.031 C 
ATOM     56  C   UNL A   1      42.938  33.880  30.908  1.00  0.00     0.029 A 
ATOM     57  C   UNL A   1      43.702  32.879  30.333  1.00  0.00     0.049 A 
ATOM     58  H   UNL A   1      43.075  31.061  29.463  1.00  0.00     0.167 HD
ATOM     59  C   UNL A   1      45.806  31.799  29.589  1.00  0.00     0.074 A 
ATOM     60  C   UNL A   1      47.247  31.744  29.450  1.00  0.00     0.031 C 
ATOM     61  C   UNL A   1      45.134  32.821  30.175  1.00  0.00     0.031 A 
BRANCH  48  62
ATOM     62  C   UNL A   1      38.998  32.044  30.299  1.00  0.00    -0.014 A 
ATOM     63  C   UNL A   1      38.358  32.980  29.464  1.00  0.00     0.010 A 
ATOM     64  C   UNL A   1      38.338  31.608  31.463  1.00  0.00     0.010 A 
ATOM     65  C   UNL A   1      37.109  33.503  29.810  1.00  0.00     0.020 A 
ATOM     66  C   UNL A   1      37.074  32.105  31.795  1.00  0.00     0.020 A 
ATOM     67  C   UNL A   1      36.476  33.062  30.975  1.00  0.00     0.054 A 
BRANCH  67  68
ATOM     68  S   UNL A   1      34.844  33.741  31.386  1.00  0.00     0.124 S 
ATOM     69  O   UNL A   1      35.149  34.573  32.548  1.00  0.00    -0.237 OA
ATOM     70  O   UNL A   1      34.483  34.467  30.172  1.00  0.00    -0.237 OA
ATOM     71  O   UNL A   1      34.035  32.557  31.664  1.00  0.00    -0.744 OA
ENDBRANCH  67  68
ENDBRANCH  48  62
BRANCH  49  72
ATOM     72  C   UNL A   1      47.706  28.047  27.473  1.00  0.00    -0.014 A 
ATOM     73  C   UNL A   1      48.198  28.271  26.175  1.00  0.00     0.010 A 
ATOM     74  C   UNL A   1      48.465  27.269  28.367  1.00  0.00     0.010 A 
ATOM     75  C   UNL A   1      49.414  27.709  25.770  1.00  0.00     0.020 A 
ATOM     76  C   UNL A   1      49.695  26.732  27.975  1.00  0.00     0.020 A 
ATOM     77  C   UNL A   1      50.155  26.945  26.675  1.00  0.00     0.054 A 
BRANCH  77  78
ATOM     78  S   UNL A   1      51.754  26.268  26.146  1.00  0.00     0.124 S 
ATOM     79  O   UNL A   1      51.906  26.856  24.818  1.00  0.00    -0.237 OA
ATOM     80  O   UNL A   1      52.664  26.773  27.170  1.00  0.00    -0.237 OA
ATOM     81  O   UNL A   1      51.538  24.824  26.171  1.00  0.00    -0.744 OA
ENDBRANCH  77  78
ENDBRANCH  49  72
BRANCH  61  82
ATOM     82  C   UNL A   1      45.959  33.949  30.739  1.00  0.00    -0.014 A 
ATOM     83  C   UNL A   1      46.424  33.925  32.066  1.00  0.00     0.010 A 
ATOM     84  C   UNL A   1      46.279  35.048  29.922  1.00  0.00     0.010 A 
ATOM     85  C   UNL A   1      47.142  35.006  32.583  1.00  0.00     0.020 A 
ATOM     86  C   UNL A   1      47.026  36.116  30.425  1.00  0.00     0.020 A 
ATOM     87  C   UNL A   1      47.431  36.100  31.760  1.00  0.00     0.054 A 
BRANCH  87  88
ATOM     88  S   UNL A   1      48.362  37.494  32.453  1.00  0.00     0.124 S 
ATOM     89  O   UNL A   1      49.742  37.038  32.310  1.00  0.00    -0.237 OA
ATOM     90  O   UNL A   1      47.974  38.604  31.587  1.00  0.00    -0.237 OA
ATOM     91  O   UNL A   1      47.875  37.585  33.828  1.00  0.00    -0.744 OA
ENDBRANCH  87  88
ENDBRANCH  61  82
ENDBRANCH  35  36
ENDBRANCH  27  30
ENDBRANCH  25  26
ENDBRANCH  24  25
ENDBRANCH   1  24
TORSDOF 18
ENDMDL
