MODEL 1
REMARK VINA RESULT:     -12.1      0.000      0.000
REMARK SMILES COc1ccc(-c2cccc3ccccc23)c(C(=O)NCCCNC(=O)c2ccc(-c3c4nc(c(-c5ccc(S(=O)(=O)[O-])cc5)c5ccc([nH]5)c(-c5ccc(S(=O)(=O)[O-])cc5)c5nc(c(-c6ccc(S(=O)(=O)[O-])cc6)c6ccc3[nH]6)C=C5)C=C4)cc2)c1
REMARK SMILES IDX 23 1 22 2 21 3 20 4 18 5 19 6 17 8 3 9 4 10 87 11 5 12 6 13
REMARK SMILES IDX 2 14 1 15 7 16 8 17 16 18 9 19 11 20 15 21 10 22 12 23 14 24
REMARK SMILES IDX 13 25 24 26 25 27 26 29 27 30 28 31 86 32 29 33 85 34 30 35
REMARK SMILES IDX 31 36 32 37 79 38 33 39 84 40 78 41 80 42 34 43 83 44 77 45
REMARK SMILES IDX 76 46 35 48 65 49 46 50 64 51 47 52 50 53 63 54 81 55 48 56
REMARK SMILES IDX 49 57 62 59 82 60 51 61 36 62 37 63 45 64 38 65 44 66 39 67
REMARK SMILES IDX 40 68 41 69 42 70 43 71 66 72 67 73 75 74 68 75 74 76 69 77
REMARK SMILES IDX 70 78 71 79 72 80 73 81 52 82 53 83 61 84 54 85 60 86 55 87
REMARK SMILES IDX 56 88 57 89 58 90 59 91
REMARK H PARENT 20 7 24 28 80 47 50 58
REMARK Flexibility Score: inf
ROOT
ATOM      1  C   UNL A   1      34.063  29.012  25.906  1.00  0.00     0.118 C 
ENDROOT
BRANCH   1   2
ATOM      2  C   UNL A   1      33.500  27.739  26.511  1.00  0.00     0.042 C 
BRANCH   2   3
ATOM      3  C   UNL A   1      32.094  27.859  27.071  1.00  0.00     0.118 C 
BRANCH   3   4
ATOM      4  N   UNL A   1      31.311  26.627  27.063  1.00  0.00    -0.352 N 
ATOM      5  C   UNL A   1      31.020  25.688  26.091  1.00  0.00     0.252 C 
ATOM      6  O   UNL A   1      30.432  24.672  26.451  1.00  0.00    -0.269 OA
ATOM      7  H   UNL A   1      30.906  26.420  27.936  1.00  0.00     0.163 HD
BRANCH   5   8
ATOM      8  C   UNL A   1      31.348  25.911  24.652  1.00  0.00     0.051 A 
ATOM      9  C   UNL A   1      30.863  27.184  22.619  1.00  0.00     0.119 A 
ATOM     10  C   UNL A   1      31.552  26.241  21.872  1.00  0.00     0.047 A 
ATOM     11  C   UNL A   1      30.815  27.039  24.002  1.00  0.00     0.060 A 
ATOM     12  C   UNL A   1      32.230  25.207  22.518  1.00  0.00     0.013 A 
ATOM     13  C   UNL A   1      32.194  25.047  23.927  1.00  0.00    -0.005 A 
BRANCH   9  14
ATOM     14  O   UNL A   1      30.295  28.202  21.905  1.00  0.00    -0.497 OA
ATOM     15  C   UNL A   1      29.512  29.138  22.639  1.00  0.00     0.278 C 
ENDBRANCH   9  14
BRANCH  13  16
ATOM     16  C   UNL A   1      33.274  24.197  24.498  1.00  0.00    -0.010 A 
ATOM     17  C   UNL A   1      34.442  24.906  24.875  1.00  0.00     0.009 A 
ATOM     18  C   UNL A   1      33.293  22.774  24.572  1.00  0.00    -0.011 A 
ATOM     19  C   UNL A   1      35.628  24.260  25.200  1.00  0.00     0.001 A 
ATOM     20  C   UNL A   1      34.531  22.128  24.863  1.00  0.00    -0.018 A 
ATOM     21  C   UNL A   1      32.162  21.945  24.402  1.00  0.00     0.009 A 
ATOM     22  C   UNL A   1      35.681  22.876  25.148  1.00  0.00     0.009 A 
ATOM     23  C   UNL A   1      34.616  20.728  24.894  1.00  0.00     0.009 A 
ATOM     24  C   UNL A   1      32.249  20.552  24.527  1.00  0.00     0.001 A 
ATOM     25  C   UNL A   1      33.479  19.943  24.746  1.00  0.00     0.001 A 
ENDBRANCH  13  16
ENDBRANCH   5   8
ENDBRANCH   3   4
ENDBRANCH   2   3
ENDBRANCH   1   2
BRANCH   1  26
ATOM     26  N   UNL A   1      33.863  30.183  26.752  1.00  0.00    -0.352 N 
ATOM     27  C   UNL A   1      34.607  30.674  27.798  1.00  0.00     0.251 C 
ATOM     28  H   UNL A   1      33.061  30.711  26.537  1.00  0.00     0.163 HD
ATOM     29  O   UNL A   1      34.136  31.573  28.498  1.00  0.00    -0.269 OA
BRANCH  27  30
ATOM     30  C   UNL A   1      35.944  30.123  28.107  1.00  0.00     0.039 A 
ATOM     31  C   UNL A   1      36.947  30.174  27.136  1.00  0.00     0.014 A 
ATOM     32  C   UNL A   1      36.211  29.540  29.347  1.00  0.00     0.014 A 
ATOM     33  C   UNL A   1      38.233  29.719  27.441  1.00  0.00     0.010 A 
ATOM     34  C   UNL A   1      37.514  29.197  29.687  1.00  0.00     0.010 A 
ATOM     35  C   UNL A   1      38.541  29.272  28.735  1.00  0.00    -0.014 A 
BRANCH  35  36
ATOM     36  C   UNL A   1      39.920  28.874  29.118  1.00  0.00     0.031 A 
ATOM     37  C   UNL A   1      40.829  29.860  29.806  1.00  0.00     0.074 A 
ATOM     38  C   UNL A   1      40.379  27.651  28.780  1.00  0.00     0.049 A 
ATOM     39  N   UNL A   1      42.082  29.721  30.154  1.00  0.00    -0.248 NA
ATOM     40  C   UNL A   1      40.266  31.185  30.116  1.00  0.00     0.031 C 
ATOM     41  C   UNL A   1      39.615  26.625  28.066  1.00  0.00     0.029 A 
ATOM     42  N   UNL A   1      41.603  27.065  28.985  1.00  0.00    -0.354 N 
ATOM     43  C   UNL A   1      42.462  30.943  30.700  1.00  0.00     0.074 A 
ATOM     44  C   UNL A   1      41.325  31.828  30.585  1.00  0.00     0.031 C 
ATOM     45  C   UNL A   1      40.373  25.527  27.926  1.00  0.00     0.029 A 
ATOM     46  C   UNL A   1      41.693  25.784  28.491  1.00  0.00     0.049 A 
ATOM     47  H   UNL A   1      42.347  27.519  29.443  1.00  0.00     0.167 HD
ATOM     48  C   UNL A   1      43.641  31.289  31.268  1.00  0.00     0.031 A 
ATOM     49  C   UNL A   1      42.723  24.916  28.485  1.00  0.00     0.031 A 
ATOM     50  C   UNL A   1      44.763  30.399  31.394  1.00  0.00     0.049 A 
ATOM     51  C   UNL A   1      44.025  25.326  29.117  1.00  0.00     0.074 A 
ATOM     52  C   UNL A   1      45.980  30.631  32.009  1.00  0.00     0.029 A 
ATOM     53  N   UNL A   1      44.808  29.106  30.893  1.00  0.00    -0.354 N 
ATOM     54  N   UNL A   1      44.339  26.462  29.696  1.00  0.00    -0.248 NA
ATOM     55  C   UNL A   1      45.110  24.336  29.106  1.00  0.00     0.031 C 
ATOM     56  C   UNL A   1      46.784  29.501  31.826  1.00  0.00     0.029 A 
ATOM     57  C   UNL A   1      46.043  28.538  31.160  1.00  0.00     0.049 A 
ATOM     58  H   UNL A   1      44.071  28.657  30.419  1.00  0.00     0.167 HD
ATOM     59  C   UNL A   1      45.646  26.310  30.144  1.00  0.00     0.074 A 
ATOM     60  C   UNL A   1      46.057  24.968  29.784  1.00  0.00     0.031 C 
ATOM     61  C   UNL A   1      46.435  27.200  30.794  1.00  0.00     0.031 A 
BRANCH  48  62
ATOM     62  C   UNL A   1      43.779  32.695  31.795  1.00  0.00    -0.014 A 
ATOM     63  C   UNL A   1      44.210  33.747  30.965  1.00  0.00     0.010 A 
ATOM     64  C   UNL A   1      43.429  32.980  33.128  1.00  0.00     0.010 A 
ATOM     65  C   UNL A   1      44.327  35.046  31.467  1.00  0.00     0.020 A 
ATOM     66  C   UNL A   1      43.514  34.284  33.625  1.00  0.00     0.020 A 
ATOM     67  C   UNL A   1      43.978  35.306  32.794  1.00  0.00     0.054 A 
BRANCH  67  68
ATOM     68  S   UNL A   1      44.111  37.007  33.408  1.00  0.00     0.124 S 
ATOM     69  O   UNL A   1      42.754  37.261  33.888  1.00  0.00    -0.237 OA
ATOM     70  O   UNL A   1      45.132  36.892  34.447  1.00  0.00    -0.237 OA
ATOM     71  O   UNL A   1      44.507  37.773  32.230  1.00  0.00    -0.744 OA
ENDBRANCH  67  68
ENDBRANCH  48  62
BRANCH  49  72
ATOM     72  C   UNL A   1      42.559  23.569  27.872  1.00  0.00    -0.014 A 
ATOM     73  C   UNL A   1      42.997  23.322  26.558  1.00  0.00     0.010 A 
ATOM     74  C   UNL A   1      41.973  22.519  28.604  1.00  0.00     0.010 A 
ATOM     75  C   UNL A   1      42.830  22.058  25.980  1.00  0.00     0.020 A 
ATOM     76  C   UNL A   1      41.835  21.248  28.042  1.00  0.00     0.020 A 
ATOM     77  C   UNL A   1      42.253  21.028  26.728  1.00  0.00     0.054 A 
BRANCH  77  78
ATOM     78  S   UNL A   1      42.091  19.386  25.975  1.00  0.00     0.124 S 
ATOM     79  O   UNL A   1      40.653  19.293  25.753  1.00  0.00    -0.237 OA
ATOM     80  O   UNL A   1      42.912  19.510  24.772  1.00  0.00    -0.237 OA
ATOM     81  O   UNL A   1      42.628  18.487  26.994  1.00  0.00    -0.744 OA
ENDBRANCH  77  78
ENDBRANCH  49  72
BRANCH  61  82
ATOM     82  C   UNL A   1      47.813  26.743  31.195  1.00  0.00    -0.014 A 
ATOM     83  C   UNL A   1      48.038  26.071  32.409  1.00  0.00     0.010 A 
ATOM     84  C   UNL A   1      48.891  26.943  30.312  1.00  0.00     0.010 A 
ATOM     85  C   UNL A   1      49.322  25.638  32.748  1.00  0.00     0.020 A 
ATOM     86  C   UNL A   1      50.170  26.483  30.633  1.00  0.00     0.020 A 
ATOM     87  C   UNL A   1      50.380  25.846  31.857  1.00  0.00     0.054 A 
BRANCH  87  88
ATOM     88  S   UNL A   1      52.028  25.236  32.304  1.00  0.00     0.124 S 
ATOM     89  O   UNL A   1      52.262  25.902  33.582  1.00  0.00    -0.237 OA
ATOM     90  O   UNL A   1      51.826  23.790  32.375  1.00  0.00    -0.237 OA
ATOM     91  O   UNL A   1      52.876  25.687  31.203  1.00  0.00    -0.744 OA
ENDBRANCH  87  88
ENDBRANCH  61  82
ENDBRANCH  35  36
ENDBRANCH  27  30
ENDBRANCH   1  26
TORSDOF 15
ENDMDL
MODEL 2
REMARK VINA RESULT:     -11.8      2.428      3.063
REMARK SMILES COc1ccc(-c2cccc3ccccc23)c(C(=O)NCCCNC(=O)c2ccc(-c3c4nc(c(-c5ccc(S(=O)(=O)[O-])cc5)c5ccc([nH]5)c(-c5ccc(S(=O)(=O)[O-])cc5)c5nc(c(-c6ccc(S(=O)(=O)[O-])cc6)c6ccc3[nH]6)C=C5)C=C4)cc2)c1
REMARK SMILES IDX 23 1 22 2 21 3 20 4 18 5 19 6 17 8 3 9 4 10 87 11 5 12 6 13
REMARK SMILES IDX 2 14 1 15 7 16 8 17 16 18 9 19 11 20 15 21 10 22 12 23 14 24
REMARK SMILES IDX 13 25 24 26 25 27 26 29 27 30 28 31 86 32 29 33 85 34 30 35
REMARK SMILES IDX 31 36 32 37 79 38 33 39 84 40 78 41 80 42 34 43 83 44 77 45
REMARK SMILES IDX 76 46 35 48 65 49 46 50 64 51 47 52 50 53 63 54 81 55 48 56
REMARK SMILES IDX 49 57 62 59 82 60 51 61 36 62 37 63 45 64 38 65 44 66 39 67
REMARK SMILES IDX 40 68 41 69 42 70 43 71 66 72 67 73 75 74 68 75 74 76 69 77
REMARK SMILES IDX 70 78 71 79 72 80 73 81 52 82 53 83 61 84 54 85 60 86 55 87
REMARK SMILES IDX 56 88 57 89 58 90 59 91
REMARK H PARENT 20 7 24 28 80 47 50 58
REMARK Flexibility Score: inf
ROOT
ATOM      1  C   UNL A   1      33.914  29.029  25.998  1.00  0.00     0.118 C 
ENDROOT
BRANCH   1   2
ATOM      2  C   UNL A   1      33.320  27.925  26.853  1.00  0.00     0.042 C 
BRANCH   2   3
ATOM      3  C   UNL A   1      31.819  28.009  27.061  1.00  0.00     0.118 C 
BRANCH   3   4
ATOM      4  N   UNL A   1      31.115  26.730  27.054  1.00  0.00    -0.352 N 
ATOM      5  C   UNL A   1      30.902  25.764  26.089  1.00  0.00     0.252 C 
ATOM      6  O   UNL A   1      30.372  24.717  26.450  1.00  0.00    -0.269 OA
ATOM      7  H   UNL A   1      30.706  26.508  27.922  1.00  0.00     0.163 HD
BRANCH   5   8
ATOM      8  C   UNL A   1      31.245  25.990  24.654  1.00  0.00     0.051 A 
ATOM      9  C   UNL A   1      30.770  27.259  22.615  1.00  0.00     0.119 A 
ATOM     10  C   UNL A   1      31.477  26.323  21.876  1.00  0.00     0.047 A 
ATOM     11  C   UNL A   1      30.708  27.113  23.998  1.00  0.00     0.060 A 
ATOM     12  C   UNL A   1      32.157  25.294  22.529  1.00  0.00     0.013 A 
ATOM     13  C   UNL A   1      32.107  25.134  23.938  1.00  0.00    -0.005 A 
BRANCH   9  14
ATOM     14  O   UNL A   1      30.201  28.271  21.894  1.00  0.00    -0.497 OA
ATOM     15  C   UNL A   1      29.200  29.040  22.555  1.00  0.00     0.278 C 
ENDBRANCH   9  14
BRANCH  13  16
ATOM     16  C   UNL A   1      33.188  24.295  24.521  1.00  0.00    -0.010 A 
ATOM     17  C   UNL A   1      34.320  25.021  24.969  1.00  0.00     0.009 A 
ATOM     18  C   UNL A   1      33.246  22.871  24.546  1.00  0.00    -0.011 A 
ATOM     19  C   UNL A   1      35.510  24.397  25.318  1.00  0.00     0.001 A 
ATOM     20  C   UNL A   1      34.490  22.249  24.863  1.00  0.00    -0.018 A 
ATOM     21  C   UNL A   1      32.147  22.017  24.302  1.00  0.00     0.009 A 
ATOM     22  C   UNL A   1      35.605  23.018  25.219  1.00  0.00     0.009 A 
ATOM     23  C   UNL A   1      34.614  20.852  24.848  1.00  0.00     0.009 A 
ATOM     24  C   UNL A   1      32.270  20.624  24.382  1.00  0.00     0.001 A 
ATOM     25  C   UNL A   1      33.507  20.041  24.627  1.00  0.00     0.001 A 
ENDBRANCH  13  16
ENDBRANCH   5   8
ENDBRANCH   3   4
ENDBRANCH   2   3
ENDBRANCH   1   2
BRANCH   1  26
ATOM     26  N   UNL A   1      33.691  30.361  26.549  1.00  0.00    -0.352 N 
ATOM     27  C   UNL A   1      34.331  31.035  27.561  1.00  0.00     0.251 C 
ATOM     28  H   UNL A   1      32.958  30.862  26.123  1.00  0.00     0.163 HD
ATOM     29  O   UNL A   1      33.838  32.081  27.990  1.00  0.00    -0.269 OA
BRANCH  27  30
ATOM     30  C   UNL A   1      35.580  30.511  28.155  1.00  0.00     0.039 A 
ATOM     31  C   UNL A   1      36.810  30.918  27.632  1.00  0.00     0.014 A 
ATOM     32  C   UNL A   1      35.546  29.606  29.218  1.00  0.00     0.014 A 
ATOM     33  C   UNL A   1      37.997  30.483  28.229  1.00  0.00     0.010 A 
ATOM     34  C   UNL A   1      36.719  29.269  29.881  1.00  0.00     0.010 A 
ATOM     35  C   UNL A   1      37.962  29.695  29.389  1.00  0.00    -0.014 A 
BRANCH  35  36
ATOM     36  C   UNL A   1      39.203  29.297  30.103  1.00  0.00     0.031 A 
ATOM     37  C   UNL A   1      39.623  30.027  31.353  1.00  0.00     0.074 A 
ATOM     38  C   UNL A   1      39.989  28.331  29.586  1.00  0.00     0.049 A 
ATOM     39  N   UNL A   1      40.704  29.873  32.073  1.00  0.00    -0.248 NA
ATOM     40  C   UNL A   1      38.728  31.090  31.840  1.00  0.00     0.031 C 
ATOM     41  C   UNL A   1      39.718  27.586  28.354  1.00  0.00     0.029 A 
ATOM     42  N   UNL A   1      41.181  27.814  30.028  1.00  0.00    -0.354 N 
ATOM     43  C   UNL A   1      40.629  30.830  33.080  1.00  0.00     0.074 A 
ATOM     44  C   UNL A   1      39.427  31.597  32.845  1.00  0.00     0.031 C 
ATOM     45  C   UNL A   1      40.694  26.685  28.159  1.00  0.00     0.029 A 
ATOM     46  C   UNL A   1      41.686  26.821  29.220  1.00  0.00     0.049 A 
ATOM     47  H   UNL A   1      41.632  28.124  30.846  1.00  0.00     0.167 HD
ATOM     48  C   UNL A   1      41.471  31.035  34.120  1.00  0.00     0.031 A 
ATOM     49  C   UNL A   1      42.824  26.106  29.316  1.00  0.00     0.031 A 
ATOM     50  C   UNL A   1      42.658  30.258  34.357  1.00  0.00     0.049 A 
ATOM     51  C   UNL A   1      43.747  26.357  30.477  1.00  0.00     0.074 A 
ATOM     52  C   UNL A   1      43.544  30.343  35.416  1.00  0.00     0.029 A 
ATOM     53  N   UNL A   1      43.126  29.253  33.523  1.00  0.00    -0.354 N 
ATOM     54  N   UNL A   1      43.619  27.217  31.461  1.00  0.00    -0.248 NA
ATOM     55  C   UNL A   1      44.962  25.534  30.550  1.00  0.00     0.031 C 
ATOM     56  C   UNL A   1      44.582  29.433  35.190  1.00  0.00     0.029 A 
ATOM     57  C   UNL A   1      44.305  28.730  34.029  1.00  0.00     0.049 A 
ATOM     58  H   UNL A   1      42.685  28.954  32.695  1.00  0.00     0.167 HD
ATOM     59  C   UNL A   1      44.721  27.017  32.284  1.00  0.00     0.074 A 
ATOM     60  C   UNL A   1      45.495  25.945  31.692  1.00  0.00     0.031 C 
ATOM     61  C   UNL A   1      45.062  27.663  33.426  1.00  0.00     0.031 A 
BRANCH  48  62
ATOM     62  C   UNL A   1      41.140  32.150  35.080  1.00  0.00    -0.014 A 
ATOM     63  C   UNL A   1      40.397  31.908  36.250  1.00  0.00     0.010 A 
ATOM     64  C   UNL A   1      41.617  33.450  34.833  1.00  0.00     0.010 A 
ATOM     65  C   UNL A   1      40.103  32.952  37.132  1.00  0.00     0.020 A 
ATOM     66  C   UNL A   1      41.354  34.490  35.730  1.00  0.00     0.020 A 
ATOM     67  C   UNL A   1      40.584  34.236  36.867  1.00  0.00     0.054 A 
BRANCH  67  68
ATOM     68  S   UNL A   1      40.213  35.562  38.046  1.00  0.00     0.124 S 
ATOM     69  O   UNL A   1      41.439  35.610  38.841  1.00  0.00    -0.237 OA
ATOM     70  O   UNL A   1      39.987  36.711  37.173  1.00  0.00    -0.237 OA
ATOM     71  O   UNL A   1      39.031  35.079  38.755  1.00  0.00    -0.744 OA
ENDBRANCH  67  68
ENDBRANCH  48  62
BRANCH  49  72
ATOM     72  C   UNL A   1      43.146  25.075  28.289  1.00  0.00    -0.014 A 
ATOM     73  C   UNL A   1      43.915  25.406  27.159  1.00  0.00     0.010 A 
ATOM     74  C   UNL A   1      42.693  23.752  28.443  1.00  0.00     0.010 A 
ATOM     75  C   UNL A   1      44.205  24.438  26.191  1.00  0.00     0.020 A 
ATOM     76  C   UNL A   1      43.008  22.775  27.494  1.00  0.00     0.020 A 
ATOM     77  C   UNL A   1      43.752  23.128  26.367  1.00  0.00     0.054 A 
BRANCH  77  78
ATOM     78  S   UNL A   1      44.181  21.880  25.122  1.00  0.00     0.124 S 
ATOM     79  O   UNL A   1      45.566  21.573  25.464  1.00  0.00    -0.237 OA
ATOM     80  O   UNL A   1      43.212  20.821  25.392  1.00  0.00    -0.237 OA
ATOM     81  O   UNL A   1      43.989  22.581  23.855  1.00  0.00    -0.744 OA
ENDBRANCH  77  78
ENDBRANCH  49  72
BRANCH  61  82
ATOM     82  C   UNL A   1      46.309  27.204  34.136  1.00  0.00    -0.014 A 
ATOM     83  C   UNL A   1      47.557  27.802  33.886  1.00  0.00     0.010 A 
ATOM     84  C   UNL A   1      46.217  26.194  35.112  1.00  0.00     0.010 A 
ATOM     85  C   UNL A   1      48.695  27.373  34.573  1.00  0.00     0.020 A 
ATOM     86  C   UNL A   1      47.346  25.785  35.825  1.00  0.00     0.020 A 
ATOM     87  C   UNL A   1      48.582  26.368  35.539  1.00  0.00     0.054 A 
BRANCH  87  88
ATOM     88  S   UNL A   1      50.068  25.860  36.447  1.00  0.00     0.124 S 
ATOM     89  O   UNL A   1      51.123  26.549  35.711  1.00  0.00    -0.237 OA
ATOM     90  O   UNL A   1      49.807  26.363  37.794  1.00  0.00    -0.237 OA
ATOM     91  O   UNL A   1      50.070  24.404  36.322  1.00  0.00    -0.744 OA
ENDBRANCH  87  88
ENDBRANCH  61  82
ENDBRANCH  35  36
ENDBRANCH  27  30
ENDBRANCH   1  26
TORSDOF 15
ENDMDL
MODEL 3
REMARK VINA RESULT:     -11.7      0.989      1.996
REMARK SMILES COc1ccc(-c2cccc3ccccc23)c(C(=O)NCCCNC(=O)c2ccc(-c3c4nc(c(-c5ccc(S(=O)(=O)[O-])cc5)c5ccc([nH]5)c(-c5ccc(S(=O)(=O)[O-])cc5)c5nc(c(-c6ccc(S(=O)(=O)[O-])cc6)c6ccc3[nH]6)C=C5)C=C4)cc2)c1
REMARK SMILES IDX 23 1 22 2 21 3 20 4 18 5 19 6 17 8 3 9 4 10 87 11 5 12 6 13
REMARK SMILES IDX 2 14 1 15 7 16 8 17 16 18 9 19 11 20 15 21 10 22 12 23 14 24
REMARK SMILES IDX 13 25 24 26 25 27 26 29 27 30 28 31 86 32 29 33 85 34 30 35
REMARK SMILES IDX 31 36 32 37 79 38 33 39 84 40 78 41 80 42 34 43 83 44 77 45
REMARK SMILES IDX 76 46 35 48 65 49 46 50 64 51 47 52 50 53 63 54 81 55 48 56
REMARK SMILES IDX 49 57 62 59 82 60 51 61 36 62 37 63 45 64 38 65 44 66 39 67
REMARK SMILES IDX 40 68 41 69 42 70 43 71 66 72 67 73 75 74 68 75 74 76 69 77
REMARK SMILES IDX 70 78 71 79 72 80 73 81 52 82 53 83 61 84 54 85 60 86 55 87
REMARK SMILES IDX 56 88 57 89 58 90 59 91
REMARK H PARENT 20 7 24 28 80 47 50 58
REMARK Flexibility Score: inf
ROOT
ATOM      1  C   UNL A   1      33.996  28.753  26.022  1.00  0.00     0.118 C 
ENDROOT
BRANCH   1   2
ATOM      2  C   UNL A   1      33.055  28.620  24.838  1.00  0.00     0.042 C 
BRANCH   2   3
ATOM      3  C   UNL A   1      33.657  28.986  23.494  1.00  0.00     0.118 C 
BRANCH   3   4
ATOM      4  N   UNL A   1      33.835  27.873  22.565  1.00  0.00    -0.352 N 
ATOM      5  C   UNL A   1      33.014  26.844  22.141  1.00  0.00     0.252 C 
ATOM      6  O   UNL A   1      33.429  26.135  21.229  1.00  0.00    -0.269 OA
ATOM      7  H   UNL A   1      34.729  27.851  22.153  1.00  0.00     0.163 HD
BRANCH   5   8
ATOM      8  C   UNL A   1      31.701  26.560  22.791  1.00  0.00     0.051 A 
ATOM      9  C   UNL A   1      29.436  27.363  23.259  1.00  0.00     0.119 A 
ATOM     10  C   UNL A   1      29.300  26.388  24.235  1.00  0.00     0.047 A 
ATOM     11  C   UNL A   1      30.610  27.405  22.513  1.00  0.00     0.060 A 
ATOM     12  C   UNL A   1      30.305  25.436  24.410  1.00  0.00     0.013 A 
ATOM     13  C   UNL A   1      31.506  25.462  23.655  1.00  0.00    -0.005 A 
BRANCH   9  14
ATOM     14  O   UNL A   1      28.369  28.203  23.111  1.00  0.00    -0.497 OA
ATOM     15  C   UNL A   1      28.599  29.406  22.384  1.00  0.00     0.278 C 
ENDBRANCH   9  14
BRANCH  13  16
ATOM     16  C   UNL A   1      32.271  24.186  23.633  1.00  0.00    -0.010 A 
ATOM     17  C   UNL A   1      31.635  23.131  22.932  1.00  0.00     0.009 A 
ATOM     18  C   UNL A   1      33.474  23.899  24.341  1.00  0.00    -0.011 A 
ATOM     19  C   UNL A   1      32.080  21.818  23.008  1.00  0.00     0.001 A 
ATOM     20  C   UNL A   1      33.891  22.539  24.445  1.00  0.00    -0.018 A 
ATOM     21  C   UNL A   1      34.310  24.872  24.933  1.00  0.00     0.009 A 
ATOM     22  C   UNL A   1      33.177  21.520  23.800  1.00  0.00     0.009 A 
ATOM     23  C   UNL A   1      35.038  22.197  25.177  1.00  0.00     0.009 A 
ATOM     24  C   UNL A   1      35.501  24.519  25.581  1.00  0.00     0.001 A 
ATOM     25  C   UNL A   1      35.850  23.181  25.726  1.00  0.00     0.001 A 
ENDBRANCH  13  16
ENDBRANCH   5   8
ENDBRANCH   3   4
ENDBRANCH   2   3
ENDBRANCH   1   2
BRANCH   1  26
ATOM     26  N   UNL A   1      33.836  30.013  26.739  1.00  0.00    -0.352 N 
ATOM     27  C   UNL A   1      34.615  30.603  27.704  1.00  0.00     0.251 C 
ATOM     28  H   UNL A   1      33.035  30.526  26.489  1.00  0.00     0.163 HD
ATOM     29  O   UNL A   1      34.176  31.581  28.314  1.00  0.00    -0.269 OA
BRANCH  27  30
ATOM     30  C   UNL A   1      35.954  30.068  28.036  1.00  0.00     0.039 A 
ATOM     31  C   UNL A   1      36.971  30.128  27.080  1.00  0.00     0.014 A 
ATOM     32  C   UNL A   1      36.209  29.493  29.282  1.00  0.00     0.014 A 
ATOM     33  C   UNL A   1      38.257  29.689  27.406  1.00  0.00     0.010 A 
ATOM     34  C   UNL A   1      37.510  29.165  29.643  1.00  0.00     0.010 A 
ATOM     35  C   UNL A   1      38.550  29.249  28.706  1.00  0.00    -0.014 A 
BRANCH  35  36
ATOM     36  C   UNL A   1      39.928  28.868  29.112  1.00  0.00     0.031 A 
ATOM     37  C   UNL A   1      40.813  29.864  29.815  1.00  0.00     0.074 A 
ATOM     38  C   UNL A   1      40.407  27.652  28.780  1.00  0.00     0.049 A 
ATOM     39  N   UNL A   1      42.062  29.741  30.183  1.00  0.00    -0.248 NA
ATOM     40  C   UNL A   1      40.229  31.183  30.116  1.00  0.00     0.031 C 
ATOM     41  C   UNL A   1      39.667  26.617  28.054  1.00  0.00     0.029 A 
ATOM     42  N   UNL A   1      41.635  27.081  29.005  1.00  0.00    -0.354 N 
ATOM     43  C   UNL A   1      42.417  30.967  30.737  1.00  0.00     0.074 A 
ATOM     44  C   UNL A   1      41.272  31.839  30.603  1.00  0.00     0.031 C 
ATOM     45  C   UNL A   1      40.441  25.528  27.925  1.00  0.00     0.029 A 
ATOM     46  C   UNL A   1      41.749  25.801  28.512  1.00  0.00     0.049 A 
ATOM     47  H   UNL A   1      42.366  27.543  29.475  1.00  0.00     0.167 HD
ATOM     48  C   UNL A   1      43.582  31.328  31.324  1.00  0.00     0.031 A 
ATOM     49  C   UNL A   1      42.790  24.946  28.523  1.00  0.00     0.031 A 
ATOM     50  C   UNL A   1      44.714  30.451  31.467  1.00  0.00     0.049 A 
ATOM     51  C   UNL A   1      44.076  25.371  29.176  1.00  0.00     0.074 A 
ATOM     52  C   UNL A   1      45.917  30.698  32.103  1.00  0.00     0.029 A 
ATOM     53  N   UNL A   1      44.782  29.159  30.967  1.00  0.00    -0.354 N 
ATOM     54  N   UNL A   1      44.366  26.511  29.760  1.00  0.00    -0.248 NA
ATOM     55  C   UNL A   1      45.173  24.394  29.182  1.00  0.00     0.031 C 
ATOM     56  C   UNL A   1      46.738  29.578  31.932  1.00  0.00     0.029 A 
ATOM     57  C   UNL A   1      46.019  28.607  31.254  1.00  0.00     0.049 A 
ATOM     58  H   UNL A   1      44.059  28.702  30.480  1.00  0.00     0.167 HD
ATOM     59  C   UNL A   1      45.667  26.375  30.230  1.00  0.00     0.074 A 
ATOM     60  C   UNL A   1      46.101  25.038  29.876  1.00  0.00     0.031 C 
ATOM     61  C   UNL A   1      46.435  27.274  30.893  1.00  0.00     0.031 A 
BRANCH  48  62
ATOM     62  C   UNL A   1      43.694  32.735  31.854  1.00  0.00    -0.014 A 
ATOM     63  C   UNL A   1      43.326  33.048  33.176  1.00  0.00     0.010 A 
ATOM     64  C   UNL A   1      44.217  33.751  31.034  1.00  0.00     0.010 A 
ATOM     65  C   UNL A   1      43.441  34.357  33.653  1.00  0.00     0.020 A 
ATOM     66  C   UNL A   1      44.364  35.055  31.518  1.00  0.00     0.020 A 
ATOM     67  C   UNL A   1      43.960  35.352  32.821  1.00  0.00     0.054 A 
BRANCH  67  68
ATOM     68  S   UNL A   1      44.126  37.033  33.479  1.00  0.00     0.124 S 
ATOM     69  O   UNL A   1      42.882  37.188  34.231  1.00  0.00    -0.237 OA
ATOM     70  O   UNL A   1      45.340  36.941  34.286  1.00  0.00    -0.237 OA
ATOM     71  O   UNL A   1      44.238  37.866  32.284  1.00  0.00    -0.744 OA
ENDBRANCH  67  68
ENDBRANCH  48  62
BRANCH  49  72
ATOM     72  C   UNL A   1      42.653  23.597  27.906  1.00  0.00    -0.014 A 
ATOM     73  C   UNL A   1      42.062  22.539  28.620  1.00  0.00     0.010 A 
ATOM     74  C   UNL A   1      43.104  23.365  26.593  1.00  0.00     0.010 A 
ATOM     75  C   UNL A   1      41.946  21.270  28.042  1.00  0.00     0.020 A 
ATOM     76  C   UNL A   1      42.960  22.108  26.001  1.00  0.00     0.020 A 
ATOM     77  C   UNL A   1      42.393  21.064  26.734  1.00  0.00     0.054 A 
BRANCH  77  78
ATOM     78  S   UNL A   1      42.188  19.423  25.989  1.00  0.00     0.124 S 
ATOM     79  O   UNL A   1      42.712  18.548  27.032  1.00  0.00    -0.237 OA
ATOM     80  O   UNL A   1      40.746  19.355  25.770  1.00  0.00    -0.237 OA
ATOM     81  O   UNL A   1      42.991  19.498  24.771  1.00  0.00    -0.744 OA
ENDBRANCH  77  78
ENDBRANCH  49  72
BRANCH  61  82
ATOM     82  C   UNL A   1      47.812  26.834  31.317  1.00  0.00    -0.014 A 
ATOM     83  C   UNL A   1      48.943  27.108  30.528  1.00  0.00     0.010 A 
ATOM     84  C   UNL A   1      47.979  26.182  32.553  1.00  0.00     0.010 A 
ATOM     85  C   UNL A   1      50.213  26.708  30.953  1.00  0.00     0.020 A 
ATOM     86  C   UNL A   1      49.250  25.810  32.996  1.00  0.00     0.020 A 
ATOM     87  C   UNL A   1      50.357  26.062  32.185  1.00  0.00     0.054 A 
BRANCH  87  88
ATOM     88  S   UNL A   1      52.022  25.591  32.731  1.00  0.00     0.124 S 
ATOM     89  O   UNL A   1      52.395  26.722  33.575  1.00  0.00    -0.237 OA
ATOM     90  O   UNL A   1      51.783  24.333  33.435  1.00  0.00    -0.237 OA
ATOM     91  O   UNL A   1      52.775  25.468  31.486  1.00  0.00    -0.744 OA
ENDBRANCH  87  88
ENDBRANCH  61  82
ENDBRANCH  35  36
ENDBRANCH  27  30
ENDBRANCH   1  26
TORSDOF 15
ENDMDL
