MODEL 1
REMARK VINA RESULT:     -10.4      0.000      0.000
REMARK SMILES [NH3+][C@@H](CC(=O)NCCCNC(=O)c1ccc(-c2c3nc(c(-c4ccc(S(=O)(=O)[O-])cc4)c4ccc([nH]4)c(-c4ccc(S(=O)(=O)[O-])cc4)c4nc(c(-c5ccc(S(=O)(=O)[O-])cc5)c5ccc2[nH]5)C=C4)C=C3)cc1)[NH+]1CCOCC1
REMARK SMILES IDX 8 1 7 2 6 3 4 4 5 5 3 7 2 8 1 9 73 13 74 14 78 15 75 17
REMARK SMILES IDX 77 18 76 19 9 20 10 21 11 22 12 24 13 25 14 26 72 27 15 28
REMARK SMILES IDX 71 29 16 30 17 31 18 32 65 33 19 34 70 35 64 36 66 37 20 38
REMARK SMILES IDX 69 39 63 40 62 41 21 43 51 44 32 45 50 46 33 47 36 48 49 49
REMARK SMILES IDX 67 50 34 51 35 52 48 54 68 55 37 56 22 57 23 58 31 59 24 60
REMARK SMILES IDX 30 61 25 62 26 63 27 64 28 65 29 66 52 67 53 68 61 69 54 70
REMARK SMILES IDX 60 71 55 72 56 73 57 74 58 75 59 76 38 77 39 78 47 79 40 80
REMARK SMILES IDX 46 81 41 82 42 83 43 84 44 85 45 86
REMARK H PARENT 6 6 1 10 1 11 1 12 73 16 10 23 66 42 36 53
REMARK Flexibility Score: inf
ROOT
ATOM      1  C   UNL A   1      32.317  27.376  26.919  1.00  0.00     0.042 C 
ENDROOT
BRANCH   1   2
ATOM      2  C   UNL A   1      31.795  26.894  25.569  1.00  0.00     0.117 C 
BRANCH   2   3
ATOM      3  N   UNL A   1      32.450  27.547  24.455  1.00  0.00    -0.356 N 
ATOM      4  C   UNL A   1      32.057  28.577  23.665  1.00  0.00     0.232 C 
ATOM      5  O   UNL A   1      32.895  29.025  22.878  1.00  0.00    -0.275 OA
ATOM      6  H   UNL A   1      33.335  27.180  24.231  1.00  0.00     0.163 HD
BRANCH   4   7
ATOM      7  C   UNL A   1      30.704  29.226  23.799  1.00  0.00     0.232 C 
BRANCH   7   8
ATOM      8  C   UNL A   1      29.910  29.666  22.556  1.00  0.00     0.389 C 
BRANCH   8   9
ATOM      9  N   UNL A   1      30.723  30.123  21.444  1.00  0.00    -0.308 N 
ATOM     10  H   UNL A   1      31.187  30.995  21.698  1.00  0.00     0.349 HD
ATOM     11  H   UNL A   1      30.128  30.280  20.630  1.00  0.00     0.349 HD
ATOM     12  H   UNL A   1      31.424  29.417  21.223  1.00  0.00     0.349 HD
ENDBRANCH   8   9
BRANCH   8  13
ATOM     13  N   UNL A   1      28.719  30.483  22.627  1.00  0.00    -0.282 N 
ATOM     14  C   UNL A   1      27.906  30.802  21.455  1.00  0.00     0.296 C 
ATOM     15  C   UNL A   1      28.740  31.591  23.587  1.00  0.00     0.296 C 
ATOM     16  H   UNL A   1      28.181  29.701  23.001  1.00  0.00     0.353 HD
ATOM     17  C   UNL A   1      28.088  32.218  20.892  1.00  0.00     0.222 C 
ATOM     18  C   UNL A   1      28.916  32.980  22.955  1.00  0.00     0.222 C 
ATOM     19  O   UNL A   1      27.962  33.211  21.913  1.00  0.00    -0.370 OA
ENDBRANCH   8  13
ENDBRANCH   7   8
ENDBRANCH   4   7
ENDBRANCH   2   3
ENDBRANCH   1   2
BRANCH   1  20
ATOM     20  C   UNL A   1      33.631  28.149  26.860  1.00  0.00     0.118 C 
BRANCH  20  21
ATOM     21  N   UNL A   1      33.463  29.558  27.165  1.00  0.00    -0.352 N 
ATOM     22  C   UNL A   1      34.297  30.436  27.814  1.00  0.00     0.251 C 
ATOM     23  H   UNL A   1      32.613  29.948  26.857  1.00  0.00     0.163 HD
ATOM     24  O   UNL A   1      33.853  31.530  28.156  1.00  0.00    -0.269 OA
BRANCH  22  25
ATOM     25  C   UNL A   1      35.704  30.084  28.124  1.00  0.00     0.039 A 
ATOM     26  C   UNL A   1      36.013  29.654  29.418  1.00  0.00     0.014 A 
ATOM     27  C   UNL A   1      36.729  30.237  27.187  1.00  0.00     0.014 A 
ATOM     28  C   UNL A   1      37.332  29.330  29.756  1.00  0.00     0.010 A 
ATOM     29  C   UNL A   1      38.032  29.846  27.502  1.00  0.00     0.010 A 
ATOM     30  C   UNL A   1      38.350  29.397  28.792  1.00  0.00    -0.014 A 
BRANCH  30  31
ATOM     31  C   UNL A   1      39.751  29.021  29.124  1.00  0.00     0.031 A 
ATOM     32  C   UNL A   1      40.673  30.018  29.778  1.00  0.00     0.074 A 
ATOM     33  C   UNL A   1      40.212  27.795  28.801  1.00  0.00     0.049 A 
ATOM     34  N   UNL A   1      41.941  29.895  30.078  1.00  0.00    -0.248 NA
ATOM     35  C   UNL A   1      40.102  31.332  30.117  1.00  0.00     0.031 C 
ATOM     36  C   UNL A   1      39.435  26.743  28.142  1.00  0.00     0.029 A 
ATOM     37  N   UNL A   1      41.451  27.230  28.978  1.00  0.00    -0.354 N 
ATOM     38  C   UNL A   1      42.323  31.115  30.625  1.00  0.00     0.074 A 
ATOM     39  C   UNL A   1      41.163  31.979  30.579  1.00  0.00     0.031 C 
ATOM     40  C   UNL A   1      40.209  25.655  27.989  1.00  0.00     0.029 A 
ATOM     41  C   UNL A   1      41.544  25.943  28.504  1.00  0.00     0.049 A 
ATOM     42  H   UNL A   1      42.202  27.703  29.403  1.00  0.00     0.167 HD
ATOM     43  C   UNL A   1      43.523  31.481  31.136  1.00  0.00     0.031 A 
ATOM     44  C   UNL A   1      42.586  25.090  28.479  1.00  0.00     0.031 A 
ATOM     45  C   UNL A   1      44.673  30.619  31.205  1.00  0.00     0.049 A 
ATOM     46  C   UNL A   1      43.909  25.520  29.050  1.00  0.00     0.074 A 
ATOM     47  C   UNL A   1      45.920  30.890  31.745  1.00  0.00     0.029 A 
ATOM     48  N   UNL A   1      44.719  29.320  30.728  1.00  0.00    -0.354 N 
ATOM     49  N   UNL A   1      44.235  26.667  29.598  1.00  0.00    -0.248 NA
ATOM     50  C   UNL A   1      45.002  24.538  29.009  1.00  0.00     0.031 C 
ATOM     51  C   UNL A   1      46.729  29.764  31.563  1.00  0.00     0.029 A 
ATOM     52  C   UNL A   1      45.974  28.778  30.951  1.00  0.00     0.049 A 
ATOM     53  H   UNL A   1      43.969  28.850  30.295  1.00  0.00     0.167 HD
ATOM     54  C   UNL A   1      45.563  26.533  29.988  1.00  0.00     0.074 A 
ATOM     55  C   UNL A   1      45.975  25.193  29.626  1.00  0.00     0.031 C 
ATOM     56  C   UNL A   1      46.369  27.441  30.591  1.00  0.00     0.031 A 
BRANCH  43  57
ATOM     57  C   UNL A   1      43.655  32.884  31.668  1.00  0.00    -0.014 A 
ATOM     58  C   UNL A   1      44.062  33.937  30.830  1.00  0.00     0.010 A 
ATOM     59  C   UNL A   1      43.318  33.161  33.005  1.00  0.00     0.010 A 
ATOM     60  C   UNL A   1      44.163  35.238  31.329  1.00  0.00     0.020 A 
ATOM     61  C   UNL A   1      43.395  34.465  33.501  1.00  0.00     0.020 A 
ATOM     62  C   UNL A   1      43.833  35.494  32.664  1.00  0.00     0.054 A 
BRANCH  62  63
ATOM     63  S   UNL A   1      43.943  37.197  33.278  1.00  0.00     0.124 S 
ATOM     64  O   UNL A   1      42.756  37.286  34.125  1.00  0.00    -0.237 OA
ATOM     65  O   UNL A   1      45.221  37.202  33.986  1.00  0.00    -0.237 OA
ATOM     66  O   UNL A   1      43.904  38.007  32.064  1.00  0.00    -0.744 OA
ENDBRANCH  62  63
ENDBRANCH  43  57
BRANCH  44  67
ATOM     67  C   UNL A   1      42.424  23.731  27.895  1.00  0.00    -0.014 A 
ATOM     68  C   UNL A   1      42.620  23.520  26.519  1.00  0.00     0.010 A 
ATOM     69  C   UNL A   1      42.068  22.643  28.712  1.00  0.00     0.010 A 
ATOM     70  C   UNL A   1      42.438  22.249  25.965  1.00  0.00     0.020 A 
ATOM     71  C   UNL A   1      41.908  21.367  28.166  1.00  0.00     0.020 A 
ATOM     72  C   UNL A   1      42.080  21.181  26.792  1.00  0.00     0.054 A 
BRANCH  72  73
ATOM     73  S   UNL A   1      41.885  19.531  26.063  1.00  0.00     0.124 S 
ATOM     74  O   UNL A   1      42.354  18.667  27.141  1.00  0.00    -0.237 OA
ATOM     75  O   UNL A   1      40.452  19.473  25.782  1.00  0.00    -0.237 OA
ATOM     76  O   UNL A   1      42.742  19.580  24.880  1.00  0.00    -0.744 OA
ENDBRANCH  72  73
ENDBRANCH  44  67
BRANCH  56  77
ATOM     77  C   UNL A   1      47.767  27.006  30.931  1.00  0.00    -0.014 A 
ATOM     78  C   UNL A   1      48.839  27.255  30.055  1.00  0.00     0.010 A 
ATOM     79  C   UNL A   1      48.020  26.383  32.167  1.00  0.00     0.010 A 
ATOM     80  C   UNL A   1      50.135  26.863  30.398  1.00  0.00     0.020 A 
ATOM     81  C   UNL A   1      49.317  26.009  32.521  1.00  0.00     0.020 A 
ATOM     82  C   UNL A   1      50.366  26.238  31.628  1.00  0.00     0.054 A 
BRANCH  82  83
ATOM     83  S   UNL A   1      52.064  25.776  32.071  1.00  0.00     0.124 S 
ATOM     84  O   UNL A   1      52.243  26.467  33.344  1.00  0.00    -0.237 OA
ATOM     85  O   UNL A   1      51.992  24.319  32.152  1.00  0.00    -0.237 OA
ATOM     86  O   UNL A   1      52.862  26.292  30.962  1.00  0.00    -0.744 OA
ENDBRANCH  82  83
ENDBRANCH  56  77
ENDBRANCH  30  31
ENDBRANCH  22  25
ENDBRANCH  20  21
ENDBRANCH   1  20
TORSDOF 16
ENDMDL
MODEL 2
REMARK VINA RESULT:     -10.2      2.620      3.269
REMARK SMILES [NH3+][C@@H](CC(=O)NCCCNC(=O)c1ccc(-c2c3nc(c(-c4ccc(S(=O)(=O)[O-])cc4)c4ccc([nH]4)c(-c4ccc(S(=O)(=O)[O-])cc4)c4nc(c(-c5ccc(S(=O)(=O)[O-])cc5)c5ccc2[nH]5)C=C4)C=C3)cc1)[NH+]1CCOCC1
REMARK SMILES IDX 8 1 7 2 6 3 4 4 5 5 3 7 2 8 1 9 73 13 74 14 78 15 75 17
REMARK SMILES IDX 77 18 76 19 9 20 10 21 11 22 12 24 13 25 14 26 72 27 15 28
REMARK SMILES IDX 71 29 16 30 17 31 18 32 65 33 19 34 70 35 64 36 66 37 20 38
REMARK SMILES IDX 69 39 63 40 62 41 21 43 51 44 32 45 50 46 33 47 36 48 49 49
REMARK SMILES IDX 67 50 34 51 35 52 48 54 68 55 37 56 22 57 23 58 31 59 24 60
REMARK SMILES IDX 30 61 25 62 26 63 27 64 28 65 29 66 52 67 53 68 61 69 54 70
REMARK SMILES IDX 60 71 55 72 56 73 57 74 58 75 59 76 38 77 39 78 47 79 40 80
REMARK SMILES IDX 46 81 41 82 42 83 43 84 44 85 45 86
REMARK H PARENT 6 6 1 10 1 11 1 12 73 16 10 23 66 42 36 53
REMARK Flexibility Score: inf
ROOT
ATOM      1  C   UNL A   1      33.201  28.050  26.834  1.00  0.00     0.042 C 
ENDROOT
BRANCH   1   2
ATOM      2  C   UNL A   1      31.696  28.208  26.638  1.00  0.00     0.117 C 
BRANCH   2   3
ATOM      3  N   UNL A   1      31.197  27.433  25.521  1.00  0.00    -0.356 N 
ATOM      4  C   UNL A   1      30.734  27.813  24.304  1.00  0.00     0.232 C 
ATOM      5  O   UNL A   1      30.511  26.915  23.489  1.00  0.00    -0.275 OA
ATOM      6  H   UNL A   1      31.193  26.460  25.670  1.00  0.00     0.163 HD
BRANCH   4   7
ATOM      7  C   UNL A   1      30.590  29.261  23.912  1.00  0.00     0.232 C 
BRANCH   7   8
ATOM      8  C   UNL A   1      29.869  29.662  22.613  1.00  0.00     0.389 C 
BRANCH   8   9
ATOM      9  N   UNL A   1      30.745  30.085  21.536  1.00  0.00    -0.308 N 
ATOM     10  H   UNL A   1      31.500  30.656  21.916  1.00  0.00     0.349 HD
ATOM     11  H   UNL A   1      30.212  30.633  20.860  1.00  0.00     0.349 HD
ATOM     12  H   UNL A   1      31.138  29.265  21.075  1.00  0.00     0.349 HD
ENDBRANCH   8   9
BRANCH   8  13
ATOM     13  N   UNL A   1      28.678  30.480  22.591  1.00  0.00    -0.282 N 
ATOM     14  C   UNL A   1      27.922  30.745  21.367  1.00  0.00     0.296 C 
ATOM     15  C   UNL A   1      28.654  31.630  23.500  1.00  0.00     0.296 C 
ATOM     16  H   UNL A   1      28.122  29.715  22.973  1.00  0.00     0.353 HD
ATOM     17  C   UNL A   1      28.133  32.135  20.752  1.00  0.00     0.222 C 
ATOM     18  C   UNL A   1      28.861  32.989  22.817  1.00  0.00     0.222 C 
ATOM     19  O   UNL A   1      27.958  33.173  21.721  1.00  0.00    -0.370 OA
ENDBRANCH   8  13
ENDBRANCH   7   8
ENDBRANCH   4   7
ENDBRANCH   2   3
ENDBRANCH   1   2
BRANCH   1  20
ATOM     20  C   UNL A   1      34.053  29.093  26.116  1.00  0.00     0.118 C 
BRANCH  20  21
ATOM     21  N   UNL A   1      33.774  30.445  26.565  1.00  0.00    -0.352 N 
ATOM     22  C   UNL A   1      34.341  31.184  27.576  1.00  0.00     0.251 C 
ATOM     23  H   UNL A   1      33.064  30.907  26.064  1.00  0.00     0.163 HD
ATOM     24  O   UNL A   1      33.794  32.228  27.921  1.00  0.00    -0.269 OA
BRANCH  22  25
ATOM     25  C   UNL A   1      35.578  30.739  28.262  1.00  0.00     0.039 A 
ATOM     26  C   UNL A   1      36.784  31.363  27.931  1.00  0.00     0.014 A 
ATOM     27  C   UNL A   1      35.580  29.676  29.169  1.00  0.00     0.014 A 
ATOM     28  C   UNL A   1      37.976  30.959  28.543  1.00  0.00     0.010 A 
ATOM     29  C   UNL A   1      36.756  29.320  29.831  1.00  0.00     0.010 A 
ATOM     30  C   UNL A   1      37.969  29.951  29.520  1.00  0.00    -0.014 A 
BRANCH  30  31
ATOM     31  C   UNL A   1      39.222  29.535  30.206  1.00  0.00     0.031 A 
ATOM     32  C   UNL A   1      39.681  30.248  31.452  1.00  0.00     0.074 A 
ATOM     33  C   UNL A   1      39.974  28.543  29.687  1.00  0.00     0.049 A 
ATOM     34  N   UNL A   1      40.776  30.072  32.146  1.00  0.00    -0.248 NA
ATOM     35  C   UNL A   1      38.806  31.310  31.973  1.00  0.00     0.031 C 
ATOM     36  C   UNL A   1      39.661  27.788  28.472  1.00  0.00     0.029 A 
ATOM     37  N   UNL A   1      41.162  28.004  30.115  1.00  0.00    -0.354 N 
ATOM     38  C   UNL A   1      40.731  31.009  33.173  1.00  0.00     0.074 A 
ATOM     39  C   UNL A   1      39.519  31.778  32.988  1.00  0.00     0.031 C 
ATOM     40  C   UNL A   1      40.621  26.872  28.264  1.00  0.00     0.029 A 
ATOM     41  C   UNL A   1      41.635  26.997  29.307  1.00  0.00     0.049 A 
ATOM     42  H   UNL A   1      41.632  28.311  30.924  1.00  0.00     0.167 HD
ATOM     43  C   UNL A   1      41.607  31.202  34.188  1.00  0.00     0.031 A 
ATOM     44  C   UNL A   1      42.759  26.260  29.389  1.00  0.00     0.031 A 
ATOM     45  C   UNL A   1      42.802  30.426  34.390  1.00  0.00     0.049 A 
ATOM     46  C   UNL A   1      43.717  26.495  30.525  1.00  0.00     0.074 A 
ATOM     47  C   UNL A   1      43.728  30.523  35.415  1.00  0.00     0.029 A 
ATOM     48  N   UNL A   1      43.233  29.407  33.557  1.00  0.00    -0.354 N 
ATOM     49  N   UNL A   1      43.633  27.361  31.507  1.00  0.00    -0.248 NA
ATOM     50  C   UNL A   1      44.917  25.648  30.569  1.00  0.00     0.031 C 
ATOM     51  C   UNL A   1      44.737  29.583  35.183  1.00  0.00     0.029 A 
ATOM     52  C   UNL A   1      44.417  28.873  34.038  1.00  0.00     0.049 A 
ATOM     53  H   UNL A   1      42.767  29.106  32.744  1.00  0.00     0.167 HD
ATOM     54  C   UNL A   1      44.756  27.145  32.297  1.00  0.00     0.074 A 
ATOM     55  C   UNL A   1      45.496  26.059  31.687  1.00  0.00     0.031 C 
ATOM     56  C   UNL A   1      45.140  27.789  33.426  1.00  0.00     0.031 A 
BRANCH  43  57
ATOM     57  C   UNL A   1      41.303  32.303  35.170  1.00  0.00    -0.014 A 
ATOM     58  C   UNL A   1      40.581  32.039  36.348  1.00  0.00     0.010 A 
ATOM     59  C   UNL A   1      41.789  33.602  34.941  1.00  0.00     0.010 A 
ATOM     60  C   UNL A   1      40.320  33.062  37.262  1.00  0.00     0.020 A 
ATOM     61  C   UNL A   1      41.551  34.624  35.864  1.00  0.00     0.020 A 
ATOM     62  C   UNL A   1      40.804  34.350  37.013  1.00  0.00     0.054 A 
BRANCH  62  63
ATOM     63  S   UNL A   1      40.478  35.654  38.230  1.00  0.00     0.124 S 
ATOM     64  O   UNL A   1      39.566  34.982  39.152  1.00  0.00    -0.237 OA
ATOM     65  O   UNL A   1      41.809  35.939  38.761  1.00  0.00    -0.237 OA
ATOM     66  O   UNL A   1      39.884  36.728  37.439  1.00  0.00    -0.744 OA
ENDBRANCH  62  63
ENDBRANCH  43  57
BRANCH  44  67
ATOM     67  C   UNL A   1      43.045  25.218  28.367  1.00  0.00    -0.014 A 
ATOM     68  C   UNL A   1      42.631  23.890  28.568  1.00  0.00     0.010 A 
ATOM     69  C   UNL A   1      43.739  25.549  27.189  1.00  0.00     0.010 A 
ATOM     70  C   UNL A   1      42.927  22.905  27.622  1.00  0.00     0.020 A 
ATOM     71  C   UNL A   1      44.016  24.571  26.230  1.00  0.00     0.020 A 
ATOM     72  C   UNL A   1      43.621  23.251  26.459  1.00  0.00     0.054 A 
BRANCH  72  73
ATOM     73  S   UNL A   1      43.963  21.967  25.223  1.00  0.00     0.124 S 
ATOM     74  O   UNL A   1      45.306  21.538  25.597  1.00  0.00    -0.237 OA
ATOM     75  O   UNL A   1      42.897  20.998  25.467  1.00  0.00    -0.237 OA
ATOM     76  O   UNL A   1      43.862  22.684  23.954  1.00  0.00    -0.744 OA
ENDBRANCH  72  73
ENDBRANCH  44  67
BRANCH  56  77
ATOM     77  C   UNL A   1      46.399  27.315  34.098  1.00  0.00    -0.014 A 
ATOM     78  C   UNL A   1      47.647  27.881  33.785  1.00  0.00     0.010 A 
ATOM     79  C   UNL A   1      46.324  26.323  35.093  1.00  0.00     0.010 A 
ATOM     80  C   UNL A   1      48.803  27.442  34.435  1.00  0.00     0.020 A 
ATOM     81  C   UNL A   1      47.474  25.898  35.760  1.00  0.00     0.020 A 
ATOM     82  C   UNL A   1      48.710  26.450  35.417  1.00  0.00     0.054 A 
BRANCH  82  83
ATOM     83  S   UNL A   1      50.218  25.927  36.280  1.00  0.00     0.124 S 
ATOM     84  O   UNL A   1      51.165  25.789  35.177  1.00  0.00    -0.237 OA
ATOM     85  O   UNL A   1      50.473  27.039  37.191  1.00  0.00    -0.237 OA
ATOM     86  O   UNL A   1      49.828  24.677  36.928  1.00  0.00    -0.744 OA
ENDBRANCH  82  83
ENDBRANCH  56  77
ENDBRANCH  30  31
ENDBRANCH  22  25
ENDBRANCH  20  21
ENDBRANCH   1  20
TORSDOF 16
ENDMDL
MODEL 3
REMARK VINA RESULT:      -9.9      4.148     10.340
REMARK SMILES [NH3+][C@@H](CC(=O)NCCCNC(=O)c1ccc(-c2c3nc(c(-c4ccc(S(=O)(=O)[O-])cc4)c4ccc([nH]4)c(-c4ccc(S(=O)(=O)[O-])cc4)c4nc(c(-c5ccc(S(=O)(=O)[O-])cc5)c5ccc2[nH]5)C=C4)C=C3)cc1)[NH+]1CCOCC1
REMARK SMILES IDX 8 1 7 2 6 3 4 4 5 5 3 7 2 8 1 9 73 13 74 14 78 15 75 17
REMARK SMILES IDX 77 18 76 19 9 20 10 21 11 22 12 24 13 25 14 26 72 27 15 28
REMARK SMILES IDX 71 29 16 30 17 31 18 32 65 33 19 34 70 35 64 36 66 37 20 38
REMARK SMILES IDX 69 39 63 40 62 41 21 43 51 44 32 45 50 46 33 47 36 48 49 49
REMARK SMILES IDX 67 50 34 51 35 52 48 54 68 55 37 56 22 57 23 58 31 59 24 60
REMARK SMILES IDX 30 61 25 62 26 63 27 64 28 65 29 66 52 67 53 68 61 69 54 70
REMARK SMILES IDX 60 71 55 72 56 73 57 74 58 75 59 76 38 77 39 78 47 79 40 80
REMARK SMILES IDX 46 81 41 82 42 83 43 84 44 85 45 86
REMARK H PARENT 6 6 1 10 1 11 1 12 73 16 10 23 66 42 36 53
REMARK Flexibility Score: inf
ROOT
ATOM      1  C   UNL A   1      35.581  23.511  24.341  1.00  0.00     0.042 C 
ENDROOT
BRANCH   1   2
ATOM      2  C   UNL A   1      34.073  23.382  24.535  1.00  0.00     0.117 C 
BRANCH   2   3
ATOM      3  N   UNL A   1      33.434  22.656  23.458  1.00  0.00    -0.356 N 
ATOM      4  C   UNL A   1      32.607  21.580  23.470  1.00  0.00     0.232 C 
ATOM      5  O   UNL A   1      32.092  21.263  22.396  1.00  0.00    -0.275 OA
ATOM      6  H   UNL A   1      33.634  23.002  22.559  1.00  0.00     0.163 HD
BRANCH   4   7
ATOM      7  C   UNL A   1      32.241  20.859  24.742  1.00  0.00     0.232 C 
BRANCH   7   8
ATOM      8  C   UNL A   1      33.003  19.597  25.184  1.00  0.00     0.389 C 
BRANCH   8   9
ATOM      9  N   UNL A   1      34.448  19.702  25.114  1.00  0.00    -0.308 N 
ATOM     10  H   UNL A   1      34.736  20.636  25.404  1.00  0.00     0.349 HD
ATOM     11  H   UNL A   1      34.755  19.535  24.155  1.00  0.00     0.349 HD
ATOM     12  H   UNL A   1      34.870  19.009  25.731  1.00  0.00     0.349 HD
ENDBRANCH   8   9
BRANCH   8  13
ATOM     13  N   UNL A   1      32.615  18.261  24.791  1.00  0.00    -0.282 N 
ATOM     14  C   UNL A   1      32.760  17.103  25.672  1.00  0.00     0.296 C 
ATOM     15  C   UNL A   1      32.830  17.902  23.386  1.00  0.00     0.296 C 
ATOM     16  H   UNL A   1      31.631  18.478  24.954  1.00  0.00     0.353 HD
ATOM     17  C   UNL A   1      33.943  16.179  25.354  1.00  0.00     0.222 C 
ATOM     18  C   UNL A   1      34.025  16.968  23.142  1.00  0.00     0.222 C 
ATOM     19  O   UNL A   1      33.965  15.805  23.974  1.00  0.00    -0.370 OA
ENDBRANCH   8  13
ENDBRANCH   7   8
ENDBRANCH   4   7
ENDBRANCH   2   3
ENDBRANCH   1   2
BRANCH   1  20
ATOM     20  C   UNL A   1      36.378  23.714  25.626  1.00  0.00     0.118 C 
BRANCH  20  21
ATOM     21  N   UNL A   1      37.420  22.717  25.799  1.00  0.00    -0.352 N 
ATOM     22  C   UNL A   1      38.720  22.851  26.224  1.00  0.00     0.251 C 
ATOM     23  H   UNL A   1      37.152  21.797  25.574  1.00  0.00     0.163 HD
ATOM     24  O   UNL A   1      39.488  21.903  26.079  1.00  0.00    -0.269 OA
BRANCH  22  25
ATOM     25  C   UNL A   1      39.212  24.112  26.830  1.00  0.00     0.039 A 
ATOM     26  C   UNL A   1      38.874  24.388  28.159  1.00  0.00     0.014 A 
ATOM     27  C   UNL A   1      39.935  25.054  26.095  1.00  0.00     0.014 A 
ATOM     28  C   UNL A   1      39.303  25.575  28.761  1.00  0.00     0.010 A 
ATOM     29  C   UNL A   1      40.423  26.206  26.716  1.00  0.00     0.010 A 
ATOM     30  C   UNL A   1      40.106  26.484  28.053  1.00  0.00    -0.014 A 
BRANCH  30  31
ATOM     31  C   UNL A   1      40.600  27.734  28.691  1.00  0.00     0.031 A 
ATOM     32  C   UNL A   1      42.010  27.813  29.218  1.00  0.00     0.074 A 
ATOM     33  C   UNL A   1      39.771  28.787  28.836  1.00  0.00     0.049 A 
ATOM     34  N   UNL A   1      42.595  28.791  29.864  1.00  0.00    -0.248 NA
ATOM     35  C   UNL A   1      42.867  26.634  29.014  1.00  0.00     0.031 C 
ATOM     36  C   UNL A   1      38.375  28.835  28.396  1.00  0.00     0.029 A 
ATOM     37  N   UNL A   1      39.981  30.020  29.403  1.00  0.00    -0.354 N 
ATOM     38  C   UNL A   1      43.877  28.341  30.156  1.00  0.00     0.074 A 
ATOM     39  C   UNL A   1      43.974  26.987  29.653  1.00  0.00     0.031 C 
ATOM     40  C   UNL A   1      37.862  30.041  28.690  1.00  0.00     0.029 A 
ATOM     41  C   UNL A   1      38.877  30.839  29.372  1.00  0.00     0.049 A 
ATOM     42  H   UNL A   1      40.842  30.292  29.796  1.00  0.00     0.167 HD
ATOM     43  C   UNL A   1      44.891  28.996  30.771  1.00  0.00     0.031 A 
ATOM     44  C   UNL A   1      38.696  32.087  29.843  1.00  0.00     0.031 A 
ATOM     45  C   UNL A   1      44.808  30.350  31.253  1.00  0.00     0.049 A 
ATOM     46  C   UNL A   1      39.836  32.794  30.524  1.00  0.00     0.074 A 
ATOM     47  C   UNL A   1      45.798  31.112  31.852  1.00  0.00     0.029 A 
ATOM     48  N   UNL A   1      43.677  31.146  31.187  1.00  0.00    -0.354 N 
ATOM     49  N   UNL A   1      41.053  32.361  30.753  1.00  0.00    -0.248 NA
ATOM     50  C   UNL A   1      39.581  34.161  31.000  1.00  0.00     0.031 C 
ATOM     51  C   UNL A   1      45.254  32.358  32.177  1.00  0.00     0.029 A 
ATOM     52  C   UNL A   1      43.940  32.388  31.743  1.00  0.00     0.049 A 
ATOM     53  H   UNL A   1      42.814  30.871  30.801  1.00  0.00     0.167 HD
ATOM     54  C   UNL A   1      41.715  33.413  31.379  1.00  0.00     0.074 A 
ATOM     55  C   UNL A   1      40.768  34.504  31.480  1.00  0.00     0.031 C 
ATOM     56  C   UNL A   1      42.991  33.467  31.830  1.00  0.00     0.031 A 
BRANCH  43  57
ATOM     57  C   UNL A   1      46.189  28.256  30.956  1.00  0.00    -0.014 A 
ATOM     58  C   UNL A   1      47.202  28.323  29.983  1.00  0.00     0.010 A 
ATOM     59  C   UNL A   1      46.420  27.531  32.138  1.00  0.00     0.010 A 
ATOM     60  C   UNL A   1      48.410  27.648  30.173  1.00  0.00     0.020 A 
ATOM     61  C   UNL A   1      47.637  26.873  32.342  1.00  0.00     0.020 A 
ATOM     62  C   UNL A   1      48.619  26.924  31.350  1.00  0.00     0.054 A 
BRANCH  62  63
ATOM     63  S   UNL A   1      50.208  26.082  31.585  1.00  0.00     0.124 S 
ATOM     64  O   UNL A   1      49.966  25.322  32.809  1.00  0.00    -0.237 OA
ATOM     65  O   UNL A   1      50.334  25.285  30.367  1.00  0.00    -0.237 OA
ATOM     66  O   UNL A   1      51.166  27.177  31.711  1.00  0.00    -0.744 OA
ENDBRANCH  62  63
ENDBRANCH  43  57
BRANCH  44  67
ATOM     67  C   UNL A   1      37.380  32.762  29.684  1.00  0.00    -0.014 A 
ATOM     68  C   UNL A   1      37.005  33.308  28.444  1.00  0.00     0.010 A 
ATOM     69  C   UNL A   1      36.497  32.865  30.774  1.00  0.00     0.010 A 
ATOM     70  C   UNL A   1      35.782  33.970  28.303  1.00  0.00     0.020 A 
ATOM     71  C   UNL A   1      35.263  33.505  30.630  1.00  0.00     0.020 A 
ATOM     72  C   UNL A   1      34.919  34.066  29.398  1.00  0.00     0.054 A 
BRANCH  72  73
ATOM     73  S   UNL A   1      33.318  34.893  29.187  1.00  0.00     0.124 S 
ATOM     74  O   UNL A   1      32.757  34.813  30.532  1.00  0.00    -0.237 OA
ATOM     75  O   UNL A   1      33.706  36.230  28.741  1.00  0.00    -0.237 OA
ATOM     76  O   UNL A   1      32.646  34.079  28.176  1.00  0.00    -0.744 OA
ENDBRANCH  72  73
ENDBRANCH  44  67
BRANCH  56  77
ATOM     77  C   UNL A   1      43.453  34.760  32.443  1.00  0.00    -0.014 A 
ATOM     78  C   UNL A   1      43.338  34.991  33.825  1.00  0.00     0.010 A 
ATOM     79  C   UNL A   1      44.056  35.737  31.630  1.00  0.00     0.010 A 
ATOM     80  C   UNL A   1      43.792  36.190  34.379  1.00  0.00     0.020 A 
ATOM     81  C   UNL A   1      44.531  36.928  32.184  1.00  0.00     0.020 A 
ATOM     82  C   UNL A   1      44.383  37.154  33.554  1.00  0.00     0.054 A 
BRANCH  82  83
ATOM     83  S   UNL A   1      45.005  38.685  34.302  1.00  0.00     0.124 S 
ATOM     84  O   UNL A   1      43.781  39.287  34.823  1.00  0.00    -0.237 OA
ATOM     85  O   UNL A   1      45.943  38.196  35.310  1.00  0.00    -0.237 OA
ATOM     86  O   UNL A   1      45.620  39.391  33.180  1.00  0.00    -0.744 OA
ENDBRANCH  82  83
ENDBRANCH  56  77
ENDBRANCH  30  31
ENDBRANCH  22  25
ENDBRANCH  20  21
ENDBRANCH   1  20
TORSDOF 16
ENDMDL
