MODEL 1
REMARK VINA RESULT:     -10.4      0.000      0.000
REMARK SMILES CC(C)C[C@H](CNC(=O)c1ccc(O)cc1O)C(=O)NCCCNC(=O)c1ccc(-c2c3nc(c(-c4ccc(S(=O)(=O)[O-])cc4)c4ccc([nH]4)c(-c4ccc(S(=O)(=O)[O-])cc4)c4nc(c(-c5ccc(S(=O)(=O)[O-])cc5)c5ccc2[nH]5)C=C4)C=C3)cc1
REMARK SMILES IDX 21 1 20 2 18 3 19 4 5 6 4 7 2 8 1 9 3 10 6 11 7 12 8 13 9 15
REMARK SMILES IDX 10 16 11 17 16 18 12 19 15 20 13 21 17 22 14 24 22 26 23 27
REMARK SMILES IDX 24 28 25 29 26 31 27 32 28 33 86 34 29 35 85 36 30 37 31 38
REMARK SMILES IDX 32 39 79 40 33 41 84 42 78 43 80 44 34 45 83 46 77 47 76 48
REMARK SMILES IDX 35 50 65 51 46 52 64 53 47 54 50 55 63 56 81 57 48 58 49 59
REMARK SMILES IDX 62 61 82 62 51 63 36 64 37 65 45 66 38 67 44 68 39 69 40 70
REMARK SMILES IDX 41 71 42 72 43 73 66 74 67 75 75 76 68 77 74 78 69 79 70 80
REMARK SMILES IDX 71 81 72 82 73 83 52 84 53 85 61 86 54 87 60 88 55 89 56 90
REMARK SMILES IDX 57 91 58 92 59 93
REMARK H PARENT 20 5 7 14 17 23 14 25 24 30 80 49 50 60
REMARK Flexibility Score: inf
ROOT
ATOM      1  C   UNL A   1      31.984  28.633  24.890  1.00  0.00     0.117 C 
ENDROOT
BRANCH   1   2
ATOM      2  N   UNL A   1      30.620  28.230  24.611  1.00  0.00    -0.356 N 
ATOM      3  C   UNL A   1      30.117  27.145  23.975  1.00  0.00     0.224 C 
ATOM      4  O   UNL A   1      28.888  27.088  23.862  1.00  0.00    -0.275 OA
ATOM      5  H   UNL A   1      29.938  28.857  24.942  1.00  0.00     0.163 HD
BRANCH   3   6
ATOM      6  C   UNL A   1      30.983  26.041  23.382  1.00  0.00     0.098 C 
BRANCH   6   7
ATOM      7  C   UNL A   1      31.354  26.135  21.887  1.00  0.00     0.018 C 
BRANCH   7   8
ATOM      8  C   UNL A   1      32.832  25.881  21.511  1.00  0.00    -0.017 C 
ATOM      9  C   UNL A   1      33.627  25.191  22.615  1.00  0.00     0.007 C 
ATOM     10  C   UNL A   1      32.902  25.067  20.216  1.00  0.00     0.007 C 
ENDBRANCH   7   8
ENDBRANCH   6   7
BRANCH   6  11
ATOM     11  C   UNL A   1      30.491  24.649  23.845  1.00  0.00     0.129 C 
BRANCH  11  12
ATOM     12  N   UNL A   1      30.222  24.549  25.274  1.00  0.00    -0.351 N 
ATOM     13  C   UNL A   1      30.829  23.779  26.227  1.00  0.00     0.255 C 
ATOM     14  H   UNL A   1      29.493  25.124  25.603  1.00  0.00     0.163 HD
ATOM     15  O   UNL A   1      30.215  23.469  27.246  1.00  0.00    -0.269 OA
BRANCH  13  16
ATOM     16  C   UNL A   1      32.208  23.292  26.047  1.00  0.00     0.081 A 
ATOM     17  C   UNL A   1      33.293  24.159  26.229  1.00  0.00     0.021 A 
ATOM     18  C   UNL A   1      32.435  21.935  25.788  1.00  0.00     0.132 A 
ATOM     19  C   UNL A   1      34.597  23.680  26.092  1.00  0.00     0.047 A 
ATOM     20  C   UNL A   1      33.733  21.461  25.629  1.00  0.00     0.093 A 
ATOM     21  C   UNL A   1      34.804  22.337  25.785  1.00  0.00     0.119 A 
BRANCH  18  22
ATOM     22  O   UNL A   1      31.418  21.022  25.694  1.00  0.00    -0.507 OA
ATOM     23  H   UNL A   1      30.914  20.961  24.907  1.00  0.00     0.293 HD
ENDBRANCH  18  22
BRANCH  21  24
ATOM     24  O   UNL A   1      36.063  21.834  25.646  1.00  0.00    -0.508 OA
ATOM     25  H   UNL A   1      36.804  22.408  25.685  1.00  0.00     0.293 HD
ENDBRANCH  21  24
ENDBRANCH  13  16
ENDBRANCH  11  12
ENDBRANCH   6  11
ENDBRANCH   3   6
ENDBRANCH   1   2
BRANCH   1  26
ATOM     26  C   UNL A   1      32.594  27.778  25.987  1.00  0.00     0.042 C 
BRANCH  26  27
ATOM     27  C   UNL A   1      33.890  28.357  26.524  1.00  0.00     0.118 C 
BRANCH  27  28
ATOM     28  N   UNL A   1      33.730  29.736  26.966  1.00  0.00    -0.352 N 
ATOM     29  C   UNL A   1      34.563  30.487  27.759  1.00  0.00     0.251 C 
ATOM     30  H   UNL A   1      32.914  30.190  26.653  1.00  0.00     0.163 HD
ATOM     31  O   UNL A   1      34.184  31.558  28.213  1.00  0.00    -0.269 OA
BRANCH  29  32
ATOM     32  C   UNL A   1      35.913  29.971  28.066  1.00  0.00     0.039 A 
ATOM     33  C   UNL A   1      36.924  30.082  27.110  1.00  0.00     0.014 A 
ATOM     34  C   UNL A   1      36.177  29.414  29.319  1.00  0.00     0.014 A 
ATOM     35  C   UNL A   1      38.224  29.690  27.439  1.00  0.00     0.010 A 
ATOM     36  C   UNL A   1      37.484  29.118  29.676  1.00  0.00     0.010 A 
ATOM     37  C   UNL A   1      38.519  29.240  28.735  1.00  0.00    -0.014 A 
BRANCH  37  38
ATOM     38  C   UNL A   1      39.888  28.846  29.144  1.00  0.00     0.031 A 
ATOM     39  C   UNL A   1      40.773  29.861  29.815  1.00  0.00     0.074 A 
ATOM     40  C   UNL A   1      40.366  27.627  28.824  1.00  0.00     0.049 A 
ATOM     41  N   UNL A   1      42.048  29.790  30.097  1.00  0.00    -0.248 NA
ATOM     42  C   UNL A   1      40.149  31.146  30.179  1.00  0.00     0.031 C 
ATOM     43  C   UNL A   1      39.614  26.569  28.145  1.00  0.00     0.029 A 
ATOM     44  N   UNL A   1      41.611  27.082  29.011  1.00  0.00    -0.354 N 
ATOM     45  C   UNL A   1      42.383  31.027  30.635  1.00  0.00     0.074 A 
ATOM     46  C   UNL A   1      41.193  31.847  30.594  1.00  0.00     0.031 C 
ATOM     47  C   UNL A   1      40.409  25.497  27.990  1.00  0.00     0.029 A 
ATOM     48  C   UNL A   1      41.736  25.806  28.512  1.00  0.00     0.049 A 
ATOM     49  H   UNL A   1      42.346  27.558  29.460  1.00  0.00     0.167 HD
ATOM     50  C   UNL A   1      43.573  31.438  31.133  1.00  0.00     0.031 A 
ATOM     51  C   UNL A   1      42.804  24.987  28.465  1.00  0.00     0.031 A 
ATOM     52  C   UNL A   1      44.742  30.606  31.198  1.00  0.00     0.049 A 
ATOM     53  C   UNL A   1      44.113  25.461  29.035  1.00  0.00     0.074 A 
ATOM     54  C   UNL A   1      45.982  30.904  31.734  1.00  0.00     0.029 A 
ATOM     55  N   UNL A   1      44.813  29.306  30.720  1.00  0.00    -0.354 N 
ATOM     56  N   UNL A   1      44.403  26.620  29.576  1.00  0.00    -0.248 NA
ATOM     57  C   UNL A   1      45.236  24.514  29.000  1.00  0.00     0.031 C 
ATOM     58  C   UNL A   1      46.814  29.797  31.545  1.00  0.00     0.029 A 
ATOM     59  C   UNL A   1      46.077  28.791  30.941  1.00  0.00     0.049 A 
ATOM     60  H   UNL A   1      44.072  28.821  30.289  1.00  0.00     0.167 HD
ATOM     61  C   UNL A   1      45.731  26.529  29.979  1.00  0.00     0.074 A 
ATOM     62  C   UNL A   1      46.185  25.201  29.622  1.00  0.00     0.031 C 
ATOM     63  C   UNL A   1      46.502  27.458  30.594  1.00  0.00     0.031 A 
BRANCH  50  64
ATOM     64  C   UNL A   1      43.663  32.852  31.642  1.00  0.00    -0.014 A 
ATOM     65  C   UNL A   1      43.981  33.917  30.779  1.00  0.00     0.010 A 
ATOM     66  C   UNL A   1      43.403  33.124  32.997  1.00  0.00     0.010 A 
ATOM     67  C   UNL A   1      44.083  35.221  31.271  1.00  0.00     0.020 A 
ATOM     68  C   UNL A   1      43.474  34.431  33.487  1.00  0.00     0.020 A 
ATOM     69  C   UNL A   1      43.832  35.469  32.624  1.00  0.00     0.054 A 
BRANCH  69  70
ATOM     70  S   UNL A   1      43.955  37.173  33.233  1.00  0.00     0.124 S 
ATOM     71  O   UNL A   1      45.180  37.120  34.027  1.00  0.00    -0.237 OA
ATOM     72  O   UNL A   1      44.041  37.949  31.997  1.00  0.00    -0.237 OA
ATOM     73  O   UNL A   1      42.725  37.357  33.997  1.00  0.00    -0.744 OA
ENDBRANCH  69  70
ENDBRANCH  50  64
BRANCH  51  74
ATOM     74  C   UNL A   1      42.674  23.628  27.870  1.00  0.00    -0.014 A 
ATOM     75  C   UNL A   1      42.001  22.610  28.567  1.00  0.00     0.010 A 
ATOM     76  C   UNL A   1      43.205  23.351  26.597  1.00  0.00     0.010 A 
ATOM     77  C   UNL A   1      41.879  21.333  28.012  1.00  0.00     0.020 A 
ATOM     78  C   UNL A   1      43.061  22.082  26.028  1.00  0.00     0.020 A 
ATOM     79  C   UNL A   1      42.410  21.077  26.744  1.00  0.00     0.054 A 
BRANCH  79  80
ATOM     80  S   UNL A   1      42.199  19.425  26.024  1.00  0.00     0.124 S 
ATOM     81  O   UNL A   1      43.005  19.518  24.811  1.00  0.00    -0.237 OA
ATOM     82  O   UNL A   1      42.728  18.555  27.071  1.00  0.00    -0.237 OA
ATOM     83  O   UNL A   1      40.756  19.328  25.813  1.00  0.00    -0.744 OA
ENDBRANCH  79  80
ENDBRANCH  51  74
BRANCH  63  84
ATOM     84  C   UNL A   1      47.900  27.061  30.979  1.00  0.00    -0.014 A 
ATOM     85  C   UNL A   1      48.157  26.337  32.155  1.00  0.00     0.010 A 
ATOM     86  C   UNL A   1      48.962  27.345  30.099  1.00  0.00     0.010 A 
ATOM     87  C   UNL A   1      49.457  25.919  32.454  1.00  0.00     0.020 A 
ATOM     88  C   UNL A   1      50.256  26.907  30.381  1.00  0.00     0.020 A 
ATOM     89  C   UNL A   1      50.498  26.204  31.562  1.00  0.00     0.054 A 
BRANCH  89  90
ATOM     90  S   UNL A   1      52.162  25.589  31.937  1.00  0.00     0.124 S 
ATOM     91  O   UNL A   1      52.860  25.813  30.674  1.00  0.00    -0.237 OA
ATOM     92  O   UNL A   1      52.578  26.444  33.046  1.00  0.00    -0.237 OA
ATOM     93  O   UNL A   1      51.942  24.187  32.288  1.00  0.00    -0.744 OA
ENDBRANCH  89  90
ENDBRANCH  63  84
ENDBRANCH  37  38
ENDBRANCH  29  32
ENDBRANCH  27  28
ENDBRANCH  26  27
ENDBRANCH   1  26
TORSDOF 20
ENDMDL
MODEL 2
REMARK VINA RESULT:     -10.2      2.500      3.355
REMARK SMILES CC(C)C[C@H](CNC(=O)c1ccc(O)cc1O)C(=O)NCCCNC(=O)c1ccc(-c2c3nc(c(-c4ccc(S(=O)(=O)[O-])cc4)c4ccc([nH]4)c(-c4ccc(S(=O)(=O)[O-])cc4)c4nc(c(-c5ccc(S(=O)(=O)[O-])cc5)c5ccc2[nH]5)C=C4)C=C3)cc1
REMARK SMILES IDX 21 1 20 2 18 3 19 4 5 6 4 7 2 8 1 9 3 10 6 11 7 12 8 13 9 15
REMARK SMILES IDX 10 16 11 17 16 18 12 19 15 20 13 21 17 22 14 24 22 26 23 27
REMARK SMILES IDX 24 28 25 29 26 31 27 32 28 33 86 34 29 35 85 36 30 37 31 38
REMARK SMILES IDX 32 39 79 40 33 41 84 42 78 43 80 44 34 45 83 46 77 47 76 48
REMARK SMILES IDX 35 50 65 51 46 52 64 53 47 54 50 55 63 56 81 57 48 58 49 59
REMARK SMILES IDX 62 61 82 62 51 63 36 64 37 65 45 66 38 67 44 68 39 69 40 70
REMARK SMILES IDX 41 71 42 72 43 73 66 74 67 75 75 76 68 77 74 78 69 79 70 80
REMARK SMILES IDX 71 81 72 82 73 83 52 84 53 85 61 86 54 87 60 88 55 89 56 90
REMARK SMILES IDX 57 91 58 92 59 93
REMARK H PARENT 20 5 7 14 17 23 14 25 24 30 80 49 50 60
REMARK Flexibility Score: inf
ROOT
ATOM      1  C   UNL A   1      31.656  28.089  26.454  1.00  0.00     0.117 C 
ENDROOT
BRANCH   1   2
ATOM      2  N   UNL A   1      30.943  26.858  26.737  1.00  0.00    -0.356 N 
ATOM      3  C   UNL A   1      30.334  25.965  25.922  1.00  0.00     0.224 C 
ATOM      4  O   UNL A   1      29.773  25.009  26.466  1.00  0.00    -0.275 OA
ATOM      5  H   UNL A   1      30.893  26.632  27.694  1.00  0.00     0.163 HD
BRANCH   3   6
ATOM      6  C   UNL A   1      30.286  26.108  24.405  1.00  0.00     0.098 C 
BRANCH   6   7
ATOM      7  C   UNL A   1      29.163  26.972  23.794  1.00  0.00     0.018 C 
BRANCH   7   8
ATOM      8  C   UNL A   1      29.534  28.412  23.372  1.00  0.00    -0.017 C 
ATOM      9  C   UNL A   1      30.700  28.474  22.392  1.00  0.00     0.007 C 
ATOM     10  C   UNL A   1      28.304  29.109  22.782  1.00  0.00     0.007 C 
ENDBRANCH   7   8
ENDBRANCH   6   7
BRANCH   6  11
ATOM     11  C   UNL A   1      30.501  24.738  23.719  1.00  0.00     0.129 C 
BRANCH  11  12
ATOM     12  N   UNL A   1      31.387  24.776  22.562  1.00  0.00    -0.351 N 
ATOM     13  C   UNL A   1      32.676  24.339  22.433  1.00  0.00     0.255 C 
ATOM     14  H   UNL A   1      30.998  25.176  21.751  1.00  0.00     0.163 HD
ATOM     15  O   UNL A   1      33.410  24.840  21.582  1.00  0.00    -0.269 OA
BRANCH  13  16
ATOM     16  C   UNL A   1      33.216  23.288  23.312  1.00  0.00     0.081 A 
ATOM     17  C   UNL A   1      32.787  21.961  23.173  1.00  0.00     0.021 A 
ATOM     18  C   UNL A   1      34.230  23.600  24.225  1.00  0.00     0.132 A 
ATOM     19  C   UNL A   1      33.330  20.965  23.986  1.00  0.00     0.047 A 
ATOM     20  C   UNL A   1      34.757  22.613  25.051  1.00  0.00     0.093 A 
ATOM     21  C   UNL A   1      34.304  21.303  24.923  1.00  0.00     0.119 A 
BRANCH  18  22
ATOM     22  O   UNL A   1      34.757  24.860  24.339  1.00  0.00    -0.507 OA
ATOM     23  H   UNL A   1      35.528  25.000  24.851  1.00  0.00     0.293 HD
ENDBRANCH  18  22
BRANCH  21  24
ATOM     24  O   UNL A   1      34.857  20.356  25.733  1.00  0.00    -0.508 OA
ATOM     25  H   UNL A   1      35.200  20.598  26.571  1.00  0.00     0.293 HD
ENDBRANCH  21  24
ENDBRANCH  13  16
ENDBRANCH  11  12
ENDBRANCH   6  11
ENDBRANCH   3   6
ENDBRANCH   1   2
BRANCH   1  26
ATOM     26  C   UNL A   1      32.822  27.841  25.513  1.00  0.00     0.042 C 
BRANCH  26  27
ATOM     27  C   UNL A   1      34.077  28.584  25.935  1.00  0.00     0.118 C 
BRANCH  27  28
ATOM     28  N   UNL A   1      33.785  29.941  26.379  1.00  0.00    -0.352 N 
ATOM     29  C   UNL A   1      34.394  30.670  27.372  1.00  0.00     0.251 C 
ATOM     30  H   UNL A   1      33.053  30.395  25.902  1.00  0.00     0.163 HD
ATOM     31  O   UNL A   1      33.894  31.715  27.765  1.00  0.00    -0.269 OA
BRANCH  29  32
ATOM     32  C   UNL A   1      35.648  30.162  27.964  1.00  0.00     0.039 A 
ATOM     33  C   UNL A   1      36.856  30.371  27.297  1.00  0.00     0.014 A 
ATOM     34  C   UNL A   1      35.621  29.512  29.201  1.00  0.00     0.014 A 
ATOM     35  C   UNL A   1      38.052  29.984  27.907  1.00  0.00     0.010 A 
ATOM     36  C   UNL A   1      36.812  29.219  29.846  1.00  0.00     0.010 A 
ATOM     37  C   UNL A   1      38.040  29.438  29.200  1.00  0.00    -0.014 A 
BRANCH  37  38
ATOM     38  C   UNL A   1      39.283  29.044  29.905  1.00  0.00     0.031 A 
ATOM     39  C   UNL A   1      39.731  29.839  31.102  1.00  0.00     0.074 A 
ATOM     40  C   UNL A   1      40.053  28.052  29.416  1.00  0.00     0.049 A 
ATOM     41  N   UNL A   1      40.861  29.782  31.757  1.00  0.00    -0.248 NA
ATOM     42  C   UNL A   1      38.799  30.866  31.601  1.00  0.00     0.031 C 
ATOM     43  C   UNL A   1      39.741  27.230  28.244  1.00  0.00     0.029 A 
ATOM     44  N   UNL A   1      41.272  27.581  29.836  1.00  0.00    -0.354 N 
ATOM     45  C   UNL A   1      40.789  30.785  32.717  1.00  0.00     0.074 A 
ATOM     46  C   UNL A   1      39.529  31.467  32.528  1.00  0.00     0.031 C 
ATOM     47  C   UNL A   1      40.733  26.346  28.051  1.00  0.00     0.029 A 
ATOM     48  C   UNL A   1      41.772  26.568  29.051  1.00  0.00     0.049 A 
ATOM     49  H   UNL A   1      41.744  27.935  30.623  1.00  0.00     0.167 HD
ATOM     50  C   UNL A   1      41.687  31.099  33.680  1.00  0.00     0.031 A 
ATOM     51  C   UNL A   1      42.943  25.906  29.122  1.00  0.00     0.031 A 
ATOM     52  C   UNL A   1      42.923  30.395  33.881  1.00  0.00     0.049 A 
ATOM     53  C   UNL A   1      43.919  26.264  30.209  1.00  0.00     0.074 A 
ATOM     54  C   UNL A   1      43.878  30.594  34.862  1.00  0.00     0.029 A 
ATOM     55  N   UNL A   1      43.371  29.347  33.090  1.00  0.00    -0.354 N 
ATOM     56  N   UNL A   1      43.819  27.189  31.133  1.00  0.00    -0.248 NA
ATOM     57  C   UNL A   1      45.163  25.483  30.269  1.00  0.00     0.031 C 
ATOM     58  C   UNL A   1      44.922  29.692  34.641  1.00  0.00     0.029 A 
ATOM     59  C   UNL A   1      44.592  28.895  33.556  1.00  0.00     0.049 A 
ATOM     60  H   UNL A   1      42.890  28.978  32.314  1.00  0.00     0.167 HD
ATOM     61  C   UNL A   1      44.968  27.076  31.908  1.00  0.00     0.074 A 
ATOM     62  C   UNL A   1      45.747  25.993  31.346  1.00  0.00     0.031 C 
ATOM     63  C   UNL A   1      45.342  27.801  32.991  1.00  0.00     0.031 A 
BRANCH  50  64
ATOM     64  C   UNL A   1      41.359  32.257  34.586  1.00  0.00    -0.014 A 
ATOM     65  C   UNL A   1      41.754  33.568  34.261  1.00  0.00     0.010 A 
ATOM     66  C   UNL A   1      40.627  32.035  35.765  1.00  0.00     0.010 A 
ATOM     67  C   UNL A   1      41.462  34.628  35.123  1.00  0.00     0.020 A 
ATOM     68  C   UNL A   1      40.306  33.097  36.615  1.00  0.00     0.020 A 
ATOM     69  C   UNL A   1      40.743  34.385  36.297  1.00  0.00     0.054 A 
BRANCH  69  70
ATOM     70  S   UNL A   1      40.364  35.783  37.389  1.00  0.00     0.124 S 
ATOM     71  O   UNL A   1      39.407  35.187  38.318  1.00  0.00    -0.237 OA
ATOM     72  O   UNL A   1      41.670  36.110  37.957  1.00  0.00    -0.237 OA
ATOM     73  O   UNL A   1      39.811  36.787  36.485  1.00  0.00    -0.744 OA
ENDBRANCH  69  70
ENDBRANCH  50  64
BRANCH  51  74
ATOM     74  C   UNL A   1      43.247  24.826  28.143  1.00  0.00    -0.014 A 
ATOM     75  C   UNL A   1      43.999  25.105  26.988  1.00  0.00     0.010 A 
ATOM     76  C   UNL A   1      42.801  23.511  28.367  1.00  0.00     0.010 A 
ATOM     77  C   UNL A   1      44.284  24.094  26.066  1.00  0.00     0.020 A 
ATOM     78  C   UNL A   1      43.107  22.492  27.460  1.00  0.00     0.020 A 
ATOM     79  C   UNL A   1      43.836  22.793  26.309  1.00  0.00     0.054 A 
BRANCH  79  80
ATOM     80  S   UNL A   1      44.256  21.487  25.121  1.00  0.00     0.124 S 
ATOM     81  O   UNL A   1      43.250  20.472  25.417  1.00  0.00    -0.237 OA
ATOM     82  O   UNL A   1      44.109  22.168  23.838  1.00  0.00    -0.237 OA
ATOM     83  O   UNL A   1      45.628  21.133  25.476  1.00  0.00    -0.744 OA
ENDBRANCH  79  80
ENDBRANCH  51  74
BRANCH  63  84
ATOM     84  C   UNL A   1      46.619  27.414  33.683  1.00  0.00    -0.014 A 
ATOM     85  C   UNL A   1      47.844  28.017  33.348  1.00  0.00     0.010 A 
ATOM     86  C   UNL A   1      46.573  26.492  34.745  1.00  0.00     0.010 A 
ATOM     87  C   UNL A   1      49.004  27.690  34.055  1.00  0.00     0.020 A 
ATOM     88  C   UNL A   1      47.725  26.182  35.469  1.00  0.00     0.020 A 
ATOM     89  C   UNL A   1      48.936  26.778  35.114  1.00  0.00     0.054 A 
BRANCH  89  90
ATOM     90  S   UNL A   1      50.442  26.424  36.061  1.00  0.00     0.124 S 
ATOM     91  O   UNL A   1      50.064  26.856  37.404  1.00  0.00    -0.237 OA
ATOM     92  O   UNL A   1      50.601  24.983  35.885  1.00  0.00    -0.237 OA
ATOM     93  O   UNL A   1      51.462  27.242  35.407  1.00  0.00    -0.744 OA
ENDBRANCH  89  90
ENDBRANCH  63  84
ENDBRANCH  37  38
ENDBRANCH  29  32
ENDBRANCH  27  28
ENDBRANCH  26  27
ENDBRANCH   1  26
TORSDOF 20
ENDMDL
MODEL 3
REMARK VINA RESULT:     -10.1      2.909      8.590
REMARK SMILES CC(C)C[C@H](CNC(=O)c1ccc(O)cc1O)C(=O)NCCCNC(=O)c1ccc(-c2c3nc(c(-c4ccc(S(=O)(=O)[O-])cc4)c4ccc([nH]4)c(-c4ccc(S(=O)(=O)[O-])cc4)c4nc(c(-c5ccc(S(=O)(=O)[O-])cc5)c5ccc2[nH]5)C=C4)C=C3)cc1
REMARK SMILES IDX 21 1 20 2 18 3 19 4 5 6 4 7 2 8 1 9 3 10 6 11 7 12 8 13 9 15
REMARK SMILES IDX 10 16 11 17 16 18 12 19 15 20 13 21 17 22 14 24 22 26 23 27
REMARK SMILES IDX 24 28 25 29 26 31 27 32 28 33 86 34 29 35 85 36 30 37 31 38
REMARK SMILES IDX 32 39 79 40 33 41 84 42 78 43 80 44 34 45 83 46 77 47 76 48
REMARK SMILES IDX 35 50 65 51 46 52 64 53 47 54 50 55 63 56 81 57 48 58 49 59
REMARK SMILES IDX 62 61 82 62 51 63 36 64 37 65 45 66 38 67 44 68 39 69 40 70
REMARK SMILES IDX 41 71 42 72 43 73 66 74 67 75 75 76 68 77 74 78 69 79 70 80
REMARK SMILES IDX 71 81 72 82 73 83 52 84 53 85 61 86 54 87 60 88 55 89 56 90
REMARK SMILES IDX 57 91 58 92 59 93
REMARK H PARENT 20 5 7 14 17 23 14 25 24 30 80 49 50 60
REMARK Flexibility Score: inf
ROOT
ATOM      1  C   UNL A   1      32.156  27.924  26.520  1.00  0.00     0.117 C 
ENDROOT
BRANCH   1   2
ATOM      2  N   UNL A   1      31.276  26.797  26.759  1.00  0.00    -0.356 N 
ATOM      3  C   UNL A   1      30.590  25.996  25.909  1.00  0.00     0.224 C 
ATOM      4  O   UNL A   1      29.884  25.120  26.419  1.00  0.00    -0.275 OA
ATOM      5  H   UNL A   1      31.154  26.575  27.711  1.00  0.00     0.163 HD
BRANCH   3   6
ATOM      6  C   UNL A   1      30.628  26.151  24.394  1.00  0.00     0.098 C 
BRANCH   6   7
ATOM      7  C   UNL A   1      29.700  27.202  23.749  1.00  0.00     0.018 C 
BRANCH   7   8
ATOM      8  C   UNL A   1      30.298  28.070  22.618  1.00  0.00    -0.017 C 
ATOM      9  C   UNL A   1      29.581  29.404  22.435  1.00  0.00     0.007 C 
ATOM     10  C   UNL A   1      31.790  28.298  22.878  1.00  0.00     0.007 C 
ENDBRANCH   7   8
ENDBRANCH   6   7
BRANCH   6  11
ATOM     11  C   UNL A   1      30.626  24.767  23.701  1.00  0.00     0.129 C 
BRANCH  11  12
ATOM     12  N   UNL A   1      31.716  24.565  22.756  1.00  0.00    -0.351 N 
ATOM     13  C   UNL A   1      32.830  23.777  22.861  1.00  0.00     0.255 C 
ATOM     14  H   UNL A   1      31.639  25.070  21.914  1.00  0.00     0.163 HD
ATOM     15  O   UNL A   1      33.840  24.057  22.217  1.00  0.00    -0.269 OA
BRANCH  13  16
ATOM     16  C   UNL A   1      32.851  22.603  23.751  1.00  0.00     0.081 A 
ATOM     17  C   UNL A   1      32.344  21.374  23.311  1.00  0.00     0.021 A 
ATOM     18  C   UNL A   1      33.468  22.696  25.004  1.00  0.00     0.132 A 
ATOM     19  C   UNL A   1      32.402  20.258  24.147  1.00  0.00     0.047 A 
ATOM     20  C   UNL A   1      33.507  21.590  25.848  1.00  0.00     0.093 A 
ATOM     21  C   UNL A   1      32.975  20.380  25.411  1.00  0.00     0.119 A 
BRANCH  18  22
ATOM     22  O   UNL A   1      34.065  23.845  25.449  1.00  0.00    -0.507 OA
ATOM     23  H   UNL A   1      34.734  23.802  26.103  1.00  0.00     0.293 HD
ENDBRANCH  18  22
BRANCH  21  24
ATOM     24  O   UNL A   1      33.050  19.311  26.254  1.00  0.00    -0.508 OA
ATOM     25  H   UNL A   1      33.864  18.860  26.368  1.00  0.00     0.293 HD
ENDBRANCH  21  24
ENDBRANCH  13  16
ENDBRANCH  11  12
ENDBRANCH   6  11
ENDBRANCH   3   6
ENDBRANCH   1   2
BRANCH   1  26
ATOM     26  C   UNL A   1      33.590  27.465  26.322  1.00  0.00     0.042 C 
BRANCH  26  27
ATOM     27  C   UNL A   1      34.554  28.625  26.151  1.00  0.00     0.118 C 
BRANCH  27  28
ATOM     28  N   UNL A   1      33.914  29.908  26.408  1.00  0.00    -0.352 N 
ATOM     29  C   UNL A   1      34.187  30.822  27.397  1.00  0.00     0.251 C 
ATOM     30  H   UNL A   1      33.188  30.153  25.788  1.00  0.00     0.163 HD
ATOM     31  O   UNL A   1      33.420  31.753  27.607  1.00  0.00    -0.269 OA
BRANCH  29  32
ATOM     32  C   UNL A   1      35.408  30.651  28.210  1.00  0.00     0.039 A 
ATOM     33  C   UNL A   1      35.470  29.618  29.148  1.00  0.00     0.014 A 
ATOM     34  C   UNL A   1      36.503  31.494  28.008  1.00  0.00     0.014 A 
ATOM     35  C   UNL A   1      36.662  29.391  29.839  1.00  0.00     0.010 A 
ATOM     36  C   UNL A   1      37.712  31.206  28.622  1.00  0.00     0.010 A 
ATOM     37  C   UNL A   1      37.800  30.161  29.555  1.00  0.00    -0.014 A 
BRANCH  37  38
ATOM     38  C   UNL A   1      39.098  29.937  30.236  1.00  0.00     0.031 A 
ATOM     39  C   UNL A   1      40.013  28.853  29.732  1.00  0.00     0.074 A 
ATOM     40  C   UNL A   1      39.404  30.625  31.353  1.00  0.00     0.049 A 
ATOM     41  N   UNL A   1      41.102  28.372  30.273  1.00  0.00    -0.248 NA
ATOM     42  C   UNL A   1      39.625  28.192  28.472  1.00  0.00     0.031 C 
ATOM     43  C   UNL A   1      38.583  31.678  31.957  1.00  0.00     0.029 A 
ATOM     44  N   UNL A   1      40.485  30.525  32.193  1.00  0.00    -0.354 N 
ATOM     45  C   UNL A   1      41.506  27.334  29.442  1.00  0.00     0.074 A 
ATOM     46  C   UNL A   1      40.521  27.220  28.389  1.00  0.00     0.031 C 
ATOM     47  C   UNL A   1      39.200  32.137  33.058  1.00  0.00     0.029 A 
ATOM     48  C   UNL A   1      40.430  31.382  33.267  1.00  0.00     0.049 A 
ATOM     49  H   UNL A   1      41.229  29.899  32.041  1.00  0.00     0.167 HD
ATOM     50  C   UNL A   1      42.609  26.554  29.538  1.00  0.00     0.031 A 
ATOM     51  C   UNL A   1      41.270  31.530  34.311  1.00  0.00     0.031 A 
ATOM     52  C   UNL A   1      43.599  26.695  30.569  1.00  0.00     0.049 A 
ATOM     53  C   UNL A   1      42.495  30.661  34.389  1.00  0.00     0.074 A 
ATOM     54  C   UNL A   1      44.782  25.996  30.728  1.00  0.00     0.029 A 
ATOM     55  N   UNL A   1      43.526  27.604  31.614  1.00  0.00    -0.354 N 
ATOM     56  N   UNL A   1      42.883  29.710  33.574  1.00  0.00    -0.248 NA
ATOM     57  C   UNL A   1      43.401  30.890  35.523  1.00  0.00     0.031 C 
ATOM     58  C   UNL A   1      45.406  26.456  31.891  1.00  0.00     0.029 A 
ATOM     59  C   UNL A   1      44.639  27.479  32.425  1.00  0.00     0.049 A 
ATOM     60  H   UNL A   1      42.793  28.245  31.755  1.00  0.00     0.167 HD
ATOM     61  C   UNL A   1      44.098  29.253  34.075  1.00  0.00     0.074 A 
ATOM     62  C   UNL A   1      44.380  30.034  35.262  1.00  0.00     0.031 C 
ATOM     63  C   UNL A   1      44.908  28.280  33.593  1.00  0.00     0.031 A 
BRANCH  50  64
ATOM     64  C   UNL A   1      42.795  25.481  28.498  1.00  0.00    -0.014 A 
ATOM     65  C   UNL A   1      42.296  24.180  28.699  1.00  0.00     0.010 A 
ATOM     66  C   UNL A   1      43.457  25.781  27.295  1.00  0.00     0.010 A 
ATOM     67  C   UNL A   1      42.497  23.189  27.735  1.00  0.00     0.020 A 
ATOM     68  C   UNL A   1      43.633  24.801  26.315  1.00  0.00     0.020 A 
ATOM     69  C   UNL A   1      43.168  23.505  26.550  1.00  0.00     0.054 A 
BRANCH  69  70
ATOM     70  S   UNL A   1      43.400  22.203  25.308  1.00  0.00     0.124 S 
ATOM     71  O   UNL A   1      42.239  21.350  25.549  1.00  0.00    -0.237 OA
ATOM     72  O   UNL A   1      43.380  22.950  24.053  1.00  0.00    -0.237 OA
ATOM     73  O   UNL A   1      44.689  21.615  25.660  1.00  0.00    -0.744 OA
ENDBRANCH  69  70
ENDBRANCH  50  64
BRANCH  51  74
ATOM     74  C   UNL A   1      40.986  32.553  35.354  1.00  0.00    -0.014 A 
ATOM     75  C   UNL A   1      41.381  33.889  35.164  1.00  0.00     0.010 A 
ATOM     76  C   UNL A   1      40.304  32.201  36.534  1.00  0.00     0.010 A 
ATOM     77  C   UNL A   1      41.118  34.851  36.143  1.00  0.00     0.020 A 
ATOM     78  C   UNL A   1      40.016  33.168  37.503  1.00  0.00     0.020 A 
ATOM     79  C   UNL A   1      40.436  34.484  37.307  1.00  0.00     0.054 A 
BRANCH  79  80
ATOM     80  S   UNL A   1      40.065  35.759  38.543  1.00  0.00     0.124 S 
ATOM     81  O   UNL A   1      39.743  36.910  37.704  1.00  0.00    -0.237 OA
ATOM     82  O   UNL A   1      38.943  35.175  39.273  1.00  0.00    -0.237 OA
ATOM     83  O   UNL A   1      41.307  35.866  39.305  1.00  0.00    -0.744 OA
ENDBRANCH  79  80
ENDBRANCH  51  74
BRANCH  63  84
ATOM     84  C   UNL A   1      46.209  28.038  34.307  1.00  0.00    -0.014 A 
ATOM     85  C   UNL A   1      47.367  28.767  33.986  1.00  0.00     0.010 A 
ATOM     86  C   UNL A   1      46.245  27.124  35.377  1.00  0.00     0.010 A 
ATOM     87  C   UNL A   1      48.544  28.573  34.713  1.00  0.00     0.020 A 
ATOM     88  C   UNL A   1      47.413  26.945  36.121  1.00  0.00     0.020 A 
ATOM     89  C   UNL A   1      48.559  27.665  35.778  1.00  0.00     0.054 A 
BRANCH  89  90
ATOM     90  S   UNL A   1      50.078  27.483  36.751  1.00  0.00     0.124 S 
ATOM     91  O   UNL A   1      50.265  26.035  36.753  1.00  0.00    -0.237 OA
ATOM     92  O   UNL A   1      51.052  28.241  35.969  1.00  0.00    -0.237 OA
ATOM     93  O   UNL A   1      49.734  28.070  38.044  1.00  0.00    -0.744 OA
ENDBRANCH  89  90
ENDBRANCH  63  84
ENDBRANCH  37  38
ENDBRANCH  29  32
ENDBRANCH  27  28
ENDBRANCH  26  27
ENDBRANCH   1  26
TORSDOF 20
ENDMDL
