MODEL 1
REMARK VINA RESULT:     -11.7      0.000      0.000
REMARK SMILES O=C(NCCCNC(=O)c1c[nH]c(=O)c(-c2cccc([N+](=O)[O-])c2)c1)c1ccc(-c2c3nc(c(-c4ccc(S(=O)(=O)[O-])cc4)c4ccc([nH]4)c(-c4ccc(S(=O)(=O)[O-])cc4)c4nc(c(-c5ccc(S(=O)(=O)[O-])cc5)c5ccc2[nH]5)C=C4)C=C3)cc1
REMARK SMILES IDX 4 1 3 2 1 3 2 4 26 6 27 7 85 8 28 9 84 10 29 11 30 12 31 13
REMARK SMILES IDX 78 14 32 15 83 16 77 17 79 18 33 19 82 20 76 21 75 22 34 24
REMARK SMILES IDX 64 25 45 26 63 27 46 28 49 29 62 30 80 31 47 32 48 33 61 35
REMARK SMILES IDX 81 36 50 37 35 38 36 39 44 40 37 41 43 42 38 43 39 44 40 45
REMARK SMILES IDX 41 46 42 47 65 48 66 49 74 50 67 51 73 52 68 53 69 54 70 55
REMARK SMILES IDX 71 56 72 57 51 58 52 59 60 60 53 61 59 62 54 63 55 64 56 65
REMARK SMILES IDX 57 66 58 67 5 68 6 69 7 70 8 71 9 73 10 74 11 75 25 76 12 77
REMARK SMILES IDX 15 78 13 79 14 81 16 82 17 83 24 84 18 85 20 86 19 87 21 88
REMARK SMILES IDX 22 89 23 90
REMARK H PARENT 3 5 79 23 49 34 7 72 12 80
REMARK Flexibility Score: inf
ROOT
ATOM      1  C   UNL A   1      34.025  28.823  25.808  1.00  0.00     0.118 C 
ENDROOT
BRANCH   1   2
ATOM      2  N   UNL A   1      33.461  30.086  26.262  1.00  0.00    -0.352 N 
ATOM      3  O   UNL A   1      33.126  31.850  27.610  1.00  0.00    -0.269 OA
ATOM      4  C   UNL A   1      33.861  30.924  27.275  1.00  0.00     0.251 C 
ATOM      5  H   UNL A   1      32.668  30.387  25.764  1.00  0.00     0.163 HD
BRANCH   4   6
ATOM      6  C   UNL A   1      35.147  30.707  27.973  1.00  0.00     0.039 A 
ATOM      7  C   UNL A   1      36.234  31.565  27.777  1.00  0.00     0.014 A 
ATOM      8  C   UNL A   1      35.254  29.644  28.873  1.00  0.00     0.014 A 
ATOM      9  C   UNL A   1      37.463  31.278  28.366  1.00  0.00     0.010 A 
ATOM     10  C   UNL A   1      36.464  29.407  29.529  1.00  0.00     0.010 A 
ATOM     11  C   UNL A   1      37.587  30.203  29.257  1.00  0.00    -0.014 A 
BRANCH  11  12
ATOM     12  C   UNL A   1      38.877  29.944  29.946  1.00  0.00     0.031 A 
ATOM     13  C   UNL A   1      39.797  28.856  29.466  1.00  0.00     0.074 A 
ATOM     14  C   UNL A   1      39.197  30.666  31.036  1.00  0.00     0.049 A 
ATOM     15  N   UNL A   1      40.912  28.427  29.997  1.00  0.00    -0.248 NA
ATOM     16  C   UNL A   1      39.409  28.156  28.233  1.00  0.00     0.031 C 
ATOM     17  C   UNL A   1      38.389  31.753  31.595  1.00  0.00     0.029 A 
ATOM     18  N   UNL A   1      40.278  30.589  31.878  1.00  0.00    -0.354 N 
ATOM     19  C   UNL A   1      41.345  27.385  29.185  1.00  0.00     0.074 A 
ATOM     20  C   UNL A   1      40.359  27.236  28.135  1.00  0.00     0.031 C 
ATOM     21  C   UNL A   1      39.004  32.243  32.681  1.00  0.00     0.029 A 
ATOM     22  C   UNL A   1      40.211  31.464  32.935  1.00  0.00     0.049 A 
ATOM     23  H   UNL A   1      41.028  29.967  31.737  1.00  0.00     0.167 HD
ATOM     24  C   UNL A   1      42.458  26.622  29.306  1.00  0.00     0.031 A 
ATOM     25  C   UNL A   1      41.005  31.603  34.014  1.00  0.00     0.031 A 
ATOM     26  C   UNL A   1      43.422  26.769  30.365  1.00  0.00     0.049 A 
ATOM     27  C   UNL A   1      42.207  30.717  34.158  1.00  0.00     0.074 A 
ATOM     28  C   UNL A   1      44.601  26.068  30.560  1.00  0.00     0.029 A 
ATOM     29  N   UNL A   1      43.315  27.666  31.419  1.00  0.00    -0.354 N 
ATOM     30  N   UNL A   1      42.621  29.760  33.362  1.00  0.00    -0.248 NA
ATOM     31  C   UNL A   1      43.054  30.930  35.339  1.00  0.00     0.031 C 
ATOM     32  C   UNL A   1      45.170  26.496  31.763  1.00  0.00     0.029 A 
ATOM     33  C   UNL A   1      44.388  27.517  32.281  1.00  0.00     0.049 A 
ATOM     34  H   UNL A   1      42.582  28.314  31.536  1.00  0.00     0.167 HD
ATOM     35  C   UNL A   1      43.794  29.277  33.928  1.00  0.00     0.074 A 
ATOM     36  C   UNL A   1      44.024  30.046  35.135  1.00  0.00     0.031 C 
ATOM     37  C   UNL A   1      44.609  28.292  33.479  1.00  0.00     0.031 A 
BRANCH  24  38
ATOM     38  C   UNL A   1      42.661  25.524  28.293  1.00  0.00    -0.014 A 
ATOM     39  C   UNL A   1      42.082  24.252  28.458  1.00  0.00     0.010 A 
ATOM     40  C   UNL A   1      43.446  25.771  27.151  1.00  0.00     0.010 A 
ATOM     41  C   UNL A   1      42.341  23.231  27.540  1.00  0.00     0.020 A 
ATOM     42  C   UNL A   1      43.681  24.762  26.213  1.00  0.00     0.020 A 
ATOM     43  C   UNL A   1      43.150  23.490  26.429  1.00  0.00     0.054 A 
BRANCH  43  44
ATOM     44  S   UNL A   1      43.500  22.138  25.272  1.00  0.00     0.124 S 
ATOM     45  O   UNL A   1      44.810  21.684  25.731  1.00  0.00    -0.237 OA
ATOM     46  O   UNL A   1      42.395  21.213  25.514  1.00  0.00    -0.237 OA
ATOM     47  O   UNL A   1      43.488  22.789  23.963  1.00  0.00    -0.744 OA
ENDBRANCH  43  44
ENDBRANCH  24  38
BRANCH  25  48
ATOM     48  C   UNL A   1      40.651  32.620  35.040  1.00  0.00    -0.014 A 
ATOM     49  C   UNL A   1      39.893  32.265  36.168  1.00  0.00     0.010 A 
ATOM     50  C   UNL A   1      41.154  33.931  34.935  1.00  0.00     0.010 A 
ATOM     51  C   UNL A   1      39.654  33.201  37.180  1.00  0.00     0.020 A 
ATOM     52  C   UNL A   1      40.941  34.860  35.956  1.00  0.00     0.020 A 
ATOM     53  C   UNL A   1      40.190  34.489  37.072  1.00  0.00     0.054 A 
BRANCH  53  54
ATOM     54  S   UNL A   1      39.955  35.650  38.447  1.00  0.00     0.124 S 
ATOM     55  O   UNL A   1      39.643  36.891  37.747  1.00  0.00    -0.237 OA
ATOM     56  O   UNL A   1      38.850  35.043  39.184  1.00  0.00    -0.237 OA
ATOM     57  O   UNL A   1      41.242  35.625  39.139  1.00  0.00    -0.744 OA
ENDBRANCH  53  54
ENDBRANCH  25  48
BRANCH  37  58
ATOM     58  C   UNL A   1      45.867  28.009  34.258  1.00  0.00    -0.014 A 
ATOM     59  C   UNL A   1      47.056  28.717  34.018  1.00  0.00     0.010 A 
ATOM     60  C   UNL A   1      45.817  27.089  35.323  1.00  0.00     0.010 A 
ATOM     61  C   UNL A   1      48.175  28.509  34.829  1.00  0.00     0.020 A 
ATOM     62  C   UNL A   1      46.924  26.898  36.152  1.00  0.00     0.020 A 
ATOM     63  C   UNL A   1      48.099  27.607  35.897  1.00  0.00     0.054 A 
BRANCH  63  64
ATOM     64  S   UNL A   1      49.534  27.428  36.993  1.00  0.00     0.124 S 
ATOM     65  O   UNL A   1      50.254  26.319  36.373  1.00  0.00    -0.237 OA
ATOM     66  O   UNL A   1      50.180  28.733  36.890  1.00  0.00    -0.237 OA
ATOM     67  O   UNL A   1      48.940  27.134  38.295  1.00  0.00    -0.744 OA
ENDBRANCH  63  64
ENDBRANCH  37  58
ENDBRANCH  11  12
ENDBRANCH   4   6
ENDBRANCH   1   2
BRANCH   1  68
ATOM     68  C   UNL A   1      33.398  27.618  26.492  1.00  0.00     0.042 C 
BRANCH  68  69
ATOM     69  C   UNL A   1      32.088  27.154  25.872  1.00  0.00     0.118 C 
BRANCH  69  70
ATOM     70  N   UNL A   1      32.285  26.280  24.721  1.00  0.00    -0.352 N 
ATOM     71  C   UNL A   1      31.448  25.971  23.688  1.00  0.00     0.252 C 
ATOM     72  H   UNL A   1      33.166  25.842  24.682  1.00  0.00     0.163 HD
ATOM     73  O   UNL A   1      31.775  25.107  22.878  1.00  0.00    -0.269 OA
BRANCH  71  74
ATOM     74  C   UNL A   1      30.148  26.680  23.569  1.00  0.00     0.056 A 
ATOM     75  C   UNL A   1      29.025  26.000  23.837  1.00  0.00     0.099 A 
ATOM     76  C   UNL A   1      30.058  28.068  23.169  1.00  0.00     0.029 A 
ATOM     77  N   UNL A   1      27.805  26.633  23.792  1.00  0.00    -0.328 N 
ATOM     78  C   UNL A   1      28.890  28.739  23.179  1.00  0.00     0.048 A 
ATOM     79  C   UNL A   1      27.639  27.970  23.502  1.00  0.00     0.255 A 
ATOM     80  H   UNL A   1      27.000  26.099  23.980  1.00  0.00     0.169 HD
ATOM     81  O   UNL A   1      26.524  28.491  23.496  1.00  0.00    -0.269 OA
BRANCH  78  82
ATOM     82  C   UNL A   1      28.907  30.201  22.981  1.00  0.00    -0.006 A 
ATOM     83  C   UNL A   1      29.411  31.059  23.973  1.00  0.00     0.009 A 
ATOM     84  C   UNL A   1      28.324  30.758  21.833  1.00  0.00     0.094 A 
ATOM     85  C   UNL A   1      29.312  32.446  23.841  1.00  0.00     0.008 A 
ATOM     86  C   UNL A   1      28.230  32.150  21.703  1.00  0.00     0.270 A 
ATOM     87  C   UNL A   1      28.716  32.998  22.708  1.00  0.00     0.085 A 
BRANCH  86  88
ATOM     88  N   UNL A   1      27.599  32.730  20.511  1.00  0.00     0.062 N 
ATOM     89  O   UNL A   1      27.447  31.993  19.526  1.00  0.00    -0.258 OA
ATOM     90  O   UNL A   1      27.254  33.918  20.561  1.00  0.00    -0.258 OA
ENDBRANCH  86  88
ENDBRANCH  78  82
ENDBRANCH  71  74
ENDBRANCH  69  70
ENDBRANCH  68  69
ENDBRANCH   1  68
TORSDOF 15
ENDMDL
MODEL 2
REMARK VINA RESULT:     -11.7      3.036      8.461
REMARK SMILES O=C(NCCCNC(=O)c1c[nH]c(=O)c(-c2cccc([N+](=O)[O-])c2)c1)c1ccc(-c2c3nc(c(-c4ccc(S(=O)(=O)[O-])cc4)c4ccc([nH]4)c(-c4ccc(S(=O)(=O)[O-])cc4)c4nc(c(-c5ccc(S(=O)(=O)[O-])cc5)c5ccc2[nH]5)C=C4)C=C3)cc1
REMARK SMILES IDX 4 1 3 2 1 3 2 4 26 6 27 7 85 8 28 9 84 10 29 11 30 12 31 13
REMARK SMILES IDX 78 14 32 15 83 16 77 17 79 18 33 19 82 20 76 21 75 22 34 24
REMARK SMILES IDX 64 25 45 26 63 27 46 28 49 29 62 30 80 31 47 32 48 33 61 35
REMARK SMILES IDX 81 36 50 37 35 38 36 39 44 40 37 41 43 42 38 43 39 44 40 45
REMARK SMILES IDX 41 46 42 47 65 48 66 49 74 50 67 51 73 52 68 53 69 54 70 55
REMARK SMILES IDX 71 56 72 57 51 58 52 59 60 60 53 61 59 62 54 63 55 64 56 65
REMARK SMILES IDX 57 66 58 67 5 68 6 69 7 70 8 71 9 73 10 74 11 75 25 76 12 77
REMARK SMILES IDX 15 78 13 79 14 81 16 82 17 83 24 84 18 85 20 86 19 87 21 88
REMARK SMILES IDX 22 89 23 90
REMARK H PARENT 3 5 79 23 49 34 7 72 12 80
REMARK Flexibility Score: inf
ROOT
ATOM      1  C   UNL A   1      33.770  28.348  26.932  1.00  0.00     0.118 C 
ENDROOT
BRANCH   1   2
ATOM      2  N   UNL A   1      33.607  29.742  27.319  1.00  0.00    -0.352 N 
ATOM      3  O   UNL A   1      34.023  31.661  28.406  1.00  0.00    -0.269 OA
ATOM      4  C   UNL A   1      34.443  30.571  28.028  1.00  0.00     0.251 C 
ATOM      5  H   UNL A   1      32.764  30.156  27.026  1.00  0.00     0.163 HD
BRANCH   4   6
ATOM      6  C   UNL A   1      35.824  30.152  28.356  1.00  0.00     0.039 A 
ATOM      7  C   UNL A   1      36.152  29.664  29.624  1.00  0.00     0.014 A 
ATOM      8  C   UNL A   1      36.801  30.214  27.359  1.00  0.00     0.014 A 
ATOM      9  C   UNL A   1      37.479  29.376  29.937  1.00  0.00     0.010 A 
ATOM     10  C   UNL A   1      38.115  29.843  27.651  1.00  0.00     0.010 A 
ATOM     11  C   UNL A   1      38.471  29.450  28.951  1.00  0.00    -0.014 A 
BRANCH  11  12
ATOM     12  C   UNL A   1      39.872  29.067  29.263  1.00  0.00     0.031 A 
ATOM     13  C   UNL A   1      40.829  30.070  29.845  1.00  0.00     0.074 A 
ATOM     14  C   UNL A   1      40.291  27.820  28.980  1.00  0.00     0.049 A 
ATOM     15  N   UNL A   1      42.107  29.941  30.092  1.00  0.00    -0.248 NA
ATOM     16  C   UNL A   1      40.279  31.390  30.187  1.00  0.00     0.031 C 
ATOM     17  C   UNL A   1      39.455  26.756  28.419  1.00  0.00     0.029 A 
ATOM     18  N   UNL A   1      41.527  27.237  29.110  1.00  0.00    -0.354 N 
ATOM     19  C   UNL A   1      42.524  31.171  30.587  1.00  0.00     0.074 A 
ATOM     20  C   UNL A   1      41.365  32.038  30.587  1.00  0.00     0.031 C 
ATOM     21  C   UNL A   1      40.198  25.652  28.258  1.00  0.00     0.029 A 
ATOM     22  C   UNL A   1      41.575  25.947  28.639  1.00  0.00     0.049 A 
ATOM     23  H   UNL A   1      42.303  27.700  29.501  1.00  0.00     0.167 HD
ATOM     24  C   UNL A   1      43.760  31.542  31.000  1.00  0.00     0.031 A 
ATOM     25  C   UNL A   1      42.614  25.104  28.489  1.00  0.00     0.031 A 
ATOM     26  C   UNL A   1      44.910  30.676  30.979  1.00  0.00     0.049 A 
ATOM     27  C   UNL A   1      43.985  25.548  28.905  1.00  0.00     0.074 A 
ATOM     28  C   UNL A   1      46.200  30.946  31.405  1.00  0.00     0.029 A 
ATOM     29  N   UNL A   1      44.916  29.376  30.491  1.00  0.00    -0.354 N 
ATOM     30  N   UNL A   1      44.356  26.702  29.404  1.00  0.00    -0.248 NA
ATOM     31  C   UNL A   1      45.077  24.579  28.746  1.00  0.00     0.031 C 
ATOM     32  C   UNL A   1      46.997  29.834  31.116  1.00  0.00     0.029 A 
ATOM     33  C   UNL A   1      46.191  28.843  30.579  1.00  0.00     0.049 A 
ATOM     34  H   UNL A   1      44.129  28.903  30.135  1.00  0.00     0.167 HD
ATOM     35  C   UNL A   1      45.718  26.589  29.649  1.00  0.00     0.074 A 
ATOM     36  C   UNL A   1      46.107  25.253  29.241  1.00  0.00     0.031 C 
ATOM     37  C   UNL A   1      46.566  27.508  30.174  1.00  0.00     0.031 A 
BRANCH  24  38
ATOM     38  C   UNL A   1      43.940  32.968  31.458  1.00  0.00    -0.014 A 
ATOM     39  C   UNL A   1      43.995  33.303  32.823  1.00  0.00     0.010 A 
ATOM     40  C   UNL A   1      44.058  33.993  30.500  1.00  0.00     0.010 A 
ATOM     41  C   UNL A   1      44.093  34.639  33.221  1.00  0.00     0.020 A 
ATOM     42  C   UNL A   1      44.190  35.328  30.894  1.00  0.00     0.020 A 
ATOM     43  C   UNL A   1      44.178  35.644  32.253  1.00  0.00     0.054 A 
BRANCH  43  44
ATOM     44  S   UNL A   1      44.268  37.372  32.796  1.00  0.00     0.124 S 
ATOM     45  O   UNL A   1      44.423  38.076  31.525  1.00  0.00    -0.237 OA
ATOM     46  O   UNL A   1      42.986  37.565  33.469  1.00  0.00    -0.237 OA
ATOM     47  O   UNL A   1      45.438  37.401  33.672  1.00  0.00    -0.744 OA
ENDBRANCH  43  44
ENDBRANCH  24  38
BRANCH  25  48
ATOM     48  C   UNL A   1      42.369  23.762  27.895  1.00  0.00    -0.014 A 
ATOM     49  C   UNL A   1      42.341  23.591  26.501  1.00  0.00     0.010 A 
ATOM     50  C   UNL A   1      42.257  22.632  28.728  1.00  0.00     0.010 A 
ATOM     51  C   UNL A   1      42.216  22.311  25.950  1.00  0.00     0.020 A 
ATOM     52  C   UNL A   1      42.161  21.351  28.181  1.00  0.00     0.020 A 
ATOM     53  C   UNL A   1      42.139  21.198  26.794  1.00  0.00     0.054 A 
BRANCH  53  54
ATOM     54  S   UNL A   1      42.086  19.543  26.054  1.00  0.00     0.124 S 
ATOM     55  O   UNL A   1      40.686  19.433  25.656  1.00  0.00    -0.237 OA
ATOM     56  O   UNL A   1      43.048  19.658  24.961  1.00  0.00    -0.237 OA
ATOM     57  O   UNL A   1      42.498  18.665  27.146  1.00  0.00    -0.744 OA
ENDBRANCH  53  54
ENDBRANCH  25  48
BRANCH  37  58
ATOM     58  C   UNL A   1      47.998  27.099  30.397  1.00  0.00    -0.014 A 
ATOM     59  C   UNL A   1      48.991  27.346  29.434  1.00  0.00     0.010 A 
ATOM     60  C   UNL A   1      48.367  26.555  31.642  1.00  0.00     0.010 A 
ATOM     61  C   UNL A   1      50.330  27.054  29.713  1.00  0.00     0.020 A 
ATOM     62  C   UNL A   1      49.705  26.286  31.934  1.00  0.00     0.020 A 
ATOM     63  C   UNL A   1      50.679  26.535  30.965  1.00  0.00     0.054 A 
BRANCH  63  64
ATOM     64  S   UNL A   1      52.433  26.255  31.337  1.00  0.00     0.124 S 
ATOM     65  O   UNL A   1      53.039  26.314  30.009  1.00  0.00    -0.237 OA
ATOM     66  O   UNL A   1      52.753  27.371  32.223  1.00  0.00    -0.237 OA
ATOM     67  O   UNL A   1      52.448  24.939  31.971  1.00  0.00    -0.744 OA
ENDBRANCH  63  64
ENDBRANCH  37  58
ENDBRANCH  11  12
ENDBRANCH   4   6
ENDBRANCH   1   2
BRANCH   1  68
ATOM     68  C   UNL A   1      32.673  27.863  25.997  1.00  0.00     0.042 C 
BRANCH  68  69
ATOM     69  C   UNL A   1      32.643  26.355  25.793  1.00  0.00     0.118 C 
BRANCH  69  70
ATOM     70  N   UNL A   1      32.985  25.961  24.431  1.00  0.00    -0.352 N 
ATOM     71  C   UNL A   1      32.231  25.955  23.293  1.00  0.00     0.252 C 
ATOM     72  H   UNL A   1      33.912  25.651  24.312  1.00  0.00     0.163 HD
ATOM     73  O   UNL A   1      32.687  25.464  22.263  1.00  0.00    -0.269 OA
BRANCH  71  74
ATOM     74  C   UNL A   1      30.862  26.533  23.325  1.00  0.00     0.056 A 
ATOM     75  C   UNL A   1      29.840  25.732  23.655  1.00  0.00     0.099 A 
ATOM     76  C   UNL A   1      30.601  27.920  23.005  1.00  0.00     0.029 A 
ATOM     77  N   UNL A   1      28.566  26.240  23.749  1.00  0.00    -0.328 N 
ATOM     78  C   UNL A   1      29.380  28.469  23.151  1.00  0.00     0.048 A 
ATOM     79  C   UNL A   1      28.244  27.564  23.543  1.00  0.00     0.255 A 
ATOM     80  H   UNL A   1      27.838  25.619  23.979  1.00  0.00     0.169 HD
ATOM     81  O   UNL A   1      27.088  27.969  23.662  1.00  0.00    -0.269 OA
BRANCH  78  82
ATOM     82  C   UNL A   1      29.237  29.932  23.028  1.00  0.00    -0.006 A 
ATOM     83  C   UNL A   1      29.609  30.786  24.079  1.00  0.00     0.009 A 
ATOM     84  C   UNL A   1      28.630  30.481  21.888  1.00  0.00     0.094 A 
ATOM     85  C   UNL A   1      29.357  32.159  24.012  1.00  0.00     0.008 A 
ATOM     86  C   UNL A   1      28.383  31.859  21.824  1.00  0.00     0.270 A 
ATOM     87  C   UNL A   1      28.738  32.700  22.888  1.00  0.00     0.085 A 
BRANCH  86  88
ATOM     88  N   UNL A   1      27.727  32.428  20.640  1.00  0.00     0.062 N 
ATOM     89  O   UNL A   1      27.443  33.635  20.666  1.00  0.00    -0.258 OA
ATOM     90  O   UNL A   1      27.500  31.672  19.687  1.00  0.00    -0.258 OA
ENDBRANCH  86  88
ENDBRANCH  78  82
ENDBRANCH  71  74
ENDBRANCH  69  70
ENDBRANCH  68  69
ENDBRANCH   1  68
TORSDOF 15
ENDMDL
MODEL 3
REMARK VINA RESULT:     -11.7      3.873      9.723
REMARK SMILES O=C(NCCCNC(=O)c1c[nH]c(=O)c(-c2cccc([N+](=O)[O-])c2)c1)c1ccc(-c2c3nc(c(-c4ccc(S(=O)(=O)[O-])cc4)c4ccc([nH]4)c(-c4ccc(S(=O)(=O)[O-])cc4)c4nc(c(-c5ccc(S(=O)(=O)[O-])cc5)c5ccc2[nH]5)C=C4)C=C3)cc1
REMARK SMILES IDX 4 1 3 2 1 3 2 4 26 6 27 7 85 8 28 9 84 10 29 11 30 12 31 13
REMARK SMILES IDX 78 14 32 15 83 16 77 17 79 18 33 19 82 20 76 21 75 22 34 24
REMARK SMILES IDX 64 25 45 26 63 27 46 28 49 29 62 30 80 31 47 32 48 33 61 35
REMARK SMILES IDX 81 36 50 37 35 38 36 39 44 40 37 41 43 42 38 43 39 44 40 45
REMARK SMILES IDX 41 46 42 47 65 48 66 49 74 50 67 51 73 52 68 53 69 54 70 55
REMARK SMILES IDX 71 56 72 57 51 58 52 59 60 60 53 61 59 62 54 63 55 64 56 65
REMARK SMILES IDX 57 66 58 67 5 68 6 69 7 70 8 71 9 73 10 74 11 75 25 76 12 77
REMARK SMILES IDX 15 78 13 79 14 81 16 82 17 83 24 84 18 85 20 86 19 87 21 88
REMARK SMILES IDX 22 89 23 90
REMARK H PARENT 3 5 79 23 49 34 7 72 12 80
REMARK Flexibility Score: inf
ROOT
ATOM      1  C   UNL A   1      33.917  28.373  26.635  1.00  0.00     0.118 C 
ENDROOT
BRANCH   1   2
ATOM      2  N   UNL A   1      33.711  29.726  27.131  1.00  0.00    -0.352 N 
ATOM      3  O   UNL A   1      34.051  31.555  28.387  1.00  0.00    -0.269 OA
ATOM      4  C   UNL A   1      34.506  30.507  27.935  1.00  0.00     0.251 C 
ATOM      5  H   UNL A   1      32.870  30.148  26.844  1.00  0.00     0.163 HD
BRANCH   4   6
ATOM      6  C   UNL A   1      35.884  30.088  28.275  1.00  0.00     0.039 A 
ATOM      7  C   UNL A   1      36.208  29.633  29.556  1.00  0.00     0.014 A 
ATOM      8  C   UNL A   1      36.861  30.114  27.277  1.00  0.00     0.014 A 
ATOM      9  C   UNL A   1      37.533  29.344  29.877  1.00  0.00     0.010 A 
ATOM     10  C   UNL A   1      38.172  29.741  27.579  1.00  0.00     0.010 A 
ATOM     11  C   UNL A   1      38.526  29.383  28.890  1.00  0.00    -0.014 A 
BRANCH  11  12
ATOM     12  C   UNL A   1      39.923  28.999  29.213  1.00  0.00     0.031 A 
ATOM     13  C   UNL A   1      40.872  29.996  29.817  1.00  0.00     0.074 A 
ATOM     14  C   UNL A   1      40.347  27.755  28.920  1.00  0.00     0.049 A 
ATOM     15  N   UNL A   1      42.148  29.866  30.076  1.00  0.00    -0.248 NA
ATOM     16  C   UNL A   1      40.317  31.312  30.168  1.00  0.00     0.031 C 
ATOM     17  C   UNL A   1      39.519  26.696  28.338  1.00  0.00     0.029 A 
ATOM     18  N   UNL A   1      41.582  27.173  29.056  1.00  0.00    -0.354 N 
ATOM     19  C   UNL A   1      42.558  31.091  30.590  1.00  0.00     0.074 A 
ATOM     20  C   UNL A   1      41.397  31.956  30.586  1.00  0.00     0.031 C 
ATOM     21  C   UNL A   1      40.265  25.595  28.173  1.00  0.00     0.029 A 
ATOM     22  C   UNL A   1      41.638  25.888  28.572  1.00  0.00     0.049 A 
ATOM     23  H   UNL A   1      42.354  27.632  29.462  1.00  0.00     0.167 HD
ATOM     24  C   UNL A   1      43.789  31.459  31.020  1.00  0.00     0.031 A 
ATOM     25  C   UNL A   1      42.679  25.048  28.423  1.00  0.00     0.031 A 
ATOM     26  C   UNL A   1      44.940  30.595  31.001  1.00  0.00     0.049 A 
ATOM     27  C   UNL A   1      44.045  25.490  28.859  1.00  0.00     0.074 A 
ATOM     28  C   UNL A   1      46.225  30.861  31.445  1.00  0.00     0.029 A 
ATOM     29  N   UNL A   1      44.953  29.301  30.499  1.00  0.00    -0.354 N 
ATOM     30  N   UNL A   1      44.409  26.638  29.376  1.00  0.00    -0.248 NA
ATOM     31  C   UNL A   1      45.141  24.523  28.701  1.00  0.00     0.031 C 
ATOM     32  C   UNL A   1      47.027  29.754  31.152  1.00  0.00     0.029 A 
ATOM     33  C   UNL A   1      46.228  28.768  30.595  1.00  0.00     0.049 A 
ATOM     34  H   UNL A   1      44.171  28.831  30.129  1.00  0.00     0.167 HD
ATOM     35  C   UNL A   1      45.769  26.524  29.634  1.00  0.00     0.074 A 
ATOM     36  C   UNL A   1      46.164  25.194  29.216  1.00  0.00     0.031 C 
ATOM     37  C   UNL A   1      46.609  27.438  30.179  1.00  0.00     0.031 A 
BRANCH  24  38
ATOM     38  C   UNL A   1      43.962  32.880  31.496  1.00  0.00    -0.014 A 
ATOM     39  C   UNL A   1      43.735  33.242  32.836  1.00  0.00     0.010 A 
ATOM     40  C   UNL A   1      44.361  33.873  30.581  1.00  0.00     0.010 A 
ATOM     41  C   UNL A   1      43.836  34.577  33.236  1.00  0.00     0.020 A 
ATOM     42  C   UNL A   1      44.495  35.204  30.985  1.00  0.00     0.020 A 
ATOM     43  C   UNL A   1      44.203  35.552  32.304  1.00  0.00     0.054 A 
BRANCH  43  44
ATOM     44  S   UNL A   1      44.291  37.282  32.841  1.00  0.00     0.124 S 
ATOM     45  O   UNL A   1      44.085  37.995  31.583  1.00  0.00    -0.237 OA
ATOM     46  O   UNL A   1      43.195  37.376  33.802  1.00  0.00    -0.237 OA
ATOM     47  O   UNL A   1      45.630  37.401  33.414  1.00  0.00    -0.744 OA
ENDBRANCH  43  44
ENDBRANCH  24  38
BRANCH  25  48
ATOM     48  C   UNL A   1      42.444  23.712  27.811  1.00  0.00    -0.014 A 
ATOM     49  C   UNL A   1      42.670  23.503  26.441  1.00  0.00     0.010 A 
ATOM     50  C   UNL A   1      42.079  22.620  28.622  1.00  0.00     0.010 A 
ATOM     51  C   UNL A   1      42.548  22.222  25.894  1.00  0.00     0.020 A 
ATOM     52  C   UNL A   1      41.985  21.335  28.085  1.00  0.00     0.020 A 
ATOM     53  C   UNL A   1      42.217  21.144  26.722  1.00  0.00     0.054 A 
BRANCH  53  54
ATOM     54  S   UNL A   1      42.171  19.477  26.008  1.00  0.00     0.124 S 
ATOM     55  O   UNL A   1      40.760  19.335  25.661  1.00  0.00    -0.237 OA
ATOM     56  O   UNL A   1      43.092  19.593  24.881  1.00  0.00    -0.237 OA
ATOM     57  O   UNL A   1      42.638  18.624  27.098  1.00  0.00    -0.744 OA
ENDBRANCH  53  54
ENDBRANCH  25  48
BRANCH  37  58
ATOM     58  C   UNL A   1      48.039  27.029  30.412  1.00  0.00    -0.014 A 
ATOM     59  C   UNL A   1      49.047  27.309  29.475  1.00  0.00     0.010 A 
ATOM     60  C   UNL A   1      48.390  26.448  31.646  1.00  0.00     0.010 A 
ATOM     61  C   UNL A   1      50.382  27.015  29.767  1.00  0.00     0.020 A 
ATOM     62  C   UNL A   1      49.725  26.177  31.952  1.00  0.00     0.020 A 
ATOM     63  C   UNL A   1      50.714  26.459  31.007  1.00  0.00     0.054 A 
BRANCH  63  64
ATOM     64  S   UNL A   1      52.463  26.176  31.399  1.00  0.00     0.124 S 
ATOM     65  O   UNL A   1      52.743  27.258  32.339  1.00  0.00    -0.237 OA
ATOM     66  O   UNL A   1      52.448  24.833  31.973  1.00  0.00    -0.237 OA
ATOM     67  O   UNL A   1      53.130  26.287  30.105  1.00  0.00    -0.744 OA
ENDBRANCH  63  64
ENDBRANCH  37  58
ENDBRANCH  11  12
ENDBRANCH   4   6
ENDBRANCH   1   2
BRANCH   1  68
ATOM     68  C   UNL A   1      32.745  27.863  25.810  1.00  0.00     0.042 C 
BRANCH  68  69
ATOM     69  C   UNL A   1      32.069  26.623  26.378  1.00  0.00     0.118 C 
BRANCH  69  70
ATOM     70  N   UNL A   1      30.676  26.497  25.962  1.00  0.00    -0.352 N 
ATOM     71  C   UNL A   1      30.130  25.905  24.859  1.00  0.00     0.252 C 
ATOM     72  H   UNL A   1      30.024  26.903  26.577  1.00  0.00     0.163 HD
ATOM     73  O   UNL A   1      28.927  26.020  24.640  1.00  0.00    -0.269 OA
BRANCH  71  74
ATOM     74  C   UNL A   1      31.008  25.140  23.936  1.00  0.00     0.056 A 
ATOM     75  C   UNL A   1      31.306  25.681  22.747  1.00  0.00     0.099 A 
ATOM     76  C   UNL A   1      31.537  23.837  24.275  1.00  0.00     0.029 A 
ATOM     77  N   UNL A   1      32.158  25.031  21.886  1.00  0.00    -0.328 N 
ATOM     78  C   UNL A   1      32.426  23.201  23.488  1.00  0.00     0.048 A 
ATOM     79  C   UNL A   1      32.770  23.829  22.165  1.00  0.00     0.255 A 
ATOM     80  H   UNL A   1      32.342  25.451  21.015  1.00  0.00     0.169 HD
ATOM     81  O   UNL A   1      33.541  23.301  21.364  1.00  0.00    -0.269 OA
BRANCH  78  82
ATOM     82  C   UNL A   1      33.094  21.990  24.001  1.00  0.00    -0.006 A 
ATOM     83  C   UNL A   1      34.386  22.054  24.549  1.00  0.00     0.009 A 
ATOM     84  C   UNL A   1      32.479  20.738  23.854  1.00  0.00     0.094 A 
ATOM     85  C   UNL A   1      35.068  20.892  24.919  1.00  0.00     0.008 A 
ATOM     86  C   UNL A   1      33.166  19.575  24.230  1.00  0.00     0.270 A 
ATOM     87  C   UNL A   1      34.463  19.647  24.755  1.00  0.00     0.085 A 
BRANCH  86  88
ATOM     88  N   UNL A   1      32.529  18.263  24.055  1.00  0.00     0.062 N 
ATOM     89  O   UNL A   1      31.867  17.815  25.003  1.00  0.00    -0.258 OA
ATOM     90  O   UNL A   1      32.689  17.685  22.973  1.00  0.00    -0.258 OA
ENDBRANCH  86  88
ENDBRANCH  78  82
ENDBRANCH  71  74
ENDBRANCH  69  70
ENDBRANCH  68  69
ENDBRANCH   1  68
TORSDOF 15
ENDMDL
