MODEL 1
REMARK VINA RESULT:     -10.4      0.000      0.000
REMARK SMILES C/C(=C\C(=O)NCCCNC(=O)c1ccc(-c2c3nc(c(-c4ccc(S(=O)(=O)[O-])cc4)c4ccc([nH]4)c(-c4ccc(S(=O)(=O)[O-])cc4)c4nc(c(-c5ccc(S(=O)(=O)[O-])cc5)c5ccc2[nH]5)C=C4)C=C3)cc1)CSc1ccc(N)c(C)c1
REMARK SMILES IDX 7 1 6 2 4 3 5 4 3 6 1 7 2 8 73 9 74 10 75 11 76 12 82 13
REMARK SMILES IDX 77 14 80 15 78 16 81 17 79 18 8 21 9 22 10 23 11 24 12 26
REMARK SMILES IDX 13 27 14 28 72 29 15 30 71 31 16 32 17 33 18 34 65 35 19 36
REMARK SMILES IDX 70 37 64 38 66 39 20 40 69 41 63 42 62 43 21 45 51 46 32 47
REMARK SMILES IDX 50 48 33 49 36 50 49 51 67 52 34 53 35 54 48 56 68 57 37 58
REMARK SMILES IDX 22 59 23 60 31 61 24 62 30 63 25 64 26 65 27 66 28 67 29 68
REMARK SMILES IDX 52 69 53 70 61 71 54 72 60 73 55 74 56 75 57 76 58 77 59 78
REMARK SMILES IDX 38 79 39 80 47 81 40 82 46 83 41 84 42 85 43 86 44 87 45 88
REMARK H PARENT 6 5 79 19 79 20 10 25 66 44 36 55
REMARK Flexibility Score: inf
ROOT
ATOM      1  C   UNL A   1      33.115  28.174  24.563  1.00  0.00     0.118 C 
ENDROOT
BRANCH   1   2
ATOM      2  N   UNL A   1      33.548  27.642  23.296  1.00  0.00    -0.352 N 
ATOM      3  C   UNL A   1      33.402  26.444  22.700  1.00  0.00     0.243 C 
ATOM      4  O   UNL A   1      33.788  26.366  21.527  1.00  0.00    -0.270 OA
ATOM      5  H   UNL A   1      34.056  28.288  22.754  1.00  0.00     0.163 HD
BRANCH   3   6
ATOM      6  C   UNL A   1      32.852  25.194  23.299  1.00  0.00     0.071 C 
ATOM      7  C   UNL A   1      33.240  23.056  21.938  1.00  0.00     0.040 C 
ATOM      8  C   UNL A   1      32.687  23.872  23.068  1.00  0.00    -0.058 C 
BRANCH   8   9
ATOM      9  C   UNL A   1      31.808  23.096  24.043  1.00  0.00     0.105 C 
BRANCH   9  10
ATOM     10  S   UNL A   1      32.490  22.970  25.737  1.00  0.00    -0.122 SA
BRANCH  10  11
ATOM     11  C   UNL A   1      34.165  22.371  25.575  1.00  0.00     0.008 A 
ATOM     12  C   UNL A   1      34.548  21.102  25.154  1.00  0.00     0.017 A 
ATOM     13  C   UNL A   1      35.184  23.287  25.874  1.00  0.00     0.020 A 
ATOM     14  C   UNL A   1      35.898  20.754  25.037  1.00  0.00     0.027 A 
ATOM     15  C   UNL A   1      36.549  22.950  25.761  1.00  0.00    -0.027 A 
ATOM     16  C   UNL A   1      36.911  21.671  25.317  1.00  0.00     0.034 A 
ATOM     17  C   UNL A   1      37.582  23.974  26.139  1.00  0.00     0.046 C 
BRANCH  16  18
ATOM     18  N   UNL A   1      38.232  21.243  25.284  1.00  0.00    -0.399 N 
ATOM     19  H   UNL A   1      38.959  21.873  25.495  1.00  0.00     0.156 HD
ATOM     20  H   UNL A   1      38.442  20.311  25.048  1.00  0.00     0.156 HD
ENDBRANCH  16  18
ENDBRANCH  10  11
ENDBRANCH   9  10
ENDBRANCH   8   9
ENDBRANCH   3   6
ENDBRANCH   1   2
BRANCH   1  21
ATOM     21  C   UNL A   1      34.050  27.787  25.704  1.00  0.00     0.042 C 
BRANCH  21  22
ATOM     22  C   UNL A   1      33.496  28.123  27.085  1.00  0.00     0.118 C 
BRANCH  22  23
ATOM     23  N   UNL A   1      33.406  29.562  27.292  1.00  0.00    -0.352 N 
ATOM     24  C   UNL A   1      34.276  30.435  27.897  1.00  0.00     0.251 C 
ATOM     25  H   UNL A   1      32.587  29.979  26.938  1.00  0.00     0.163 HD
ATOM     26  O   UNL A   1      33.877  31.557  28.193  1.00  0.00    -0.269 OA
BRANCH  24  27
ATOM     27  C   UNL A   1      35.674  30.046  28.191  1.00  0.00     0.039 A 
ATOM     28  C   UNL A   1      35.997  29.622  29.485  1.00  0.00     0.014 A 
ATOM     29  C   UNL A   1      36.683  30.168  27.231  1.00  0.00     0.014 A 
ATOM     30  C   UNL A   1      37.315  29.286  29.803  1.00  0.00     0.010 A 
ATOM     31  C   UNL A   1      37.982  29.760  27.527  1.00  0.00     0.010 A 
ATOM     32  C   UNL A   1      38.315  29.331  28.820  1.00  0.00    -0.014 A 
BRANCH  32  33
ATOM     33  C   UNL A   1      39.720  28.962  29.128  1.00  0.00     0.031 A 
ATOM     34  C   UNL A   1      40.644  29.971  29.760  1.00  0.00     0.074 A 
ATOM     35  C   UNL A   1      40.182  27.744  28.784  1.00  0.00     0.049 A 
ATOM     36  N   UNL A   1      41.919  29.867  30.031  1.00  0.00    -0.248 NA
ATOM     37  C   UNL A   1      40.062  31.280  30.105  1.00  0.00     0.031 C 
ATOM     38  C   UNL A   1      39.395  26.693  28.132  1.00  0.00     0.029 A 
ATOM     39  N   UNL A   1      41.428  27.186  28.925  1.00  0.00    -0.354 N 
ATOM     40  C   UNL A   1      42.297  31.100  30.552  1.00  0.00     0.074 A 
ATOM     41  C   UNL A   1      41.127  31.950  30.518  1.00  0.00     0.031 C 
ATOM     42  C   UNL A   1      40.171  25.611  27.953  1.00  0.00     0.029 A 
ATOM     43  C   UNL A   1      41.516  25.903  28.438  1.00  0.00     0.049 A 
ATOM     44  H   UNL A   1      42.186  27.661  29.335  1.00  0.00     0.167 HD
ATOM     45  C   UNL A   1      43.505  31.485  31.031  1.00  0.00     0.031 A 
ATOM     46  C   UNL A   1      42.564  25.059  28.384  1.00  0.00     0.031 A 
ATOM     47  C   UNL A   1      44.658  30.628  31.083  1.00  0.00     0.049 A 
ATOM     48  C   UNL A   1      43.890  25.502  28.934  1.00  0.00     0.074 A 
ATOM     49  C   UNL A   1      45.912  30.901  31.602  1.00  0.00     0.029 A 
ATOM     50  N   UNL A   1      44.698  29.327  30.604  1.00  0.00    -0.354 N 
ATOM     51  N   UNL A   1      44.213  26.655  29.472  1.00  0.00    -0.248 NA
ATOM     52  C   UNL A   1      44.988  24.529  28.883  1.00  0.00     0.031 C 
ATOM     53  C   UNL A   1      46.722  29.779  31.399  1.00  0.00     0.029 A 
ATOM     54  C   UNL A   1      45.959  28.789  30.799  1.00  0.00     0.049 A 
ATOM     55  H   UNL A   1      43.942  28.856  30.186  1.00  0.00     0.167 HD
ATOM     56  C   UNL A   1      45.548  26.536  29.844  1.00  0.00     0.074 A 
ATOM     57  C   UNL A   1      45.965  25.195  29.485  1.00  0.00     0.031 C 
ATOM     58  C   UNL A   1      46.354  27.453  30.433  1.00  0.00     0.031 A 
BRANCH  45  59
ATOM     59  C   UNL A   1      43.635  32.900  31.533  1.00  0.00    -0.014 A 
ATOM     60  C   UNL A   1      43.932  33.959  30.654  1.00  0.00     0.010 A 
ATOM     61  C   UNL A   1      43.430  33.181  32.896  1.00  0.00     0.010 A 
ATOM     62  C   UNL A   1      44.070  35.262  31.137  1.00  0.00     0.020 A 
ATOM     63  C   UNL A   1      43.540  34.490  33.378  1.00  0.00     0.020 A 
ATOM     64  C   UNL A   1      43.879  35.519  32.498  1.00  0.00     0.054 A 
BRANCH  64  65
ATOM     65  S   UNL A   1      44.054  37.223  33.096  1.00  0.00     0.124 S 
ATOM     66  O   UNL A   1      42.843  37.386  33.896  1.00  0.00    -0.237 OA
ATOM     67  O   UNL A   1      45.303  37.173  33.850  1.00  0.00    -0.237 OA
ATOM     68  O   UNL A   1      44.101  38.017  31.870  1.00  0.00    -0.744 OA
ENDBRANCH  64  65
ENDBRANCH  45  59
BRANCH  46  69
ATOM     69  C   UNL A   1      42.389  23.699  27.803  1.00  0.00    -0.014 A 
ATOM     70  C   UNL A   1      42.782  23.435  26.479  1.00  0.00     0.010 A 
ATOM     71  C   UNL A   1      41.854  22.654  28.578  1.00  0.00     0.010 A 
ATOM     72  C   UNL A   1      42.630  22.157  25.936  1.00  0.00     0.020 A 
ATOM     73  C   UNL A   1      41.724  21.368  28.047  1.00  0.00     0.020 A 
ATOM     74  C   UNL A   1      42.103  21.130  26.725  1.00  0.00     0.054 A 
BRANCH  74  75
ATOM     75  S   UNL A   1      41.968  19.465  26.017  1.00  0.00     0.124 S 
ATOM     76  O   UNL A   1      40.533  19.349  25.783  1.00  0.00    -0.237 OA
ATOM     77  O   UNL A   1      42.800  19.562  24.819  1.00  0.00    -0.237 OA
ATOM     78  O   UNL A   1      42.504  18.603  27.069  1.00  0.00    -0.744 OA
ENDBRANCH  74  75
ENDBRANCH  46  69
BRANCH  58  79
ATOM     79  C   UNL A   1      47.762  27.029  30.755  1.00  0.00    -0.014 A 
ATOM     80  C   UNL A   1      48.828  27.340  29.894  1.00  0.00     0.010 A 
ATOM     81  C   UNL A   1      48.024  26.358  31.962  1.00  0.00     0.010 A 
ATOM     82  C   UNL A   1      50.132  26.961  30.223  1.00  0.00     0.020 A 
ATOM     83  C   UNL A   1      49.329  25.999  32.306  1.00  0.00     0.020 A 
ATOM     84  C   UNL A   1      50.374  26.291  31.427  1.00  0.00     0.054 A 
BRANCH  84  85
ATOM     85  S   UNL A   1      52.080  25.849  31.854  1.00  0.00     0.124 S 
ATOM     86  O   UNL A   1      51.927  24.479  32.337  1.00  0.00    -0.237 OA
ATOM     87  O   UNL A   1      52.780  25.991  30.579  1.00  0.00    -0.237 OA
ATOM     88  O   UNL A   1      52.448  26.831  32.871  1.00  0.00    -0.744 OA
ENDBRANCH  84  85
ENDBRANCH  58  79
ENDBRANCH  32  33
ENDBRANCH  24  27
ENDBRANCH  22  23
ENDBRANCH  21  22
ENDBRANCH   1  21
TORSDOF 17
ENDMDL
MODEL 2
REMARK VINA RESULT:     -10.0      3.298      6.145
REMARK SMILES C/C(=C\C(=O)NCCCNC(=O)c1ccc(-c2c3nc(c(-c4ccc(S(=O)(=O)[O-])cc4)c4ccc([nH]4)c(-c4ccc(S(=O)(=O)[O-])cc4)c4nc(c(-c5ccc(S(=O)(=O)[O-])cc5)c5ccc2[nH]5)C=C4)C=C3)cc1)CSc1ccc(N)c(C)c1
REMARK SMILES IDX 7 1 6 2 4 3 5 4 3 6 1 7 2 8 73 9 74 10 75 11 76 12 82 13
REMARK SMILES IDX 77 14 80 15 78 16 81 17 79 18 8 21 9 22 10 23 11 24 12 26
REMARK SMILES IDX 13 27 14 28 72 29 15 30 71 31 16 32 17 33 18 34 65 35 19 36
REMARK SMILES IDX 70 37 64 38 66 39 20 40 69 41 63 42 62 43 21 45 51 46 32 47
REMARK SMILES IDX 50 48 33 49 36 50 49 51 67 52 34 53 35 54 48 56 68 57 37 58
REMARK SMILES IDX 22 59 23 60 31 61 24 62 30 63 25 64 26 65 27 66 28 67 29 68
REMARK SMILES IDX 52 69 53 70 61 71 54 72 60 73 55 74 56 75 57 76 58 77 59 78
REMARK SMILES IDX 38 79 39 80 47 81 40 82 46 83 41 84 42 85 43 86 44 87 45 88
REMARK H PARENT 6 5 79 19 79 20 10 25 66 44 36 55
REMARK Flexibility Score: inf
ROOT
ATOM      1  C   UNL A   1      34.349  33.533  30.503  1.00  0.00     0.118 C 
ENDROOT
BRANCH   1   2
ATOM      2  N   UNL A   1      34.163  34.632  31.417  1.00  0.00    -0.352 N 
ATOM      3  C   UNL A   1      34.969  35.236  32.309  1.00  0.00     0.243 C 
ATOM      4  O   UNL A   1      34.524  36.260  32.843  1.00  0.00    -0.270 OA
ATOM      5  H   UNL A   1      33.259  35.020  31.382  1.00  0.00     0.163 HD
BRANCH   3   6
ATOM      6  C   UNL A   1      36.326  34.800  32.747  1.00  0.00     0.071 C 
ATOM      7  C   UNL A   1      36.478  33.911  35.146  1.00  0.00     0.040 C 
ATOM      8  C   UNL A   1      37.016  34.337  33.814  1.00  0.00    -0.058 C 
BRANCH   8   9
ATOM      9  C   UNL A   1      38.533  34.259  33.685  1.00  0.00     0.105 C 
BRANCH   9  10
ATOM     10  S   UNL A   1      39.331  33.091  34.848  1.00  0.00    -0.122 SA
BRANCH  10  11
ATOM     11  C   UNL A   1      39.115  31.455  34.164  1.00  0.00     0.008 A 
ATOM     12  C   UNL A   1      37.936  30.927  33.650  1.00  0.00     0.017 A 
ATOM     13  C   UNL A   1      40.260  30.646  34.117  1.00  0.00     0.020 A 
ATOM     14  C   UNL A   1      37.895  29.636  33.111  1.00  0.00     0.027 A 
ATOM     15  C   UNL A   1      40.232  29.344  33.578  1.00  0.00    -0.027 A 
ATOM     16  C   UNL A   1      39.037  28.839  33.049  1.00  0.00     0.034 A 
ATOM     17  C   UNL A   1      41.492  28.523  33.601  1.00  0.00     0.046 C 
BRANCH  16  18
ATOM     18  N   UNL A   1      38.919  27.530  32.598  1.00  0.00    -0.399 N 
ATOM     19  H   UNL A   1      38.737  26.803  33.238  1.00  0.00     0.156 HD
ATOM     20  H   UNL A   1      39.018  27.329  31.640  1.00  0.00     0.156 HD
ENDBRANCH  16  18
ENDBRANCH  10  11
ENDBRANCH   9  10
ENDBRANCH   8   9
ENDBRANCH   3   6
ENDBRANCH   1   2
BRANCH   1  21
ATOM     21  C   UNL A   1      33.855  33.860  29.098  1.00  0.00     0.042 C 
BRANCH  21  22
ATOM     22  C   UNL A   1      34.507  33.009  28.012  1.00  0.00     0.118 C 
BRANCH  22  23
ATOM     23  N   UNL A   1      33.791  31.756  27.811  1.00  0.00    -0.352 N 
ATOM     24  C   UNL A   1      34.254  30.467  27.716  1.00  0.00     0.251 C 
ATOM     25  H   UNL A   1      32.814  31.848  27.731  1.00  0.00     0.163 HD
ATOM     26  O   UNL A   1      33.502  29.599  27.282  1.00  0.00    -0.269 OA
BRANCH  24  27
ATOM     27  C   UNL A   1      35.632  30.113  28.128  1.00  0.00     0.039 A 
ATOM     28  C   UNL A   1      36.649  30.142  27.168  1.00  0.00     0.014 A 
ATOM     29  C   UNL A   1      35.917  29.680  29.425  1.00  0.00     0.014 A 
ATOM     30  C   UNL A   1      37.951  29.776  27.517  1.00  0.00     0.010 A 
ATOM     31  C   UNL A   1      37.229  29.389  29.793  1.00  0.00     0.010 A 
ATOM     32  C   UNL A   1      38.257  29.417  28.839  1.00  0.00    -0.014 A 
BRANCH  32  33
ATOM     33  C   UNL A   1      39.636  29.040  29.240  1.00  0.00     0.031 A 
ATOM     34  C   UNL A   1      40.508  30.034  29.964  1.00  0.00     0.074 A 
ATOM     35  C   UNL A   1      40.125  27.832  28.900  1.00  0.00     0.049 A 
ATOM     36  N   UNL A   1      41.760  29.923  30.325  1.00  0.00    -0.248 NA
ATOM     37  C   UNL A   1      39.899  31.332  30.299  1.00  0.00     0.031 C 
ATOM     38  C   UNL A   1      39.391  26.798  28.165  1.00  0.00     0.029 A 
ATOM     39  N   UNL A   1      41.359  27.272  29.117  1.00  0.00    -0.354 N 
ATOM     40  C   UNL A   1      42.096  31.142  30.905  1.00  0.00     0.074 A 
ATOM     41  C   UNL A   1      40.929  31.993  30.807  1.00  0.00     0.031 C 
ATOM     42  C   UNL A   1      40.181  25.722  28.015  1.00  0.00     0.029 A 
ATOM     43  C   UNL A   1      41.486  26.002  28.605  1.00  0.00     0.049 A 
ATOM     44  H   UNL A   1      42.084  27.736  29.594  1.00  0.00     0.167 HD
ATOM     45  C   UNL A   1      43.264  31.516  31.482  1.00  0.00     0.031 A 
ATOM     46  C   UNL A   1      42.537  25.160  28.606  1.00  0.00     0.031 A 
ATOM     47  C   UNL A   1      44.413  30.658  31.596  1.00  0.00     0.049 A 
ATOM     48  C   UNL A   1      43.818  25.590  29.264  1.00  0.00     0.074 A 
ATOM     49  C   UNL A   1      45.624  30.919  32.213  1.00  0.00     0.029 A 
ATOM     50  N   UNL A   1      44.491  29.371  31.088  1.00  0.00    -0.354 N 
ATOM     51  N   UNL A   1      44.098  26.728  29.853  1.00  0.00    -0.248 NA
ATOM     52  C   UNL A   1      44.919  24.619  29.268  1.00  0.00     0.031 C 
ATOM     53  C   UNL A   1      46.450  29.803  32.040  1.00  0.00     0.029 A 
ATOM     54  C   UNL A   1      45.736  28.829  31.361  1.00  0.00     0.049 A 
ATOM     55  H   UNL A   1      43.769  28.910  30.603  1.00  0.00     0.167 HD
ATOM     56  C   UNL A   1      45.402  26.601  30.320  1.00  0.00     0.074 A 
ATOM     57  C   UNL A   1      45.847  25.270  29.957  1.00  0.00     0.031 C 
ATOM     58  C   UNL A   1      46.160  27.503  30.990  1.00  0.00     0.031 A 
BRANCH  45  59
ATOM     59  C   UNL A   1      43.353  32.918  32.028  1.00  0.00    -0.014 A 
ATOM     60  C   UNL A   1      43.806  33.983  31.227  1.00  0.00     0.010 A 
ATOM     61  C   UNL A   1      42.953  33.180  33.351  1.00  0.00     0.010 A 
ATOM     62  C   UNL A   1      43.903  35.273  31.754  1.00  0.00     0.020 A 
ATOM     63  C   UNL A   1      43.022  34.476  33.872  1.00  0.00     0.020 A 
ATOM     64  C   UNL A   1      43.516  35.511  33.076  1.00  0.00     0.054 A 
BRANCH  64  65
ATOM     65  S   UNL A   1      43.643  37.198  33.731  1.00  0.00     0.124 S 
ATOM     66  O   UNL A   1      43.896  37.972  32.518  1.00  0.00    -0.237 OA
ATOM     67  O   UNL A   1      42.334  37.404  34.345  1.00  0.00    -0.237 OA
ATOM     68  O   UNL A   1      44.762  37.124  34.667  1.00  0.00    -0.744 OA
ENDBRANCH  64  65
ENDBRANCH  45  59
BRANCH  46  69
ATOM     69  C   UNL A   1      42.409  23.816  27.979  1.00  0.00    -0.014 A 
ATOM     70  C   UNL A   1      42.827  23.607  26.653  1.00  0.00     0.010 A 
ATOM     71  C   UNL A   1      41.894  22.731  28.711  1.00  0.00     0.010 A 
ATOM     72  C   UNL A   1      42.718  22.344  26.066  1.00  0.00     0.020 A 
ATOM     73  C   UNL A   1      41.808  21.460  28.137  1.00  0.00     0.020 A 
ATOM     74  C   UNL A   1      42.211  21.277  26.813  1.00  0.00     0.054 A 
BRANCH  74  75
ATOM     75  S   UNL A   1      42.133  19.633  26.050  1.00  0.00     0.124 S 
ATOM     76  O   UNL A   1      43.054  19.775  24.927  1.00  0.00    -0.237 OA
ATOM     77  O   UNL A   1      42.584  18.760  27.132  1.00  0.00    -0.237 OA
ATOM     78  O   UNL A   1      40.724  19.489  25.691  1.00  0.00    -0.744 OA
ENDBRANCH  74  75
ENDBRANCH  46  69
BRANCH  58  79
ATOM     79  C   UNL A   1      47.541  27.071  31.403  1.00  0.00    -0.014 A 
ATOM     80  C   UNL A   1      47.764  26.426  32.632  1.00  0.00     0.010 A 
ATOM     81  C   UNL A   1      48.620  27.267  30.523  1.00  0.00     0.010 A 
ATOM     82  C   UNL A   1      49.050  26.010  32.986  1.00  0.00     0.020 A 
ATOM     83  C   UNL A   1      49.902  26.830  30.862  1.00  0.00     0.020 A 
ATOM     84  C   UNL A   1      50.111  26.216  32.099  1.00  0.00     0.054 A 
BRANCH  84  85
ATOM     85  S   UNL A   1      51.763  25.625  32.560  1.00  0.00     0.124 S 
ATOM     86  O   UNL A   1      52.629  26.574  31.865  1.00  0.00    -0.237 OA
ATOM     87  O   UNL A   1      51.750  25.736  34.017  1.00  0.00    -0.237 OA
ATOM     88  O   UNL A   1      51.798  24.258  32.047  1.00  0.00    -0.744 OA
ENDBRANCH  84  85
ENDBRANCH  58  79
ENDBRANCH  32  33
ENDBRANCH  24  27
ENDBRANCH  22  23
ENDBRANCH  21  22
ENDBRANCH   1  21
TORSDOF 17
ENDMDL
MODEL 3
REMARK VINA RESULT:      -9.8      4.762      7.148
REMARK SMILES C/C(=C\C(=O)NCCCNC(=O)c1ccc(-c2c3nc(c(-c4ccc(S(=O)(=O)[O-])cc4)c4ccc([nH]4)c(-c4ccc(S(=O)(=O)[O-])cc4)c4nc(c(-c5ccc(S(=O)(=O)[O-])cc5)c5ccc2[nH]5)C=C4)C=C3)cc1)CSc1ccc(N)c(C)c1
REMARK SMILES IDX 7 1 6 2 4 3 5 4 3 6 1 7 2 8 73 9 74 10 75 11 76 12 82 13
REMARK SMILES IDX 77 14 80 15 78 16 81 17 79 18 8 21 9 22 10 23 11 24 12 26
REMARK SMILES IDX 13 27 14 28 72 29 15 30 71 31 16 32 17 33 18 34 65 35 19 36
REMARK SMILES IDX 70 37 64 38 66 39 20 40 69 41 63 42 62 43 21 45 51 46 32 47
REMARK SMILES IDX 50 48 33 49 36 50 49 51 67 52 34 53 35 54 48 56 68 57 37 58
REMARK SMILES IDX 22 59 23 60 31 61 24 62 30 63 25 64 26 65 27 66 28 67 29 68
REMARK SMILES IDX 52 69 53 70 61 71 54 72 60 73 55 74 56 75 57 76 58 77 59 78
REMARK SMILES IDX 38 79 39 80 47 81 40 82 46 83 41 84 42 85 43 86 44 87 45 88
REMARK H PARENT 6 5 79 19 79 20 10 25 66 44 36 55
REMARK Flexibility Score: inf
ROOT
ATOM      1  C   UNL A   1      34.949  33.948  28.150  1.00  0.00     0.118 C 
ENDROOT
BRANCH   1   2
ATOM      2  N   UNL A   1      33.836  34.864  28.145  1.00  0.00    -0.352 N 
ATOM      3  C   UNL A   1      33.195  35.541  29.114  1.00  0.00     0.243 C 
ATOM      4  O   UNL A   1      32.351  36.365  28.740  1.00  0.00    -0.270 OA
ATOM      5  H   UNL A   1      33.470  35.027  27.246  1.00  0.00     0.163 HD
BRANCH   3   6
ATOM      6  C   UNL A   1      33.365  35.395  30.589  1.00  0.00     0.071 C 
ATOM      7  C   UNL A   1      33.501  37.590  31.906  1.00  0.00     0.040 C 
ATOM      8  C   UNL A   1      33.547  36.103  31.727  1.00  0.00    -0.058 C 
BRANCH   8   9
ATOM      9  C   UNL A   1      33.873  35.318  32.993  1.00  0.00     0.105 C 
BRANCH   9  10
ATOM     10  S   UNL A   1      34.664  33.694  32.691  1.00  0.00    -0.122 SA
BRANCH  10  11
ATOM     11  C   UNL A   1      36.414  34.001  32.503  1.00  0.00     0.008 A 
ATOM     12  C   UNL A   1      37.310  34.304  33.522  1.00  0.00     0.017 A 
ATOM     13  C   UNL A   1      36.928  33.890  31.203  1.00  0.00     0.020 A 
ATOM     14  C   UNL A   1      38.671  34.495  33.258  1.00  0.00     0.027 A 
ATOM     15  C   UNL A   1      38.296  34.081  30.922  1.00  0.00    -0.027 A 
ATOM     16  C   UNL A   1      39.184  34.368  31.968  1.00  0.00     0.034 A 
ATOM     17  C   UNL A   1      38.763  33.986  29.496  1.00  0.00     0.046 C 
BRANCH  16  18
ATOM     18  N   UNL A   1      40.522  34.668  31.744  1.00  0.00    -0.399 N 
ATOM     19  H   UNL A   1      40.779  35.232  30.979  1.00  0.00     0.156 HD
ATOM     20  H   UNL A   1      41.213  34.317  32.351  1.00  0.00     0.156 HD
ENDBRANCH  16  18
ENDBRANCH  10  11
ENDBRANCH   9  10
ENDBRANCH   8   9
ENDBRANCH   3   6
ENDBRANCH   1   2
BRANCH   1  21
ATOM     21  C   UNL A   1      34.499  32.491  28.166  1.00  0.00     0.042 C 
BRANCH  21  22
ATOM     22  C   UNL A   1      35.601  31.519  28.575  1.00  0.00     0.118 C 
BRANCH  22  23
ATOM     23  N   UNL A   1      35.562  31.234  30.004  1.00  0.00    -0.352 N 
ATOM     24  C   UNL A   1      36.427  30.523  30.798  1.00  0.00     0.251 C 
ATOM     25  H   UNL A   1      34.788  31.615  30.479  1.00  0.00     0.163 HD
ATOM     26  O   UNL A   1      36.060  30.188  31.920  1.00  0.00    -0.269 OA
BRANCH  24  27
ATOM     27  C   UNL A   1      37.783  30.161  30.325  1.00  0.00     0.039 A 
ATOM     28  C   UNL A   1      38.009  30.052  28.949  1.00  0.00     0.014 A 
ATOM     29  C   UNL A   1      38.810  29.853  31.222  1.00  0.00     0.014 A 
ATOM     30  C   UNL A   1      39.268  29.675  28.474  1.00  0.00     0.010 A 
ATOM     31  C   UNL A   1      40.085  29.552  30.747  1.00  0.00     0.010 A 
ATOM     32  C   UNL A   1      40.323  29.442  29.370  1.00  0.00    -0.014 A 
BRANCH  32  33
ATOM     33  C   UNL A   1      41.674  29.057  28.890  1.00  0.00     0.031 A 
ATOM     34  C   UNL A   1      42.759  30.097  28.778  1.00  0.00     0.074 A 
ATOM     35  C   UNL A   1      41.908  27.790  28.498  1.00  0.00     0.049 A 
ATOM     36  N   UNL A   1      43.973  29.975  28.308  1.00  0.00    -0.248 NA
ATOM     37  C   UNL A   1      42.423  31.459  29.227  1.00  0.00     0.031 C 
ATOM     38  C   UNL A   1      40.928  26.700  28.523  1.00  0.00     0.029 A 
ATOM     39  N   UNL A   1      43.041  27.204  27.991  1.00  0.00    -0.354 N 
ATOM     40  C   UNL A   1      44.536  31.245  28.379  1.00  0.00     0.074 A 
ATOM     41  C   UNL A   1      43.515  32.131  28.897  1.00  0.00     0.031 C 
ATOM     42  C   UNL A   1      41.510  25.575  28.077  1.00  0.00     0.029 A 
ATOM     43  C   UNL A   1      42.888  25.870  27.696  1.00  0.00     0.049 A 
ATOM     44  H   UNL A   1      43.883  27.693  27.852  1.00  0.00     0.167 HD
ATOM     45  C   UNL A   1      45.793  31.637  28.059  1.00  0.00     0.031 A 
ATOM     46  C   UNL A   1      43.756  24.984  27.173  1.00  0.00     0.031 A 
ATOM     47  C   UNL A   1      46.810  30.747  27.566  1.00  0.00     0.049 A 
ATOM     48  C   UNL A   1      45.150  25.437  26.838  1.00  0.00     0.074 A 
ATOM     49  C   UNL A   1      48.131  31.030  27.267  1.00  0.00     0.029 A 
ATOM     50  N   UNL A   1      46.621  29.398  27.306  1.00  0.00    -0.354 N 
ATOM     51  N   UNL A   1      45.679  26.631  26.963  1.00  0.00    -0.248 NA
ATOM     52  C   UNL A   1      46.067  24.422  26.305  1.00  0.00     0.031 C 
ATOM     53  C   UNL A   1      48.730  29.861  26.785  1.00  0.00     0.029 A 
ATOM     54  C   UNL A   1      47.796  28.838  26.833  1.00  0.00     0.049 A 
ATOM     55  H   UNL A   1      45.776  28.911  27.437  1.00  0.00     0.167 HD
ATOM     56  C   UNL A   1      46.999  26.505  26.545  1.00  0.00     0.074 A 
ATOM     57  C   UNL A   1      47.191  25.116  26.180  1.00  0.00     0.031 C 
ATOM     58  C   UNL A   1      47.965  27.453  26.474  1.00  0.00     0.031 A 
BRANCH  45  59
ATOM     59  C   UNL A   1      46.132  33.095  28.229  1.00  0.00    -0.014 A 
ATOM     60  C   UNL A   1      46.628  33.589  29.451  1.00  0.00     0.010 A 
ATOM     61  C   UNL A   1      45.981  33.981  27.147  1.00  0.00     0.010 A 
ATOM     62  C   UNL A   1      46.918  34.947  29.600  1.00  0.00     0.020 A 
ATOM     63  C   UNL A   1      46.297  35.336  27.285  1.00  0.00     0.020 A 
ATOM     64  C   UNL A   1      46.745  35.814  28.518  1.00  0.00     0.054 A 
BRANCH  64  65
ATOM     65  S   UNL A   1      47.139  37.571  28.737  1.00  0.00     0.124 S 
ATOM     66  O   UNL A   1      46.921  37.751  30.170  1.00  0.00    -0.237 OA
ATOM     67  O   UNL A   1      48.531  37.646  28.301  1.00  0.00    -0.237 OA
ATOM     68  O   UNL A   1      46.181  38.253  27.871  1.00  0.00    -0.744 OA
ENDBRANCH  64  65
ENDBRANCH  45  59
BRANCH  46  69
ATOM     69  C   UNL A   1      43.334  23.573  26.955  1.00  0.00    -0.014 A 
ATOM     70  C   UNL A   1      43.276  22.674  28.034  1.00  0.00     0.010 A 
ATOM     71  C   UNL A   1      42.963  23.128  25.673  1.00  0.00     0.010 A 
ATOM     72  C   UNL A   1      42.869  21.352  27.834  1.00  0.00     0.020 A 
ATOM     73  C   UNL A   1      42.530  21.813  25.473  1.00  0.00     0.020 A 
ATOM     74  C   UNL A   1      42.497  20.931  26.554  1.00  0.00     0.054 A 
BRANCH  74  75
ATOM     75  S   UNL A   1      41.916  19.227  26.328  1.00  0.00     0.124 S 
ATOM     76  O   UNL A   1      42.028  18.686  27.678  1.00  0.00    -0.237 OA
ATOM     77  O   UNL A   1      40.554  19.419  25.834  1.00  0.00    -0.237 OA
ATOM     78  O   UNL A   1      42.852  18.674  25.351  1.00  0.00    -0.744 OA
ENDBRANCH  74  75
ENDBRANCH  46  69
BRANCH  58  79
ATOM     79  C   UNL A   1      49.328  27.015  26.010  1.00  0.00    -0.014 A 
ATOM     80  C   UNL A   1      49.707  27.125  24.661  1.00  0.00     0.010 A 
ATOM     81  C   UNL A   1      50.260  26.538  26.950  1.00  0.00     0.010 A 
ATOM     82  C   UNL A   1      50.986  26.737  24.255  1.00  0.00     0.020 A 
ATOM     83  C   UNL A   1      51.547  26.173  26.552  1.00  0.00     0.020 A 
ATOM     84  C   UNL A   1      51.898  26.262  25.203  1.00  0.00     0.054 A 
BRANCH  84  85
ATOM     85  S   UNL A   1      53.568  25.809  24.660  1.00  0.00     0.124 S 
ATOM     86  O   UNL A   1      54.403  26.492  25.645  1.00  0.00    -0.237 OA
ATOM     87  O   UNL A   1      53.552  24.350  24.754  1.00  0.00    -0.237 OA
ATOM     88  O   UNL A   1      53.646  26.338  23.301  1.00  0.00    -0.744 OA
ENDBRANCH  84  85
ENDBRANCH  58  79
ENDBRANCH  32  33
ENDBRANCH  24  27
ENDBRANCH  22  23
ENDBRANCH  21  22
ENDBRANCH   1  21
TORSDOF 17
ENDMDL
