MODEL 1
REMARK VINA RESULT:     -11.8      0.000      0.000
REMARK SMILES Cc1cc(Nc2ccccc2C(=O)NCCCNC(=O)c2ccc(-c3c4nc(c(-c5ccc(S(=O)(=O)[O-])cc5)c5ccc([nH]5)c(-c5ccc(S(=O)(=O)[O-])cc5)c5nc(c(-c6ccc(S(=O)(=O)[O-])cc6)c6ccc3[nH]6)C=C5)C=C4)cc2)nc(N2CCCCC2)n1
REMARK SMILES IDX 16 1 15 2 14 3 12 4 13 5 11 7 6 8 7 9 8 10 10 11 9 12 5 13
REMARK SMILES IDX 4 15 1 16 2 17 3 18 89 19 82 20 81 21 83 22 84 23 88 24
REMARK SMILES IDX 85 25 87 26 86 27 17 28 18 29 19 30 20 32 21 33 22 34 80 35
REMARK SMILES IDX 23 36 79 37 24 38 25 39 26 40 73 41 27 42 78 43 72 44 74 45
REMARK SMILES IDX 28 46 77 47 71 48 70 49 29 51 59 52 40 53 58 54 41 55 44 56
REMARK SMILES IDX 57 57 75 58 42 59 43 60 56 62 76 63 45 64 30 65 31 66 39 67
REMARK SMILES IDX 32 68 38 69 33 70 34 71 35 72 36 73 37 74 60 75 61 76 69 77
REMARK SMILES IDX 62 78 68 79 63 80 64 81 65 82 66 83 67 84 46 85 47 86 55 87
REMARK SMILES IDX 48 88 54 89 49 90 50 91 51 92 52 93 53 94
REMARK H PARENT 14 6 5 14 18 31 74 50 44 61
REMARK Flexibility Score: inf
ROOT
ATOM      1  C   UNL A   1      35.434  23.427  24.436  1.00  0.00     0.042 C 
ENDROOT
BRANCH   1   2
ATOM      2  C   UNL A   1      34.551  24.529  23.916  1.00  0.00     0.118 C 
BRANCH   2   3
ATOM      3  N   UNL A   1      34.053  24.429  22.577  1.00  0.00    -0.352 N 
ATOM      4  C   UNL A   1      33.076  25.224  22.009  1.00  0.00     0.253 C 
ATOM      5  O   UNL A   1      33.049  25.268  20.775  1.00  0.00    -0.269 OA
ATOM      6  H   UNL A   1      34.443  23.728  22.007  1.00  0.00     0.163 HD
BRANCH   4   7
ATOM      7  C   UNL A   1      31.936  25.829  22.790  1.00  0.00     0.063 A 
ATOM      8  C   UNL A   1      30.869  25.217  23.496  1.00  0.00     0.052 A 
ATOM      9  C   UNL A   1      29.839  26.056  23.993  1.00  0.00     0.027 A 
ATOM     10  C   UNL A   1      29.871  27.444  23.861  1.00  0.00     0.002 A 
ATOM     11  C   UNL A   1      31.955  27.245  22.694  1.00  0.00     0.016 A 
ATOM     12  C   UNL A   1      30.945  28.043  23.228  1.00  0.00     0.001 A 
BRANCH   8  13
ATOM     13  N   UNL A   1      30.730  23.856  23.865  1.00  0.00    -0.339 N 
ATOM     14  H   UNL A   1      29.873  23.441  23.617  1.00  0.00     0.168 HD
BRANCH  13  15
ATOM     15  C   UNL A   1      31.632  23.013  24.529  1.00  0.00     0.136 A 
ATOM     16  C   UNL A   1      32.876  22.377  28.010  1.00  0.00     0.067 C 
ATOM     17  C   UNL A   1      32.548  22.247  26.556  1.00  0.00     0.045 A 
ATOM     18  C   UNL A   1      31.922  23.260  25.862  1.00  0.00     0.070 A 
ATOM     19  N   UNL A   1      32.887  21.093  25.961  1.00  0.00    -0.218 NA
ATOM     20  C   UNL A   1      32.652  20.976  24.648  1.00  0.00     0.227 A 
ATOM     21  N   UNL A   1      32.048  21.906  23.911  1.00  0.00    -0.195 NA
BRANCH  20  22
ATOM     22  N   UNL A   1      33.088  19.849  24.028  1.00  0.00    -0.341 N 
ATOM     23  C   UNL A   1      32.535  19.472  22.751  1.00  0.00     0.119 C 
ATOM     24  C   UNL A   1      34.248  19.166  24.536  1.00  0.00     0.119 C 
ATOM     25  C   UNL A   1      32.172  17.990  22.804  1.00  0.00     0.022 C 
ATOM     26  C   UNL A   1      33.870  17.691  24.671  1.00  0.00     0.022 C 
ATOM     27  C   UNL A   1      33.328  17.141  23.347  1.00  0.00     0.004 C 
ENDBRANCH  20  22
ENDBRANCH  13  15
ENDBRANCH   8  13
ENDBRANCH   4   7
ENDBRANCH   2   3
ENDBRANCH   1   2
BRANCH   1  28
ATOM     28  C   UNL A   1      36.627  23.892  25.248  1.00  0.00     0.118 C 
BRANCH  28  29
ATOM     29  N   UNL A   1      37.687  22.897  25.440  1.00  0.00    -0.352 N 
ATOM     30  C   UNL A   1      38.884  22.977  26.114  1.00  0.00     0.251 C 
ATOM     31  H   UNL A   1      37.513  22.026  25.015  1.00  0.00     0.163 HD
ATOM     32  O   UNL A   1      39.642  22.008  26.166  1.00  0.00    -0.269 OA
BRANCH  30  33
ATOM     33  C   UNL A   1      39.298  24.234  26.758  1.00  0.00     0.039 A 
ATOM     34  C   UNL A   1      38.938  24.488  28.086  1.00  0.00     0.014 A 
ATOM     35  C   UNL A   1      40.040  25.165  26.040  1.00  0.00     0.014 A 
ATOM     36  C   UNL A   1      39.376  25.660  28.702  1.00  0.00     0.010 A 
ATOM     37  C   UNL A   1      40.613  26.234  26.697  1.00  0.00     0.010 A 
ATOM     38  C   UNL A   1      40.233  26.528  28.012  1.00  0.00    -0.014 A 
BRANCH  38  39
ATOM     39  C   UNL A   1      40.648  27.837  28.554  1.00  0.00     0.031 A 
ATOM     40  C   UNL A   1      42.075  27.994  29.013  1.00  0.00     0.074 A 
ATOM     41  C   UNL A   1      39.742  28.816  28.726  1.00  0.00     0.049 A 
ATOM     42  N   UNL A   1      42.630  28.972  29.675  1.00  0.00    -0.248 NA
ATOM     43  C   UNL A   1      42.984  26.862  28.744  1.00  0.00     0.031 C 
ATOM     44  C   UNL A   1      38.331  28.747  28.341  1.00  0.00     0.029 A 
ATOM     45  N   UNL A   1      39.879  30.060  29.277  1.00  0.00    -0.354 N 
ATOM     46  C   UNL A   1      43.926  28.544  29.951  1.00  0.00     0.074 A 
ATOM     47  C   UNL A   1      44.047  27.194  29.455  1.00  0.00     0.031 C 
ATOM     48  C   UNL A   1      37.743  29.921  28.625  1.00  0.00     0.029 A 
ATOM     49  C   UNL A   1      38.722  30.799  29.257  1.00  0.00     0.049 A 
ATOM     50  H   UNL A   1      40.726  30.394  29.652  1.00  0.00     0.167 HD
ATOM     51  C   UNL A   1      44.936  29.229  30.536  1.00  0.00     0.031 A 
ATOM     52  C   UNL A   1      38.490  32.050  29.697  1.00  0.00     0.031 A 
ATOM     53  C   UNL A   1      44.798  30.588  30.978  1.00  0.00     0.049 A 
ATOM     54  C   UNL A   1      39.630  32.809  30.317  1.00  0.00     0.074 A 
ATOM     55  C   UNL A   1      45.756  31.422  31.520  1.00  0.00     0.029 A 
ATOM     56  N   UNL A   1      43.617  31.315  30.911  1.00  0.00    -0.354 N 
ATOM     57  N   UNL A   1      40.863  32.413  30.535  1.00  0.00    -0.248 NA
ATOM     58  C   UNL A   1      39.353  34.188  30.734  1.00  0.00     0.031 C 
ATOM     59  C   UNL A   1      45.139  32.640  31.830  1.00  0.00     0.029 A 
ATOM     60  C   UNL A   1      43.815  32.586  31.417  1.00  0.00     0.049 A 
ATOM     61  H   UNL A   1      42.763  30.975  30.557  1.00  0.00     0.167 HD
ATOM     62  C   UNL A   1      41.524  33.509  31.078  1.00  0.00     0.074 A 
ATOM     63  C   UNL A   1      40.550  34.583  31.148  1.00  0.00     0.031 C 
ATOM     64  C   UNL A   1      42.817  33.626  31.472  1.00  0.00     0.031 A 
BRANCH  51  65
ATOM     65  C   UNL A   1      46.242  28.501  30.738  1.00  0.00    -0.014 A 
ATOM     66  C   UNL A   1      46.508  27.768  31.912  1.00  0.00     0.010 A 
ATOM     67  C   UNL A   1      47.241  28.580  29.751  1.00  0.00     0.010 A 
ATOM     68  C   UNL A   1      47.767  27.203  32.130  1.00  0.00     0.020 A 
ATOM     69  C   UNL A   1      48.489  27.981  29.947  1.00  0.00     0.020 A 
ATOM     70  C   UNL A   1      48.755  27.322  31.149  1.00  0.00     0.054 A 
BRANCH  70  71
ATOM     71  S   UNL A   1      50.387  26.597  31.463  1.00  0.00     0.124 S 
ATOM     72  O   UNL A   1      50.297  26.264  32.883  1.00  0.00    -0.237 OA
ATOM     73  O   UNL A   1      50.413  25.457  30.552  1.00  0.00    -0.237 OA
ATOM     74  O   UNL A   1      51.314  27.676  31.134  1.00  0.00    -0.744 OA
ENDBRANCH  70  71
ENDBRANCH  51  65
BRANCH  52  75
ATOM     75  C   UNL A   1      37.154  32.670  29.488  1.00  0.00    -0.014 A 
ATOM     76  C   UNL A   1      36.279  32.835  30.576  1.00  0.00     0.010 A 
ATOM     77  C   UNL A   1      36.771  33.157  28.225  1.00  0.00     0.010 A 
ATOM     78  C   UNL A   1      35.046  33.472  30.407  1.00  0.00     0.020 A 
ATOM     79  C   UNL A   1      35.549  33.817  28.057  1.00  0.00     0.020 A 
ATOM     80  C   UNL A   1      34.692  33.967  29.149  1.00  0.00     0.054 A 
BRANCH  80  81
ATOM     81  S   UNL A   1      33.122  34.860  28.977  1.00  0.00     0.124 S 
ATOM     82  O   UNL A   1      32.431  34.070  27.964  1.00  0.00    -0.237 OA
ATOM     83  O   UNL A   1      32.570  34.786  30.326  1.00  0.00    -0.237 OA
ATOM     84  O   UNL A   1      33.534  36.197  28.555  1.00  0.00    -0.744 OA
ENDBRANCH  80  81
ENDBRANCH  52  75
BRANCH  64  85
ATOM     85  C   UNL A   1      43.262  34.977  31.962  1.00  0.00    -0.014 A 
ATOM     86  C   UNL A   1      43.781  35.943  31.082  1.00  0.00     0.010 A 
ATOM     87  C   UNL A   1      43.110  35.295  33.324  1.00  0.00     0.010 A 
ATOM     88  C   UNL A   1      44.183  37.189  31.568  1.00  0.00     0.020 A 
ATOM     89  C   UNL A   1      43.479  36.550  33.806  1.00  0.00     0.020 A 
ATOM     90  C   UNL A   1      44.032  37.483  32.928  1.00  0.00     0.054 A 
BRANCH  90  91
ATOM     91  S   UNL A   1      44.537  39.116  33.528  1.00  0.00     0.124 S 
ATOM     92  O   UNL A   1      43.298  39.621  34.110  1.00  0.00    -0.237 OA
ATOM     93  O   UNL A   1      45.596  38.793  34.482  1.00  0.00    -0.237 OA
ATOM     94  O   UNL A   1      44.985  39.806  32.320  1.00  0.00    -0.744 OA
ENDBRANCH  90  91
ENDBRANCH  64  85
ENDBRANCH  38  39
ENDBRANCH  30  33
ENDBRANCH  28  29
ENDBRANCH   1  28
TORSDOF 16
ENDMDL
MODEL 2
REMARK VINA RESULT:     -11.6      3.887      9.629
REMARK SMILES Cc1cc(Nc2ccccc2C(=O)NCCCNC(=O)c2ccc(-c3c4nc(c(-c5ccc(S(=O)(=O)[O-])cc5)c5ccc([nH]5)c(-c5ccc(S(=O)(=O)[O-])cc5)c5nc(c(-c6ccc(S(=O)(=O)[O-])cc6)c6ccc3[nH]6)C=C5)C=C4)cc2)nc(N2CCCCC2)n1
REMARK SMILES IDX 16 1 15 2 14 3 12 4 13 5 11 7 6 8 7 9 8 10 10 11 9 12 5 13
REMARK SMILES IDX 4 15 1 16 2 17 3 18 89 19 82 20 81 21 83 22 84 23 88 24
REMARK SMILES IDX 85 25 87 26 86 27 17 28 18 29 19 30 20 32 21 33 22 34 80 35
REMARK SMILES IDX 23 36 79 37 24 38 25 39 26 40 73 41 27 42 78 43 72 44 74 45
REMARK SMILES IDX 28 46 77 47 71 48 70 49 29 51 59 52 40 53 58 54 41 55 44 56
REMARK SMILES IDX 57 57 75 58 42 59 43 60 56 62 76 63 45 64 30 65 31 66 39 67
REMARK SMILES IDX 32 68 38 69 33 70 34 71 35 72 36 73 37 74 60 75 61 76 69 77
REMARK SMILES IDX 62 78 68 79 63 80 64 81 65 82 66 83 67 84 46 85 47 86 55 87
REMARK SMILES IDX 48 88 54 89 49 90 50 91 51 92 52 93 53 94
REMARK H PARENT 14 6 5 14 18 31 74 50 44 61
REMARK Flexibility Score: inf
ROOT
ATOM      1  C   UNL A   1      34.226  30.669  27.137  1.00  0.00     0.042 C 
ENDROOT
BRANCH   1   2
ATOM      2  C   UNL A   1      33.393  29.698  26.346  1.00  0.00     0.118 C 
BRANCH   2   3
ATOM      3  N   UNL A   1      34.023  28.956  25.295  1.00  0.00    -0.352 N 
ATOM      4  C   UNL A   1      33.503  28.722  24.037  1.00  0.00     0.253 C 
ATOM      5  O   UNL A   1      34.311  28.420  23.153  1.00  0.00    -0.269 OA
ATOM      6  H   UNL A   1      34.911  28.576  25.488  1.00  0.00     0.163 HD
BRANCH   4   7
ATOM      7  C   UNL A   1      32.027  28.591  23.757  1.00  0.00     0.063 A 
ATOM      8  C   UNL A   1      31.037  27.776  24.364  1.00  0.00     0.052 A 
ATOM      9  C   UNL A   1      29.752  27.740  23.765  1.00  0.00     0.027 A 
ATOM     10  C   UNL A   1      29.421  28.512  22.652  1.00  0.00     0.002 A 
ATOM     11  C   UNL A   1      31.653  29.384  22.641  1.00  0.00     0.016 A 
ATOM     12  C   UNL A   1      30.369  29.354  22.100  1.00  0.00     0.001 A 
BRANCH   8  13
ATOM     13  N   UNL A   1      31.129  27.042  25.573  1.00  0.00    -0.339 N 
ATOM     14  H   UNL A   1      30.928  27.554  26.389  1.00  0.00     0.168 HD
BRANCH  13  15
ATOM     15  C   UNL A   1      31.462  25.696  25.779  1.00  0.00     0.136 A 
ATOM     16  C   UNL A   1      29.820  22.512  26.891  1.00  0.00     0.067 C 
ATOM     17  C   UNL A   1      30.765  23.510  26.299  1.00  0.00     0.045 A 
ATOM     18  C   UNL A   1      30.540  24.866  26.399  1.00  0.00     0.070 A 
ATOM     19  N   UNL A   1      31.839  23.021  25.660  1.00  0.00    -0.218 NA
ATOM     20  C   UNL A   1      32.725  23.896  25.170  1.00  0.00     0.227 A 
ATOM     21  N   UNL A   1      32.576  25.219  25.223  1.00  0.00    -0.195 NA
BRANCH  20  22
ATOM     22  N   UNL A   1      33.860  23.400  24.614  1.00  0.00    -0.341 N 
ATOM     23  C   UNL A   1      33.890  22.039  24.137  1.00  0.00     0.119 C 
ATOM     24  C   UNL A   1      34.942  24.294  24.299  1.00  0.00     0.119 C 
ATOM     25  C   UNL A   1      35.160  21.376  24.663  1.00  0.00     0.022 C 
ATOM     26  C   UNL A   1      36.210  23.679  24.892  1.00  0.00     0.022 C 
ATOM     27  C   UNL A   1      36.402  22.239  24.403  1.00  0.00     0.004 C 
ENDBRANCH  20  22
ENDBRANCH  13  15
ENDBRANCH   8  13
ENDBRANCH   4   7
ENDBRANCH   2   3
ENDBRANCH   1   2
BRANCH   1  28
ATOM     28  C   UNL A   1      35.443  30.067  27.812  1.00  0.00     0.118 C 
BRANCH  28  29
ATOM     29  N   UNL A   1      35.409  30.051  29.279  1.00  0.00    -0.352 N 
ATOM     30  C   UNL A   1      36.405  29.813  30.199  1.00  0.00     0.251 C 
ATOM     31  H   UNL A   1      34.527  30.243  29.670  1.00  0.00     0.163 HD
ATOM     32  O   UNL A   1      36.168  29.857  31.406  1.00  0.00    -0.269 OA
BRANCH  30  33
ATOM     33  C   UNL A   1      37.765  29.466  29.757  1.00  0.00     0.039 A 
ATOM     34  C   UNL A   1      38.152  29.710  28.435  1.00  0.00     0.014 A 
ATOM     35  C   UNL A   1      38.657  28.891  30.655  1.00  0.00     0.014 A 
ATOM     36  C   UNL A   1      39.457  29.422  28.038  1.00  0.00     0.010 A 
ATOM     37  C   UNL A   1      39.987  28.767  30.312  1.00  0.00     0.010 A 
ATOM     38  C   UNL A   1      40.385  28.967  28.985  1.00  0.00    -0.014 A 
BRANCH  38  39
ATOM     39  C   UNL A   1      41.750  28.537  28.621  1.00  0.00     0.031 A 
ATOM     40  C   UNL A   1      42.846  29.572  28.629  1.00  0.00     0.074 A 
ATOM     41  C   UNL A   1      41.972  27.281  28.194  1.00  0.00     0.049 A 
ATOM     42  N   UNL A   1      44.071  29.486  28.188  1.00  0.00    -0.248 NA
ATOM     43  C   UNL A   1      42.488  30.908  29.146  1.00  0.00     0.031 C 
ATOM     44  C   UNL A   1      40.969  26.216  28.123  1.00  0.00     0.029 A 
ATOM     45  N   UNL A   1      43.118  26.693  27.735  1.00  0.00    -0.354 N 
ATOM     46  C   UNL A   1      44.602  30.766  28.320  1.00  0.00     0.074 A 
ATOM     47  C   UNL A   1      43.546  31.622  28.805  1.00  0.00     0.031 C 
ATOM     48  C   UNL A   1      41.558  25.089  27.691  1.00  0.00     0.029 A 
ATOM     49  C   UNL A   1      42.963  25.368  27.409  1.00  0.00     0.049 A 
ATOM     50  H   UNL A   1      43.973  27.173  27.646  1.00  0.00     0.167 HD
ATOM     51  C   UNL A   1      45.868  31.183  28.088  1.00  0.00     0.031 A 
ATOM     52  C   UNL A   1      43.863  24.484  26.941  1.00  0.00     0.031 A 
ATOM     53  C   UNL A   1      46.910  30.297  27.650  1.00  0.00     0.049 A 
ATOM     54  C   UNL A   1      45.273  24.955  26.718  1.00  0.00     0.074 A 
ATOM     55  C   UNL A   1      48.248  30.569  27.445  1.00  0.00     0.029 A 
ATOM     56  N   UNL A   1      46.720  28.952  27.360  1.00  0.00    -0.354 N 
ATOM     57  N   UNL A   1      45.778  26.156  26.886  1.00  0.00    -0.248 NA
ATOM     58  C   UNL A   1      46.238  23.949  26.260  1.00  0.00     0.031 C 
ATOM     59  C   UNL A   1      48.859  29.399  26.981  1.00  0.00     0.029 A 
ATOM     60  C   UNL A   1      47.915  28.380  26.964  1.00  0.00     0.049 A 
ATOM     61  H   UNL A   1      45.862  28.475  27.427  1.00  0.00     0.167 HD
ATOM     62  C   UNL A   1      47.133  26.042  26.593  1.00  0.00     0.074 A 
ATOM     63  C   UNL A   1      47.363  24.653  26.244  1.00  0.00     0.031 C 
ATOM     64  C   UNL A   1      48.102  26.992  26.621  1.00  0.00     0.031 A 
BRANCH  51  65
ATOM     65  C   UNL A   1      46.163  32.649  28.287  1.00  0.00    -0.014 A 
ATOM     66  C   UNL A   1      46.507  33.170  29.550  1.00  0.00     0.010 A 
ATOM     67  C   UNL A   1      46.057  33.533  27.198  1.00  0.00     0.010 A 
ATOM     68  C   UNL A   1      46.657  34.547  29.736  1.00  0.00     0.020 A 
ATOM     69  C   UNL A   1      46.248  34.908  27.371  1.00  0.00     0.020 A 
ATOM     70  C   UNL A   1      46.517  35.409  28.646  1.00  0.00     0.054 A 
BRANCH  70  71
ATOM     71  S   UNL A   1      46.697  37.193  28.917  1.00  0.00     0.124 S 
ATOM     72  O   UNL A   1      47.324  37.623  27.670  1.00  0.00    -0.237 OA
ATOM     73  O   UNL A   1      45.317  37.630  29.109  1.00  0.00    -0.237 OA
ATOM     74  O   UNL A   1      47.545  37.279  30.103  1.00  0.00    -0.744 OA
ENDBRANCH  70  71
ENDBRANCH  51  65
BRANCH  52  75
ATOM     75  C   UNL A   1      43.467  23.064  26.738  1.00  0.00    -0.014 A 
ATOM     76  C   UNL A   1      43.738  22.429  25.513  1.00  0.00     0.010 A 
ATOM     77  C   UNL A   1      42.880  22.320  27.778  1.00  0.00     0.010 A 
ATOM     78  C   UNL A   1      43.427  21.079  25.329  1.00  0.00     0.020 A 
ATOM     79  C   UNL A   1      42.591  20.962  27.605  1.00  0.00     0.020 A 
ATOM     80  C   UNL A   1      42.863  20.350  26.379  1.00  0.00     0.054 A 
BRANCH  80  81
ATOM     81  S   UNL A   1      42.547  18.580  26.139  1.00  0.00     0.124 S 
ATOM     82  O   UNL A   1      43.469  18.249  25.059  1.00  0.00    -0.237 OA
ATOM     83  O   UNL A   1      42.876  18.023  27.448  1.00  0.00    -0.237 OA
ATOM     84  O   UNL A   1      41.129  18.531  25.789  1.00  0.00    -0.744 OA
ENDBRANCH  80  81
ENDBRANCH  52  75
BRANCH  64  85
ATOM     85  C   UNL A   1      49.505  26.544  26.317  1.00  0.00    -0.014 A 
ATOM     86  C   UNL A   1      50.058  26.678  25.032  1.00  0.00     0.010 A 
ATOM     87  C   UNL A   1      50.295  26.021  27.357  1.00  0.00     0.010 A 
ATOM     88  C   UNL A   1      51.365  26.253  24.783  1.00  0.00     0.020 A 
ATOM     89  C   UNL A   1      51.612  25.629  27.120  1.00  0.00     0.020 A 
ATOM     90  C   UNL A   1      52.132  25.729  25.829  1.00  0.00     0.054 A 
BRANCH  90  91
ATOM     91  S   UNL A   1      53.833  25.209  25.485  1.00  0.00     0.124 S 
ATOM     92  O   UNL A   1      53.627  23.980  24.724  1.00  0.00    -0.237 OA
ATOM     93  O   UNL A   1      54.366  26.338  24.726  1.00  0.00    -0.237 OA
ATOM     94  O   UNL A   1      54.416  25.029  26.813  1.00  0.00    -0.744 OA
ENDBRANCH  90  91
ENDBRANCH  64  85
ENDBRANCH  38  39
ENDBRANCH  30  33
ENDBRANCH  28  29
ENDBRANCH   1  28
TORSDOF 16
ENDMDL
MODEL 3
REMARK VINA RESULT:     -11.5      4.018      8.974
REMARK SMILES Cc1cc(Nc2ccccc2C(=O)NCCCNC(=O)c2ccc(-c3c4nc(c(-c5ccc(S(=O)(=O)[O-])cc5)c5ccc([nH]5)c(-c5ccc(S(=O)(=O)[O-])cc5)c5nc(c(-c6ccc(S(=O)(=O)[O-])cc6)c6ccc3[nH]6)C=C5)C=C4)cc2)nc(N2CCCCC2)n1
REMARK SMILES IDX 16 1 15 2 14 3 12 4 13 5 11 7 6 8 7 9 8 10 10 11 9 12 5 13
REMARK SMILES IDX 4 15 1 16 2 17 3 18 89 19 82 20 81 21 83 22 84 23 88 24
REMARK SMILES IDX 85 25 87 26 86 27 17 28 18 29 19 30 20 32 21 33 22 34 80 35
REMARK SMILES IDX 23 36 79 37 24 38 25 39 26 40 73 41 27 42 78 43 72 44 74 45
REMARK SMILES IDX 28 46 77 47 71 48 70 49 29 51 59 52 40 53 58 54 41 55 44 56
REMARK SMILES IDX 57 57 75 58 42 59 43 60 56 62 76 63 45 64 30 65 31 66 39 67
REMARK SMILES IDX 32 68 38 69 33 70 34 71 35 72 36 73 37 74 60 75 61 76 69 77
REMARK SMILES IDX 62 78 68 79 63 80 64 81 65 82 66 83 67 84 46 85 47 86 55 87
REMARK SMILES IDX 48 88 54 89 49 90 50 91 51 92 52 93 53 94
REMARK H PARENT 14 6 5 14 18 31 74 50 44 61
REMARK Flexibility Score: inf
ROOT
ATOM      1  C   UNL A   1      34.308  30.344  27.210  1.00  0.00     0.042 C 
ENDROOT
BRANCH   1   2
ATOM      2  C   UNL A   1      33.540  29.314  26.426  1.00  0.00     0.118 C 
BRANCH   2   3
ATOM      3  N   UNL A   1      34.113  28.815  25.212  1.00  0.00    -0.352 N 
ATOM      4  C   UNL A   1      33.418  28.336  24.119  1.00  0.00     0.253 C 
ATOM      5  O   UNL A   1      34.025  28.319  23.043  1.00  0.00    -0.269 OA
ATOM      6  H   UNL A   1      35.096  28.812  25.151  1.00  0.00     0.163 HD
BRANCH   4   7
ATOM      7  C   UNL A   1      32.085  27.637  24.220  1.00  0.00     0.063 A 
ATOM      8  C   UNL A   1      31.733  26.390  24.797  1.00  0.00     0.052 A 
ATOM      9  C   UNL A   1      30.415  25.912  24.584  1.00  0.00     0.027 A 
ATOM     10  C   UNL A   1      29.455  26.643  23.886  1.00  0.00     0.002 A 
ATOM     11  C   UNL A   1      31.079  28.370  23.537  1.00  0.00     0.016 A 
ATOM     12  C   UNL A   1      29.781  27.887  23.379  1.00  0.00     0.001 A 
BRANCH   8  13
ATOM     13  N   UNL A   1      32.508  25.575  25.659  1.00  0.00    -0.339 N 
ATOM     14  H   UNL A   1      32.402  25.763  26.619  1.00  0.00     0.168 HD
BRANCH  13  15
ATOM     15  C   UNL A   1      33.403  24.541  25.347  1.00  0.00     0.136 A 
ATOM     16  C   UNL A   1      37.074  23.807  25.582  1.00  0.00     0.067 C 
ATOM     17  C   UNL A   1      35.589  23.678  25.442  1.00  0.00     0.045 A 
ATOM     18  C   UNL A   1      34.765  24.783  25.444  1.00  0.00     0.070 A 
ATOM     19  N   UNL A   1      35.099  22.435  25.322  1.00  0.00    -0.218 NA
ATOM     20  C   UNL A   1      33.779  22.301  25.141  1.00  0.00     0.227 A 
ATOM     21  N   UNL A   1      32.918  23.317  25.136  1.00  0.00    -0.195 NA
BRANCH  20  22
ATOM     22  N   UNL A   1      33.298  21.051  24.918  1.00  0.00    -0.341 N 
ATOM     23  C   UNL A   1      33.937  19.914  25.533  1.00  0.00     0.119 C 
ATOM     24  C   UNL A   1      32.029  20.889  24.259  1.00  0.00     0.119 C 
ATOM     25  C   UNL A   1      34.142  18.844  24.465  1.00  0.00     0.022 C 
ATOM     26  C   UNL A   1      32.242  19.877  23.133  1.00  0.00     0.022 C 
ATOM     27  C   UNL A   1      32.858  18.580  23.669  1.00  0.00     0.004 C 
ENDBRANCH  20  22
ENDBRANCH  13  15
ENDBRANCH   8  13
ENDBRANCH   4   7
ENDBRANCH   2   3
ENDBRANCH   1   2
BRANCH   1  28
ATOM     28  C   UNL A   1      35.561  29.828  27.889  1.00  0.00     0.118 C 
BRANCH  28  29
ATOM     29  N   UNL A   1      35.527  29.817  29.356  1.00  0.00    -0.352 N 
ATOM     30  C   UNL A   1      36.533  29.635  30.277  1.00  0.00     0.251 C 
ATOM     31  H   UNL A   1      34.636  29.966  29.745  1.00  0.00     0.163 HD
ATOM     32  O   UNL A   1      36.293  29.672  31.485  1.00  0.00    -0.269 OA
BRANCH  30  33
ATOM     33  C   UNL A   1      37.909  29.355  29.838  1.00  0.00     0.039 A 
ATOM     34  C   UNL A   1      38.790  28.684  30.693  1.00  0.00     0.014 A 
ATOM     35  C   UNL A   1      38.329  29.766  28.578  1.00  0.00     0.014 A 
ATOM     36  C   UNL A   1      40.077  28.380  30.251  1.00  0.00     0.010 A 
ATOM     37  C   UNL A   1      39.534  29.318  28.081  1.00  0.00     0.010 A 
ATOM     38  C   UNL A   1      40.445  28.681  28.932  1.00  0.00    -0.014 A 
BRANCH  38  39
ATOM     39  C   UNL A   1      41.820  28.494  28.426  1.00  0.00     0.031 A 
ATOM     40  C   UNL A   1      42.204  27.132  27.905  1.00  0.00     0.074 A 
ATOM     41  C   UNL A   1      42.721  29.485  28.531  1.00  0.00     0.049 A 
ATOM     42  N   UNL A   1      43.379  26.672  27.573  1.00  0.00    -0.248 NA
ATOM     43  C   UNL A   1      41.121  26.133  27.809  1.00  0.00     0.031 C 
ATOM     44  C   UNL A   1      42.452  30.829  29.048  1.00  0.00     0.029 A 
ATOM     45  N   UNL A   1      44.051  29.510  28.210  1.00  0.00    -0.354 N 
ATOM     46  C   UNL A   1      43.182  25.323  27.291  1.00  0.00     0.074 A 
ATOM     47  C   UNL A   1      41.797  25.024  27.566  1.00  0.00     0.031 C 
ATOM     48  C   UNL A   1      43.574  31.562  28.965  1.00  0.00     0.029 A 
ATOM     49  C   UNL A   1      44.647  30.725  28.438  1.00  0.00     0.049 A 
ATOM     50  H   UNL A   1      44.534  28.731  27.851  1.00  0.00     0.167 HD
ATOM     51  C   UNL A   1      44.071  24.421  26.813  1.00  0.00     0.031 A 
ATOM     52  C   UNL A   1      45.920  31.113  28.233  1.00  0.00     0.031 A 
ATOM     53  C   UNL A   1      45.432  24.761  26.505  1.00  0.00     0.049 A 
ATOM     54  C   UNL A   1      46.888  30.108  27.673  1.00  0.00     0.074 A 
ATOM     55  C   UNL A   1      46.417  23.968  25.950  1.00  0.00     0.029 A 
ATOM     56  N   UNL A   1      45.992  26.014  26.720  1.00  0.00    -0.354 N 
ATOM     57  N   UNL A   1      46.684  28.847  27.368  1.00  0.00    -0.248 NA
ATOM     58  C   UNL A   1      48.252  30.584  27.412  1.00  0.00     0.031 C 
ATOM     59  C   UNL A   1      47.590  24.728  25.877  1.00  0.00     0.029 A 
ATOM     60  C   UNL A   1      47.316  26.014  26.322  1.00  0.00     0.049 A 
ATOM     61  H   UNL A   1      45.517  26.788  27.099  1.00  0.00     0.167 HD
ATOM     62  C   UNL A   1      47.885  28.386  26.838  1.00  0.00     0.074 A 
ATOM     63  C   UNL A   1      48.803  29.509  26.863  1.00  0.00     0.031 C 
ATOM     64  C   UNL A   1      48.199  27.153  26.365  1.00  0.00     0.031 A 
BRANCH  51  65
ATOM     65  C   UNL A   1      43.589  23.004  26.626  1.00  0.00    -0.014 A 
ATOM     66  C   UNL A   1      42.904  22.314  27.646  1.00  0.00     0.010 A 
ATOM     67  C   UNL A   1      43.857  22.333  25.419  1.00  0.00     0.010 A 
ATOM     68  C   UNL A   1      42.573  20.965  27.495  1.00  0.00     0.020 A 
ATOM     69  C   UNL A   1      43.491  20.994  25.248  1.00  0.00     0.020 A 
ATOM     70  C   UNL A   1      42.878  20.310  26.299  1.00  0.00     0.054 A 
BRANCH  70  71
ATOM     71  S   UNL A   1      42.457  18.554  26.136  1.00  0.00     0.124 S 
ATOM     72  O   UNL A   1      41.038  18.617  25.792  1.00  0.00    -0.237 OA
ATOM     73  O   UNL A   1      43.343  18.109  25.064  1.00  0.00    -0.237 OA
ATOM     74  O   UNL A   1      42.753  18.002  27.455  1.00  0.00    -0.744 OA
ENDBRANCH  70  71
ENDBRANCH  51  65
BRANCH  52  75
ATOM     75  C   UNL A   1      46.311  32.526  28.485  1.00  0.00    -0.014 A 
ATOM     76  C   UNL A   1      46.150  33.490  27.474  1.00  0.00     0.010 A 
ATOM     77  C   UNL A   1      46.784  32.934  29.746  1.00  0.00     0.010 A 
ATOM     78  C   UNL A   1      46.455  34.832  27.715  1.00  0.00     0.020 A 
ATOM     79  C   UNL A   1      47.066  34.280  30.000  1.00  0.00     0.020 A 
ATOM     80  C   UNL A   1      46.903  35.221  28.980  1.00  0.00     0.054 A 
BRANCH  80  81
ATOM     81  S   UNL A   1      47.213  36.982  29.289  1.00  0.00     0.124 S 
ATOM     82  O   UNL A   1      45.892  37.565  29.083  1.00  0.00    -0.237 OA
ATOM     83  O   UNL A   1      47.696  36.977  30.667  1.00  0.00    -0.237 OA
ATOM     84  O   UNL A   1      48.217  37.334  28.288  1.00  0.00    -0.744 OA
ENDBRANCH  80  81
ENDBRANCH  52  75
BRANCH  64  85
ATOM     85  C   UNL A   1      49.576  26.976  25.786  1.00  0.00    -0.014 A 
ATOM     86  C   UNL A   1      50.658  26.553  26.577  1.00  0.00     0.010 A 
ATOM     87  C   UNL A   1      49.771  27.196  24.410  1.00  0.00     0.010 A 
ATOM     88  C   UNL A   1      51.923  26.397  26.008  1.00  0.00     0.020 A 
ATOM     89  C   UNL A   1      51.026  27.007  23.832  1.00  0.00     0.020 A 
ATOM     90  C   UNL A   1      52.099  26.628  24.640  1.00  0.00     0.054 A 
BRANCH  90  91
ATOM     91  S   UNL A   1      53.746  26.392  23.921  1.00  0.00     0.124 S 
ATOM     92  O   UNL A   1      54.199  25.179  24.595  1.00  0.00    -0.237 OA
ATOM     93  O   UNL A   1      53.456  26.250  22.496  1.00  0.00    -0.237 OA
ATOM     94  O   UNL A   1      54.461  27.613  24.287  1.00  0.00    -0.744 OA
ENDBRANCH  90  91
ENDBRANCH  64  85
ENDBRANCH  38  39
ENDBRANCH  30  33
ENDBRANCH  28  29
ENDBRANCH   1  28
TORSDOF 16
ENDMDL
