MODEL 1
REMARK VINA RESULT:     -11.6      0.000      0.000
REMARK SMILES CC1(C)[C@H](C(=O)Nc2ccc(C(F)(F)F)nc2)[C@@H]1C(=O)NCCCNC(=O)c1ccc(-c2c3nc(c(-c4ccc(S(=O)(=O)[O-])cc4)c4ccc([nH]4)c(-c4ccc(S(=O)(=O)[O-])cc4)c4nc(c(-c5ccc(S(=O)(=O)[O-])cc5)c5ccc2[nH]5)C=C4)C=C3)cc1
REMARK SMILES IDX 23 1 22 2 21 3 19 4 20 5 18 7 1 8 2 9 3 10 4 11 5 12 6 13
REMARK SMILES IDX 7 14 8 16 9 17 17 18 10 19 16 20 11 21 12 22 13 23 14 24
REMARK SMILES IDX 15 25 24 26 25 27 26 28 27 30 28 31 29 32 87 33 30 34 86 35
REMARK SMILES IDX 31 36 32 37 33 38 80 39 34 40 85 41 79 42 81 43 35 44 84 45
REMARK SMILES IDX 78 46 77 47 36 49 66 50 47 51 65 52 48 53 51 54 64 55 82 56
REMARK SMILES IDX 49 57 50 58 63 60 83 61 52 62 37 63 38 64 46 65 39 66 45 67
REMARK SMILES IDX 40 68 41 69 42 70 43 71 44 72 67 73 68 74 76 75 69 76 75 77
REMARK SMILES IDX 70 78 71 79 72 80 73 81 74 82 53 83 54 84 62 85 55 86 61 87
REMARK SMILES IDX 56 88 57 89 58 90 59 91 60 92
REMARK H PARENT 21 6 7 15 25 29 81 48 51 59
REMARK Flexibility Score: inf
ROOT
ATOM      1  C   UNL A   1      36.315  22.253  24.643  1.00  0.00     0.042 C 
ENDROOT
BRANCH   1   2
ATOM      2  C   UNL A   1      35.566  21.153  25.366  1.00  0.00     0.117 C 
BRANCH   2   3
ATOM      3  N   UNL A   1      34.971  21.577  26.621  1.00  0.00    -0.356 N 
ATOM      4  C   UNL A   1      33.656  21.876  26.859  1.00  0.00     0.224 C 
ATOM      5  O   UNL A   1      33.273  22.174  27.986  1.00  0.00    -0.275 OA
ATOM      6  H   UNL A   1      35.582  21.659  27.389  1.00  0.00     0.163 HD
BRANCH   4   7
ATOM      7  C   UNL A   1      32.756  21.953  25.695  1.00  0.00     0.098 C 
ATOM      8  C   UNL A   1      32.405  22.793  23.256  1.00  0.00     0.013 C 
ATOM      9  C   UNL A   1      32.630  23.126  24.719  1.00  0.00    -0.011 C 
ATOM     10  C   UNL A   1      33.468  24.359  24.877  1.00  0.00     0.013 C 
ATOM     11  C   UNL A   1      31.482  22.753  25.649  1.00  0.00     0.098 C 
BRANCH  11  12
ATOM     12  C   UNL A   1      30.777  23.560  26.703  1.00  0.00     0.228 C 
ATOM     13  O   UNL A   1      30.253  22.918  27.615  1.00  0.00    -0.274 OA
ATOM     14  N   UNL A   1      30.967  24.907  26.910  1.00  0.00    -0.324 N 
ATOM     15  H   UNL A   1      31.314  25.152  27.798  1.00  0.00     0.169 HD
BRANCH  14  16
ATOM     16  C   UNL A   1      30.735  25.974  26.041  1.00  0.00     0.059 A 
ATOM     17  C   UNL A   1      29.826  25.888  25.004  1.00  0.00     0.030 A 
ATOM     18  C   UNL A   1      31.394  27.183  26.213  1.00  0.00     0.137 A 
ATOM     19  C   UNL A   1      29.795  26.889  24.037  1.00  0.00     0.035 A 
ATOM     20  N   UNL A   1      31.395  28.174  25.292  1.00  0.00    -0.250 NA
ATOM     21  C   UNL A   1      30.663  27.975  24.158  1.00  0.00     0.144 A 
BRANCH  21  22
ATOM     22  C   UNL A   1      30.810  28.933  22.984  1.00  0.00     0.433 C 
ATOM     23  F   UNL A   1      32.107  29.279  22.742  1.00  0.00    -0.165 F 
ATOM     24  F   UNL A   1      30.320  28.449  21.808  1.00  0.00    -0.165 F 
ATOM     25  F   UNL A   1      30.156  30.120  23.187  1.00  0.00    -0.165 F 
ENDBRANCH  21  22
ENDBRANCH  14  16
ENDBRANCH  11  12
ENDBRANCH   4   7
ENDBRANCH   2   3
ENDBRANCH   1   2
BRANCH   1  26
ATOM     26  C   UNL A   1      37.297  23.018  25.518  1.00  0.00     0.118 C 
BRANCH  26  27
ATOM     27  N   UNL A   1      38.542  22.301  25.771  1.00  0.00    -0.352 N 
ATOM     28  C   UNL A   1      39.733  22.730  26.311  1.00  0.00     0.251 C 
ATOM     29  H   UNL A   1      38.530  21.352  25.511  1.00  0.00     0.163 HD
ATOM     30  O   UNL A   1      40.702  21.976  26.306  1.00  0.00    -0.269 OA
BRANCH  28  31
ATOM     31  C   UNL A   1      39.853  24.100  26.853  1.00  0.00     0.039 A 
ATOM     32  C   UNL A   1      39.388  24.366  28.143  1.00  0.00     0.014 A 
ATOM     33  C   UNL A   1      40.459  25.112  26.108  1.00  0.00     0.014 A 
ATOM     34  C   UNL A   1      39.629  25.616  28.718  1.00  0.00     0.010 A 
ATOM     35  C   UNL A   1      40.809  26.305  26.724  1.00  0.00     0.010 A 
ATOM     36  C   UNL A   1      40.395  26.575  28.036  1.00  0.00    -0.014 A 
BRANCH  36  37
ATOM     37  C   UNL A   1      40.787  27.858  28.675  1.00  0.00     0.031 A 
ATOM     38  C   UNL A   1      42.154  28.015  29.288  1.00  0.00     0.074 A 
ATOM     39  C   UNL A   1      39.883  28.852  28.780  1.00  0.00     0.049 A 
ATOM     40  N   UNL A   1      42.654  29.037  29.934  1.00  0.00    -0.248 NA
ATOM     41  C   UNL A   1      43.063  26.862  29.196  1.00  0.00     0.031 C 
ATOM     42  C   UNL A   1      38.502  28.799  28.290  1.00  0.00     0.029 A 
ATOM     43  N   UNL A   1      39.985  30.100  29.342  1.00  0.00    -0.354 N 
ATOM     44  C   UNL A   1      43.920  28.638  30.346  1.00  0.00     0.074 A 
ATOM     45  C   UNL A   1      44.086  27.264  29.932  1.00  0.00     0.031 C 
ATOM     46  C   UNL A   1      37.901  29.972  28.541  1.00  0.00     0.029 A 
ATOM     47  C   UNL A   1      38.832  30.844  29.250  1.00  0.00     0.049 A 
ATOM     48  H   UNL A   1      40.806  30.433  29.771  1.00  0.00     0.167 HD
ATOM     49  C   UNL A   1      44.870  29.358  30.993  1.00  0.00     0.031 A 
ATOM     50  C   UNL A   1      38.546  32.084  29.693  1.00  0.00     0.031 A 
ATOM     51  C   UNL A   1      44.701  30.729  31.394  1.00  0.00     0.049 A 
ATOM     52  C   UNL A   1      39.616  32.872  30.395  1.00  0.00     0.074 A 
ATOM     53  C   UNL A   1      45.626  31.572  31.983  1.00  0.00     0.029 A 
ATOM     54  N   UNL A   1      43.525  31.454  31.261  1.00  0.00    -0.354 N 
ATOM     55  N   UNL A   1      40.842  32.512  30.691  1.00  0.00    -0.248 NA
ATOM     56  C   UNL A   1      39.270  34.237  30.808  1.00  0.00     0.031 C 
ATOM     57  C   UNL A   1      44.989  32.785  32.267  1.00  0.00     0.029 A 
ATOM     58  C   UNL A   1      43.689  32.723  31.789  1.00  0.00     0.049 A 
ATOM     59  H   UNL A   1      42.696  31.115  30.851  1.00  0.00     0.167 HD
ATOM     60  C   UNL A   1      41.422  33.614  31.309  1.00  0.00     0.074 A 
ATOM     61  C   UNL A   1      40.417  34.658  31.325  1.00  0.00     0.031 C 
ATOM     62  C   UNL A   1      42.674  33.747  31.815  1.00  0.00     0.031 A 
BRANCH  49  63
ATOM     63  C   UNL A   1      46.166  28.658  31.320  1.00  0.00    -0.014 A 
ATOM     64  C   UNL A   1      47.247  28.655  30.418  1.00  0.00     0.010 A 
ATOM     65  C   UNL A   1      46.307  27.996  32.553  1.00  0.00     0.010 A 
ATOM     66  C   UNL A   1      48.416  27.948  30.713  1.00  0.00     0.020 A 
ATOM     67  C   UNL A   1      47.488  27.319  32.869  1.00  0.00     0.020 A 
ATOM     68  C   UNL A   1      48.526  27.279  31.936  1.00  0.00     0.054 A 
BRANCH  68  69
ATOM     69  S   UNL A   1      50.050  26.362  32.290  1.00  0.00     0.124 S 
ATOM     70  O   UNL A   1      51.077  27.309  31.859  1.00  0.00    -0.237 OA
ATOM     71  O   UNL A   1      49.963  26.145  33.733  1.00  0.00    -0.237 OA
ATOM     72  O   UNL A   1      49.930  25.158  31.474  1.00  0.00    -0.744 OA
ENDBRANCH  68  69
ENDBRANCH  49  63
BRANCH  50  73
ATOM     73  C   UNL A   1      37.190  32.652  29.458  1.00  0.00    -0.014 A 
ATOM     74  C   UNL A   1      36.196  32.572  30.449  1.00  0.00     0.010 A 
ATOM     75  C   UNL A   1      36.906  33.333  28.259  1.00  0.00     0.010 A 
ATOM     76  C   UNL A   1      34.946  33.165  30.247  1.00  0.00     0.020 A 
ATOM     77  C   UNL A   1      35.667  33.950  28.065  1.00  0.00     0.020 A 
ATOM     78  C   UNL A   1      34.694  33.860  29.061  1.00  0.00     0.054 A 
BRANCH  78  79
ATOM     79  S   UNL A   1      33.098  34.702  28.863  1.00  0.00     0.124 S 
ATOM     80  O   UNL A   1      32.584  34.705  30.230  1.00  0.00    -0.237 OA
ATOM     81  O   UNL A   1      33.494  36.004  28.332  1.00  0.00    -0.237 OA
ATOM     82  O   UNL A   1      32.374  33.848  27.924  1.00  0.00    -0.744 OA
ENDBRANCH  78  79
ENDBRANCH  50  73
BRANCH  62  83
ATOM     83  C   UNL A   1      43.039  35.081  32.415  1.00  0.00    -0.014 A 
ATOM     84  C   UNL A   1      43.631  36.095  31.640  1.00  0.00     0.010 A 
ATOM     85  C   UNL A   1      42.734  35.340  33.764  1.00  0.00     0.010 A 
ATOM     86  C   UNL A   1      43.943  37.330  32.214  1.00  0.00     0.020 A 
ATOM     87  C   UNL A   1      43.014  36.585  34.332  1.00  0.00     0.020 A 
ATOM     88  C   UNL A   1      43.632  37.567  33.557  1.00  0.00     0.054 A 
BRANCH  88  89
ATOM     89  S   UNL A   1      44.013  39.192  34.266  1.00  0.00     0.124 S 
ATOM     90  O   UNL A   1      45.306  39.493  33.659  1.00  0.00    -0.237 OA
ATOM     91  O   UNL A   1      42.895  40.012  33.806  1.00  0.00    -0.237 OA
ATOM     92  O   UNL A   1      44.045  38.943  35.706  1.00  0.00    -0.744 OA
ENDBRANCH  88  89
ENDBRANCH  62  83
ENDBRANCH  36  37
ENDBRANCH  28  31
ENDBRANCH  26  27
ENDBRANCH   1  26
TORSDOF 16
ENDMDL
MODEL 2
REMARK VINA RESULT:     -11.6      1.337      2.062
REMARK SMILES CC1(C)[C@H](C(=O)Nc2ccc(C(F)(F)F)nc2)[C@@H]1C(=O)NCCCNC(=O)c1ccc(-c2c3nc(c(-c4ccc(S(=O)(=O)[O-])cc4)c4ccc([nH]4)c(-c4ccc(S(=O)(=O)[O-])cc4)c4nc(c(-c5ccc(S(=O)(=O)[O-])cc5)c5ccc2[nH]5)C=C4)C=C3)cc1
REMARK SMILES IDX 23 1 22 2 21 3 19 4 20 5 18 7 1 8 2 9 3 10 4 11 5 12 6 13
REMARK SMILES IDX 7 14 8 16 9 17 17 18 10 19 16 20 11 21 12 22 13 23 14 24
REMARK SMILES IDX 15 25 24 26 25 27 26 28 27 30 28 31 29 32 87 33 30 34 86 35
REMARK SMILES IDX 31 36 32 37 33 38 80 39 34 40 85 41 79 42 81 43 35 44 84 45
REMARK SMILES IDX 78 46 77 47 36 49 66 50 47 51 65 52 48 53 51 54 64 55 82 56
REMARK SMILES IDX 49 57 50 58 63 60 83 61 52 62 37 63 38 64 46 65 39 66 45 67
REMARK SMILES IDX 40 68 41 69 42 70 43 71 44 72 67 73 68 74 76 75 69 76 75 77
REMARK SMILES IDX 70 78 71 79 72 80 73 81 74 82 53 83 54 84 62 85 55 86 61 87
REMARK SMILES IDX 56 88 57 89 58 90 59 91 60 92
REMARK H PARENT 21 6 7 15 25 29 81 48 51 59
REMARK Flexibility Score: inf
ROOT
ATOM      1  C   UNL A   1      36.442  22.847  23.748  1.00  0.00     0.042 C 
ENDROOT
BRANCH   1   2
ATOM      2  C   UNL A   1      34.960  23.144  23.654  1.00  0.00     0.117 C 
BRANCH   2   3
ATOM      3  N   UNL A   1      34.279  23.131  24.937  1.00  0.00    -0.356 N 
ATOM      4  C   UNL A   1      33.627  24.171  25.543  1.00  0.00     0.224 C 
ATOM      5  O   UNL A   1      33.044  24.011  26.612  1.00  0.00    -0.275 OA
ATOM      6  H   UNL A   1      34.285  22.276  25.426  1.00  0.00     0.163 HD
BRANCH   4   7
ATOM      7  C   UNL A   1      33.766  25.506  24.935  1.00  0.00     0.098 C 
ATOM      8  C   UNL A   1      33.909  28.077  25.315  1.00  0.00     0.013 C 
ATOM      9  C   UNL A   1      33.099  26.798  25.414  1.00  0.00    -0.011 C 
ATOM     10  C   UNL A   1      32.206  26.808  26.618  1.00  0.00     0.013 C 
ATOM     11  C   UNL A   1      32.721  26.169  24.079  1.00  0.00     0.098 C 
BRANCH  11  12
ATOM     12  C   UNL A   1      31.393  25.678  23.572  1.00  0.00     0.228 C 
ATOM     13  O   UNL A   1      31.365  24.513  23.173  1.00  0.00    -0.274 OA
ATOM     14  N   UNL A   1      30.186  26.282  23.837  1.00  0.00    -0.324 N 
ATOM     15  H   UNL A   1      29.535  25.728  24.325  1.00  0.00     0.169 HD
BRANCH  14  16
ATOM     16  C   UNL A   1      29.753  27.569  23.510  1.00  0.00     0.059 A 
ATOM     17  C   UNL A   1      30.594  28.662  23.577  1.00  0.00     0.030 A 
ATOM     18  C   UNL A   1      28.456  27.788  23.069  1.00  0.00     0.137 A 
ATOM     19  C   UNL A   1      30.062  29.943  23.461  1.00  0.00     0.035 A 
ATOM     20  N   UNL A   1      27.901  29.017  22.953  1.00  0.00    -0.250 NA
ATOM     21  C   UNL A   1      28.691  30.089  23.245  1.00  0.00     0.144 A 
BRANCH  21  22
ATOM     22  C   UNL A   1      28.071  31.475  23.369  1.00  0.00     0.433 C 
ATOM     23  F   UNL A   1      27.008  31.504  24.223  1.00  0.00    -0.165 F 
ATOM     24  F   UNL A   1      28.936  32.433  23.805  1.00  0.00    -0.165 F 
ATOM     25  F   UNL A   1      27.584  31.943  22.177  1.00  0.00    -0.165 F 
ENDBRANCH  21  22
ENDBRANCH  14  16
ENDBRANCH  11  12
ENDBRANCH   4   7
ENDBRANCH   2   3
ENDBRANCH   1   2
BRANCH   1  26
ATOM     26  C   UNL A   1      37.104  23.367  25.015  1.00  0.00     0.118 C 
BRANCH  26  27
ATOM     27  N   UNL A   1      38.196  22.527  25.495  1.00  0.00    -0.352 N 
ATOM     28  C   UNL A   1      39.304  22.837  26.251  1.00  0.00     0.251 C 
ATOM     29  H   UNL A   1      38.131  21.580  25.234  1.00  0.00     0.163 HD
ATOM     30  O   UNL A   1      40.171  21.985  26.426  1.00  0.00    -0.269 OA
BRANCH  28  31
ATOM     31  C   UNL A   1      39.466  24.196  26.810  1.00  0.00     0.039 A 
ATOM     32  C   UNL A   1      39.023  24.456  28.108  1.00  0.00     0.014 A 
ATOM     33  C   UNL A   1      40.089  25.202  26.071  1.00  0.00     0.014 A 
ATOM     34  C   UNL A   1      39.302  25.691  28.697  1.00  0.00     0.010 A 
ATOM     35  C   UNL A   1      40.478  26.377  26.699  1.00  0.00     0.010 A 
ATOM     36  C   UNL A   1      40.086  26.640  28.020  1.00  0.00    -0.014 A 
BRANCH  36  37
ATOM     37  C   UNL A   1      40.519  27.903  28.671  1.00  0.00     0.031 A 
ATOM     38  C   UNL A   1      41.895  28.015  29.272  1.00  0.00     0.074 A 
ATOM     39  C   UNL A   1      39.643  28.919  28.799  1.00  0.00     0.049 A 
ATOM     40  N   UNL A   1      42.429  29.014  29.927  1.00  0.00    -0.248 NA
ATOM     41  C   UNL A   1      42.772  26.839  29.155  1.00  0.00     0.031 C 
ATOM     42  C   UNL A   1      38.256  28.910  28.323  1.00  0.00     0.029 A 
ATOM     43  N   UNL A   1      39.783  30.157  29.376  1.00  0.00    -0.354 N 
ATOM     44  C   UNL A   1      43.688  28.576  30.320  1.00  0.00     0.074 A 
ATOM     45  C   UNL A   1      43.813  27.203  29.886  1.00  0.00     0.031 C 
ATOM     46  C   UNL A   1      37.689  30.095  28.595  1.00  0.00     0.029 A 
ATOM     47  C   UNL A   1      38.650  30.932  29.306  1.00  0.00     0.049 A 
ATOM     48  H   UNL A   1      40.618  30.461  29.801  1.00  0.00     0.167 HD
ATOM     49  C   UNL A   1      44.663  29.261  30.966  1.00  0.00     0.031 A 
ATOM     50  C   UNL A   1      38.403  32.173  29.767  1.00  0.00     0.031 A 
ATOM     51  C   UNL A   1      44.535  30.631  31.388  1.00  0.00     0.049 A 
ATOM     52  C   UNL A   1      39.500  32.923  30.468  1.00  0.00     0.074 A 
ATOM     53  C   UNL A   1      45.488  31.442  31.977  1.00  0.00     0.029 A 
ATOM     54  N   UNL A   1      43.378  31.389  31.276  1.00  0.00    -0.354 N 
ATOM     55  N   UNL A   1      40.719  32.526  30.747  1.00  0.00    -0.248 NA
ATOM     56  C   UNL A   1      39.195  34.291  30.903  1.00  0.00     0.031 C 
ATOM     57  C   UNL A   1      44.887  32.667  32.284  1.00  0.00     0.029 A 
ATOM     58  C   UNL A   1      43.582  32.646  31.819  1.00  0.00     0.049 A 
ATOM     59  H   UNL A   1      42.536  31.078  30.870  1.00  0.00     0.167 HD
ATOM     60  C   UNL A   1      41.335  33.604  31.374  1.00  0.00     0.074 A 
ATOM     61  C   UNL A   1      40.358  34.674  31.414  1.00  0.00     0.031 C 
ATOM     62  C   UNL A   1      42.594  33.697  31.868  1.00  0.00     0.031 A 
BRANCH  49  63
ATOM     63  C   UNL A   1      45.943  28.523  31.271  1.00  0.00    -0.014 A 
ATOM     64  C   UNL A   1      47.015  28.502  30.358  1.00  0.00     0.010 A 
ATOM     65  C   UNL A   1      46.079  27.842  32.494  1.00  0.00     0.010 A 
ATOM     66  C   UNL A   1      48.167  27.760  30.631  1.00  0.00     0.020 A 
ATOM     67  C   UNL A   1      47.245  27.129  32.789  1.00  0.00     0.020 A 
ATOM     68  C   UNL A   1      48.271  27.073  31.844  1.00  0.00     0.054 A 
BRANCH  68  69
ATOM     69  S   UNL A   1      49.774  26.111  32.172  1.00  0.00     0.124 S 
ATOM     70  O   UNL A   1      49.235  24.937  32.854  1.00  0.00    -0.237 OA
ATOM     71  O   UNL A   1      50.297  25.871  30.829  1.00  0.00    -0.237 OA
ATOM     72  O   UNL A   1      50.581  27.000  33.002  1.00  0.00    -0.744 OA
ENDBRANCH  68  69
ENDBRANCH  49  63
BRANCH  50  73
ATOM     73  C   UNL A   1      37.060  32.780  29.554  1.00  0.00    -0.014 A 
ATOM     74  C   UNL A   1      36.106  32.796  30.586  1.00  0.00     0.010 A 
ATOM     75  C   UNL A   1      36.752  33.404  28.330  1.00  0.00     0.010 A 
ATOM     76  C   UNL A   1      34.871  33.426  30.400  1.00  0.00     0.020 A 
ATOM     77  C   UNL A   1      35.530  34.058  28.150  1.00  0.00     0.020 A 
ATOM     78  C   UNL A   1      34.596  34.063  29.187  1.00  0.00     0.054 A 
BRANCH  78  79
ATOM     79  S   UNL A   1      33.026  34.955  29.004  1.00  0.00     0.124 S 
ATOM     80  O   UNL A   1      32.489  34.906  30.361  1.00  0.00    -0.237 OA
ATOM     81  O   UNL A   1      33.464  36.270  28.542  1.00  0.00    -0.237 OA
ATOM     82  O   UNL A   1      32.297  34.166  28.014  1.00  0.00    -0.744 OA
ENDBRANCH  78  79
ENDBRANCH  50  73
BRANCH  62  83
ATOM     83  C   UNL A   1      43.001  35.013  32.482  1.00  0.00    -0.014 A 
ATOM     84  C   UNL A   1      43.654  36.002  31.726  1.00  0.00     0.010 A 
ATOM     85  C   UNL A   1      42.674  35.281  33.824  1.00  0.00     0.010 A 
ATOM     86  C   UNL A   1      44.005  37.221  32.311  1.00  0.00     0.020 A 
ATOM     87  C   UNL A   1      42.994  36.511  34.403  1.00  0.00     0.020 A 
ATOM     88  C   UNL A   1      43.671  37.468  33.648  1.00  0.00     0.054 A 
BRANCH  88  89
ATOM     89  S   UNL A   1      44.104  39.073  34.372  1.00  0.00     0.124 S 
ATOM     90  O   UNL A   1      43.002  39.917  33.920  1.00  0.00    -0.237 OA
ATOM     91  O   UNL A   1      44.129  38.782  35.803  1.00  0.00    -0.237 OA
ATOM     92  O   UNL A   1      45.406  39.379  33.782  1.00  0.00    -0.744 OA
ENDBRANCH  88  89
ENDBRANCH  62  83
ENDBRANCH  36  37
ENDBRANCH  28  31
ENDBRANCH  26  27
ENDBRANCH   1  26
TORSDOF 16
ENDMDL
MODEL 3
REMARK VINA RESULT:     -11.6      3.577      9.621
REMARK SMILES CC1(C)[C@H](C(=O)Nc2ccc(C(F)(F)F)nc2)[C@@H]1C(=O)NCCCNC(=O)c1ccc(-c2c3nc(c(-c4ccc(S(=O)(=O)[O-])cc4)c4ccc([nH]4)c(-c4ccc(S(=O)(=O)[O-])cc4)c4nc(c(-c5ccc(S(=O)(=O)[O-])cc5)c5ccc2[nH]5)C=C4)C=C3)cc1
REMARK SMILES IDX 23 1 22 2 21 3 19 4 20 5 18 7 1 8 2 9 3 10 4 11 5 12 6 13
REMARK SMILES IDX 7 14 8 16 9 17 17 18 10 19 16 20 11 21 12 22 13 23 14 24
REMARK SMILES IDX 15 25 24 26 25 27 26 28 27 30 28 31 29 32 87 33 30 34 86 35
REMARK SMILES IDX 31 36 32 37 33 38 80 39 34 40 85 41 79 42 81 43 35 44 84 45
REMARK SMILES IDX 78 46 77 47 36 49 66 50 47 51 65 52 48 53 51 54 64 55 82 56
REMARK SMILES IDX 49 57 50 58 63 60 83 61 52 62 37 63 38 64 46 65 39 66 45 67
REMARK SMILES IDX 40 68 41 69 42 70 43 71 44 72 67 73 68 74 76 75 69 76 75 77
REMARK SMILES IDX 70 78 71 79 72 80 73 81 74 82 53 83 54 84 62 85 55 86 61 87
REMARK SMILES IDX 56 88 57 89 58 90 59 91 60 92
REMARK H PARENT 21 6 7 15 25 29 81 48 51 59
REMARK Flexibility Score: inf
ROOT
ATOM      1  C   UNL A   1      32.241  28.159  27.394  1.00  0.00     0.042 C 
ENDROOT
BRANCH   1   2
ATOM      2  C   UNL A   1      31.810  27.100  26.401  1.00  0.00     0.117 C 
BRANCH   2   3
ATOM      3  N   UNL A   1      32.531  27.151  25.141  1.00  0.00    -0.356 N 
ATOM      4  C   UNL A   1      33.399  26.218  24.642  1.00  0.00     0.224 C 
ATOM      5  O   UNL A   1      33.905  26.359  23.533  1.00  0.00    -0.275 OA
ATOM      6  H   UNL A   1      32.378  27.947  24.582  1.00  0.00     0.163 HD
BRANCH   4   7
ATOM      7  C   UNL A   1      33.799  25.116  25.536  1.00  0.00     0.098 C 
ATOM      8  C   UNL A   1      35.562  23.284  26.092  1.00  0.00     0.013 C 
ATOM      9  C   UNL A   1      34.528  23.833  25.127  1.00  0.00    -0.011 C 
ATOM     10  C   UNL A   1      34.922  23.586  23.703  1.00  0.00     0.013 C 
ATOM     11  C   UNL A   1      33.090  23.792  25.632  1.00  0.00     0.098 C 
BRANCH  11  12
ATOM     12  C   UNL A   1      31.839  23.285  24.972  1.00  0.00     0.228 C 
ATOM     13  O   UNL A   1      30.845  24.007  25.071  1.00  0.00    -0.274 OA
ATOM     14  N   UNL A   1      31.807  22.300  24.012  1.00  0.00    -0.324 N 
ATOM     15  H   UNL A   1      31.447  22.574  23.138  1.00  0.00     0.169 HD
BRANCH  14  16
ATOM     16  C   UNL A   1      32.213  20.967  24.102  1.00  0.00     0.059 A 
ATOM     17  C   UNL A   1      32.735  20.439  25.267  1.00  0.00     0.030 A 
ATOM     18  C   UNL A   1      32.072  20.110  23.020  1.00  0.00     0.137 A 
ATOM     19  C   UNL A   1      33.329  19.181  25.242  1.00  0.00     0.035 A 
ATOM     20  N   UNL A   1      32.642  18.885  22.955  1.00  0.00    -0.250 NA
ATOM     21  C   UNL A   1      33.353  18.467  24.042  1.00  0.00     0.144 A 
BRANCH  21  22
ATOM     22  C   UNL A   1      34.214  17.215  23.948  1.00  0.00     0.433 C 
ATOM     23  F   UNL A   1      35.417  17.352  24.577  1.00  0.00    -0.165 F 
ATOM     24  F   UNL A   1      33.634  16.101  24.477  1.00  0.00    -0.165 F 
ATOM     25  F   UNL A   1      34.522  16.883  22.656  1.00  0.00    -0.165 F 
ENDBRANCH  21  22
ENDBRANCH  14  16
ENDBRANCH  11  12
ENDBRANCH   4   7
ENDBRANCH   2   3
ENDBRANCH   1   2
BRANCH   1  26
ATOM     26  C   UNL A   1      33.519  28.891  27.010  1.00  0.00     0.118 C 
BRANCH  26  27
ATOM     27  N   UNL A   1      33.602  30.247  27.542  1.00  0.00    -0.352 N 
ATOM     28  C   UNL A   1      34.607  30.882  28.235  1.00  0.00     0.251 C 
ATOM     29  H   UNL A   1      32.805  30.802  27.378  1.00  0.00     0.163 HD
ATOM     30  O   UNL A   1      34.403  31.998  28.704  1.00  0.00    -0.269 OA
BRANCH  28  31
ATOM     31  C   UNL A   1      35.905  30.206  28.447  1.00  0.00     0.039 A 
ATOM     32  C   UNL A   1      36.851  30.209  27.420  1.00  0.00     0.014 A 
ATOM     33  C   UNL A   1      36.205  29.606  29.669  1.00  0.00     0.014 A 
ATOM     34  C   UNL A   1      38.130  29.704  27.660  1.00  0.00     0.010 A 
ATOM     35  C   UNL A   1      37.510  29.222  29.946  1.00  0.00     0.010 A 
ATOM     36  C   UNL A   1      38.490  29.263  28.944  1.00  0.00    -0.014 A 
BRANCH  36  37
ATOM     37  C   UNL A   1      39.880  28.852  29.267  1.00  0.00     0.031 A 
ATOM     38  C   UNL A   1      40.827  29.823  29.921  1.00  0.00     0.074 A 
ATOM     39  C   UNL A   1      40.318  27.633  28.892  1.00  0.00     0.049 A 
ATOM     40  N   UNL A   1      42.089  29.664  30.229  1.00  0.00    -0.248 NA
ATOM     41  C   UNL A   1      40.298  31.160  30.238  1.00  0.00     0.031 C 
ATOM     42  C   UNL A   1      39.521  26.625  28.187  1.00  0.00     0.029 A 
ATOM     43  N   UNL A   1      41.544  27.036  29.043  1.00  0.00    -0.354 N 
ATOM     44  C   UNL A   1      42.507  30.883  30.747  1.00  0.00     0.074 A 
ATOM     45  C   UNL A   1      41.385  31.789  30.655  1.00  0.00     0.031 C 
ATOM     46  C   UNL A   1      40.267  25.525  28.000  1.00  0.00     0.029 A 
ATOM     47  C   UNL A   1      41.607  25.763  28.526  1.00  0.00     0.049 A 
ATOM     48  H   UNL A   1      42.308  27.477  29.480  1.00  0.00     0.167 HD
ATOM     49  C   UNL A   1      43.711  31.215  31.273  1.00  0.00     0.031 A 
ATOM     50  C   UNL A   1      42.627  24.885  28.470  1.00  0.00     0.031 A 
ATOM     51  C   UNL A   1      44.822  30.306  31.370  1.00  0.00     0.049 A 
ATOM     52  C   UNL A   1      43.951  25.266  29.072  1.00  0.00     0.074 A 
ATOM     53  C   UNL A   1      46.057  30.516  31.956  1.00  0.00     0.029 A 
ATOM     54  N   UNL A   1      44.836  29.017  30.856  1.00  0.00    -0.354 N 
ATOM     55  N   UNL A   1      44.300  26.392  29.645  1.00  0.00    -0.248 NA
ATOM     56  C   UNL A   1      45.012  24.252  29.033  1.00  0.00     0.031 C 
ATOM     57  C   UNL A   1      46.841  29.379  31.737  1.00  0.00     0.029 A 
ATOM     58  C   UNL A   1      46.071  28.432  31.079  1.00  0.00     0.049 A 
ATOM     59  H   UNL A   1      44.079  28.582  30.400  1.00  0.00     0.167 HD
ATOM     60  C   UNL A   1      45.617  26.217  30.054  1.00  0.00     0.074 A 
ATOM     61  C   UNL A   1      45.993  24.869  29.678  1.00  0.00     0.031 C 
ATOM     62  C   UNL A   1      46.438  27.094  30.684  1.00  0.00     0.031 A 
BRANCH  49  63
ATOM     63  C   UNL A   1      43.886  32.632  31.763  1.00  0.00    -0.014 A 
ATOM     64  C   UNL A   1      43.620  32.985  33.100  1.00  0.00     0.010 A 
ATOM     65  C   UNL A   1      44.329  33.626  30.872  1.00  0.00     0.010 A 
ATOM     66  C   UNL A   1      43.728  34.314  33.517  1.00  0.00     0.020 A 
ATOM     67  C   UNL A   1      44.475  34.951  31.295  1.00  0.00     0.020 A 
ATOM     68  C   UNL A   1      44.149  35.290  32.609  1.00  0.00     0.054 A 
BRANCH  68  69
ATOM     69  S   UNL A   1      44.272  37.009  33.175  1.00  0.00     0.124 S 
ATOM     70  O   UNL A   1      42.934  37.244  33.712  1.00  0.00    -0.237 OA
ATOM     71  O   UNL A   1      45.344  36.942  34.167  1.00  0.00    -0.237 OA
ATOM     72  O   UNL A   1      44.597  37.752  31.961  1.00  0.00    -0.744 OA
ENDBRANCH  68  69
ENDBRANCH  49  63
BRANCH  50  73
ATOM     73  C   UNL A   1      42.415  23.554  27.837  1.00  0.00    -0.014 A 
ATOM     74  C   UNL A   1      42.797  23.325  26.503  1.00  0.00     0.010 A 
ATOM     75  C   UNL A   1      41.884  22.489  28.589  1.00  0.00     0.010 A 
ATOM     76  C   UNL A   1      42.655  22.054  25.935  1.00  0.00     0.020 A 
ATOM     77  C   UNL A   1      41.767  21.212  28.032  1.00  0.00     0.020 A 
ATOM     78  C   UNL A   1      42.151  21.003  26.707  1.00  0.00     0.054 A 
BRANCH  78  79
ATOM     79  S   UNL A   1      42.067  19.344  25.977  1.00  0.00     0.124 S 
ATOM     80  O   UNL A   1      42.903  19.491  24.789  1.00  0.00    -0.237 OA
ATOM     81  O   UNL A   1      42.617  18.506  27.040  1.00  0.00    -0.237 OA
ATOM     82  O   UNL A   1      40.641  19.156  25.719  1.00  0.00    -0.744 OA
ENDBRANCH  78  79
ENDBRANCH  50  73
BRANCH  62  83
ATOM     83  C   UNL A   1      47.826  26.617  31.028  1.00  0.00    -0.014 A 
ATOM     84  C   UNL A   1      48.869  26.659  30.086  1.00  0.00     0.010 A 
ATOM     85  C   UNL A   1      48.101  26.171  32.334  1.00  0.00     0.010 A 
ATOM     86  C   UNL A   1      50.153  26.230  30.434  1.00  0.00     0.020 A 
ATOM     87  C   UNL A   1      49.390  25.772  32.694  1.00  0.00     0.020 A 
ATOM     88  C   UNL A   1      50.404  25.789  31.738  1.00  0.00     0.054 A 
BRANCH  88  89
ATOM     89  S   UNL A   1      52.087  25.273  32.173  1.00  0.00     0.124 S 
ATOM     90  O   UNL A   1      52.865  25.797  31.054  1.00  0.00    -0.237 OA
ATOM     91  O   UNL A   1      52.304  25.936  33.456  1.00  0.00    -0.237 OA
ATOM     92  O   UNL A   1      51.996  23.815  32.239  1.00  0.00    -0.744 OA
ENDBRANCH  88  89
ENDBRANCH  62  83
ENDBRANCH  36  37
ENDBRANCH  28  31
ENDBRANCH  26  27
ENDBRANCH   1  26
TORSDOF 16
ENDMDL
