MODEL 1
REMARK VINA RESULT:     -12.1      0.000      0.000
REMARK SMILES O=C(/C=C/c1cc(C(=O)Nc2ccc(F)cc2Cl)cs1)NCCCNC(=O)c1ccc(-c2c3nc(c(-c4ccc(S(=O)(=O)[O-])cc4)c4ccc([nH]4)c(-c4ccc(S(=O)(=O)[O-])cc4)c4nc(c(-c5ccc(S(=O)(=O)[O-])cc5)c5ccc2[nH]5)C=C4)C=C3)cc1
REMARK SMILES IDX 23 1 22 2 21 3 1 4 2 5 3 7 4 8 5 9 6 10 20 11 7 12 19 13
REMARK SMILES IDX 8 14 9 15 10 16 11 18 12 19 17 20 13 21 16 22 18 23 14 24
REMARK SMILES IDX 15 25 24 26 25 27 26 28 27 30 28 31 29 32 87 33 30 34 86 35
REMARK SMILES IDX 31 36 32 37 33 38 80 39 34 40 85 41 79 42 81 43 35 44 84 45
REMARK SMILES IDX 78 46 77 47 36 49 66 50 47 51 65 52 48 53 51 54 64 55 82 56
REMARK SMILES IDX 49 57 50 58 63 60 83 61 52 62 37 63 38 64 46 65 39 66 45 67
REMARK SMILES IDX 40 68 41 69 42 70 43 71 44 72 67 73 68 74 76 75 69 76 75 77
REMARK SMILES IDX 70 78 71 79 72 80 73 81 74 82 53 83 54 84 62 85 55 86 61 87
REMARK SMILES IDX 56 88 57 89 58 90 59 91 60 92
REMARK H PARENT 21 6 10 17 25 29 81 48 51 59
REMARK Flexibility Score: inf
ROOT
ATOM      1  C   UNL A   1      40.401  21.980  27.381  1.00  0.00     0.042 C 
ENDROOT
BRANCH   1   2
ATOM      2  C   UNL A   1      39.703  21.761  26.043  1.00  0.00     0.118 C 
BRANCH   2   3
ATOM      3  N   UNL A   1      38.260  21.869  26.134  1.00  0.00    -0.352 N 
ATOM      4  O   UNL A   1      38.173  24.140  25.774  1.00  0.00    -0.270 OA
ATOM      5  C   UNL A   1      37.617  23.070  25.981  1.00  0.00     0.244 C 
ATOM      6  H   UNL A   1      37.728  21.059  26.309  1.00  0.00     0.163 HD
BRANCH   5   7
ATOM      7  C   UNL A   1      36.140  22.991  25.926  1.00  0.00     0.072 C 
ATOM      8  C   UNL A   1      35.398  23.218  24.830  1.00  0.00     0.024 C 
BRANCH   8   9
ATOM      9  C   UNL A   1      33.971  23.220  24.892  1.00  0.00     0.028 A 
ATOM     10  C   UNL A   1      33.123  23.415  25.969  1.00  0.00     0.033 A 
ATOM     11  S   UNL A   1      33.038  22.990  23.465  1.00  0.00    -0.144 S 
ATOM     12  C   UNL A   1      31.761  23.684  25.595  1.00  0.00     0.051 A 
ATOM     13  C   UNL A   1      31.573  23.358  24.266  1.00  0.00     0.079 A 
BRANCH  12  14
ATOM     14  C   UNL A   1      30.683  24.162  26.464  1.00  0.00     0.256 C 
ATOM     15  O   UNL A   1      30.169  23.433  27.314  1.00  0.00    -0.269 OA
ATOM     16  N   UNL A   1      30.286  25.483  26.388  1.00  0.00    -0.321 N 
ATOM     17  H   UNL A   1      29.815  25.817  27.185  1.00  0.00     0.170 HD
BRANCH  16  18
ATOM     18  C   UNL A   1      30.444  26.434  25.355  1.00  0.00     0.060 A 
ATOM     19  C   UNL A   1      29.581  26.483  24.251  1.00  0.00     0.031 A 
ATOM     20  C   UNL A   1      31.502  27.359  25.428  1.00  0.00     0.067 A 
ATOM     21  C   UNL A   1      29.838  27.355  23.191  1.00  0.00     0.041 A 
ATOM     22  C   UNL A   1      31.763  28.225  24.366  1.00  0.00     0.062 A 
ATOM     23  Cl  UNL A   1      32.563  27.396  26.793  1.00  0.00    -0.082 Cl
ATOM     24  C   UNL A   1      30.937  28.201  23.250  1.00  0.00     0.124 A 
ATOM     25  F   UNL A   1      31.200  29.011  22.217  1.00  0.00    -0.207 F 
ENDBRANCH  16  18
ENDBRANCH  12  14
ENDBRANCH   8   9
ENDBRANCH   5   7
ENDBRANCH   2   3
ENDBRANCH   1   2
BRANCH   1  26
ATOM     26  C   UNL A   1      41.528  23.009  27.350  1.00  0.00     0.118 C 
BRANCH  26  27
ATOM     27  N   UNL A   1      41.470  23.897  26.197  1.00  0.00    -0.352 N 
ATOM     28  C   UNL A   1      41.242  25.249  26.124  1.00  0.00     0.251 C 
ATOM     29  H   UNL A   1      41.617  23.456  25.330  1.00  0.00     0.163 HD
ATOM     30  O   UNL A   1      41.132  25.771  25.017  1.00  0.00    -0.269 OA
BRANCH  28  31
ATOM     31  C   UNL A   1      41.098  26.076  27.346  1.00  0.00     0.039 A 
ATOM     32  C   UNL A   1      42.099  27.011  27.632  1.00  0.00     0.014 A 
ATOM     33  C   UNL A   1      40.022  25.923  28.225  1.00  0.00     0.014 A 
ATOM     34  C   UNL A   1      41.988  27.833  28.757  1.00  0.00     0.010 A 
ATOM     35  C   UNL A   1      39.881  26.786  29.315  1.00  0.00     0.010 A 
ATOM     36  C   UNL A   1      40.861  27.752  29.590  1.00  0.00    -0.014 A 
BRANCH  36  37
ATOM     37  C   UNL A   1      40.686  28.697  30.724  1.00  0.00     0.031 A 
ATOM     38  C   UNL A   1      41.538  28.589  31.960  1.00  0.00     0.074 A 
ATOM     39  C   UNL A   1      39.720  29.634  30.658  1.00  0.00     0.049 A 
ATOM     40  N   UNL A   1      41.517  29.327  33.041  1.00  0.00    -0.248 NA
ATOM     41  C   UNL A   1      42.527  27.500  31.994  1.00  0.00     0.031 C 
ATOM     42  C   UNL A   1      38.790  29.815  29.540  1.00  0.00     0.029 A 
ATOM     43  N   UNL A   1      39.358  30.613  31.551  1.00  0.00    -0.354 N 
ATOM     44  C   UNL A   1      42.477  28.786  33.890  1.00  0.00     0.074 A 
ATOM     45  C   UNL A   1      43.033  27.634  33.213  1.00  0.00     0.031 C 
ATOM     46  C   UNL A   1      37.986  30.858  29.801  1.00  0.00     0.029 A 
ATOM     47  C   UNL A   1      38.321  31.403  31.113  1.00  0.00     0.049 A 
ATOM     48  H   UNL A   1      39.799  30.736  32.422  1.00  0.00     0.167 HD
ATOM     49  C   UNL A   1      42.871  29.218  35.113  1.00  0.00     0.031 A 
ATOM     50  C   UNL A   1      37.709  32.451  31.697  1.00  0.00     0.031 A 
ATOM     51  C   UNL A   1      42.326  30.369  35.784  1.00  0.00     0.049 A 
ATOM     52  C   UNL A   1      38.183  32.926  33.041  1.00  0.00     0.074 A 
ATOM     53  C   UNL A   1      42.698  30.912  37.002  1.00  0.00     0.029 A 
ATOM     54  N   UNL A   1      41.294  31.155  35.297  1.00  0.00    -0.354 N 
ATOM     55  N   UNL A   1      39.135  32.438  33.799  1.00  0.00    -0.248 NA
ATOM     56  C   UNL A   1      37.509  34.107  33.599  1.00  0.00     0.031 C 
ATOM     57  C   UNL A   1      41.866  32.007  37.267  1.00  0.00     0.029 A 
ATOM     58  C   UNL A   1      41.007  32.172  36.194  1.00  0.00     0.049 A 
ATOM     59  H   UNL A   1      40.832  31.013  34.439  1.00  0.00     0.167 HD
ATOM     60  C   UNL A   1      39.190  33.267  34.913  1.00  0.00     0.074 A 
ATOM     61  C   UNL A   1      38.187  34.295  34.723  1.00  0.00     0.031 C 
ATOM     62  C   UNL A   1      40.001  33.184  35.998  1.00  0.00     0.031 A 
BRANCH  49  63
ATOM     63  C   UNL A   1      43.951  28.431  35.808  1.00  0.00    -0.014 A 
ATOM     64  C   UNL A   1      43.631  27.356  36.656  1.00  0.00     0.010 A 
ATOM     65  C   UNL A   1      45.303  28.747  35.584  1.00  0.00     0.010 A 
ATOM     66  C   UNL A   1      44.642  26.638  37.302  1.00  0.00     0.020 A 
ATOM     67  C   UNL A   1      46.318  28.016  36.209  1.00  0.00     0.020 A 
ATOM     68  C   UNL A   1      45.979  26.977  37.079  1.00  0.00     0.054 A 
BRANCH  68  69
ATOM     69  S   UNL A   1      47.273  26.023  37.920  1.00  0.00     0.124 S 
ATOM     70  O   UNL A   1      47.929  27.051  38.724  1.00  0.00    -0.237 OA
ATOM     71  O   UNL A   1      46.507  25.032  38.671  1.00  0.00    -0.237 OA
ATOM     72  O   UNL A   1      48.074  25.485  36.822  1.00  0.00    -0.744 OA
ENDBRANCH  68  69
ENDBRANCH  49  63
BRANCH  50  73
ATOM     73  C   UNL A   1      36.602  33.146  30.990  1.00  0.00    -0.014 A 
ATOM     74  C   UNL A   1      35.311  33.173  31.545  1.00  0.00     0.010 A 
ATOM     75  C   UNL A   1      36.838  33.803  29.768  1.00  0.00     0.010 A 
ATOM     76  C   UNL A   1      34.270  33.831  30.883  1.00  0.00     0.020 A 
ATOM     77  C   UNL A   1      35.805  34.482  29.117  1.00  0.00     0.020 A 
ATOM     78  C   UNL A   1      34.524  34.482  29.674  1.00  0.00     0.054 A 
BRANCH  78  79
ATOM     79  S   UNL A   1      33.174  35.383  28.861  1.00  0.00     0.124 S 
ATOM     80  O   UNL A   1      32.523  34.326  28.095  1.00  0.00    -0.237 OA
ATOM     81  O   UNL A   1      32.414  35.906  29.994  1.00  0.00    -0.237 OA
ATOM     82  O   UNL A   1      33.871  36.395  28.071  1.00  0.00    -0.744 OA
ENDBRANCH  78  79
ENDBRANCH  50  73
BRANCH  62  83
ATOM     83  C   UNL A   1      39.854  34.254  37.045  1.00  0.00    -0.014 A 
ATOM     84  C   UNL A   1      40.467  35.510  36.895  1.00  0.00     0.010 A 
ATOM     85  C   UNL A   1      39.077  34.001  38.191  1.00  0.00     0.010 A 
ATOM     86  C   UNL A   1      40.345  36.479  37.895  1.00  0.00     0.020 A 
ATOM     87  C   UNL A   1      38.934  34.976  39.181  1.00  0.00     0.020 A 
ATOM     88  C   UNL A   1      39.586  36.202  39.036  1.00  0.00     0.054 A 
BRANCH  88  89
ATOM     89  S   UNL A   1      39.429  37.477  40.318  1.00  0.00     0.124 S 
ATOM     90  O   UNL A   1      38.721  36.758  41.373  1.00  0.00    -0.237 OA
ATOM     91  O   UNL A   1      40.820  37.813  40.612  1.00  0.00    -0.237 OA
ATOM     92  O   UNL A   1      38.665  38.535  39.661  1.00  0.00    -0.744 OA
ENDBRANCH  88  89
ENDBRANCH  62  83
ENDBRANCH  36  37
ENDBRANCH  28  31
ENDBRANCH  26  27
ENDBRANCH   1  26
TORSDOF 16
ENDMDL
MODEL 2
REMARK VINA RESULT:     -12.0      6.385     12.068
REMARK SMILES O=C(/C=C/c1cc(C(=O)Nc2ccc(F)cc2Cl)cs1)NCCCNC(=O)c1ccc(-c2c3nc(c(-c4ccc(S(=O)(=O)[O-])cc4)c4ccc([nH]4)c(-c4ccc(S(=O)(=O)[O-])cc4)c4nc(c(-c5ccc(S(=O)(=O)[O-])cc5)c5ccc2[nH]5)C=C4)C=C3)cc1
REMARK SMILES IDX 23 1 22 2 21 3 1 4 2 5 3 7 4 8 5 9 6 10 20 11 7 12 19 13
REMARK SMILES IDX 8 14 9 15 10 16 11 18 12 19 17 20 13 21 16 22 18 23 14 24
REMARK SMILES IDX 15 25 24 26 25 27 26 28 27 30 28 31 29 32 87 33 30 34 86 35
REMARK SMILES IDX 31 36 32 37 33 38 80 39 34 40 85 41 79 42 81 43 35 44 84 45
REMARK SMILES IDX 78 46 77 47 36 49 66 50 47 51 65 52 48 53 51 54 64 55 82 56
REMARK SMILES IDX 49 57 50 58 63 60 83 61 52 62 37 63 38 64 46 65 39 66 45 67
REMARK SMILES IDX 40 68 41 69 42 70 43 71 44 72 67 73 68 74 76 75 69 76 75 77
REMARK SMILES IDX 70 78 71 79 72 80 73 81 74 82 53 83 54 84 62 85 55 86 61 87
REMARK SMILES IDX 56 88 57 89 58 90 59 91 60 92
REMARK H PARENT 21 6 10 17 25 29 81 48 51 59
REMARK Flexibility Score: inf
ROOT
ATOM      1  C   UNL A   1      35.405  32.641  27.994  1.00  0.00     0.042 C 
ENDROOT
BRANCH   1   2
ATOM      2  C   UNL A   1      34.065  31.917  28.061  1.00  0.00     0.118 C 
BRANCH   2   3
ATOM      3  N   UNL A   1      33.842  31.034  26.933  1.00  0.00    -0.352 N 
ATOM      4  O   UNL A   1      34.758  29.166  27.916  1.00  0.00    -0.270 OA
ATOM      5  C   UNL A   1      34.210  29.714  26.969  1.00  0.00     0.244 C 
ATOM      6  H   UNL A   1      33.416  31.390  26.120  1.00  0.00     0.163 HD
BRANCH   5   7
ATOM      7  C   UNL A   1      33.762  28.903  25.815  1.00  0.00     0.072 C 
ATOM      8  C   UNL A   1      33.099  29.384  24.750  1.00  0.00     0.024 C 
BRANCH   8   9
ATOM      9  C   UNL A   1      32.615  28.512  23.728  1.00  0.00     0.028 A 
ATOM     10  C   UNL A   1      33.292  27.603  22.932  1.00  0.00     0.033 A 
ATOM     11  S   UNL A   1      30.937  28.460  23.351  1.00  0.00    -0.144 S 
ATOM     12  C   UNL A   1      32.434  26.667  22.258  1.00  0.00     0.051 A 
ATOM     13  C   UNL A   1      31.128  27.113  22.315  1.00  0.00     0.079 A 
BRANCH  12  14
ATOM     14  C   UNL A   1      32.836  25.452  21.545  1.00  0.00     0.256 C 
ATOM     15  O   UNL A   1      33.059  25.460  20.334  1.00  0.00    -0.269 OA
ATOM     16  N   UNL A   1      33.050  24.288  22.257  1.00  0.00    -0.321 N 
ATOM     17  H   UNL A   1      33.614  23.624  21.798  1.00  0.00     0.170 HD
BRANCH  16  18
ATOM     18  C   UNL A   1      32.593  23.892  23.533  1.00  0.00     0.060 A 
ATOM     19  C   UNL A   1      31.287  23.425  23.744  1.00  0.00     0.031 A 
ATOM     20  C   UNL A   1      33.468  23.973  24.633  1.00  0.00     0.067 A 
ATOM     21  C   UNL A   1      30.832  23.157  25.037  1.00  0.00     0.041 A 
ATOM     22  C   UNL A   1      33.011  23.713  25.925  1.00  0.00     0.062 A 
ATOM     23  Cl  UNL A   1      35.109  24.479  24.432  1.00  0.00    -0.082 Cl
ATOM     24  C   UNL A   1      31.692  23.324  26.115  1.00  0.00     0.124 A 
ATOM     25  F   UNL A   1      31.242  23.101  27.356  1.00  0.00    -0.207 F 
ENDBRANCH  16  18
ENDBRANCH  12  14
ENDBRANCH   8   9
ENDBRANCH   5   7
ENDBRANCH   2   3
ENDBRANCH   1   2
BRANCH   1  26
ATOM     26  C   UNL A   1      36.239  32.556  29.270  1.00  0.00     0.118 C 
BRANCH  26  27
ATOM     27  N   UNL A   1      35.853  31.456  30.141  1.00  0.00    -0.352 N 
ATOM     28  C   UNL A   1      36.511  30.290  30.450  1.00  0.00     0.251 C 
ATOM     29  H   UNL A   1      34.978  31.564  30.579  1.00  0.00     0.163 HD
ATOM     30  O   UNL A   1      35.933  29.450  31.137  1.00  0.00    -0.269 OA
BRANCH  28  31
ATOM     31  C   UNL A   1      37.879  30.020  29.950  1.00  0.00     0.039 A 
ATOM     32  C   UNL A   1      38.915  29.913  30.885  1.00  0.00     0.014 A 
ATOM     33  C   UNL A   1      38.164  29.904  28.586  1.00  0.00     0.014 A 
ATOM     34  C   UNL A   1      40.215  29.627  30.460  1.00  0.00     0.010 A 
ATOM     35  C   UNL A   1      39.451  29.559  28.167  1.00  0.00     0.010 A 
ATOM     36  C   UNL A   1      40.489  29.413  29.099  1.00  0.00    -0.014 A 
BRANCH  36  37
ATOM     37  C   UNL A   1      41.846  29.002  28.654  1.00  0.00     0.031 A 
ATOM     38  C   UNL A   1      42.970  30.000  28.577  1.00  0.00     0.074 A 
ATOM     39  C   UNL A   1      42.057  27.727  28.273  1.00  0.00     0.049 A 
ATOM     40  N   UNL A   1      44.213  29.813  28.208  1.00  0.00    -0.248 NA
ATOM     41  C   UNL A   1      42.655  31.389  28.942  1.00  0.00     0.031 C 
ATOM     42  C   UNL A   1      41.042  26.671  28.249  1.00  0.00     0.029 A 
ATOM     43  N   UNL A   1      43.196  27.100  27.832  1.00  0.00    -0.354 N 
ATOM     44  C   UNL A   1      44.824  31.060  28.282  1.00  0.00     0.074 A 
ATOM     45  C   UNL A   1      43.804  32.002  28.694  1.00  0.00     0.031 C 
ATOM     46  C   UNL A   1      41.610  25.523  27.846  1.00  0.00     0.029 A 
ATOM     47  C   UNL A   1      43.019  25.765  27.553  1.00  0.00     0.049 A 
ATOM     48  H   UNL A   1      44.058  27.563  27.723  1.00  0.00     0.167 HD
ATOM     49  C   UNL A   1      46.118  31.389  28.047  1.00  0.00     0.031 A 
ATOM     50  C   UNL A   1      43.891  24.836  27.117  1.00  0.00     0.031 A 
ATOM     51  C   UNL A   1      47.135  30.452  27.647  1.00  0.00     0.049 A 
ATOM     52  C   UNL A   1      45.325  25.220  26.889  1.00  0.00     0.074 A 
ATOM     53  C   UNL A   1      48.484  30.685  27.435  1.00  0.00     0.029 A 
ATOM     54  N   UNL A   1      46.920  29.106  27.399  1.00  0.00    -0.354 N 
ATOM     55  N   UNL A   1      45.896  26.392  27.026  1.00  0.00    -0.248 NA
ATOM     56  C   UNL A   1      46.237  24.148  26.465  1.00  0.00     0.031 C 
ATOM     57  C   UNL A   1      49.077  29.484  27.025  1.00  0.00     0.029 A 
ATOM     58  C   UNL A   1      48.106  28.496  27.025  1.00  0.00     0.049 A 
ATOM     59  H   UNL A   1      46.051  28.649  27.478  1.00  0.00     0.167 HD
ATOM     60  C   UNL A   1      47.238  26.194  26.727  1.00  0.00     0.074 A 
ATOM     61  C   UNL A   1      47.397  24.787  26.418  1.00  0.00     0.031 C 
ATOM     62  C   UNL A   1      48.250  27.097  26.711  1.00  0.00     0.031 A 
BRANCH  49  63
ATOM     63  C   UNL A   1      46.504  32.835  28.215  1.00  0.00    -0.014 A 
ATOM     64  C   UNL A   1      46.550  33.705  27.111  1.00  0.00     0.010 A 
ATOM     65  C   UNL A   1      46.790  33.339  29.496  1.00  0.00     0.010 A 
ATOM     66  C   UNL A   1      46.918  35.042  27.278  1.00  0.00     0.020 A 
ATOM     67  C   UNL A   1      47.135  34.683  29.672  1.00  0.00     0.020 A 
ATOM     68  C   UNL A   1      47.215  35.522  28.557  1.00  0.00     0.054 A 
BRANCH  68  69
ATOM     69  S   UNL A   1      47.678  37.265  28.750  1.00  0.00     0.124 S 
ATOM     70  O   UNL A   1      46.422  37.945  28.447  1.00  0.00    -0.237 OA
ATOM     71  O   UNL A   1      48.108  37.333  30.145  1.00  0.00    -0.237 OA
ATOM     72  O   UNL A   1      48.742  37.451  27.766  1.00  0.00    -0.744 OA
ENDBRANCH  68  69
ENDBRANCH  49  63
BRANCH  50  73
ATOM     73  C   UNL A   1      43.433  23.437  26.904  1.00  0.00    -0.014 A 
ATOM     74  C   UNL A   1      43.157  22.971  25.607  1.00  0.00     0.010 A 
ATOM     75  C   UNL A   1      43.293  22.560  27.994  1.00  0.00     0.010 A 
ATOM     76  C   UNL A   1      42.732  21.654  25.405  1.00  0.00     0.020 A 
ATOM     77  C   UNL A   1      42.892  21.237  27.792  1.00  0.00     0.020 A 
ATOM     78  C   UNL A   1      42.604  20.795  26.499  1.00  0.00     0.054 A 
BRANCH  78  79
ATOM     79  S   UNL A   1      42.110  19.073  26.210  1.00  0.00     0.124 S 
ATOM     80  O   UNL A   1      43.041  18.663  25.164  1.00  0.00    -0.237 OA
ATOM     81  O   UNL A   1      42.319  18.459  27.520  1.00  0.00    -0.237 OA
ATOM     82  O   UNL A   1      40.712  19.185  25.801  1.00  0.00    -0.744 OA
ENDBRANCH  78  79
ENDBRANCH  50  73
BRANCH  62  83
ATOM     83  C   UNL A   1      49.623  26.581  26.377  1.00  0.00    -0.014 A 
ATOM     84  C   UNL A   1      50.134  26.662  25.070  1.00  0.00     0.010 A 
ATOM     85  C   UNL A   1      50.419  26.018  27.392  1.00  0.00     0.010 A 
ATOM     86  C   UNL A   1      51.399  26.146  24.773  1.00  0.00     0.020 A 
ATOM     87  C   UNL A   1      51.693  25.523  27.103  1.00  0.00     0.020 A 
ATOM     88  C   UNL A   1      52.167  25.572  25.790  1.00  0.00     0.054 A 
BRANCH  88  89
ATOM     89  S   UNL A   1      53.811  24.918  25.388  1.00  0.00     0.124 S 
ATOM     90  O   UNL A   1      54.171  25.708  24.214  1.00  0.00    -0.237 OA
ATOM     91  O   UNL A   1      54.578  25.206  26.598  1.00  0.00    -0.237 OA
ATOM     92  O   UNL A   1      53.566  23.500  25.137  1.00  0.00    -0.744 OA
ENDBRANCH  88  89
ENDBRANCH  62  83
ENDBRANCH  36  37
ENDBRANCH  28  31
ENDBRANCH  26  27
ENDBRANCH   1  26
TORSDOF 16
ENDMDL
MODEL 3
REMARK VINA RESULT:     -12.0      1.509      1.956
REMARK SMILES O=C(/C=C/c1cc(C(=O)Nc2ccc(F)cc2Cl)cs1)NCCCNC(=O)c1ccc(-c2c3nc(c(-c4ccc(S(=O)(=O)[O-])cc4)c4ccc([nH]4)c(-c4ccc(S(=O)(=O)[O-])cc4)c4nc(c(-c5ccc(S(=O)(=O)[O-])cc5)c5ccc2[nH]5)C=C4)C=C3)cc1
REMARK SMILES IDX 23 1 22 2 21 3 1 4 2 5 3 7 4 8 5 9 6 10 20 11 7 12 19 13
REMARK SMILES IDX 8 14 9 15 10 16 11 18 12 19 17 20 13 21 16 22 18 23 14 24
REMARK SMILES IDX 15 25 24 26 25 27 26 28 27 30 28 31 29 32 87 33 30 34 86 35
REMARK SMILES IDX 31 36 32 37 33 38 80 39 34 40 85 41 79 42 81 43 35 44 84 45
REMARK SMILES IDX 78 46 77 47 36 49 66 50 47 51 65 52 48 53 51 54 64 55 82 56
REMARK SMILES IDX 49 57 50 58 63 60 83 61 52 62 37 63 38 64 46 65 39 66 45 67
REMARK SMILES IDX 40 68 41 69 42 70 43 71 44 72 67 73 68 74 76 75 69 76 75 77
REMARK SMILES IDX 70 78 71 79 72 80 73 81 74 82 53 83 54 84 62 85 55 86 61 87
REMARK SMILES IDX 56 88 57 89 58 90 59 91 60 92
REMARK H PARENT 21 6 10 17 25 29 81 48 51 59
REMARK Flexibility Score: inf
ROOT
ATOM      1  C   UNL A   1      40.626  22.396  27.604  1.00  0.00     0.042 C 
ENDROOT
BRANCH   1   2
ATOM      2  C   UNL A   1      40.036  21.529  26.496  1.00  0.00     0.118 C 
BRANCH   2   3
ATOM      3  N   UNL A   1      38.965  22.187  25.773  1.00  0.00    -0.352 N 
ATOM      4  O   UNL A   1      37.993  20.255  24.987  1.00  0.00    -0.270 OA
ATOM      5  C   UNL A   1      38.022  21.475  25.079  1.00  0.00     0.244 C 
ATOM      6  H   UNL A   1      38.914  23.170  25.781  1.00  0.00     0.163 HD
BRANCH   5   7
ATOM      7  C   UNL A   1      36.899  22.275  24.541  1.00  0.00     0.072 C 
ATOM      8  C   UNL A   1      35.696  22.402  25.125  1.00  0.00     0.024 C 
BRANCH   8   9
ATOM      9  C   UNL A   1      34.636  23.111  24.484  1.00  0.00     0.028 A 
ATOM     10  C   UNL A   1      34.558  24.434  24.084  1.00  0.00     0.033 A 
ATOM     11  S   UNL A   1      33.181  22.300  24.055  1.00  0.00    -0.144 S 
ATOM     12  C   UNL A   1      33.478  24.705  23.174  1.00  0.00     0.051 A 
ATOM     13  C   UNL A   1      32.591  23.647  23.182  1.00  0.00     0.079 A 
BRANCH  12  14
ATOM     14  C   UNL A   1      33.266  25.925  22.390  1.00  0.00     0.256 C 
ATOM     15  O   UNL A   1      33.588  25.991  21.203  1.00  0.00    -0.269 OA
ATOM     16  N   UNL A   1      32.618  26.997  22.969  1.00  0.00    -0.321 N 
ATOM     17  H   UNL A   1      32.224  27.633  22.329  1.00  0.00     0.170 HD
BRANCH  16  18
ATOM     18  C   UNL A   1      32.426  27.335  24.327  1.00  0.00     0.060 A 
ATOM     19  C   UNL A   1      33.424  27.964  25.086  1.00  0.00     0.031 A 
ATOM     20  C   UNL A   1      31.201  27.025  24.946  1.00  0.00     0.067 A 
ATOM     21  C   UNL A   1      33.246  28.172  26.455  1.00  0.00     0.041 A 
ATOM     22  C   UNL A   1      31.026  27.226  26.316  1.00  0.00     0.062 A 
ATOM     23  Cl  UNL A   1      29.906  26.308  24.053  1.00  0.00    -0.082 Cl
ATOM     24  C   UNL A   1      32.058  27.782  27.059  1.00  0.00     0.124 A 
ATOM     25  F   UNL A   1      31.905  27.952  28.378  1.00  0.00    -0.207 F 
ENDBRANCH  16  18
ENDBRANCH  12  14
ENDBRANCH   8   9
ENDBRANCH   5   7
ENDBRANCH   2   3
ENDBRANCH   1   2
BRANCH   1  26
ATOM     26  C   UNL A   1      41.986  23.008  27.278  1.00  0.00     0.118 C 
BRANCH  26  27
ATOM     27  N   UNL A   1      41.956  23.907  26.133  1.00  0.00    -0.352 N 
ATOM     28  C   UNL A   1      41.716  25.258  26.066  1.00  0.00     0.251 C 
ATOM     29  H   UNL A   1      42.137  23.477  25.266  1.00  0.00     0.163 HD
ATOM     30  O   UNL A   1      41.637  25.790  24.961  1.00  0.00    -0.269 OA
BRANCH  28  31
ATOM     31  C   UNL A   1      41.523  26.070  27.291  1.00  0.00     0.039 A 
ATOM     32  C   UNL A   1      42.521  26.987  27.639  1.00  0.00     0.014 A 
ATOM     33  C   UNL A   1      40.404  25.921  28.114  1.00  0.00     0.014 A 
ATOM     34  C   UNL A   1      42.366  27.796  28.768  1.00  0.00     0.010 A 
ATOM     35  C   UNL A   1      40.221  26.771  29.208  1.00  0.00     0.010 A 
ATOM     36  C   UNL A   1      41.198  27.719  29.544  1.00  0.00    -0.014 A 
BRANCH  36  37
ATOM     37  C   UNL A   1      40.980  28.651  30.681  1.00  0.00     0.031 A 
ATOM     38  C   UNL A   1      41.815  28.557  31.930  1.00  0.00     0.074 A 
ATOM     39  C   UNL A   1      39.990  29.563  30.606  1.00  0.00     0.049 A 
ATOM     40  N   UNL A   1      41.757  29.287  33.015  1.00  0.00    -0.248 NA
ATOM     41  C   UNL A   1      42.832  27.496  31.973  1.00  0.00     0.031 C 
ATOM     42  C   UNL A   1      39.074  29.727  29.475  1.00  0.00     0.029 A 
ATOM     43  N   UNL A   1      39.589  30.526  31.499  1.00  0.00    -0.354 N 
ATOM     44  C   UNL A   1      42.717  28.767  33.876  1.00  0.00     0.074 A 
ATOM     45  C   UNL A   1      43.315  27.634  33.200  1.00  0.00     0.031 C 
ATOM     46  C   UNL A   1      38.238  30.746  29.730  1.00  0.00     0.029 A 
ATOM     47  C   UNL A   1      38.538  31.291  31.050  1.00  0.00     0.049 A 
ATOM     48  H   UNL A   1      40.012  30.655  32.378  1.00  0.00     0.167 HD
ATOM     49  C   UNL A   1      43.081  29.200  35.108  1.00  0.00     0.031 A 
ATOM     50  C   UNL A   1      37.889  32.318  31.630  1.00  0.00     0.031 A 
ATOM     51  C   UNL A   1      42.494  30.331  35.777  1.00  0.00     0.049 A 
ATOM     52  C   UNL A   1      38.328  32.797  32.985  1.00  0.00     0.074 A 
ATOM     53  C   UNL A   1      42.833  30.876  37.005  1.00  0.00     0.029 A 
ATOM     54  N   UNL A   1      41.449  31.093  35.279  1.00  0.00    -0.354 N 
ATOM     55  N   UNL A   1      39.281  32.329  33.755  1.00  0.00    -0.248 NA
ATOM     56  C   UNL A   1      37.614  33.955  33.540  1.00  0.00     0.031 C 
ATOM     57  C   UNL A   1      41.968  31.946  37.264  1.00  0.00     0.029 A 
ATOM     58  C   UNL A   1      41.121  32.096  36.178  1.00  0.00     0.049 A 
ATOM     59  H   UNL A   1      41.005  30.945  34.413  1.00  0.00     0.167 HD
ATOM     60  C   UNL A   1      39.296  33.151  34.876  1.00  0.00     0.074 A 
ATOM     61  C   UNL A   1      38.269  34.153  34.676  1.00  0.00     0.031 C 
ATOM     62  C   UNL A   1      40.092  33.082  35.972  1.00  0.00     0.031 A 
BRANCH  49  63
ATOM     63  C   UNL A   1      44.170  28.437  35.815  1.00  0.00    -0.014 A 
ATOM     64  C   UNL A   1      43.862  27.375  36.684  1.00  0.00     0.010 A 
ATOM     65  C   UNL A   1      45.518  28.763  35.581  1.00  0.00     0.010 A 
ATOM     66  C   UNL A   1      44.882  26.680  37.340  1.00  0.00     0.020 A 
ATOM     67  C   UNL A   1      46.542  28.054  36.218  1.00  0.00     0.020 A 
ATOM     68  C   UNL A   1      46.216  27.028  37.108  1.00  0.00     0.054 A 
BRANCH  68  69
ATOM     69  S   UNL A   1      47.521  26.103  37.964  1.00  0.00     0.124 S 
ATOM     70  O   UNL A   1      46.745  25.243  38.853  1.00  0.00    -0.237 OA
ATOM     71  O   UNL A   1      48.204  25.421  36.868  1.00  0.00    -0.237 OA
ATOM     72  O   UNL A   1      48.303  27.144  38.628  1.00  0.00    -0.744 OA
ENDBRANCH  68  69
ENDBRANCH  49  63
BRANCH  50  73
ATOM     73  C   UNL A   1      36.774  32.988  30.910  1.00  0.00    -0.014 A 
ATOM     74  C   UNL A   1      37.044  33.922  29.895  1.00  0.00     0.010 A 
ATOM     75  C   UNL A   1      35.438  32.679  31.222  1.00  0.00     0.010 A 
ATOM     76  C   UNL A   1      35.996  34.549  29.214  1.00  0.00     0.020 A 
ATOM     77  C   UNL A   1      34.389  33.286  30.527  1.00  0.00     0.020 A 
ATOM     78  C   UNL A   1      34.675  34.226  29.534  1.00  0.00     0.054 A 
BRANCH  78  79
ATOM     79  S   UNL A   1      33.329  35.003  28.597  1.00  0.00     0.124 S 
ATOM     80  O   UNL A   1      34.054  35.951  27.756  1.00  0.00    -0.237 OA
ATOM     81  O   UNL A   1      32.730  33.868  27.900  1.00  0.00    -0.237 OA
ATOM     82  O   UNL A   1      32.492  35.597  29.636  1.00  0.00    -0.744 OA
ENDBRANCH  78  79
ENDBRANCH  50  73
BRANCH  62  83
ATOM     83  C   UNL A   1      39.899  34.140  37.024  1.00  0.00    -0.014 A 
ATOM     84  C   UNL A   1      40.503  35.405  36.905  1.00  0.00     0.010 A 
ATOM     85  C   UNL A   1      39.090  33.869  38.142  1.00  0.00     0.010 A 
ATOM     86  C   UNL A   1      40.339  36.362  37.909  1.00  0.00     0.020 A 
ATOM     87  C   UNL A   1      38.904  34.832  39.136  1.00  0.00     0.020 A 
ATOM     88  C   UNL A   1      39.547  36.067  39.023  1.00  0.00     0.054 A 
BRANCH  88  89
ATOM     89  S   UNL A   1      39.335  37.328  40.311  1.00  0.00     0.124 S 
ATOM     90  O   UNL A   1      38.605  36.590  41.338  1.00  0.00    -0.237 OA
ATOM     91  O   UNL A   1      40.713  37.679  40.650  1.00  0.00    -0.237 OA
ATOM     92  O   UNL A   1      38.578  38.382  39.640  1.00  0.00    -0.744 OA
ENDBRANCH  88  89
ENDBRANCH  62  83
ENDBRANCH  36  37
ENDBRANCH  28  31
ENDBRANCH  26  27
ENDBRANCH   1  26
TORSDOF 16
ENDMDL
