MODEL 1
REMARK VINA RESULT:     -11.2      0.000      0.000
REMARK SMILES O=C(NCCCNC(=O)[C@H]1CCCN1S(=O)(=O)c1cccc([N+](=O)[O-])c1)c1ccc(-c2c3nc(c(-c4ccc(S(=O)(=O)[O-])cc4)c4ccc([nH]4)c(-c4ccc(S(=O)(=O)[O-])cc4)c4nc(c(-c5ccc(S(=O)(=O)[O-])cc5)c5ccc2[nH]5)C=C4)C=C3)cc1
REMARK SMILES IDX 5 1 4 2 3 3 1 4 2 5 27 7 28 8 86 9 29 10 85 11 30 12 31 13
REMARK SMILES IDX 32 14 79 15 33 16 84 17 78 18 80 19 34 20 83 21 77 22 76 23
REMARK SMILES IDX 35 25 65 26 46 27 64 28 47 29 50 30 63 31 81 32 48 33 49 34
REMARK SMILES IDX 62 36 82 37 51 38 36 39 37 40 45 41 38 42 44 43 39 44 40 45
REMARK SMILES IDX 41 46 42 47 43 48 66 49 67 50 75 51 68 52 74 53 69 54 70 55
REMARK SMILES IDX 71 56 72 57 73 58 52 59 53 60 61 61 54 62 60 63 55 64 56 65
REMARK SMILES IDX 57 66 58 67 59 68 6 69 7 70 8 71 9 73 10 74 11 75 14 76
REMARK SMILES IDX 12 77 13 78 15 79 16 80 17 81 18 82 19 83 26 84 20 85 22 86
REMARK SMILES IDX 21 87 23 88 24 89 25 90
REMARK H PARENT 3 6 80 24 50 35 7 72
REMARK Flexibility Score: inf
ROOT
ATOM      1  C   UNL A   1      32.091  27.976  27.770  1.00  0.00     0.042 C 
ENDROOT
BRANCH   1   2
ATOM      2  C   UNL A   1      33.385  28.625  27.290  1.00  0.00     0.118 C 
BRANCH   2   3
ATOM      3  N   UNL A   1      33.397  30.061  27.536  1.00  0.00    -0.352 N 
ATOM      4  O   UNL A   1      34.093  31.999  28.428  1.00  0.00    -0.269 OA
ATOM      5  C   UNL A   1      34.368  30.847  28.104  1.00  0.00     0.251 C 
ATOM      6  H   UNL A   1      32.584  30.539  27.253  1.00  0.00     0.163 HD
BRANCH   5   7
ATOM      7  C   UNL A   1      35.731  30.318  28.324  1.00  0.00     0.039 A 
ATOM      8  C   UNL A   1      36.714  30.436  27.338  1.00  0.00     0.014 A 
ATOM      9  C   UNL A   1      36.050  29.768  29.570  1.00  0.00     0.014 A 
ATOM     10  C   UNL A   1      37.988  29.923  27.562  1.00  0.00     0.010 A 
ATOM     11  C   UNL A   1      37.349  29.318  29.819  1.00  0.00     0.010 A 
ATOM     12  C   UNL A   1      38.327  29.389  28.814  1.00  0.00    -0.014 A 
BRANCH  12  13
ATOM     13  C   UNL A   1      39.738  29.035  29.096  1.00  0.00     0.031 A 
ATOM     14  C   UNL A   1      40.304  27.700  28.705  1.00  0.00     0.074 A 
ATOM     15  C   UNL A   1      40.506  29.944  29.732  1.00  0.00     0.049 A 
ATOM     16  N   UNL A   1      41.516  27.242  28.889  1.00  0.00    -0.248 NA
ATOM     17  C   UNL A   1      39.402  26.756  28.027  1.00  0.00     0.031 C 
ATOM     18  C   UNL A   1      40.050  31.264  30.182  1.00  0.00     0.029 A 
ATOM     19  N   UNL A   1      41.823  29.905  30.107  1.00  0.00    -0.354 N 
ATOM     20  C   UNL A   1      41.519  25.953  28.373  1.00  0.00     0.074 A 
ATOM     21  C   UNL A   1      40.185  25.694  27.874  1.00  0.00     0.031 C 
ATOM     22  C   UNL A   1      41.074  31.914  30.752  1.00  0.00     0.029 A 
ATOM     23  C   UNL A   1      42.242  31.042  30.758  1.00  0.00     0.049 A 
ATOM     24  H   UNL A   1      42.413  29.138  29.927  1.00  0.00     0.167 HD
ATOM     25  C   UNL A   1      42.544  25.069  28.324  1.00  0.00     0.031 A 
ATOM     26  C   UNL A   1      43.424  31.340  31.328  1.00  0.00     0.031 A 
ATOM     27  C   UNL A   1      43.871  25.342  28.811  1.00  0.00     0.049 A 
ATOM     28  C   UNL A   1      44.529  30.328  31.282  1.00  0.00     0.074 A 
ATOM     29  C   UNL A   1      44.997  24.540  28.729  1.00  0.00     0.029 A 
ATOM     30  N   UNL A   1      44.247  26.492  29.487  1.00  0.00    -0.354 N 
ATOM     31  N   UNL A   1      44.534  29.147  30.713  1.00  0.00    -0.248 NA
ATOM     32  C   UNL A   1      45.783  30.683  31.959  1.00  0.00     0.031 C 
ATOM     33  C   UNL A   1      46.040  25.182  29.405  1.00  0.00     0.029 A 
ATOM     34  C   UNL A   1      45.575  26.402  29.868  1.00  0.00     0.049 A 
ATOM     35  H   UNL A   1      43.658  27.259  29.669  1.00  0.00     0.167 HD
ATOM     36  C   UNL A   1      45.790  28.614  30.968  1.00  0.00     0.074 A 
ATOM     37  C   UNL A   1      46.529  29.614  31.714  1.00  0.00     0.031 C 
ATOM     38  C   UNL A   1      46.286  27.401  30.624  1.00  0.00     0.031 A 
BRANCH  25  39
ATOM     39  C   UNL A   1      42.282  23.707  27.741  1.00  0.00    -0.014 A 
ATOM     40  C   UNL A   1      42.485  23.451  26.375  1.00  0.00     0.010 A 
ATOM     41  C   UNL A   1      41.932  22.645  28.595  1.00  0.00     0.010 A 
ATOM     42  C   UNL A   1      42.329  22.156  25.869  1.00  0.00     0.020 A 
ATOM     43  C   UNL A   1      41.790  21.347  28.097  1.00  0.00     0.020 A 
ATOM     44  C   UNL A   1      41.984  21.113  26.734  1.00  0.00     0.054 A 
BRANCH  44  45
ATOM     45  S   UNL A   1      41.845  19.432  26.062  1.00  0.00     0.124 S 
ATOM     46  O   UNL A   1      42.739  19.496  24.908  1.00  0.00    -0.237 OA
ATOM     47  O   UNL A   1      42.313  18.604  27.171  1.00  0.00    -0.237 OA
ATOM     48  O   UNL A   1      40.427  19.300  25.745  1.00  0.00    -0.744 OA
ENDBRANCH  44  45
ENDBRANCH  25  39
BRANCH  26  49
ATOM     49  C   UNL A   1      43.595  32.633  32.042  1.00  0.00    -0.014 A 
ATOM     50  C   UNL A   1      44.069  33.772  31.369  1.00  0.00     0.010 A 
ATOM     51  C   UNL A   1      43.270  32.728  33.408  1.00  0.00     0.010 A 
ATOM     52  C   UNL A   1      44.235  34.978  32.057  1.00  0.00     0.020 A 
ATOM     53  C   UNL A   1      43.410  33.938  34.091  1.00  0.00     0.020 A 
ATOM     54  C   UNL A   1      43.906  35.052  33.414  1.00  0.00     0.054 A 
BRANCH  54  55
ATOM     55  S   UNL A   1      44.090  36.634  34.281  1.00  0.00     0.124 S 
ATOM     56  O   UNL A   1      45.448  37.023  33.915  1.00  0.00    -0.237 OA
ATOM     57  O   UNL A   1      43.021  37.444  33.701  1.00  0.00    -0.237 OA
ATOM     58  O   UNL A   1      43.896  36.275  35.684  1.00  0.00    -0.744 OA
ENDBRANCH  54  55
ENDBRANCH  26  49
BRANCH  38  59
ATOM     59  C   UNL A   1      47.688  27.086  31.060  1.00  0.00    -0.014 A 
ATOM     60  C   UNL A   1      47.924  26.375  32.250  1.00  0.00     0.010 A 
ATOM     61  C   UNL A   1      48.776  27.461  30.252  1.00  0.00     0.010 A 
ATOM     62  C   UNL A   1      49.229  26.060  32.635  1.00  0.00     0.020 A 
ATOM     63  C   UNL A   1      50.080  27.127  30.624  1.00  0.00     0.020 A 
ATOM     64  C   UNL A   1      50.299  26.440  31.819  1.00  0.00     0.054 A 
BRANCH  64  65
ATOM     65  S   UNL A   1      51.980  25.973  32.313  1.00  0.00     0.124 S 
ATOM     66  O   UNL A   1      52.343  27.061  33.216  1.00  0.00    -0.237 OA
ATOM     67  O   UNL A   1      51.783  24.671  32.945  1.00  0.00    -0.237 OA
ATOM     68  O   UNL A   1      52.714  25.940  31.049  1.00  0.00    -0.744 OA
ENDBRANCH  64  65
ENDBRANCH  38  59
ENDBRANCH  12  13
ENDBRANCH   5   7
ENDBRANCH   2   3
ENDBRANCH   1   2
BRANCH   1  69
ATOM     69  C   UNL A   1      31.392  27.157  26.691  1.00  0.00     0.117 C 
BRANCH  69  70
ATOM     70  N   UNL A   1      31.787  25.767  26.731  1.00  0.00    -0.355 N 
ATOM     71  C   UNL A   1      32.337  24.979  25.766  1.00  0.00     0.238 C 
ATOM     72  H   UNL A   1      31.634  25.319  27.594  1.00  0.00     0.163 HD
ATOM     73  O   UNL A   1      32.555  23.802  26.071  1.00  0.00    -0.273 OA
BRANCH  71  74
ATOM     74  C   UNL A   1      32.663  25.543  24.368  1.00  0.00     0.162 C 
ATOM     75  C   UNL A   1      33.315  24.456  23.515  1.00  0.00     0.032 C 
ATOM     76  N   UNL A   1      31.398  25.874  23.630  1.00  0.00    -0.185 NA
ATOM     77  C   UNL A   1      32.152  23.663  22.943  1.00  0.00     0.019 C 
ATOM     78  C   UNL A   1      30.928  24.567  23.059  1.00  0.00     0.103 C 
BRANCH  76  79
ATOM     79  S   UNL A   1      31.481  27.118  22.457  1.00  0.00     0.244 S 
ATOM     80  O   UNL A   1      32.579  27.995  22.800  1.00  0.00    -0.207 OA
ATOM     81  O   UNL A   1      31.407  26.501  21.149  1.00  0.00    -0.207 OA
BRANCH  79  82
ATOM     82  C   UNL A   1      29.977  28.047  22.670  1.00  0.00     0.089 A 
ATOM     83  C   UNL A   1      28.899  27.479  23.361  1.00  0.00     0.022 A 
ATOM     84  C   UNL A   1      29.833  29.283  22.037  1.00  0.00     0.107 A 
ATOM     85  C   UNL A   1      27.687  28.169  23.457  1.00  0.00     0.008 A 
ATOM     86  C   UNL A   1      28.631  29.987  22.184  1.00  0.00     0.270 A 
ATOM     87  C   UNL A   1      27.550  29.434  22.882  1.00  0.00     0.086 A 
BRANCH  86  88
ATOM     88  N   UNL A   1      28.532  31.345  21.648  1.00  0.00     0.062 N 
ATOM     89  O   UNL A   1      27.948  31.501  20.569  1.00  0.00    -0.258 OA
ATOM     90  O   UNL A   1      29.024  32.257  22.331  1.00  0.00    -0.258 OA
ENDBRANCH  86  88
ENDBRANCH  79  82
ENDBRANCH  76  79
ENDBRANCH  71  74
ENDBRANCH  69  70
ENDBRANCH   1  69
TORSDOF 16
ENDMDL
MODEL 2
REMARK VINA RESULT:     -11.1      4.098      5.392
REMARK SMILES O=C(NCCCNC(=O)[C@H]1CCCN1S(=O)(=O)c1cccc([N+](=O)[O-])c1)c1ccc(-c2c3nc(c(-c4ccc(S(=O)(=O)[O-])cc4)c4ccc([nH]4)c(-c4ccc(S(=O)(=O)[O-])cc4)c4nc(c(-c5ccc(S(=O)(=O)[O-])cc5)c5ccc2[nH]5)C=C4)C=C3)cc1
REMARK SMILES IDX 5 1 4 2 3 3 1 4 2 5 27 7 28 8 86 9 29 10 85 11 30 12 31 13
REMARK SMILES IDX 32 14 79 15 33 16 84 17 78 18 80 19 34 20 83 21 77 22 76 23
REMARK SMILES IDX 35 25 65 26 46 27 64 28 47 29 50 30 63 31 81 32 48 33 49 34
REMARK SMILES IDX 62 36 82 37 51 38 36 39 37 40 45 41 38 42 44 43 39 44 40 45
REMARK SMILES IDX 41 46 42 47 43 48 66 49 67 50 75 51 68 52 74 53 69 54 70 55
REMARK SMILES IDX 71 56 72 57 73 58 52 59 53 60 61 61 54 62 60 63 55 64 56 65
REMARK SMILES IDX 57 66 58 67 59 68 6 69 7 70 8 71 9 73 10 74 11 75 14 76
REMARK SMILES IDX 12 77 13 78 15 79 16 80 17 81 18 82 19 83 26 84 20 85 22 86
REMARK SMILES IDX 21 87 23 88 24 89 25 90
REMARK H PARENT 3 6 80 24 50 35 7 72
REMARK Flexibility Score: inf
ROOT
ATOM      1  C   UNL A   1      31.431  32.231  26.680  1.00  0.00     0.042 C 
ENDROOT
BRANCH   1   2
ATOM      2  C   UNL A   1      32.628  32.808  27.428  1.00  0.00     0.118 C 
BRANCH   2   3
ATOM      3  N   UNL A   1      32.459  34.225  27.717  1.00  0.00    -0.352 N 
ATOM      4  O   UNL A   1      32.591  36.121  28.911  1.00  0.00    -0.269 OA
ATOM      5  C   UNL A   1      33.037  34.998  28.692  1.00  0.00     0.251 C 
ATOM      6  H   UNL A   1      31.834  34.700  27.123  1.00  0.00     0.163 HD
BRANCH   5   7
ATOM      7  C   UNL A   1      34.186  34.491  29.473  1.00  0.00     0.039 A 
ATOM      8  C   UNL A   1      33.994  33.864  30.707  1.00  0.00     0.014 A 
ATOM      9  C   UNL A   1      35.469  34.574  28.921  1.00  0.00     0.014 A 
ATOM     10  C   UNL A   1      35.090  33.401  31.429  1.00  0.00     0.010 A 
ATOM     11  C   UNL A   1      36.560  34.046  29.616  1.00  0.00     0.010 A 
ATOM     12  C   UNL A   1      36.378  33.459  30.878  1.00  0.00    -0.014 A 
BRANCH  12  13
ATOM     13  C   UNL A   1      37.498  32.782  31.573  1.00  0.00     0.031 A 
ATOM     14  C   UNL A   1      38.123  31.534  31.022  1.00  0.00     0.074 A 
ATOM     15  C   UNL A   1      37.939  33.313  32.733  1.00  0.00     0.049 A 
ATOM     16  N   UNL A   1      39.104  30.824  31.517  1.00  0.00    -0.248 NA
ATOM     17  C   UNL A   1      37.580  31.008  29.759  1.00  0.00     0.031 C 
ATOM     18  C   UNL A   1      37.385  34.510  33.375  1.00  0.00     0.029 A 
ATOM     19  N   UNL A   1      38.946  32.923  33.576  1.00  0.00    -0.354 N 
ATOM     20  C   UNL A   1      39.283  29.758  30.645  1.00  0.00     0.074 A 
ATOM     21  C   UNL A   1      38.304  29.907  29.590  1.00  0.00     0.031 C 
ATOM     22  C   UNL A   1      38.072  34.768  34.497  1.00  0.00     0.029 A 
ATOM     23  C   UNL A   1      39.076  33.728  34.684  1.00  0.00     0.049 A 
ATOM     24  H   UNL A   1      39.521  32.143  33.406  1.00  0.00     0.167 HD
ATOM     25  C   UNL A   1      40.185  28.750  30.723  1.00  0.00     0.031 A 
ATOM     26  C   UNL A   1      39.890  33.625  35.751  1.00  0.00     0.031 A 
ATOM     27  C   UNL A   1      41.163  28.620  31.771  1.00  0.00     0.049 A 
ATOM     28  C   UNL A   1      40.856  32.481  35.821  1.00  0.00     0.074 A 
ATOM     29  C   UNL A   1      42.173  27.679  31.890  1.00  0.00     0.029 A 
ATOM     30  N   UNL A   1      41.246  29.438  32.886  1.00  0.00    -0.354 N 
ATOM     31  N   UNL A   1      41.065  31.531  34.941  1.00  0.00    -0.248 NA
ATOM     32  C   UNL A   1      41.688  32.387  37.027  1.00  0.00     0.031 C 
ATOM     33  C   UNL A   1      42.830  27.895  33.106  1.00  0.00     0.029 A 
ATOM     34  C   UNL A   1      42.258  28.997  33.722  1.00  0.00     0.049 A 
ATOM     35  H   UNL A   1      40.670  30.217  33.059  1.00  0.00     0.167 HD
ATOM     36  C   UNL A   1      42.051  30.722  35.490  1.00  0.00     0.074 A 
ATOM     37  C   UNL A   1      42.419  31.312  36.762  1.00  0.00     0.031 C 
ATOM     38  C   UNL A   1      42.597  29.588  34.990  1.00  0.00     0.031 A 
BRANCH  25  39
ATOM     39  C   UNL A   1      40.154  27.685  29.662  1.00  0.00    -0.014 A 
ATOM     40  C   UNL A   1      41.092  27.675  28.616  1.00  0.00     0.010 A 
ATOM     41  C   UNL A   1      39.240  26.621  29.775  1.00  0.00     0.010 A 
ATOM     42  C   UNL A   1      41.109  26.623  27.693  1.00  0.00     0.020 A 
ATOM     43  C   UNL A   1      39.263  25.561  28.865  1.00  0.00     0.020 A 
ATOM     44  C   UNL A   1      40.195  25.573  27.825  1.00  0.00     0.054 A 
BRANCH  44  45
ATOM     45  S   UNL A   1      40.277  24.193  26.648  1.00  0.00     0.124 S 
ATOM     46  O   UNL A   1      39.032  24.362  25.902  1.00  0.00    -0.237 OA
ATOM     47  O   UNL A   1      41.499  24.482  25.902  1.00  0.00    -0.237 OA
ATOM     48  O   UNL A   1      40.335  23.011  27.502  1.00  0.00    -0.744 OA
ENDBRANCH  44  45
ENDBRANCH  25  39
BRANCH  26  49
ATOM     49  C   UNL A   1      39.778  34.605  36.863  1.00  0.00    -0.014 A 
ATOM     50  C   UNL A   1      40.504  35.807  36.842  1.00  0.00     0.010 A 
ATOM     51  C   UNL A   1      38.927  34.336  37.951  1.00  0.00     0.010 A 
ATOM     52  C   UNL A   1      40.397  36.714  37.900  1.00  0.00     0.020 A 
ATOM     53  C   UNL A   1      38.797  35.252  38.997  1.00  0.00     0.020 A 
ATOM     54  C   UNL A   1      39.545  36.430  38.972  1.00  0.00     0.054 A 
BRANCH  54  55
ATOM     55  S   UNL A   1      39.387  37.634  40.318  1.00  0.00     0.124 S 
ATOM     56  O   UNL A   1      38.191  38.372  39.923  1.00  0.00    -0.237 OA
ATOM     57  O   UNL A   1      39.246  36.783  41.496  1.00  0.00    -0.237 OA
ATOM     58  O   UNL A   1      40.639  38.385  40.250  1.00  0.00    -0.744 OA
ENDBRANCH  54  55
ENDBRANCH  26  49
BRANCH  38  59
ATOM     59  C   UNL A   1      43.642  28.905  35.827  1.00  0.00    -0.014 A 
ATOM     60  C   UNL A   1      43.293  27.844  36.680  1.00  0.00     0.010 A 
ATOM     61  C   UNL A   1      44.988  29.296  35.723  1.00  0.00     0.010 A 
ATOM     62  C   UNL A   1      44.273  27.195  37.433  1.00  0.00     0.020 A 
ATOM     63  C   UNL A   1      45.974  28.633  36.458  1.00  0.00     0.020 A 
ATOM     64  C   UNL A   1      45.608  27.594  37.317  1.00  0.00     0.054 A 
BRANCH  64  65
ATOM     65  S   UNL A   1      46.871  26.702  38.265  1.00  0.00     0.124 S 
ATOM     66  O   UNL A   1      46.173  26.428  39.517  1.00  0.00    -0.237 OA
ATOM     67  O   UNL A   1      47.140  25.536  37.427  1.00  0.00    -0.237 OA
ATOM     68  O   UNL A   1      47.972  27.659  38.359  1.00  0.00    -0.744 OA
ENDBRANCH  64  65
ENDBRANCH  38  59
ENDBRANCH  12  13
ENDBRANCH   5   7
ENDBRANCH   2   3
ENDBRANCH   1   2
BRANCH   1  69
ATOM     69  C   UNL A   1      31.716  30.880  26.036  1.00  0.00     0.117 C 
BRANCH  69  70
ATOM     70  N   UNL A   1      32.556  30.053  26.874  1.00  0.00    -0.355 N 
ATOM     71  C   UNL A   1      33.241  28.913  26.582  1.00  0.00     0.238 C 
ATOM     72  H   UNL A   1      32.646  30.363  27.804  1.00  0.00     0.163 HD
ATOM     73  O   UNL A   1      33.869  28.391  27.509  1.00  0.00    -0.273 OA
BRANCH  71  74
ATOM     74  C   UNL A   1      33.222  28.315  25.161  1.00  0.00     0.162 C 
ATOM     75  C   UNL A   1      33.980  26.988  25.151  1.00  0.00     0.032 C 
ATOM     76  N   UNL A   1      31.823  27.937  24.771  1.00  0.00    -0.185 NA
ATOM     77  C   UNL A   1      32.964  25.959  25.616  1.00  0.00     0.019 C 
ATOM     78  C   UNL A   1      31.593  26.594  25.404  1.00  0.00     0.103 C 
BRANCH  76  79
ATOM     79  S   UNL A   1      31.444  27.956  23.102  1.00  0.00     0.244 S 
ATOM     80  O   UNL A   1      32.395  28.814  22.430  1.00  0.00    -0.207 OA
ATOM     81  O   UNL A   1      31.250  26.586  22.674  1.00  0.00    -0.207 OA
BRANCH  79  82
ATOM     82  C   UNL A   1      29.854  28.751  23.004  1.00  0.00     0.089 A 
ATOM     83  C   UNL A   1      28.693  28.028  23.302  1.00  0.00     0.022 A 
ATOM     84  C   UNL A   1      29.763  30.053  22.506  1.00  0.00     0.107 A 
ATOM     85  C   UNL A   1      27.437  28.621  23.143  1.00  0.00     0.008 A 
ATOM     86  C   UNL A   1      28.502  30.654  22.401  1.00  0.00     0.270 A 
ATOM     87  C   UNL A   1      27.335  29.944  22.706  1.00  0.00     0.086 A 
BRANCH  86  88
ATOM     88  N   UNL A   1      28.416  32.065  22.023  1.00  0.00     0.062 N 
ATOM     89  O   UNL A   1      28.401  32.908  22.929  1.00  0.00    -0.258 OA
ATOM     90  O   UNL A   1      28.389  32.322  20.810  1.00  0.00    -0.258 OA
ENDBRANCH  86  88
ENDBRANCH  79  82
ENDBRANCH  76  79
ENDBRANCH  71  74
ENDBRANCH  69  70
ENDBRANCH   1  69
TORSDOF 16
ENDMDL
MODEL 3
REMARK VINA RESULT:     -11.1      3.359      4.211
REMARK SMILES O=C(NCCCNC(=O)[C@H]1CCCN1S(=O)(=O)c1cccc([N+](=O)[O-])c1)c1ccc(-c2c3nc(c(-c4ccc(S(=O)(=O)[O-])cc4)c4ccc([nH]4)c(-c4ccc(S(=O)(=O)[O-])cc4)c4nc(c(-c5ccc(S(=O)(=O)[O-])cc5)c5ccc2[nH]5)C=C4)C=C3)cc1
REMARK SMILES IDX 5 1 4 2 3 3 1 4 2 5 27 7 28 8 86 9 29 10 85 11 30 12 31 13
REMARK SMILES IDX 32 14 79 15 33 16 84 17 78 18 80 19 34 20 83 21 77 22 76 23
REMARK SMILES IDX 35 25 65 26 46 27 64 28 47 29 50 30 63 31 81 32 48 33 49 34
REMARK SMILES IDX 62 36 82 37 51 38 36 39 37 40 45 41 38 42 44 43 39 44 40 45
REMARK SMILES IDX 41 46 42 47 43 48 66 49 67 50 75 51 68 52 74 53 69 54 70 55
REMARK SMILES IDX 71 56 72 57 73 58 52 59 53 60 61 61 54 62 60 63 55 64 56 65
REMARK SMILES IDX 57 66 58 67 59 68 6 69 7 70 8 71 9 73 10 74 11 75 14 76
REMARK SMILES IDX 12 77 13 78 15 79 16 80 17 81 18 82 19 83 26 84 20 85 22 86
REMARK SMILES IDX 21 87 23 88 24 89 25 90
REMARK H PARENT 3 6 80 24 50 35 7 72
REMARK Flexibility Score: inf
ROOT
ATOM      1  C   UNL A   1      34.639  31.188  27.746  1.00  0.00     0.042 C 
ENDROOT
BRANCH   1   2
ATOM      2  C   UNL A   1      35.888  31.426  28.587  1.00  0.00     0.118 C 
BRANCH   2   3
ATOM      3  N   UNL A   1      35.793  30.793  29.895  1.00  0.00    -0.352 N 
ATOM      4  O   UNL A   1      36.292  29.335  31.527  1.00  0.00    -0.269 OA
ATOM      5  C   UNL A   1      36.662  29.936  30.522  1.00  0.00     0.251 C 
ATOM      6  H   UNL A   1      34.981  31.013  30.406  1.00  0.00     0.163 HD
BRANCH   5   7
ATOM      7  C   UNL A   1      38.031  29.735  29.998  1.00  0.00     0.039 A 
ATOM      8  C   UNL A   1      39.109  29.539  30.865  1.00  0.00     0.014 A 
ATOM      9  C   UNL A   1      38.221  29.663  28.615  1.00  0.00     0.014 A 
ATOM     10  C   UNL A   1      40.390  29.361  30.351  1.00  0.00     0.010 A 
ATOM     11  C   UNL A   1      39.496  29.413  28.100  1.00  0.00     0.010 A 
ATOM     12  C   UNL A   1      40.591  29.265  28.966  1.00  0.00    -0.014 A 
BRANCH  12  13
ATOM     13  C   UNL A   1      41.925  28.876  28.450  1.00  0.00     0.031 A 
ATOM     14  C   UNL A   1      42.209  27.475  27.991  1.00  0.00     0.074 A 
ATOM     15  C   UNL A   1      42.891  29.817  28.415  1.00  0.00     0.049 A 
ATOM     16  N   UNL A   1      43.326  26.981  27.521  1.00  0.00    -0.248 NA
ATOM     17  C   UNL A   1      41.109  26.501  28.071  1.00  0.00     0.031 C 
ATOM     18  C   UNL A   1      42.731  31.205  28.863  1.00  0.00     0.029 A 
ATOM     19  N   UNL A   1      44.190  29.756  27.986  1.00  0.00    -0.354 N 
ATOM     20  C   UNL A   1      43.074  25.639  27.271  1.00  0.00     0.074 A 
ATOM     21  C   UNL A   1      41.699  25.389  27.647  1.00  0.00     0.031 C 
ATOM     22  C   UNL A   1      43.880  31.867  28.665  1.00  0.00     0.029 A 
ATOM     23  C   UNL A   1      44.871  30.943  28.130  1.00  0.00     0.049 A 
ATOM     24  H   UNL A   1      44.598  28.944  27.610  1.00  0.00     0.167 HD
ATOM     25  C   UNL A   1      43.917  24.703  26.772  1.00  0.00     0.031 A 
ATOM     26  C   UNL A   1      46.160  31.249  27.891  1.00  0.00     0.031 A 
ATOM     27  C   UNL A   1      45.279  24.966  26.388  1.00  0.00     0.049 A 
ATOM     28  C   UNL A   1      47.075  30.183  27.367  1.00  0.00     0.074 A 
ATOM     29  C   UNL A   1      46.185  24.102  25.795  1.00  0.00     0.029 A 
ATOM     30  N   UNL A   1      45.938  26.170  26.574  1.00  0.00    -0.354 N 
ATOM     31  N   UNL A   1      46.791  28.940  27.058  1.00  0.00    -0.248 NA
ATOM     32  C   UNL A   1      48.481  30.554  27.168  1.00  0.00     0.031 C 
ATOM     33  C   UNL A   1      47.409  24.768  25.674  1.00  0.00     0.029 A 
ATOM     34  C   UNL A   1      47.252  26.060  26.150  1.00  0.00     0.049 A 
ATOM     35  H   UNL A   1      45.533  26.984  26.951  1.00  0.00     0.167 HD
ATOM     36  C   UNL A   1      47.987  28.378  26.631  1.00  0.00     0.074 A 
ATOM     37  C   UNL A   1      48.989  29.425  26.691  1.00  0.00     0.031 C 
ATOM     38  C   UNL A   1      48.236  27.107  26.234  1.00  0.00     0.031 A 
BRANCH  25  39
ATOM     39  C   UNL A   1      43.411  23.294  26.626  1.00  0.00    -0.014 A 
ATOM     40  C   UNL A   1      43.383  22.659  25.373  1.00  0.00     0.010 A 
ATOM     41  C   UNL A   1      43.059  22.562  27.775  1.00  0.00     0.010 A 
ATOM     42  C   UNL A   1      43.001  21.317  25.271  1.00  0.00     0.020 A 
ATOM     43  C   UNL A   1      42.691  21.218  27.679  1.00  0.00     0.020 A 
ATOM     44  C   UNL A   1      42.658  20.606  26.425  1.00  0.00     0.054 A 
BRANCH  44  45
ATOM     45  S   UNL A   1      42.222  18.850  26.270  1.00  0.00     0.124 S 
ATOM     46  O   UNL A   1      40.853  18.926  25.764  1.00  0.00    -0.237 OA
ATOM     47  O   UNL A   1      43.215  18.357  25.319  1.00  0.00    -0.237 OA
ATOM     48  O   UNL A   1      42.356  18.337  27.630  1.00  0.00    -0.744 OA
ENDBRANCH  44  45
ENDBRANCH  25  39
BRANCH  26  49
ATOM     49  C   UNL A   1      46.668  32.611  28.205  1.00  0.00    -0.014 A 
ATOM     50  C   UNL A   1      47.071  32.948  29.507  1.00  0.00     0.010 A 
ATOM     51  C   UNL A   1      46.759  33.576  27.185  1.00  0.00     0.010 A 
ATOM     52  C   UNL A   1      47.536  34.236  29.789  1.00  0.00     0.020 A 
ATOM     53  C   UNL A   1      47.248  34.855  27.457  1.00  0.00     0.020 A 
ATOM     54  C   UNL A   1      47.620  35.182  28.763  1.00  0.00     0.054 A 
BRANCH  54  55
ATOM     55  S   UNL A   1      48.264  36.836  29.136  1.00  0.00     0.124 S 
ATOM     56  O   UNL A   1      47.537  37.174  30.355  1.00  0.00    -0.237 OA
ATOM     57  O   UNL A   1      49.695  36.594  29.298  1.00  0.00    -0.237 OA
ATOM     58  O   UNL A   1      47.903  37.614  27.953  1.00  0.00    -0.744 OA
ENDBRANCH  54  55
ENDBRANCH  26  49
BRANCH  38  59
ATOM     59  C   UNL A   1      49.649  26.777  25.844  1.00  0.00    -0.014 A 
ATOM     60  C   UNL A   1      50.154  27.166  24.591  1.00  0.00     0.010 A 
ATOM     61  C   UNL A   1      50.492  26.117  26.755  1.00  0.00     0.010 A 
ATOM     62  C   UNL A   1      51.477  26.881  24.247  1.00  0.00     0.020 A 
ATOM     63  C   UNL A   1      51.823  25.852  26.422  1.00  0.00     0.020 A 
ATOM     64  C   UNL A   1      52.303  26.226  25.165  1.00  0.00     0.054 A 
BRANCH  64  65
ATOM     65  S   UNL A   1      54.032  25.915  24.717  1.00  0.00     0.124 S 
ATOM     66  O   UNL A   1      54.745  26.822  25.611  1.00  0.00    -0.237 OA
ATOM     67  O   UNL A   1      54.191  24.492  25.006  1.00  0.00    -0.237 OA
ATOM     68  O   UNL A   1      54.089  26.264  23.298  1.00  0.00    -0.744 OA
ENDBRANCH  64  65
ENDBRANCH  38  59
ENDBRANCH  12  13
ENDBRANCH   5   7
ENDBRANCH   2   3
ENDBRANCH   1   2
BRANCH   1  69
ATOM     69  C   UNL A   1      34.516  29.755  27.242  1.00  0.00     0.117 C 
BRANCH  69  70
ATOM     70  N   UNL A   1      33.347  29.095  27.779  1.00  0.00    -0.355 N 
ATOM     71  C   UNL A   1      32.467  28.241  27.186  1.00  0.00     0.238 C 
ATOM     72  H   UNL A   1      33.158  29.294  28.724  1.00  0.00     0.163 HD
ATOM     73  O   UNL A   1      31.530  27.840  27.883  1.00  0.00    -0.273 OA
BRANCH  71  74
ATOM     74  C   UNL A   1      32.644  27.810  25.716  1.00  0.00     0.162 C 
ATOM     75  C   UNL A   1      33.813  26.832  25.604  1.00  0.00     0.032 C 
ATOM     76  N   UNL A   1      31.458  27.012  25.258  1.00  0.00    -0.185 NA
ATOM     77  C   UNL A   1      33.217  25.477  25.947  1.00  0.00     0.019 C 
ATOM     78  C   UNL A   1      31.711  25.619  25.759  1.00  0.00     0.103 C 
BRANCH  76  79
ATOM     79  S   UNL A   1      31.083  27.058  23.588  1.00  0.00     0.244 S 
ATOM     80  O   UNL A   1      31.952  28.024  22.953  1.00  0.00    -0.207 OA
ATOM     81  O   UNL A   1      31.018  25.693  23.109  1.00  0.00    -0.207 OA
BRANCH  79  82
ATOM     82  C   UNL A   1      29.427  27.706  23.510  1.00  0.00     0.089 A 
ATOM     83  C   UNL A   1      28.341  26.889  23.851  1.00  0.00     0.022 A 
ATOM     84  C   UNL A   1      29.208  28.981  22.986  1.00  0.00     0.107 A 
ATOM     85  C   UNL A   1      27.034  27.365  23.710  1.00  0.00     0.008 A 
ATOM     86  C   UNL A   1      27.896  29.465  22.897  1.00  0.00     0.270 A 
ATOM     87  C   UNL A   1      26.805  28.662  23.246  1.00  0.00     0.086 A 
BRANCH  86  88
ATOM     88  N   UNL A   1      27.677  30.853  22.490  1.00  0.00     0.062 N 
ATOM     89  O   UNL A   1      27.944  31.164  21.322  1.00  0.00    -0.258 OA
ATOM     90  O   UNL A   1      27.211  31.624  23.343  1.00  0.00    -0.258 OA
ENDBRANCH  86  88
ENDBRANCH  79  82
ENDBRANCH  76  79
ENDBRANCH  71  74
ENDBRANCH  69  70
ENDBRANCH   1  69
TORSDOF 16
ENDMDL
