MODEL 1
REMARK VINA RESULT:     -11.5      0.000      0.000
REMARK SMILES COc1ccc([C@H](C(=O)NCCCNC(=O)c2ccc(-c3c4nc(c(-c5ccc(S(=O)(=O)[O-])cc5)c5ccc([nH]5)c(-c5ccc(S(=O)(=O)[O-])cc5)c5nc(c(-c6ccc(S(=O)(=O)[O-])cc6)c6ccc3[nH]6)C=C5)C=C4)cc2)c2ccc(O)nn2)cc1
REMARK SMILES IDX 12 1 11 2 10 3 8 4 9 5 7 7 6 8 3 9 4 10 85 11 5 12 84 13
REMARK SMILES IDX 2 14 1 15 77 16 78 17 83 18 79 19 82 20 80 21 81 22 13 24
REMARK SMILES IDX 14 25 15 26 16 28 17 29 18 30 76 31 19 32 75 33 20 34 21 35
REMARK SMILES IDX 22 36 69 37 23 38 74 39 68 40 70 41 24 42 73 43 67 44 66 45
REMARK SMILES IDX 25 47 55 48 36 49 54 50 37 51 40 52 53 53 71 54 38 55 39 56
REMARK SMILES IDX 52 58 72 59 41 60 26 61 27 62 35 63 28 64 34 65 29 66 30 67
REMARK SMILES IDX 31 68 32 69 33 70 56 71 57 72 65 73 58 74 64 75 59 76 60 77
REMARK SMILES IDX 61 78 62 79 63 80 42 81 43 82 51 83 44 84 50 85 45 86 46 87
REMARK SMILES IDX 47 88 48 89 49 90
REMARK H PARENT 10 6 81 23 14 27 70 46 40 57
REMARK Flexibility Score: inf
ROOT
ATOM      1  C   UNL A   1      34.005  28.180  24.821  1.00  0.00     0.042 C 
ENDROOT
BRANCH   1   2
ATOM      2  C   UNL A   1      34.000  26.722  24.416  1.00  0.00     0.117 C 
BRANCH   2   3
ATOM      3  N   UNL A   1      33.223  26.456  23.222  1.00  0.00    -0.355 N 
ATOM      4  C   UNL A   1      31.854  26.532  23.076  1.00  0.00     0.233 C 
ATOM      5  O   UNL A   1      31.370  26.253  21.977  1.00  0.00    -0.274 OA
ATOM      6  H   UNL A   1      33.730  26.189  22.422  1.00  0.00     0.163 HD
BRANCH   4   7
ATOM      7  C   UNL A   1      30.962  26.901  24.307  1.00  0.00     0.159 C 
BRANCH   7   8
ATOM      8  C   UNL A   1      29.934  27.982  23.897  1.00  0.00    -0.029 A 
ATOM      9  C   UNL A   1      28.362  29.955  22.636  1.00  0.00     0.118 A 
ATOM     10  C   UNL A   1      27.873  28.660  22.797  1.00  0.00     0.047 A 
ATOM     11  C   UNL A   1      29.533  30.322  23.278  1.00  0.00     0.047 A 
ATOM     12  C   UNL A   1      28.639  27.687  23.455  1.00  0.00     0.009 A 
ATOM     13  C   UNL A   1      30.299  29.348  23.921  1.00  0.00     0.009 A 
BRANCH   9  14
ATOM     14  O   UNL A   1      27.618  30.826  21.892  1.00  0.00    -0.497 OA
ATOM     15  C   UNL A   1      28.212  32.125  21.794  1.00  0.00     0.278 C 
ENDBRANCH   9  14
ENDBRANCH   7   8
BRANCH   7  16
ATOM     16  C   UNL A   1      30.519  25.551  24.908  1.00  0.00     0.080 A 
ATOM     17  C   UNL A   1      31.016  24.298  24.539  1.00  0.00     0.032 A 
ATOM     18  N   UNL A   1      29.780  25.652  26.046  1.00  0.00    -0.151 NA
ATOM     19  C   UNL A   1      30.881  23.213  25.399  1.00  0.00     0.072 A 
ATOM     20  N   UNL A   1      29.637  24.585  26.896  1.00  0.00    -0.112 NA
ATOM     21  C   UNL A   1      30.211  23.418  26.575  1.00  0.00     0.230 A 
BRANCH  21  22
ATOM     22  O   UNL A   1      30.157  22.445  27.521  1.00  0.00    -0.492 OA
ATOM     23  H   UNL A   1      29.360  22.290  27.987  1.00  0.00     0.295 HD
ENDBRANCH  21  22
ENDBRANCH   7  16
ENDBRANCH   4   7
ENDBRANCH   2   3
ENDBRANCH   1   2
BRANCH   1  24
ATOM     24  C   UNL A   1      34.209  28.311  26.311  1.00  0.00     0.118 C 
BRANCH  24  25
ATOM     25  N   UNL A   1      33.882  29.659  26.790  1.00  0.00    -0.352 N 
ATOM     26  C   UNL A   1      34.519  30.467  27.704  1.00  0.00     0.251 C 
ATOM     27  H   UNL A   1      33.071  30.050  26.392  1.00  0.00     0.163 HD
ATOM     28  O   UNL A   1      33.941  31.454  28.155  1.00  0.00    -0.269 OA
BRANCH  26  29
ATOM     29  C   UNL A   1      35.883  30.127  28.153  1.00  0.00     0.039 A 
ATOM     30  C   UNL A   1      36.103  29.598  29.428  1.00  0.00     0.014 A 
ATOM     31  C   UNL A   1      36.953  30.318  27.287  1.00  0.00     0.014 A 
ATOM     32  C   UNL A   1      37.391  29.186  29.786  1.00  0.00     0.010 A 
ATOM     33  C   UNL A   1      38.173  29.735  27.566  1.00  0.00     0.010 A 
ATOM     34  C   UNL A   1      38.426  29.209  28.838  1.00  0.00    -0.014 A 
BRANCH  34  35
ATOM     35  C   UNL A   1      39.818  28.791  29.136  1.00  0.00     0.031 A 
ATOM     36  C   UNL A   1      40.768  29.814  29.718  1.00  0.00     0.074 A 
ATOM     37  C   UNL A   1      40.258  27.565  28.790  1.00  0.00     0.049 A 
ATOM     38  N   UNL A   1      42.067  29.759  29.841  1.00  0.00    -0.248 NA
ATOM     39  C   UNL A   1      40.182  31.095  30.160  1.00  0.00     0.031 C 
ATOM     40  C   UNL A   1      39.449  26.505  28.184  1.00  0.00     0.029 A 
ATOM     41  N   UNL A   1      41.509  27.012  28.882  1.00  0.00    -0.354 N 
ATOM     42  C   UNL A   1      42.448  31.003  30.332  1.00  0.00     0.074 A 
ATOM     43  C   UNL A   1      41.261  31.821  30.398  1.00  0.00     0.031 C 
ATOM     44  C   UNL A   1      40.218  25.422  27.982  1.00  0.00     0.029 A 
ATOM     45  C   UNL A   1      41.585  25.728  28.393  1.00  0.00     0.049 A 
ATOM     46  H   UNL A   1      42.281  27.488  29.264  1.00  0.00     0.167 HD
ATOM     47  C   UNL A   1      43.669  31.417  30.742  1.00  0.00     0.031 A 
ATOM     48  C   UNL A   1      42.642  24.902  28.275  1.00  0.00     0.031 A 
ATOM     49  C   UNL A   1      44.831  30.576  30.734  1.00  0.00     0.049 A 
ATOM     50  C   UNL A   1      43.991  25.380  28.745  1.00  0.00     0.074 A 
ATOM     51  C   UNL A   1      46.107  30.870  31.177  1.00  0.00     0.029 A 
ATOM     52  N   UNL A   1      44.848  29.265  30.285  1.00  0.00    -0.354 N 
ATOM     53  N   UNL A   1      44.323  26.548  29.245  1.00  0.00    -0.248 NA
ATOM     54  C   UNL A   1      45.106  24.427  28.652  1.00  0.00     0.031 C 
ATOM     55  C   UNL A   1      46.908  29.746  30.958  1.00  0.00     0.029 A 
ATOM     56  C   UNL A   1      46.113  28.735  30.439  1.00  0.00     0.049 A 
ATOM     57  H   UNL A   1      44.073  28.784  29.912  1.00  0.00     0.167 HD
ATOM     58  C   UNL A   1      45.672  26.451  29.568  1.00  0.00     0.074 A 
ATOM     59  C   UNL A   1      46.093  25.112  29.213  1.00  0.00     0.031 C 
ATOM     60  C   UNL A   1      46.492  27.384  30.111  1.00  0.00     0.031 A 
BRANCH  47  61
ATOM     61  C   UNL A   1      43.794  32.821  31.270  1.00  0.00    -0.014 A 
ATOM     62  C   UNL A   1      44.051  33.898  30.401  1.00  0.00     0.010 A 
ATOM     63  C   UNL A   1      43.602  33.079  32.639  1.00  0.00     0.010 A 
ATOM     64  C   UNL A   1      44.146  35.201  30.894  1.00  0.00     0.020 A 
ATOM     65  C   UNL A   1      43.661  34.385  33.133  1.00  0.00     0.020 A 
ATOM     66  C   UNL A   1      43.945  35.437  32.257  1.00  0.00     0.054 A 
BRANCH  66  67
ATOM     67  S   UNL A   1      44.017  37.146  32.855  1.00  0.00     0.124 S 
ATOM     68  O   UNL A   1      42.872  37.198  33.760  1.00  0.00    -0.237 OA
ATOM     69  O   UNL A   1      45.328  37.203  33.497  1.00  0.00    -0.237 OA
ATOM     70  O   UNL A   1      43.887  37.947  31.640  1.00  0.00    -0.744 OA
ENDBRANCH  66  67
ENDBRANCH  47  61
BRANCH  48  71
ATOM     71  C   UNL A   1      42.474  23.539  27.696  1.00  0.00    -0.014 A 
ATOM     72  C   UNL A   1      42.017  22.472  28.491  1.00  0.00     0.010 A 
ATOM     73  C   UNL A   1      42.795  23.293  26.348  1.00  0.00     0.010 A 
ATOM     74  C   UNL A   1      41.933  21.180  27.967  1.00  0.00     0.020 A 
ATOM     75  C   UNL A   1      42.679  22.008  25.810  1.00  0.00     0.020 A 
ATOM     76  C   UNL A   1      42.271  20.954  26.629  1.00  0.00     0.054 A 
BRANCH  76  77
ATOM     77  S   UNL A   1      42.159  19.267  25.971  1.00  0.00     0.124 S 
ATOM     78  O   UNL A   1      40.724  19.121  25.756  1.00  0.00    -0.237 OA
ATOM     79  O   UNL A   1      42.976  19.347  24.762  1.00  0.00    -0.237 OA
ATOM     80  O   UNL A   1      42.721  18.446  27.041  1.00  0.00    -0.744 OA
ENDBRANCH  76  77
ENDBRANCH  48  71
BRANCH  60  81
ATOM     81  C   UNL A   1      47.903  26.977  30.433  1.00  0.00    -0.014 A 
ATOM     82  C   UNL A   1      48.959  27.222  29.540  1.00  0.00     0.010 A 
ATOM     83  C   UNL A   1      48.183  26.430  31.699  1.00  0.00     0.010 A 
ATOM     84  C   UNL A   1      50.272  26.912  29.903  1.00  0.00     0.020 A 
ATOM     85  C   UNL A   1      49.496  26.149  32.078  1.00  0.00     0.020 A 
ATOM     86  C   UNL A   1      50.532  26.384  31.173  1.00  0.00     0.054 A 
BRANCH  86  87
ATOM     87  S   UNL A   1      52.253  26.064  31.647  1.00  0.00     0.124 S 
ATOM     88  O   UNL A   1      52.944  26.156  30.364  1.00  0.00    -0.237 OA
ATOM     89  O   UNL A   1      52.528  27.147  32.588  1.00  0.00    -0.237 OA
ATOM     90  O   UNL A   1      52.207  24.729  32.237  1.00  0.00    -0.744 OA
ENDBRANCH  86  87
ENDBRANCH  60  81
ENDBRANCH  34  35
ENDBRANCH  26  29
ENDBRANCH  24  25
ENDBRANCH   1  24
TORSDOF 17
ENDMDL
MODEL 2
REMARK VINA RESULT:     -11.5      2.327      4.036
REMARK SMILES COc1ccc([C@H](C(=O)NCCCNC(=O)c2ccc(-c3c4nc(c(-c5ccc(S(=O)(=O)[O-])cc5)c5ccc([nH]5)c(-c5ccc(S(=O)(=O)[O-])cc5)c5nc(c(-c6ccc(S(=O)(=O)[O-])cc6)c6ccc3[nH]6)C=C5)C=C4)cc2)c2ccc(O)nn2)cc1
REMARK SMILES IDX 12 1 11 2 10 3 8 4 9 5 7 7 6 8 3 9 4 10 85 11 5 12 84 13
REMARK SMILES IDX 2 14 1 15 77 16 78 17 83 18 79 19 82 20 80 21 81 22 13 24
REMARK SMILES IDX 14 25 15 26 16 28 17 29 18 30 76 31 19 32 75 33 20 34 21 35
REMARK SMILES IDX 22 36 69 37 23 38 74 39 68 40 70 41 24 42 73 43 67 44 66 45
REMARK SMILES IDX 25 47 55 48 36 49 54 50 37 51 40 52 53 53 71 54 38 55 39 56
REMARK SMILES IDX 52 58 72 59 41 60 26 61 27 62 35 63 28 64 34 65 29 66 30 67
REMARK SMILES IDX 31 68 32 69 33 70 56 71 57 72 65 73 58 74 64 75 59 76 60 77
REMARK SMILES IDX 61 78 62 79 63 80 42 81 43 82 51 83 44 84 50 85 45 86 46 87
REMARK SMILES IDX 47 88 48 89 49 90
REMARK H PARENT 10 6 81 23 14 27 70 46 40 57
REMARK Flexibility Score: inf
ROOT
ATOM      1  C   UNL A   1      33.714  27.835  25.152  1.00  0.00     0.042 C 
ENDROOT
BRANCH   1   2
ATOM      2  C   UNL A   1      33.335  26.376  25.020  1.00  0.00     0.117 C 
BRANCH   2   3
ATOM      3  N   UNL A   1      33.560  25.838  23.693  1.00  0.00    -0.355 N 
ATOM      4  C   UNL A   1      33.880  24.541  23.356  1.00  0.00     0.233 C 
ATOM      5  O   UNL A   1      34.047  24.274  22.164  1.00  0.00    -0.274 OA
ATOM      6  H   UNL A   1      33.474  26.472  22.946  1.00  0.00     0.163 HD
BRANCH   4   7
ATOM      7  C   UNL A   1      34.086  23.474  24.483  1.00  0.00     0.159 C 
BRANCH   7   8
ATOM      8  C   UNL A   1      33.270  22.202  24.147  1.00  0.00    -0.029 A 
ATOM      9  C   UNL A   1      32.264  19.739  23.213  1.00  0.00     0.118 A 
ATOM     10  C   UNL A   1      32.699  19.870  24.530  1.00  0.00     0.047 A 
ATOM     11  C   UNL A   1      32.135  20.872  22.427  1.00  0.00     0.047 A 
ATOM     12  C   UNL A   1      33.168  21.103  25.006  1.00  0.00     0.009 A 
ATOM     13  C   UNL A   1      32.613  22.096  22.900  1.00  0.00     0.009 A 
BRANCH   9  14
ATOM     14  O   UNL A   1      31.924  18.490  22.779  1.00  0.00    -0.497 OA
ATOM     15  C   UNL A   1      32.898  17.497  23.117  1.00  0.00     0.278 C 
ENDBRANCH   9  14
ENDBRANCH   7   8
BRANCH   7  16
ATOM     16  C   UNL A   1      35.609  23.419  24.717  1.00  0.00     0.080 A 
ATOM     17  C   UNL A   1      36.299  24.101  25.723  1.00  0.00     0.032 A 
ATOM     18  N   UNL A   1      36.252  22.429  24.039  1.00  0.00    -0.151 NA
ATOM     19  C   UNL A   1      37.563  23.671  26.117  1.00  0.00     0.072 A 
ATOM     20  N   UNL A   1      37.500  22.004  24.418  1.00  0.00    -0.112 NA
ATOM     21  C   UNL A   1      38.102  22.602  25.454  1.00  0.00     0.230 A 
BRANCH  21  22
ATOM     22  O   UNL A   1      39.268  22.044  25.871  1.00  0.00    -0.492 OA
ATOM     23  H   UNL A   1      39.736  22.420  26.590  1.00  0.00     0.295 HD
ENDBRANCH  21  22
ENDBRANCH   7  16
ENDBRANCH   4   7
ENDBRANCH   2   3
ENDBRANCH   1   2
BRANCH   1  24
ATOM     24  C   UNL A   1      34.104  28.150  26.577  1.00  0.00     0.118 C 
BRANCH  24  25
ATOM     25  N   UNL A   1      33.834  29.551  26.920  1.00  0.00    -0.352 N 
ATOM     26  C   UNL A   1      34.522  30.428  27.727  1.00  0.00     0.251 C 
ATOM     27  H   UNL A   1      33.024  29.926  26.503  1.00  0.00     0.163 HD
ATOM     28  O   UNL A   1      33.988  31.475  28.086  1.00  0.00    -0.269 OA
BRANCH  26  29
ATOM     29  C   UNL A   1      35.887  30.090  28.174  1.00  0.00     0.039 A 
ATOM     30  C   UNL A   1      36.111  29.565  29.449  1.00  0.00     0.014 A 
ATOM     31  C   UNL A   1      36.956  30.280  27.305  1.00  0.00     0.014 A 
ATOM     32  C   UNL A   1      37.400  29.155  29.805  1.00  0.00     0.010 A 
ATOM     33  C   UNL A   1      38.176  29.699  27.582  1.00  0.00     0.010 A 
ATOM     34  C   UNL A   1      38.433  29.177  28.855  1.00  0.00    -0.014 A 
BRANCH  34  35
ATOM     35  C   UNL A   1      39.827  28.761  29.151  1.00  0.00     0.031 A 
ATOM     36  C   UNL A   1      40.774  29.784  29.736  1.00  0.00     0.074 A 
ATOM     37  C   UNL A   1      40.268  27.538  28.800  1.00  0.00     0.049 A 
ATOM     38  N   UNL A   1      42.073  29.732  29.858  1.00  0.00    -0.248 NA
ATOM     39  C   UNL A   1      40.185  31.062  30.182  1.00  0.00     0.031 C 
ATOM     40  C   UNL A   1      39.462  26.478  28.190  1.00  0.00     0.029 A 
ATOM     41  N   UNL A   1      41.521  26.987  28.890  1.00  0.00    -0.354 N 
ATOM     42  C   UNL A   1      42.451  30.975  30.354  1.00  0.00     0.074 A 
ATOM     43  C   UNL A   1      41.263  31.790  30.423  1.00  0.00     0.031 C 
ATOM     44  C   UNL A   1      40.234  25.398  27.985  1.00  0.00     0.029 A 
ATOM     45  C   UNL A   1      41.600  25.706  28.396  1.00  0.00     0.049 A 
ATOM     46  H   UNL A   1      42.293  27.464  29.273  1.00  0.00     0.167 HD
ATOM     47  C   UNL A   1      43.671  31.390  30.764  1.00  0.00     0.031 A 
ATOM     48  C   UNL A   1      42.659  24.882  28.275  1.00  0.00     0.031 A 
ATOM     49  C   UNL A   1      44.835  30.552  30.753  1.00  0.00     0.049 A 
ATOM     50  C   UNL A   1      44.007  25.361  28.745  1.00  0.00     0.074 A 
ATOM     51  C   UNL A   1      46.111  30.847  31.197  1.00  0.00     0.029 A 
ATOM     52  N   UNL A   1      44.856  29.243  30.299  1.00  0.00    -0.354 N 
ATOM     53  N   UNL A   1      44.336  26.529  29.249  1.00  0.00    -0.248 NA
ATOM     54  C   UNL A   1      45.124  24.411  28.648  1.00  0.00     0.031 C 
ATOM     55  C   UNL A   1      46.915  29.726  30.973  1.00  0.00     0.029 A 
ATOM     56  C   UNL A   1      46.122  28.715  30.450  1.00  0.00     0.049 A 
ATOM     57  H   UNL A   1      44.082  28.761  29.925  1.00  0.00     0.167 HD
ATOM     58  C   UNL A   1      45.686  26.433  29.572  1.00  0.00     0.074 A 
ATOM     59  C   UNL A   1      46.110  25.097  29.211  1.00  0.00     0.031 C 
ATOM     60  C   UNL A   1      46.504  27.366  30.118  1.00  0.00     0.031 A 
BRANCH  47  61
ATOM     61  C   UNL A   1      43.794  32.793  31.298  1.00  0.00    -0.014 A 
ATOM     62  C   UNL A   1      43.994  33.880  30.427  1.00  0.00     0.010 A 
ATOM     63  C   UNL A   1      43.654  33.037  32.676  1.00  0.00     0.010 A 
ATOM     64  C   UNL A   1      44.086  35.181  30.926  1.00  0.00     0.020 A 
ATOM     65  C   UNL A   1      43.711  34.342  33.176  1.00  0.00     0.020 A 
ATOM     66  C   UNL A   1      43.939  35.404  32.297  1.00  0.00     0.054 A 
BRANCH  66  67
ATOM     67  S   UNL A   1      44.006  37.111  32.905  1.00  0.00     0.124 S 
ATOM     68  O   UNL A   1      43.908  37.876  31.666  1.00  0.00    -0.237 OA
ATOM     69  O   UNL A   1      42.839  37.181  33.781  1.00  0.00    -0.237 OA
ATOM     70  O   UNL A   1      45.297  37.187  33.585  1.00  0.00    -0.744 OA
ENDBRANCH  66  67
ENDBRANCH  47  61
BRANCH  48  71
ATOM     71  C   UNL A   1      42.494  23.521  27.690  1.00  0.00    -0.014 A 
ATOM     72  C   UNL A   1      42.043  22.449  28.482  1.00  0.00     0.010 A 
ATOM     73  C   UNL A   1      42.812  23.281  26.341  1.00  0.00     0.010 A 
ATOM     74  C   UNL A   1      41.962  21.159  27.953  1.00  0.00     0.020 A 
ATOM     75  C   UNL A   1      42.699  21.998  25.797  1.00  0.00     0.020 A 
ATOM     76  C   UNL A   1      42.296  20.940  26.614  1.00  0.00     0.054 A 
BRANCH  76  77
ATOM     77  S   UNL A   1      42.189  19.255  25.949  1.00  0.00     0.124 S 
ATOM     78  O   UNL A   1      42.706  18.460  27.057  1.00  0.00    -0.237 OA
ATOM     79  O   UNL A   1      40.759  19.113  25.682  1.00  0.00    -0.237 OA
ATOM     80  O   UNL A   1      43.036  19.302  24.760  1.00  0.00    -0.744 OA
ENDBRANCH  76  77
ENDBRANCH  48  71
BRANCH  60  81
ATOM     81  C   UNL A   1      47.916  26.962  30.437  1.00  0.00    -0.014 A 
ATOM     82  C   UNL A   1      48.961  27.158  29.520  1.00  0.00     0.010 A 
ATOM     83  C   UNL A   1      48.209  26.468  31.723  1.00  0.00     0.010 A 
ATOM     84  C   UNL A   1      50.277  26.853  29.878  1.00  0.00     0.020 A 
ATOM     85  C   UNL A   1      49.525  26.192  32.095  1.00  0.00     0.020 A 
ATOM     86  C   UNL A   1      50.550  26.379  31.166  1.00  0.00     0.054 A 
BRANCH  86  87
ATOM     87  S   UNL A   1      52.275  26.065  31.630  1.00  0.00     0.124 S 
ATOM     88  O   UNL A   1      52.497  27.066  32.670  1.00  0.00    -0.237 OA
ATOM     89  O   UNL A   1      52.233  24.679  32.089  1.00  0.00    -0.237 OA
ATOM     90  O   UNL A   1      53.013  26.283  30.388  1.00  0.00    -0.744 OA
ENDBRANCH  86  87
ENDBRANCH  60  81
ENDBRANCH  34  35
ENDBRANCH  26  29
ENDBRANCH  24  25
ENDBRANCH   1  24
TORSDOF 17
ENDMDL
MODEL 3
REMARK VINA RESULT:     -11.0      1.385      3.227
REMARK SMILES COc1ccc([C@H](C(=O)NCCCNC(=O)c2ccc(-c3c4nc(c(-c5ccc(S(=O)(=O)[O-])cc5)c5ccc([nH]5)c(-c5ccc(S(=O)(=O)[O-])cc5)c5nc(c(-c6ccc(S(=O)(=O)[O-])cc6)c6ccc3[nH]6)C=C5)C=C4)cc2)c2ccc(O)nn2)cc1
REMARK SMILES IDX 12 1 11 2 10 3 8 4 9 5 7 7 6 8 3 9 4 10 85 11 5 12 84 13
REMARK SMILES IDX 2 14 1 15 77 16 78 17 83 18 79 19 82 20 80 21 81 22 13 24
REMARK SMILES IDX 14 25 15 26 16 28 17 29 18 30 76 31 19 32 75 33 20 34 21 35
REMARK SMILES IDX 22 36 69 37 23 38 74 39 68 40 70 41 24 42 73 43 67 44 66 45
REMARK SMILES IDX 25 47 55 48 36 49 54 50 37 51 40 52 53 53 71 54 38 55 39 56
REMARK SMILES IDX 52 58 72 59 41 60 26 61 27 62 35 63 28 64 34 65 29 66 30 67
REMARK SMILES IDX 31 68 32 69 33 70 56 71 57 72 65 73 58 74 64 75 59 76 60 77
REMARK SMILES IDX 61 78 62 79 63 80 42 81 43 82 51 83 44 84 50 85 45 86 46 87
REMARK SMILES IDX 47 88 48 89 49 90
REMARK H PARENT 10 6 81 23 14 27 70 46 40 57
REMARK Flexibility Score: inf
ROOT
ATOM      1  C   UNL A   1      31.961  28.055  26.828  1.00  0.00     0.042 C 
ENDROOT
BRANCH   1   2
ATOM      2  C   UNL A   1      31.370  28.583  25.540  1.00  0.00     0.117 C 
BRANCH   2   3
ATOM      3  N   UNL A   1      32.361  29.092  24.614  1.00  0.00    -0.355 N 
ATOM      4  C   UNL A   1      32.724  28.560  23.396  1.00  0.00     0.233 C 
ATOM      5  O   UNL A   1      33.606  29.133  22.751  1.00  0.00    -0.274 OA
ATOM      6  H   UNL A   1      32.831  29.913  24.887  1.00  0.00     0.163 HD
BRANCH   4   7
ATOM      7  C   UNL A   1      32.066  27.229  22.903  1.00  0.00     0.159 C 
BRANCH   7   8
ATOM      8  C   UNL A   1      32.517  26.061  23.811  1.00  0.00    -0.029 A 
ATOM      9  C   UNL A   1      33.273  24.328  25.904  1.00  0.00     0.118 A 
ATOM     10  C   UNL A   1      32.026  24.199  25.297  1.00  0.00     0.047 A 
ATOM     11  C   UNL A   1      34.216  25.172  25.342  1.00  0.00     0.047 A 
ATOM     12  C   UNL A   1      31.662  25.036  24.233  1.00  0.00     0.009 A 
ATOM     13  C   UNL A   1      33.847  26.013  24.290  1.00  0.00     0.009 A 
BRANCH   9  14
ATOM     14  O   UNL A   1      33.525  23.559  27.005  1.00  0.00    -0.497 OA
ATOM     15  C   UNL A   1      33.197  22.180  26.808  1.00  0.00     0.278 C 
ENDBRANCH   9  14
ENDBRANCH   7   8
BRANCH   7  16
ATOM     16  C   UNL A   1      30.575  27.564  22.699  1.00  0.00     0.080 A 
ATOM     17  C   UNL A   1      29.513  26.994  23.407  1.00  0.00     0.032 A 
ATOM     18  N   UNL A   1      30.340  28.677  21.952  1.00  0.00    -0.151 NA
ATOM     19  C   UNL A   1      28.282  27.642  23.461  1.00  0.00     0.072 A 
ATOM     20  N   UNL A   1      29.127  29.318  21.996  1.00  0.00    -0.112 NA
ATOM     21  C   UNL A   1      28.154  28.813  22.764  1.00  0.00     0.230 A 
BRANCH  21  22
ATOM     22  O   UNL A   1      27.031  29.569  22.878  1.00  0.00    -0.492 OA
ATOM     23  H   UNL A   1      26.750  29.865  23.722  1.00  0.00     0.295 HD
ENDBRANCH  21  22
ENDBRANCH   7  16
ENDBRANCH   4   7
ENDBRANCH   2   3
ENDBRANCH   1   2
BRANCH   1  24
ATOM     24  C   UNL A   1      33.370  28.566  27.009  1.00  0.00     0.118 C 
BRANCH  24  25
ATOM     25  N   UNL A   1      33.395  29.994  27.347  1.00  0.00    -0.352 N 
ATOM     26  C   UNL A   1      34.337  30.744  28.012  1.00  0.00     0.251 C 
ATOM     27  H   UNL A   1      32.605  30.499  27.048  1.00  0.00     0.163 HD
ATOM     28  O   UNL A   1      34.049  31.869  28.416  1.00  0.00    -0.269 OA
BRANCH  26  29
ATOM     29  C   UNL A   1      35.679  30.181  28.255  1.00  0.00     0.039 A 
ATOM     30  C   UNL A   1      36.651  30.193  27.251  1.00  0.00     0.014 A 
ATOM     31  C   UNL A   1      35.982  29.654  29.506  1.00  0.00     0.014 A 
ATOM     32  C   UNL A   1      37.945  29.751  27.543  1.00  0.00     0.010 A 
ATOM     33  C   UNL A   1      37.296  29.406  29.845  1.00  0.00     0.010 A 
ATOM     34  C   UNL A   1      38.288  29.399  28.858  1.00  0.00    -0.014 A 
BRANCH  34  35
ATOM     35  C   UNL A   1      39.636  28.919  29.252  1.00  0.00     0.031 A 
ATOM     36  C   UNL A   1      40.574  29.890  29.934  1.00  0.00     0.074 A 
ATOM     37  C   UNL A   1      40.055  27.686  28.909  1.00  0.00     0.049 A 
ATOM     38  N   UNL A   1      41.856  29.781  30.156  1.00  0.00    -0.248 NA
ATOM     39  C   UNL A   1      40.004  31.182  30.362  1.00  0.00     0.031 C 
ATOM     40  C   UNL A   1      39.257  26.673  28.214  1.00  0.00     0.029 A 
ATOM     41  N   UNL A   1      41.273  27.081  29.085  1.00  0.00    -0.354 N 
ATOM     42  C   UNL A   1      42.243  30.997  30.709  1.00  0.00     0.074 A 
ATOM     43  C   UNL A   1      41.087  31.860  30.704  1.00  0.00     0.031 C 
ATOM     44  C   UNL A   1      39.999  25.566  28.045  1.00  0.00     0.029 A 
ATOM     45  C   UNL A   1      41.340  25.808  28.569  1.00  0.00     0.049 A 
ATOM     46  H   UNL A   1      42.030  27.518  29.538  1.00  0.00     0.167 HD
ATOM     47  C   UNL A   1      43.442  31.352  31.224  1.00  0.00     0.031 A 
ATOM     48  C   UNL A   1      42.371  24.943  28.512  1.00  0.00     0.031 A 
ATOM     49  C   UNL A   1      44.569  30.467  31.285  1.00  0.00     0.049 A 
ATOM     50  C   UNL A   1      43.696  25.356  29.099  1.00  0.00     0.074 A 
ATOM     51  C   UNL A   1      45.816  30.699  31.835  1.00  0.00     0.029 A 
ATOM     52  N   UNL A   1      44.573  29.167  30.804  1.00  0.00    -0.354 N 
ATOM     53  N   UNL A   1      44.030  26.498  29.654  1.00  0.00    -0.248 NA
ATOM     54  C   UNL A   1      44.777  24.362  29.068  1.00  0.00     0.031 C 
ATOM     55  C   UNL A   1      46.589  29.550  31.649  1.00  0.00     0.029 A 
ATOM     56  C   UNL A   1      45.801  28.584  31.042  1.00  0.00     0.049 A 
ATOM     57  H   UNL A   1      43.812  28.726  30.359  1.00  0.00     0.167 HD
ATOM     58  C   UNL A   1      45.345  26.340  30.079  1.00  0.00     0.074 A 
ATOM     59  C   UNL A   1      45.742  24.995  29.723  1.00  0.00     0.031 C 
ATOM     60  C   UNL A   1      46.154  27.227  30.710  1.00  0.00     0.031 A 
BRANCH  47  61
ATOM     61  C   UNL A   1      43.578  32.738  31.798  1.00  0.00    -0.014 A 
ATOM     62  C   UNL A   1      43.992  33.815  30.991  1.00  0.00     0.010 A 
ATOM     63  C   UNL A   1      43.239  32.981  33.141  1.00  0.00     0.010 A 
ATOM     64  C   UNL A   1      44.096  35.101  31.524  1.00  0.00     0.020 A 
ATOM     65  C   UNL A   1      43.309  34.273  33.670  1.00  0.00     0.020 A 
ATOM     66  C   UNL A   1      43.749  35.323  32.859  1.00  0.00     0.054 A 
BRANCH  66  67
ATOM     67  S   UNL A   1      43.840  37.015  33.504  1.00  0.00     0.124 S 
ATOM     68  O   UNL A   1      42.652  37.078  34.351  1.00  0.00    -0.237 OA
ATOM     69  O   UNL A   1      45.118  37.017  34.211  1.00  0.00    -0.237 OA
ATOM     70  O   UNL A   1      43.793  37.847  32.304  1.00  0.00    -0.744 OA
ENDBRANCH  66  67
ENDBRANCH  47  61
BRANCH  48  71
ATOM     71  C   UNL A   1      42.198  23.602  27.886  1.00  0.00    -0.014 A 
ATOM     72  C   UNL A   1      41.840  22.486  28.664  1.00  0.00     0.010 A 
ATOM     73  C   UNL A   1      42.416  23.426  26.507  1.00  0.00     0.010 A 
ATOM     74  C   UNL A   1      41.754  21.216  28.089  1.00  0.00     0.020 A 
ATOM     75  C   UNL A   1      42.296  22.162  25.920  1.00  0.00     0.020 A 
ATOM     76  C   UNL A   1      41.988  21.061  26.720  1.00  0.00     0.054 A 
BRANCH  76  77
ATOM     77  S   UNL A   1      41.876  19.401  25.995  1.00  0.00     0.124 S 
ATOM     78  O   UNL A   1      42.781  19.507  24.856  1.00  0.00    -0.237 OA
ATOM     79  O   UNL A   1      42.332  18.548  27.090  1.00  0.00    -0.237 OA
ATOM     80  O   UNL A   1      40.459  19.270  25.662  1.00  0.00    -0.744 OA
ENDBRANCH  76  77
ENDBRANCH  48  71
BRANCH  60  81
ATOM     81  C   UNL A   1      47.518  26.757  31.130  1.00  0.00    -0.014 A 
ATOM     82  C   UNL A   1      47.769  26.308  32.436  1.00  0.00     0.010 A 
ATOM     83  C   UNL A   1      48.538  26.673  30.163  1.00  0.00     0.010 A 
ATOM     84  C   UNL A   1      49.025  25.796  32.774  1.00  0.00     0.020 A 
ATOM     85  C   UNL A   1      49.783  26.133  30.488  1.00  0.00     0.020 A 
ATOM     86  C   UNL A   1      50.020  25.705  31.795  1.00  0.00     0.054 A 
BRANCH  86  87
ATOM     87  S   UNL A   1      51.614  24.963  32.240  1.00  0.00     0.124 S 
ATOM     88  O   UNL A   1      51.400  23.558  31.905  1.00  0.00    -0.237 OA
ATOM     89  O   UNL A   1      52.550  25.681  31.377  1.00  0.00    -0.237 OA
ATOM     90  O   UNL A   1      51.744  25.252  33.667  1.00  0.00    -0.744 OA
ENDBRANCH  86  87
ENDBRANCH  60  81
ENDBRANCH  34  35
ENDBRANCH  26  29
ENDBRANCH  24  25
ENDBRANCH   1  24
TORSDOF 17
ENDMDL
