MODEL 1
REMARK VINA RESULT:     -11.5      0.000      0.000
REMARK SMILES COC(=O)c1cccc(NC(=O)[C@@H]2[C@@H]3CC[C@@H](C3)[C@@H]2C(=O)NCCCNC(=O)c2ccc(-c3c4nc(c(-c5ccc(S(=O)(=O)[O-])cc5)c5ccc([nH]5)c(-c5ccc(S(=O)(=O)[O-])cc5)c5nc(c(-c6ccc(S(=O)(=O)[O-])cc6)c6ccc3[nH]6)C=C5)C=C4)cc2)c1
REMARK SMILES IDX 23 1 22 2 20 3 21 4 19 6 13 7 14 8 15 9 18 10 17 11 16 12
REMARK SMILES IDX 11 13 10 14 12 16 9 17 5 18 6 19 89 20 7 21 8 22 3 23 4 24
REMARK SMILES IDX 2 25 1 26 24 27 25 28 26 29 27 30 28 32 29 33 30 34 88 35
REMARK SMILES IDX 31 36 87 37 32 38 33 39 34 40 81 41 35 42 86 43 80 44 82 45
REMARK SMILES IDX 36 46 85 47 79 48 78 49 37 51 67 52 48 53 66 54 49 55 52 56
REMARK SMILES IDX 65 57 83 58 50 59 51 60 64 62 84 63 53 64 38 65 39 66 47 67
REMARK SMILES IDX 40 68 46 69 41 70 42 71 43 72 44 73 45 74 68 75 69 76 77 77
REMARK SMILES IDX 70 78 76 79 71 80 72 81 73 82 74 83 75 84 54 85 55 86 63 87
REMARK SMILES IDX 56 88 62 89 57 90 58 91 59 92 60 93 61 94
REMARK H PARENT 22 5 10 15 26 31 82 50 52 61
REMARK Flexibility Score: inf
ROOT
ATOM      1  C   UNL A   1      31.649  27.057  26.281  1.00  0.00     0.117 C 
ENDROOT
BRANCH   1   2
ATOM      2  N   UNL A   1      31.314  25.670  26.529  1.00  0.00    -0.356 N 
ATOM      3  C   UNL A   1      32.024  24.521  26.493  1.00  0.00     0.224 C 
ATOM      4  O   UNL A   1      31.366  23.492  26.691  1.00  0.00    -0.275 OA
ATOM      5  H   UNL A   1      30.371  25.535  26.777  1.00  0.00     0.163 HD
BRANCH   3   6
ATOM      6  C   UNL A   1      33.500  24.406  26.102  1.00  0.00     0.094 C 
ATOM      7  C   UNL A   1      33.760  24.199  24.575  1.00  0.00     0.094 C 
ATOM      8  C   UNL A   1      34.825  23.062  24.541  1.00  0.00     0.002 C 
ATOM      9  C   UNL A   1      34.307  21.691  24.983  1.00  0.00     0.005 C 
ATOM     10  C   UNL A   1      35.652  23.439  25.774  1.00  0.00     0.009 C 
ATOM     11  C   UNL A   1      34.446  23.356  26.715  1.00  0.00     0.002 C 
ATOM     12  C   UNL A   1      33.939  21.926  26.445  1.00  0.00     0.005 C 
BRANCH   7  13
ATOM     13  C   UNL A   1      32.515  23.999  23.720  1.00  0.00     0.228 C 
ATOM     14  N   UNL A   1      31.890  25.039  23.089  1.00  0.00    -0.326 N 
ATOM     15  H   UNL A   1      31.106  24.752  22.567  1.00  0.00     0.169 HD
ATOM     16  O   UNL A   1      32.031  22.875  23.551  1.00  0.00    -0.274 OA
BRANCH  14  17
ATOM     17  C   UNL A   1      32.114  26.428  23.018  1.00  0.00     0.042 A 
ATOM     18  C   UNL A   1      31.124  28.611  22.598  1.00  0.00     0.062 A 
ATOM     19  C   UNL A   1      32.394  29.188  22.536  1.00  0.00     0.016 A 
ATOM     20  C   UNL A   1      30.983  27.236  22.841  1.00  0.00     0.041 A 
ATOM     21  C   UNL A   1      33.511  28.411  22.815  1.00  0.00     0.003 A 
ATOM     22  C   UNL A   1      33.361  27.049  23.092  1.00  0.00     0.026 A 
BRANCH  18  23
ATOM     23  C   UNL A   1      29.958  29.493  22.377  1.00  0.00     0.337 C 
ATOM     24  O   UNL A   1      29.578  29.846  21.276  1.00  0.00    -0.246 OA
BRANCH  23  25
ATOM     25  O   UNL A   1      29.468  29.907  23.573  1.00  0.00    -0.465 OA
ATOM     26  C   UNL A   1      28.997  31.255  23.557  1.00  0.00     0.282 C 
ENDBRANCH  23  25
ENDBRANCH  18  23
ENDBRANCH  14  17
ENDBRANCH   7  13
ENDBRANCH   3   6
ENDBRANCH   1   2
BRANCH   1  27
ATOM     27  C   UNL A   1      32.420  27.682  27.427  1.00  0.00     0.042 C 
BRANCH  27  28
ATOM     28  C   UNL A   1      33.628  28.481  26.970  1.00  0.00     0.118 C 
BRANCH  28  29
ATOM     29  N   UNL A   1      33.577  29.869  27.417  1.00  0.00    -0.352 N 
ATOM     30  C   UNL A   1      34.485  30.598  28.146  1.00  0.00     0.251 C 
ATOM     31  H   UNL A   1      32.765  30.360  27.155  1.00  0.00     0.163 HD
ATOM     32  O   UNL A   1      34.155  31.678  28.627  1.00  0.00    -0.269 OA
BRANCH  30  33
ATOM     33  C   UNL A   1      35.848  30.071  28.365  1.00  0.00     0.039 A 
ATOM     34  C   UNL A   1      36.791  30.156  27.339  1.00  0.00     0.014 A 
ATOM     35  C   UNL A   1      36.194  29.493  29.588  1.00  0.00     0.014 A 
ATOM     36  C   UNL A   1      38.103  29.736  27.573  1.00  0.00     0.010 A 
ATOM     37  C   UNL A   1      37.521  29.190  29.857  1.00  0.00     0.010 A 
ATOM     38  C   UNL A   1      38.489  29.295  28.849  1.00  0.00    -0.014 A 
BRANCH  38  39
ATOM     39  C   UNL A   1      39.894  28.926  29.156  1.00  0.00     0.031 A 
ATOM     40  C   UNL A   1      40.828  29.952  29.743  1.00  0.00     0.074 A 
ATOM     41  C   UNL A   1      40.347  27.698  28.828  1.00  0.00     0.049 A 
ATOM     42  N   UNL A   1      42.105  29.846  30.006  1.00  0.00    -0.248 NA
ATOM     43  C   UNL A   1      40.266  31.280  30.043  1.00  0.00     0.031 C 
ATOM     44  C   UNL A   1      39.552  26.639  28.198  1.00  0.00     0.029 A 
ATOM     45  N   UNL A   1      41.592  27.137  28.967  1.00  0.00    -0.354 N 
ATOM     46  C   UNL A   1      42.502  31.095  30.469  1.00  0.00     0.074 A 
ATOM     47  C   UNL A   1      41.344  31.958  30.409  1.00  0.00     0.031 C 
ATOM     48  C   UNL A   1      40.319  25.551  28.033  1.00  0.00     0.029 A 
ATOM     49  C   UNL A   1      41.672  25.847  28.496  1.00  0.00     0.049 A 
ATOM     50  H   UNL A   1      42.355  27.612  29.367  1.00  0.00     0.167 HD
ATOM     51  C   UNL A   1      43.715  31.483  30.923  1.00  0.00     0.031 A 
ATOM     52  C   UNL A   1      42.718  25.001  28.428  1.00  0.00     0.031 A 
ATOM     53  C   UNL A   1      44.854  30.610  31.010  1.00  0.00     0.049 A 
ATOM     54  C   UNL A   1      44.054  25.455  28.952  1.00  0.00     0.074 A 
ATOM     55  C   UNL A   1      46.104  30.880  31.537  1.00  0.00     0.029 A 
ATOM     56  N   UNL A   1      44.886  29.301  30.551  1.00  0.00    -0.354 N 
ATOM     57  N   UNL A   1      44.382  26.611  29.478  1.00  0.00    -0.248 NA
ATOM     58  C   UNL A   1      45.158  24.488  28.886  1.00  0.00     0.031 C 
ATOM     59  C   UNL A   1      46.912  29.758  31.335  1.00  0.00     0.029 A 
ATOM     60  C   UNL A   1      46.145  28.763  30.751  1.00  0.00     0.049 A 
ATOM     61  H   UNL A   1      44.125  28.826  30.145  1.00  0.00     0.167 HD
ATOM     62  C   UNL A   1      45.723  26.500  29.831  1.00  0.00     0.074 A 
ATOM     63  C   UNL A   1      46.137  25.157  29.477  1.00  0.00     0.031 C 
ATOM     64  C   UNL A   1      46.538  27.424  30.396  1.00  0.00     0.031 A 
BRANCH  51  65
ATOM     65  C   UNL A   1      43.886  32.917  31.355  1.00  0.00    -0.014 A 
ATOM     66  C   UNL A   1      44.374  33.897  30.472  1.00  0.00     0.010 A 
ATOM     67  C   UNL A   1      43.480  33.303  32.647  1.00  0.00     0.010 A 
ATOM     68  C   UNL A   1      44.477  35.229  30.881  1.00  0.00     0.020 A 
ATOM     69  C   UNL A   1      43.555  34.638  33.049  1.00  0.00     0.020 A 
ATOM     70  C   UNL A   1      44.063  35.592  32.166  1.00  0.00     0.054 A 
BRANCH  70  71
ATOM     71  S   UNL A   1      44.156  37.338  32.647  1.00  0.00     0.124 S 
ATOM     72  O   UNL A   1      43.932  38.015  31.371  1.00  0.00    -0.237 OA
ATOM     73  O   UNL A   1      43.074  37.459  33.620  1.00  0.00    -0.237 OA
ATOM     74  O   UNL A   1      45.503  37.476  33.196  1.00  0.00    -0.744 OA
ENDBRANCH  70  71
ENDBRANCH  51  65
BRANCH  52  75
ATOM     75  C   UNL A   1      42.550  23.644  27.835  1.00  0.00    -0.014 A 
ATOM     76  C   UNL A   1      42.102  22.565  28.619  1.00  0.00     0.010 A 
ATOM     77  C   UNL A   1      42.848  23.422  26.478  1.00  0.00     0.010 A 
ATOM     78  C   UNL A   1      41.989  21.286  28.066  1.00  0.00     0.020 A 
ATOM     79  C   UNL A   1      42.703  22.152  25.913  1.00  0.00     0.020 A 
ATOM     80  C   UNL A   1      42.290  21.087  26.716  1.00  0.00     0.054 A 
BRANCH  80  81
ATOM     81  S   UNL A   1      42.111  19.425  26.012  1.00  0.00     0.124 S 
ATOM     82  O   UNL A   1      42.635  18.584  27.084  1.00  0.00    -0.237 OA
ATOM     83  O   UNL A   1      40.673  19.335  25.781  1.00  0.00    -0.237 OA
ATOM     84  O   UNL A   1      42.927  19.477  24.801  1.00  0.00    -0.744 OA
ENDBRANCH  80  81
ENDBRANCH  52  75
BRANCH  64  85
ATOM     85  C   UNL A   1      47.951  27.008  30.706  1.00  0.00    -0.014 A 
ATOM     86  C   UNL A   1      48.990  27.193  29.776  1.00  0.00     0.010 A 
ATOM     87  C   UNL A   1      48.253  26.479  31.975  1.00  0.00     0.010 A 
ATOM     88  C   UNL A   1      50.299  26.826  30.100  1.00  0.00     0.020 A 
ATOM     89  C   UNL A   1      49.565  26.144  32.313  1.00  0.00     0.020 A 
ATOM     90  C   UNL A   1      50.578  26.306  31.367  1.00  0.00     0.054 A 
BRANCH  90  91
ATOM     91  S   UNL A   1      52.292  25.882  31.776  1.00  0.00     0.124 S 
ATOM     92  O   UNL A   1      52.179  24.471  32.138  1.00  0.00    -0.237 OA
ATOM     93  O   UNL A   1      52.996  26.156  30.526  1.00  0.00    -0.237 OA
ATOM     94  O   UNL A   1      52.620  26.783  32.880  1.00  0.00    -0.744 OA
ENDBRANCH  90  91
ENDBRANCH  64  85
ENDBRANCH  38  39
ENDBRANCH  30  33
ENDBRANCH  28  29
ENDBRANCH  27  28
ENDBRANCH   1  27
TORSDOF 17
ENDMDL
MODEL 2
REMARK VINA RESULT:     -11.0      2.094      4.594
REMARK SMILES COC(=O)c1cccc(NC(=O)[C@@H]2[C@@H]3CC[C@@H](C3)[C@@H]2C(=O)NCCCNC(=O)c2ccc(-c3c4nc(c(-c5ccc(S(=O)(=O)[O-])cc5)c5ccc([nH]5)c(-c5ccc(S(=O)(=O)[O-])cc5)c5nc(c(-c6ccc(S(=O)(=O)[O-])cc6)c6ccc3[nH]6)C=C5)C=C4)cc2)c1
REMARK SMILES IDX 23 1 22 2 20 3 21 4 19 6 13 7 14 8 15 9 18 10 17 11 16 12
REMARK SMILES IDX 11 13 10 14 12 16 9 17 5 18 6 19 89 20 7 21 8 22 3 23 4 24
REMARK SMILES IDX 2 25 1 26 24 27 25 28 26 29 27 30 28 32 29 33 30 34 88 35
REMARK SMILES IDX 31 36 87 37 32 38 33 39 34 40 81 41 35 42 86 43 80 44 82 45
REMARK SMILES IDX 36 46 85 47 79 48 78 49 37 51 67 52 48 53 66 54 49 55 52 56
REMARK SMILES IDX 65 57 83 58 50 59 51 60 64 62 84 63 53 64 38 65 39 66 47 67
REMARK SMILES IDX 40 68 46 69 41 70 42 71 43 72 44 73 45 74 68 75 69 76 77 77
REMARK SMILES IDX 70 78 76 79 71 80 72 81 73 82 74 83 75 84 54 85 55 86 63 87
REMARK SMILES IDX 56 88 62 89 57 90 58 91 59 92 60 93 61 94
REMARK H PARENT 22 5 10 15 26 31 82 50 52 61
REMARK Flexibility Score: inf
ROOT
ATOM      1  C   UNL A   1      33.432  25.687  25.672  1.00  0.00     0.117 C 
ENDROOT
BRANCH   1   2
ATOM      2  N   UNL A   1      32.544  25.031  24.734  1.00  0.00    -0.356 N 
ATOM      3  C   UNL A   1      32.708  24.026  23.845  1.00  0.00     0.224 C 
ATOM      4  O   UNL A   1      31.720  23.783  23.141  1.00  0.00    -0.275 OA
ATOM      5  H   UNL A   1      31.629  25.393  24.746  1.00  0.00     0.163 HD
BRANCH   3   6
ATOM      6  C   UNL A   1      34.025  23.295  23.573  1.00  0.00     0.094 C 
ATOM      7  C   UNL A   1      34.154  21.898  24.263  1.00  0.00     0.094 C 
ATOM      8  C   UNL A   1      35.593  21.923  24.860  1.00  0.00     0.002 C 
ATOM      9  C   UNL A   1      35.782  22.894  26.027  1.00  0.00     0.005 C 
ATOM     10  C   UNL A   1      36.323  22.695  23.756  1.00  0.00     0.009 C 
ATOM     11  C   UNL A   1      35.402  23.912  23.881  1.00  0.00     0.002 C 
ATOM     12  C   UNL A   1      35.536  24.252  25.378  1.00  0.00     0.005 C 
BRANCH   7  13
ATOM     13  C   UNL A   1      33.023  21.531  25.214  1.00  0.00     0.228 C 
ATOM     14  N   UNL A   1      32.472  20.279  25.243  1.00  0.00    -0.326 N 
ATOM     15  H   UNL A   1      31.759  20.192  25.916  1.00  0.00     0.169 HD
ATOM     16  O   UNL A   1      32.570  22.356  26.015  1.00  0.00    -0.274 OA
BRANCH  14  17
ATOM     17  C   UNL A   1      32.695  19.087  24.527  1.00  0.00     0.042 A 
ATOM     18  C   UNL A   1      33.717  16.878  24.558  1.00  0.00     0.062 A 
ATOM     19  C   UNL A   1      33.508  16.749  23.183  1.00  0.00     0.016 A 
ATOM     20  C   UNL A   1      33.311  18.041  25.229  1.00  0.00     0.041 A 
ATOM     21  C   UNL A   1      32.806  17.737  22.505  1.00  0.00     0.003 A 
ATOM     22  C   UNL A   1      32.371  18.877  23.187  1.00  0.00     0.026 A 
BRANCH  18  23
ATOM     23  C   UNL A   1      34.395  15.765  25.256  1.00  0.00     0.337 C 
ATOM     24  O   UNL A   1      35.525  15.838  25.704  1.00  0.00    -0.246 OA
BRANCH  23  25
ATOM     25  O   UNL A   1      33.608  14.660  25.222  1.00  0.00    -0.465 OA
ATOM     26  C   UNL A   1      32.467  14.750  26.076  1.00  0.00     0.282 C 
ENDBRANCH  23  25
ENDBRANCH  18  23
ENDBRANCH  14  17
ENDBRANCH   7  13
ENDBRANCH   3   6
ENDBRANCH   1   2
BRANCH   1  27
ATOM     27  C   UNL A   1      33.114  27.159  25.839  1.00  0.00     0.042 C 
BRANCH  27  28
ATOM     28  C   UNL A   1      34.082  27.880  26.761  1.00  0.00     0.118 C 
BRANCH  28  29
ATOM     29  N   UNL A   1      33.798  29.308  26.859  1.00  0.00    -0.352 N 
ATOM     30  C   UNL A   1      34.496  30.309  27.490  1.00  0.00     0.251 C 
ATOM     31  H   UNL A   1      32.978  29.600  26.399  1.00  0.00     0.163 HD
ATOM     32  O   UNL A   1      33.970  31.404  27.663  1.00  0.00    -0.269 OA
BRANCH  30  33
ATOM     33  C   UNL A   1      35.867  30.056  27.978  1.00  0.00     0.039 A 
ATOM     34  C   UNL A   1      36.062  29.632  29.294  1.00  0.00     0.014 A 
ATOM     35  C   UNL A   1      36.963  30.233  27.131  1.00  0.00     0.014 A 
ATOM     36  C   UNL A   1      37.349  29.310  29.730  1.00  0.00     0.010 A 
ATOM     37  C   UNL A   1      38.220  29.799  27.527  1.00  0.00     0.010 A 
ATOM     38  C   UNL A   1      38.431  29.345  28.836  1.00  0.00    -0.014 A 
BRANCH  38  39
ATOM     39  C   UNL A   1      39.795  28.924  29.243  1.00  0.00     0.031 A 
ATOM     40  C   UNL A   1      40.709  29.903  29.933  1.00  0.00     0.074 A 
ATOM     41  C   UNL A   1      40.237  27.692  28.916  1.00  0.00     0.049 A 
ATOM     42  N   UNL A   1      41.957  29.750  30.294  1.00  0.00    -0.248 NA
ATOM     43  C   UNL A   1      40.164  31.240  30.226  1.00  0.00     0.031 C 
ATOM     44  C   UNL A   1      39.464  26.676  28.194  1.00  0.00     0.029 A 
ATOM     45  N   UNL A   1      41.449  27.087  29.138  1.00  0.00    -0.354 N 
ATOM     46  C   UNL A   1      42.351  30.972  30.824  1.00  0.00     0.074 A 
ATOM     47  C   UNL A   1      41.228  31.873  30.697  1.00  0.00     0.031 C 
ATOM     48  C   UNL A   1      40.210  25.568  28.059  1.00  0.00     0.029 A 
ATOM     49  C   UNL A   1      41.529  25.808  28.637  1.00  0.00     0.049 A 
ATOM     50  H   UNL A   1      42.192  27.527  29.611  1.00  0.00     0.167 HD
ATOM     51  C   UNL A   1      43.535  31.310  31.384  1.00  0.00     0.031 A 
ATOM     52  C   UNL A   1      42.552  24.932  28.628  1.00  0.00     0.031 A 
ATOM     53  C   UNL A   1      44.637  30.398  31.536  1.00  0.00     0.049 A 
ATOM     54  C   UNL A   1      43.854  25.329  29.270  1.00  0.00     0.074 A 
ATOM     55  C   UNL A   1      45.848  30.615  32.170  1.00  0.00     0.029 A 
ATOM     56  N   UNL A   1      44.667  29.102  31.043  1.00  0.00    -0.354 N 
ATOM     57  N   UNL A   1      44.172  26.460  29.854  1.00  0.00    -0.248 NA
ATOM     58  C   UNL A   1      44.930  24.329  29.264  1.00  0.00     0.031 C 
ATOM     59  C   UNL A   1      46.636  29.473  32.000  1.00  0.00     0.029 A 
ATOM     60  C   UNL A   1      45.889  28.519  31.327  1.00  0.00     0.049 A 
ATOM     61  H   UNL A   1      43.928  28.663  30.563  1.00  0.00     0.167 HD
ATOM     62  C   UNL A   1      45.476  26.296  30.310  1.00  0.00     0.074 A 
ATOM     63  C   UNL A   1      45.877  24.951  29.951  1.00  0.00     0.031 C 
ATOM     64  C   UNL A   1      46.270  27.178  30.965  1.00  0.00     0.031 A 
BRANCH  51  65
ATOM     65  C   UNL A   1      43.712  32.725  31.871  1.00  0.00    -0.014 A 
ATOM     66  C   UNL A   1      43.467  33.076  33.211  1.00  0.00     0.010 A 
ATOM     67  C   UNL A   1      44.203  33.704  30.987  1.00  0.00     0.010 A 
ATOM     68  C   UNL A   1      43.685  34.385  33.650  1.00  0.00     0.020 A 
ATOM     69  C   UNL A   1      44.450  35.005  31.430  1.00  0.00     0.020 A 
ATOM     70  C   UNL A   1      44.179  35.340  32.757  1.00  0.00     0.054 A 
BRANCH  70  71
ATOM     71  S   UNL A   1      44.505  37.015  33.371  1.00  0.00     0.124 S 
ATOM     72  O   UNL A   1      43.163  37.472  33.728  1.00  0.00    -0.237 OA
ATOM     73  O   UNL A   1      45.405  36.773  34.495  1.00  0.00    -0.237 OA
ATOM     74  O   UNL A   1      45.109  37.694  32.227  1.00  0.00    -0.744 OA
ENDBRANCH  70  71
ENDBRANCH  51  65
BRANCH  52  75
ATOM     75  C   UNL A   1      42.392  23.597  27.984  1.00  0.00    -0.014 A 
ATOM     76  C   UNL A   1      41.863  22.509  28.701  1.00  0.00     0.010 A 
ATOM     77  C   UNL A   1      42.779  23.406  26.644  1.00  0.00     0.010 A 
ATOM     78  C   UNL A   1      41.757  21.250  28.103  1.00  0.00     0.020 A 
ATOM     79  C   UNL A   1      42.643  22.157  26.032  1.00  0.00     0.020 A 
ATOM     80  C   UNL A   1      42.148  21.082  26.772  1.00  0.00     0.054 A 
BRANCH  80  81
ATOM     81  S   UNL A   1      41.978  19.445  26.007  1.00  0.00     0.124 S 
ATOM     82  O   UNL A   1      42.489  18.567  27.055  1.00  0.00    -0.237 OA
ATOM     83  O   UNL A   1      40.542  19.364  25.756  1.00  0.00    -0.237 OA
ATOM     84  O   UNL A   1      42.808  19.541  24.808  1.00  0.00    -0.744 OA
ENDBRANCH  80  81
ENDBRANCH  52  75
BRANCH  64  85
ATOM     85  C   UNL A   1      47.641  26.709  31.375  1.00  0.00    -0.014 A 
ATOM     86  C   UNL A   1      47.865  26.105  32.625  1.00  0.00     0.010 A 
ATOM     87  C   UNL A   1      48.709  26.821  30.465  1.00  0.00     0.010 A 
ATOM     88  C   UNL A   1      49.141  25.651  32.969  1.00  0.00     0.020 A 
ATOM     89  C   UNL A   1      49.977  26.338  30.793  1.00  0.00     0.020 A 
ATOM     90  C   UNL A   1      50.188  25.769  32.050  1.00  0.00     0.054 A 
BRANCH  90  91
ATOM     91  S   UNL A   1      51.823  25.130  32.505  1.00  0.00     0.124 S 
ATOM     92  O   UNL A   1      51.675  23.701  32.242  1.00  0.00    -0.237 OA
ATOM     93  O   UNL A   1      52.711  25.848  31.595  1.00  0.00    -0.237 OA
ATOM     94  O   UNL A   1      51.957  25.493  33.915  1.00  0.00    -0.744 OA
ENDBRANCH  90  91
ENDBRANCH  64  85
ENDBRANCH  38  39
ENDBRANCH  30  33
ENDBRANCH  28  29
ENDBRANCH  27  28
ENDBRANCH   1  27
TORSDOF 17
ENDMDL
MODEL 3
REMARK VINA RESULT:     -11.0      2.703      9.366
REMARK SMILES COC(=O)c1cccc(NC(=O)[C@@H]2[C@@H]3CC[C@@H](C3)[C@@H]2C(=O)NCCCNC(=O)c2ccc(-c3c4nc(c(-c5ccc(S(=O)(=O)[O-])cc5)c5ccc([nH]5)c(-c5ccc(S(=O)(=O)[O-])cc5)c5nc(c(-c6ccc(S(=O)(=O)[O-])cc6)c6ccc3[nH]6)C=C5)C=C4)cc2)c1
REMARK SMILES IDX 23 1 22 2 20 3 21 4 19 6 13 7 14 8 15 9 18 10 17 11 16 12
REMARK SMILES IDX 11 13 10 14 12 16 9 17 5 18 6 19 89 20 7 21 8 22 3 23 4 24
REMARK SMILES IDX 2 25 1 26 24 27 25 28 26 29 27 30 28 32 29 33 30 34 88 35
REMARK SMILES IDX 31 36 87 37 32 38 33 39 34 40 81 41 35 42 86 43 80 44 82 45
REMARK SMILES IDX 36 46 85 47 79 48 78 49 37 51 67 52 48 53 66 54 49 55 52 56
REMARK SMILES IDX 65 57 83 58 50 59 51 60 64 62 84 63 53 64 38 65 39 66 47 67
REMARK SMILES IDX 40 68 46 69 41 70 42 71 43 72 44 73 45 74 68 75 69 76 77 77
REMARK SMILES IDX 70 78 76 79 71 80 72 81 73 82 74 83 75 84 54 85 55 86 63 87
REMARK SMILES IDX 56 88 62 89 57 90 58 91 59 92 60 93 61 94
REMARK H PARENT 22 5 10 15 26 31 82 50 52 61
REMARK Flexibility Score: inf
ROOT
ATOM      1  C   UNL A   1      34.981  22.907  23.523  1.00  0.00     0.117 C 
ENDROOT
BRANCH   1   2
ATOM      2  N   UNL A   1      34.107  23.723  22.706  1.00  0.00    -0.356 N 
ATOM      3  C   UNL A   1      33.538  24.937  22.878  1.00  0.00     0.224 C 
ATOM      4  O   UNL A   1      32.767  25.286  21.975  1.00  0.00    -0.275 OA
ATOM      5  H   UNL A   1      33.879  23.306  21.844  1.00  0.00     0.163 HD
BRANCH   3   6
ATOM      6  C   UNL A   1      33.674  25.807  24.130  1.00  0.00     0.094 C 
ATOM      7  C   UNL A   1      32.491  25.687  25.144  1.00  0.00     0.094 C 
ATOM      8  C   UNL A   1      32.184  27.169  25.517  1.00  0.00     0.002 C 
ATOM      9  C   UNL A   1      31.574  27.998  24.384  1.00  0.00     0.005 C 
ATOM     10  C   UNL A   1      33.606  27.739  25.522  1.00  0.00     0.009 C 
ATOM     11  C   UNL A   1      33.865  27.334  24.067  1.00  0.00     0.002 C 
ATOM     12  C   UNL A   1      32.687  28.012  23.341  1.00  0.00     0.005 C 
BRANCH   7  13
ATOM     13  C   UNL A   1      31.314  24.839  24.679  1.00  0.00     0.228 C 
ATOM     14  N   UNL A   1      31.265  23.487  24.884  1.00  0.00    -0.326 N 
ATOM     15  H   UNL A   1      30.439  23.079  24.537  1.00  0.00     0.169 HD
ATOM     16  O   UNL A   1      30.344  25.350  24.110  1.00  0.00    -0.274 OA
BRANCH  14  17
ATOM     17  C   UNL A   1      32.130  22.547  25.478  1.00  0.00     0.042 A 
ATOM     18  C   UNL A   1      32.851  20.224  25.533  1.00  0.00     0.062 A 
ATOM     19  C   UNL A   1      33.549  20.456  26.720  1.00  0.00     0.016 A 
ATOM     20  C   UNL A   1      32.145  21.265  24.912  1.00  0.00     0.041 A 
ATOM     21  C   UNL A   1      33.623  21.747  27.226  1.00  0.00     0.003 A 
ATOM     22  C   UNL A   1      32.947  22.788  26.583  1.00  0.00     0.026 A 
BRANCH  18  23
ATOM     23  C   UNL A   1      32.868  18.850  24.984  1.00  0.00     0.337 C 
ATOM     24  O   UNL A   1      32.033  18.006  25.252  1.00  0.00    -0.246 OA
BRANCH  23  25
ATOM     25  O   UNL A   1      33.989  18.672  24.241  1.00  0.00    -0.465 OA
ATOM     26  C   UNL A   1      34.196  17.317  23.841  1.00  0.00     0.282 C 
ENDBRANCH  23  25
ENDBRANCH  18  23
ENDBRANCH  14  17
ENDBRANCH   7  13
ENDBRANCH   3   6
ENDBRANCH   1   2
BRANCH   1  27
ATOM     27  C   UNL A   1      36.391  23.459  23.595  1.00  0.00     0.042 C 
BRANCH  27  28
ATOM     28  C   UNL A   1      36.877  23.678  25.017  1.00  0.00     0.118 C 
BRANCH  28  29
ATOM     29  N   UNL A   1      37.884  22.700  25.416  1.00  0.00    -0.352 N 
ATOM     30  C   UNL A   1      39.078  22.876  26.073  1.00  0.00     0.251 C 
ATOM     31  H   UNL A   1      37.675  21.768  25.178  1.00  0.00     0.163 HD
ATOM     32  O   UNL A   1      39.897  21.963  26.105  1.00  0.00    -0.269 OA
BRANCH  30  33
ATOM     33  C   UNL A   1      39.379  24.170  26.720  1.00  0.00     0.039 A 
ATOM     34  C   UNL A   1      38.953  24.400  28.030  1.00  0.00     0.014 A 
ATOM     35  C   UNL A   1      40.086  25.158  26.031  1.00  0.00     0.014 A 
ATOM     36  C   UNL A   1      39.311  25.588  28.671  1.00  0.00     0.010 A 
ATOM     37  C   UNL A   1      40.541  26.280  26.707  1.00  0.00     0.010 A 
ATOM     38  C   UNL A   1      40.148  26.516  28.032  1.00  0.00    -0.014 A 
BRANCH  38  39
ATOM     39  C   UNL A   1      40.619  27.745  28.717  1.00  0.00     0.031 A 
ATOM     40  C   UNL A   1      41.989  27.777  29.344  1.00  0.00     0.074 A 
ATOM     41  C   UNL A   1      39.785  28.797  28.847  1.00  0.00     0.049 A 
ATOM     42  N   UNL A   1      42.548  28.725  30.051  1.00  0.00    -0.248 NA
ATOM     43  C   UNL A   1      42.829  26.577  29.187  1.00  0.00     0.031 C 
ATOM     44  C   UNL A   1      38.412  28.861  28.335  1.00  0.00     0.029 A 
ATOM     45  N   UNL A   1      39.963  30.011  29.461  1.00  0.00    -0.354 N 
ATOM     46  C   UNL A   1      43.783  28.225  30.446  1.00  0.00     0.074 A 
ATOM     47  C   UNL A   1      43.876  26.874  29.941  1.00  0.00     0.031 C 
ATOM     48  C   UNL A   1      37.886  30.060  28.631  1.00  0.00     0.029 A 
ATOM     49  C   UNL A   1      38.861  30.831  29.397  1.00  0.00     0.049 A 
ATOM     50  H   UNL A   1      40.802  30.272  29.907  1.00  0.00     0.167 HD
ATOM     51  C   UNL A   1      44.761  28.842  31.149  1.00  0.00     0.031 A 
ATOM     52  C   UNL A   1      38.649  32.059  29.908  1.00  0.00     0.031 A 
ATOM     53  C   UNL A   1      44.673  30.198  31.620  1.00  0.00     0.049 A 
ATOM     54  C   UNL A   1      39.759  32.728  30.674  1.00  0.00     0.074 A 
ATOM     55  C   UNL A   1      45.643  30.946  32.264  1.00  0.00     0.029 A 
ATOM     56  N   UNL A   1      43.552  31.005  31.507  1.00  0.00    -0.354 N 
ATOM     57  N   UNL A   1      40.958  32.273  30.952  1.00  0.00    -0.248 NA
ATOM     58  C   UNL A   1      39.493  34.079  31.186  1.00  0.00     0.031 C 
ATOM     59  C   UNL A   1      45.084  32.182  32.601  1.00  0.00     0.029 A 
ATOM     60  C   UNL A   1      43.793  32.231  32.101  1.00  0.00     0.049 A 
ATOM     61  H   UNL A   1      42.710  30.745  31.068  1.00  0.00     0.167 HD
ATOM     62  C   UNL A   1      41.599  33.294  31.645  1.00  0.00     0.074 A 
ATOM     63  C   UNL A   1      40.661  34.395  31.727  1.00  0.00     0.031 C 
ATOM     64  C   UNL A   1      42.849  33.318  32.169  1.00  0.00     0.031 A 
BRANCH  51  65
ATOM     65  C   UNL A   1      46.010  28.061  31.462  1.00  0.00    -0.014 A 
ATOM     66  C   UNL A   1      47.088  28.007  30.559  1.00  0.00     0.010 A 
ATOM     67  C   UNL A   1      46.136  27.429  32.714  1.00  0.00     0.010 A 
ATOM     68  C   UNL A   1      48.257  27.316  30.893  1.00  0.00     0.020 A 
ATOM     69  C   UNL A   1      47.313  26.763  33.062  1.00  0.00     0.020 A 
ATOM     70  C   UNL A   1      48.362  26.702  32.144  1.00  0.00     0.054 A 
BRANCH  70  71
ATOM     71  S   UNL A   1      49.912  25.861  32.569  1.00  0.00     0.124 S 
ATOM     72  O   UNL A   1      50.359  26.623  33.734  1.00  0.00    -0.237 OA
ATOM     73  O   UNL A   1      49.470  24.497  32.844  1.00  0.00    -0.237 OA
ATOM     74  O   UNL A   1      50.734  26.019  31.371  1.00  0.00    -0.744 OA
ENDBRANCH  70  71
ENDBRANCH  51  65
BRANCH  52  75
ATOM     75  C   UNL A   1      37.334  32.735  29.721  1.00  0.00    -0.014 A 
ATOM     76  C   UNL A   1      37.118  33.606  28.638  1.00  0.00     0.010 A 
ATOM     77  C   UNL A   1      36.288  32.516  30.637  1.00  0.00     0.010 A 
ATOM     78  C   UNL A   1      35.895  34.269  28.494  1.00  0.00     0.020 A 
ATOM     79  C   UNL A   1      35.054  33.150  30.478  1.00  0.00     0.020 A 
ATOM     80  C   UNL A   1      34.871  34.037  29.416  1.00  0.00     0.054 A 
BRANCH  80  81
ATOM     81  S   UNL A   1      33.284  34.888  29.196  1.00  0.00     0.124 S 
ATOM     82  O   UNL A   1      32.751  34.892  30.556  1.00  0.00    -0.237 OA
ATOM     83  O   UNL A   1      33.694  36.188  28.672  1.00  0.00    -0.237 OA
ATOM     84  O   UNL A   1      32.569  34.040  28.245  1.00  0.00    -0.744 OA
ENDBRANCH  80  81
ENDBRANCH  52  75
BRANCH  64  85
ATOM     85  C   UNL A   1      43.297  34.587  32.843  1.00  0.00    -0.014 A 
ATOM     86  C   UNL A   1      43.119  34.785  34.224  1.00  0.00     0.010 A 
ATOM     87  C   UNL A   1      43.962  35.572  32.089  1.00  0.00     0.010 A 
ATOM     88  C   UNL A   1      43.571  35.960  34.832  1.00  0.00     0.020 A 
ATOM     89  C   UNL A   1      44.444  36.731  32.699  1.00  0.00     0.020 A 
ATOM     90  C   UNL A   1      44.232  36.924  34.065  1.00  0.00     0.054 A 
BRANCH  90  91
ATOM     91  S   UNL A   1      44.848  38.417  34.887  1.00  0.00     0.124 S 
ATOM     92  O   UNL A   1      43.690  39.304  34.817  1.00  0.00    -0.237 OA
ATOM     93  O   UNL A   1      45.187  37.931  36.222  1.00  0.00    -0.237 OA
ATOM     94  O   UNL A   1      45.991  38.819  34.068  1.00  0.00    -0.744 OA
ENDBRANCH  90  91
ENDBRANCH  64  85
ENDBRANCH  38  39
ENDBRANCH  30  33
ENDBRANCH  28  29
ENDBRANCH  27  28
ENDBRANCH   1  27
TORSDOF 17
ENDMDL
