MODEL 1
REMARK VINA RESULT:      -9.3      0.000      0.000
REMARK SMILES C[NH2+][C@@]1(C(=O)NCCCNC(=O)c2ccc(-c3c4nc(c(-c5ccc(S(=O)(=O)[O-])cc5)c5ccc([nH]5)c(-c5ccc(S(=O)(=O)[O-])cc5)c5nc(c(-c6ccc(S(=O)(=O)[O-])cc6)c6ccc3[nH]6)C=C5)C=C4)cc2)CCC[C@H]1CCSc1nccc(=O)[nH]1
REMARK SMILES IDX 7 1 6 2 4 3 5 4 3 6 73 7 76 8 74 9 75 10 2 11 1 12 77 15
REMARK SMILES IDX 78 16 79 17 80 18 81 19 86 20 82 21 84 22 83 24 85 25 8 26
REMARK SMILES IDX 9 27 10 28 11 29 12 31 13 32 14 33 72 34 15 35 71 36 16 37
REMARK SMILES IDX 17 38 18 39 65 40 19 41 70 42 64 43 66 44 20 45 69 46 63 47
REMARK SMILES IDX 62 48 21 50 51 51 32 52 50 53 33 54 36 55 49 56 67 57 34 58
REMARK SMILES IDX 35 59 48 61 68 62 37 63 22 64 23 65 31 66 24 67 30 68 25 69
REMARK SMILES IDX 26 70 27 71 28 72 29 73 52 74 53 75 61 76 54 77 60 78 55 79
REMARK SMILES IDX 56 80 57 81 58 82 59 83 38 84 39 85 47 86 40 87 46 88 41 89
REMARK SMILES IDX 42 90 43 91 44 92 45 93
REMARK H PARENT 6 5 2 13 2 14 86 23 10 30 66 49 36 60
REMARK Flexibility Score: inf
ROOT
ATOM      1  C   UNL A   1      42.379  20.104  26.516  1.00  0.00     0.118 C 
ENDROOT
BRANCH   1   2
ATOM      2  N   UNL A   1      43.183  20.526  25.399  1.00  0.00    -0.351 N 
ATOM      3  C   UNL A   1      44.043  21.554  25.202  1.00  0.00     0.281 C 
ATOM      4  O   UNL A   1      44.720  21.412  24.167  1.00  0.00    -0.268 OA
ATOM      5  H   UNL A   1      43.088  19.943  24.611  1.00  0.00     0.163 HD
BRANCH   3   6
ATOM      6  C   UNL A   1      44.237  22.851  26.149  1.00  0.00     0.178 C 
ATOM      7  C   UNL A   1      43.050  23.815  25.960  1.00  0.00     0.079 C 
ATOM      8  C   UNL A   1      45.529  23.665  25.795  1.00  0.00     0.061 C 
ATOM      9  C   UNL A   1      43.511  24.983  25.109  1.00  0.00     0.008 C 
ATOM     10  C   UNL A   1      45.029  24.929  25.042  1.00  0.00     0.011 C 
BRANCH   6  11
ATOM     11  N   UNL A   1      44.226  22.245  27.494  1.00  0.00    -0.336 N 
ATOM     12  C   UNL A   1      43.546  22.821  28.620  1.00  0.00     0.331 C 
ATOM     13  H   UNL A   1      43.829  21.314  27.377  1.00  0.00     0.346 HD
ATOM     14  H   UNL A   1      45.201  22.362  27.771  1.00  0.00     0.346 HD
ENDBRANCH   6  11
BRANCH   8  15
ATOM     15  C   UNL A   1      46.475  24.188  26.911  1.00  0.00     0.022 C 
BRANCH  15  16
ATOM     16  C   UNL A   1      46.266  25.579  27.518  1.00  0.00     0.079 C 
BRANCH  16  17
ATOM     17  S   UNL A   1      47.438  26.832  26.922  1.00  0.00    -0.088 SA
BRANCH  17  18
ATOM     18  C   UNL A   1      46.428  28.234  26.857  1.00  0.00     0.168 A 
ATOM     19  N   UNL A   1      45.166  28.210  27.118  1.00  0.00    -0.233 NA
ATOM     20  N   UNL A   1      47.125  29.346  26.509  1.00  0.00    -0.301 N 
ATOM     21  C   UNL A   1      44.514  29.415  27.036  1.00  0.00     0.120 A 
ATOM     22  C   UNL A   1      46.538  30.570  26.468  1.00  0.00     0.251 A 
ATOM     23  H   UNL A   1      48.079  29.264  26.282  1.00  0.00     0.172 HD
ATOM     24  C   UNL A   1      45.095  30.583  26.747  1.00  0.00     0.091 A 
ATOM     25  O   UNL A   1      47.151  31.608  26.244  1.00  0.00    -0.269 OA
ENDBRANCH  17  18
ENDBRANCH  16  17
ENDBRANCH  15  16
ENDBRANCH   8  15
ENDBRANCH   3   6
ENDBRANCH   1   2
BRANCH   1  26
ATOM     26  C   UNL A   1      40.883  20.205  26.266  1.00  0.00     0.042 C 
BRANCH  26  27
ATOM     27  C   UNL A   1      40.259  21.478  26.824  1.00  0.00     0.118 C 
BRANCH  27  28
ATOM     28  N   UNL A   1      39.180  21.985  25.980  1.00  0.00    -0.352 N 
ATOM     29  C   UNL A   1      38.529  23.194  25.973  1.00  0.00     0.251 C 
ATOM     30  H   UNL A   1      38.865  21.349  25.298  1.00  0.00     0.163 HD
ATOM     31  O   UNL A   1      37.476  23.300  25.347  1.00  0.00    -0.269 OA
BRANCH  29  32
ATOM     32  C   UNL A   1      39.075  24.355  26.706  1.00  0.00     0.039 A 
ATOM     33  C   UNL A   1      39.860  25.287  26.022  1.00  0.00     0.014 A 
ATOM     34  C   UNL A   1      38.857  24.504  28.076  1.00  0.00     0.014 A 
ATOM     35  C   UNL A   1      40.368  26.398  26.700  1.00  0.00     0.010 A 
ATOM     36  C   UNL A   1      39.268  25.662  28.724  1.00  0.00     0.010 A 
ATOM     37  C   UNL A   1      40.045  26.613  28.050  1.00  0.00    -0.014 A 
BRANCH  37  38
ATOM     38  C   UNL A   1      40.526  27.807  28.789  1.00  0.00     0.031 A 
ATOM     39  C   UNL A   1      41.896  27.803  29.414  1.00  0.00     0.074 A 
ATOM     40  C   UNL A   1      39.705  28.863  28.958  1.00  0.00     0.049 A 
ATOM     41  N   UNL A   1      42.467  28.715  30.159  1.00  0.00    -0.248 NA
ATOM     42  C   UNL A   1      42.724  26.602  29.200  1.00  0.00     0.031 C 
ATOM     43  C   UNL A   1      38.339  28.968  28.437  1.00  0.00     0.029 A 
ATOM     44  N   UNL A   1      39.896  30.047  29.623  1.00  0.00    -0.354 N 
ATOM     45  C   UNL A   1      43.701  28.188  30.521  1.00  0.00     0.074 A 
ATOM     46  C   UNL A   1      43.776  26.857  29.964  1.00  0.00     0.031 C 
ATOM     47  C   UNL A   1      37.830  30.164  28.773  1.00  0.00     0.029 A 
ATOM     48  C   UNL A   1      38.810  30.890  29.574  1.00  0.00     0.049 A 
ATOM     49  H   UNL A   1      40.732  30.273  30.092  1.00  0.00     0.167 HD
ATOM     50  C   UNL A   1      44.694  28.768  31.236  1.00  0.00     0.031 A 
ATOM     51  C   UNL A   1      38.621  32.106  30.120  1.00  0.00     0.031 A 
ATOM     52  C   UNL A   1      44.618  30.099  31.777  1.00  0.00     0.049 A 
ATOM     53  C   UNL A   1      39.735  32.727  30.919  1.00  0.00     0.074 A 
ATOM     54  C   UNL A   1      45.590  30.807  32.462  1.00  0.00     0.029 A 
ATOM     55  N   UNL A   1      43.505  30.923  31.696  1.00  0.00    -0.354 N 
ATOM     56  N   UNL A   1      40.923  32.243  31.190  1.00  0.00    -0.248 NA
ATOM     57  C   UNL A   1      39.486  34.063  31.475  1.00  0.00     0.031 C 
ATOM     58  C   UNL A   1      45.043  32.033  32.851  1.00  0.00     0.029 A 
ATOM     59  C   UNL A   1      43.756  32.120  32.344  1.00  0.00     0.049 A 
ATOM     60  H   UNL A   1      42.661  30.691  31.244  1.00  0.00     0.167 HD
ATOM     61  C   UNL A   1      41.576  33.230  31.921  1.00  0.00     0.074 A 
ATOM     62  C   UNL A   1      40.655  34.343  32.035  1.00  0.00     0.031 C 
ATOM     63  C   UNL A   1      42.827  33.219  32.446  1.00  0.00     0.031 A 
BRANCH  50  64
ATOM     64  C   UNL A   1      45.945  27.962  31.481  1.00  0.00    -0.014 A 
ATOM     65  C   UNL A   1      46.073  27.139  32.616  1.00  0.00     0.010 A 
ATOM     66  C   UNL A   1      46.996  28.003  30.547  1.00  0.00     0.010 A 
ATOM     67  C   UNL A   1      47.244  26.408  32.833  1.00  0.00     0.020 A 
ATOM     68  C   UNL A   1      48.156  27.246  30.743  1.00  0.00     0.020 A 
ATOM     69  C   UNL A   1      48.279  26.467  31.896  1.00  0.00     0.054 A 
BRANCH  69  70
ATOM     70  S   UNL A   1      49.777  25.489  32.194  1.00  0.00     0.124 S 
ATOM     71  O   UNL A   1      49.969  24.832  30.904  1.00  0.00    -0.237 OA
ATOM     72  O   UNL A   1      50.764  26.513  32.529  1.00  0.00    -0.237 OA
ATOM     73  O   UNL A   1      49.402  24.604  33.294  1.00  0.00    -0.744 OA
ENDBRANCH  69  70
ENDBRANCH  50  64
BRANCH  51  74
ATOM     74  C   UNL A   1      37.332  32.823  29.913  1.00  0.00    -0.014 A 
ATOM     75  C   UNL A   1      37.076  33.498  28.706  1.00  0.00     0.010 A 
ATOM     76  C   UNL A   1      36.347  32.826  30.918  1.00  0.00     0.010 A 
ATOM     77  C   UNL A   1      35.869  34.177  28.515  1.00  0.00     0.020 A 
ATOM     78  C   UNL A   1      35.126  33.478  30.719  1.00  0.00     0.020 A 
ATOM     79  C   UNL A   1      34.900  34.160  29.523  1.00  0.00     0.054 A 
BRANCH  79  80
ATOM     80  S   UNL A   1      33.323  35.009  29.233  1.00  0.00     0.124 S 
ATOM     81  O   UNL A   1      32.692  34.148  28.237  1.00  0.00    -0.237 OA
ATOM     82  O   UNL A   1      32.712  34.999  30.559  1.00  0.00    -0.237 OA
ATOM     83  O   UNL A   1      33.729  36.329  28.752  1.00  0.00    -0.744 OA
ENDBRANCH  79  80
ENDBRANCH  51  74
BRANCH  63  84
ATOM     84  C   UNL A   1      43.294  34.463  33.155  1.00  0.00    -0.014 A 
ATOM     85  C   UNL A   1      43.298  34.552  34.557  1.00  0.00     0.010 A 
ATOM     86  C   UNL A   1      43.792  35.540  32.398  1.00  0.00     0.010 A 
ATOM     87  C   UNL A   1      43.760  35.710  35.189  1.00  0.00     0.020 A 
ATOM     88  C   UNL A   1      44.285  36.685  33.026  1.00  0.00     0.020 A 
ATOM     89  C   UNL A   1      44.252  36.769  34.419  1.00  0.00     0.054 A 
BRANCH  89  90
ATOM     90  S   UNL A   1      44.887  38.240  35.265  1.00  0.00     0.124 S 
ATOM     91  O   UNL A   1      44.901  37.808  36.659  1.00  0.00    -0.237 OA
ATOM     92  O   UNL A   1      46.199  38.422  34.649  1.00  0.00    -0.237 OA
ATOM     93  O   UNL A   1      43.906  39.276  34.945  1.00  0.00    -0.744 OA
ENDBRANCH  89  90
ENDBRANCH  63  84
ENDBRANCH  37  38
ENDBRANCH  29  32
ENDBRANCH  27  28
ENDBRANCH  26  27
ENDBRANCH   1  26
TORSDOF 18
ENDMDL
MODEL 2
REMARK VINA RESULT:      -9.0      4.455     11.190
REMARK SMILES C[NH2+][C@@]1(C(=O)NCCCNC(=O)c2ccc(-c3c4nc(c(-c5ccc(S(=O)(=O)[O-])cc5)c5ccc([nH]5)c(-c5ccc(S(=O)(=O)[O-])cc5)c5nc(c(-c6ccc(S(=O)(=O)[O-])cc6)c6ccc3[nH]6)C=C5)C=C4)cc2)CCC[C@H]1CCSc1nccc(=O)[nH]1
REMARK SMILES IDX 7 1 6 2 4 3 5 4 3 6 73 7 76 8 74 9 75 10 2 11 1 12 77 15
REMARK SMILES IDX 78 16 79 17 80 18 81 19 86 20 82 21 84 22 83 24 85 25 8 26
REMARK SMILES IDX 9 27 10 28 11 29 12 31 13 32 14 33 72 34 15 35 71 36 16 37
REMARK SMILES IDX 17 38 18 39 65 40 19 41 70 42 64 43 66 44 20 45 69 46 63 47
REMARK SMILES IDX 62 48 21 50 51 51 32 52 50 53 33 54 36 55 49 56 67 57 34 58
REMARK SMILES IDX 35 59 48 61 68 62 37 63 22 64 23 65 31 66 24 67 30 68 25 69
REMARK SMILES IDX 26 70 27 71 28 72 29 73 52 74 53 75 61 76 54 77 60 78 55 79
REMARK SMILES IDX 56 80 57 81 58 82 59 83 38 84 39 85 47 86 40 87 46 88 41 89
REMARK SMILES IDX 42 90 43 91 44 92 45 93
REMARK H PARENT 6 5 2 13 2 14 86 23 10 30 66 49 36 60
REMARK Flexibility Score: inf
ROOT
ATOM      1  C   UNL A   1      33.474  27.497  24.362  1.00  0.00     0.118 C 
ENDROOT
BRANCH   1   2
ATOM      2  N   UNL A   1      32.108  27.045  24.387  1.00  0.00    -0.351 N 
ATOM      3  C   UNL A   1      31.525  25.847  24.639  1.00  0.00     0.281 C 
ATOM      4  O   UNL A   1      30.294  25.946  24.800  1.00  0.00    -0.268 OA
ATOM      5  H   UNL A   1      31.460  27.756  24.178  1.00  0.00     0.163 HD
BRANCH   3   6
ATOM      6  C   UNL A   1      32.263  24.412  24.740  1.00  0.00     0.178 C 
ATOM      7  C   UNL A   1      31.216  23.283  24.672  1.00  0.00     0.079 C 
ATOM      8  C   UNL A   1      33.029  24.224  26.095  1.00  0.00     0.061 C 
ATOM      9  C   UNL A   1      31.021  22.724  26.070  1.00  0.00     0.008 C 
ATOM     10  C   UNL A   1      32.153  23.256  26.937  1.00  0.00     0.011 C 
BRANCH   6  11
ATOM     11  N   UNL A   1      33.114  24.425  23.535  1.00  0.00    -0.336 N 
ATOM     12  C   UNL A   1      32.788  23.727  22.323  1.00  0.00     0.331 C 
ATOM     13  H   UNL A   1      33.210  25.406  23.273  1.00  0.00     0.346 HD
ATOM     14  H   UNL A   1      33.922  23.894  23.858  1.00  0.00     0.346 HD
ENDBRANCH   6  11
BRANCH   8  15
ATOM     15  C   UNL A   1      34.463  23.628  26.126  1.00  0.00     0.022 C 
BRANCH  15  16
ATOM     16  C   UNL A   1      34.701  22.203  26.634  1.00  0.00     0.079 C 
BRANCH  16  17
ATOM     17  S   UNL A   1      35.695  21.174  25.515  1.00  0.00    -0.088 SA
BRANCH  17  18
ATOM     18  C   UNL A   1      34.482  20.154  24.826  1.00  0.00     0.168 A 
ATOM     19  N   UNL A   1      33.383  20.602  24.321  1.00  0.00    -0.233 NA
ATOM     20  N   UNL A   1      34.831  18.843  24.878  1.00  0.00    -0.301 N 
ATOM     21  C   UNL A   1      32.534  19.658  23.800  1.00  0.00     0.120 A 
ATOM     22  C   UNL A   1      34.051  17.876  24.327  1.00  0.00     0.251 A 
ATOM     23  H   UNL A   1      35.670  18.586  25.324  1.00  0.00     0.172 HD
ATOM     24  C   UNL A   1      32.783  18.346  23.752  1.00  0.00     0.091 A 
ATOM     25  O   UNL A   1      34.373  16.695  24.276  1.00  0.00    -0.269 OA
ENDBRANCH  17  18
ENDBRANCH  16  17
ENDBRANCH  15  16
ENDBRANCH   8  15
ENDBRANCH   3   6
ENDBRANCH   1   2
BRANCH   1  26
ATOM     26  C   UNL A   1      33.642  28.959  24.743  1.00  0.00     0.042 C 
BRANCH  26  27
ATOM     27  C   UNL A   1      33.981  29.168  26.214  1.00  0.00     0.118 C 
BRANCH  27  28
ATOM     28  N   UNL A   1      33.778  30.550  26.641  1.00  0.00    -0.352 N 
ATOM     29  C   UNL A   1      34.372  31.285  27.637  1.00  0.00     0.251 C 
ATOM     30  H   UNL A   1      33.097  31.039  26.124  1.00  0.00     0.163 HD
ATOM     31  O   UNL A   1      33.856  32.345  27.984  1.00  0.00    -0.269 OA
BRANCH  29  32
ATOM     32  C   UNL A   1      35.612  30.816  28.290  1.00  0.00     0.039 A 
ATOM     33  C   UNL A   1      36.820  31.460  28.007  1.00  0.00     0.014 A 
ATOM     34  C   UNL A   1      35.597  29.714  29.146  1.00  0.00     0.014 A 
ATOM     35  C   UNL A   1      37.996  31.036  28.631  1.00  0.00     0.010 A 
ATOM     36  C   UNL A   1      36.743  29.365  29.850  1.00  0.00     0.010 A 
ATOM     37  C   UNL A   1      37.959  30.008  29.586  1.00  0.00    -0.014 A 
BRANCH  37  38
ATOM     38  C   UNL A   1      39.180  29.565  30.306  1.00  0.00     0.031 A 
ATOM     39  C   UNL A   1      39.598  30.261  31.575  1.00  0.00     0.074 A 
ATOM     40  C   UNL A   1      39.949  28.591  29.781  1.00  0.00     0.049 A 
ATOM     41  N   UNL A   1      40.666  30.073  32.307  1.00  0.00    -0.248 NA
ATOM     42  C   UNL A   1      38.713  31.330  32.074  1.00  0.00     0.031 C 
ATOM     43  C   UNL A   1      39.673  27.872  28.534  1.00  0.00     0.029 A 
ATOM     44  N   UNL A   1      41.125  28.042  30.224  1.00  0.00    -0.354 N 
ATOM     45  C   UNL A   1      40.594  31.012  33.329  1.00  0.00     0.074 A 
ATOM     46  C   UNL A   1      39.410  31.807  33.094  1.00  0.00     0.031 C 
ATOM     47  C   UNL A   1      40.633  26.955  28.332  1.00  0.00     0.029 A 
ATOM     48  C   UNL A   1      41.618  27.054  29.404  1.00  0.00     0.049 A 
ATOM     49  H   UNL A   1      41.575  28.329  31.052  1.00  0.00     0.167 HD
ATOM     50  C   UNL A   1      41.428  31.186  34.382  1.00  0.00     0.031 A 
ATOM     51  C   UNL A   1      42.740  26.316  29.500  1.00  0.00     0.031 A 
ATOM     52  C   UNL A   1      42.598  30.382  34.616  1.00  0.00     0.049 A 
ATOM     53  C   UNL A   1      43.656  26.533  30.673  1.00  0.00     0.074 A 
ATOM     54  C   UNL A   1      43.476  30.432  35.685  1.00  0.00     0.029 A 
ATOM     55  N   UNL A   1      43.056  29.385  33.768  1.00  0.00    -0.354 N 
ATOM     56  N   UNL A   1      43.534  27.378  31.669  1.00  0.00    -0.248 NA
ATOM     57  C   UNL A   1      44.856  25.688  30.742  1.00  0.00     0.031 C 
ATOM     58  C   UNL A   1      44.499  29.509  35.451  1.00  0.00     0.029 A 
ATOM     59  C   UNL A   1      44.219  28.832  34.274  1.00  0.00     0.049 A 
ATOM     60  H   UNL A   1      42.617  29.111  32.930  1.00  0.00     0.167 HD
ATOM     61  C   UNL A   1      44.624  27.144  32.501  1.00  0.00     0.074 A 
ATOM     62  C   UNL A   1      45.385  26.067  31.897  1.00  0.00     0.031 C 
ATOM     63  C   UNL A   1      44.963  27.759  33.661  1.00  0.00     0.031 A 
BRANCH  50  64
ATOM     64  C   UNL A   1      41.108  32.293  35.355  1.00  0.00    -0.014 A 
ATOM     65  C   UNL A   1      41.665  33.577  35.210  1.00  0.00     0.010 A 
ATOM     66  C   UNL A   1      40.209  32.054  36.411  1.00  0.00     0.010 A 
ATOM     67  C   UNL A   1      41.367  34.587  36.129  1.00  0.00     0.020 A 
ATOM     68  C   UNL A   1      39.881  33.073  37.312  1.00  0.00     0.020 A 
ATOM     69  C   UNL A   1      40.478  34.328  37.175  1.00  0.00     0.054 A 
BRANCH  69  70
ATOM     70  S   UNL A   1      40.091  35.666  38.337  1.00  0.00     0.124 S 
ATOM     71  O   UNL A   1      39.805  36.776  37.433  1.00  0.00    -0.237 OA
ATOM     72  O   UNL A   1      38.940  35.135  39.063  1.00  0.00    -0.237 OA
ATOM     73  O   UNL A   1      41.313  35.805  39.127  1.00  0.00    -0.744 OA
ENDBRANCH  69  70
ENDBRANCH  50  64
BRANCH  51  74
ATOM     74  C   UNL A   1      43.048  25.291  28.464  1.00  0.00    -0.014 A 
ATOM     75  C   UNL A   1      43.963  25.570  27.433  1.00  0.00     0.010 A 
ATOM     76  C   UNL A   1      42.438  24.024  28.508  1.00  0.00     0.010 A 
ATOM     77  C   UNL A   1      44.246  24.611  26.456  1.00  0.00     0.020 A 
ATOM     78  C   UNL A   1      42.742  23.051  27.552  1.00  0.00     0.020 A 
ATOM     79  C   UNL A   1      43.635  23.356  26.524  1.00  0.00     0.054 A 
BRANCH  79  80
ATOM     80  S   UNL A   1      44.055  22.111  25.272  1.00  0.00     0.124 S 
ATOM     81  O   UNL A   1      43.416  20.913  25.807  1.00  0.00    -0.237 OA
ATOM     82  O   UNL A   1      43.453  22.666  24.063  1.00  0.00    -0.237 OA
ATOM     83  O   UNL A   1      45.517  22.098  25.281  1.00  0.00    -0.744 OA
ENDBRANCH  79  80
ENDBRANCH  51  74
BRANCH  63  84
ATOM     84  C   UNL A   1      46.186  27.257  34.382  1.00  0.00    -0.014 A 
ATOM     85  C   UNL A   1      46.111  26.205  35.310  1.00  0.00     0.010 A 
ATOM     86  C   UNL A   1      47.442  27.814  34.077  1.00  0.00     0.010 A 
ATOM     87  C   UNL A   1      47.266  25.741  35.946  1.00  0.00     0.020 A 
ATOM     88  C   UNL A   1      48.603  27.332  34.686  1.00  0.00     0.020 A 
ATOM     89  C   UNL A   1      48.505  26.307  35.629  1.00  0.00     0.054 A 
BRANCH  89  90
ATOM     90  S   UNL A   1      49.993  25.658  36.435  1.00  0.00     0.124 S 
ATOM     91  O   UNL A   1      50.648  26.880  36.893  1.00  0.00    -0.237 OA
ATOM     92  O   UNL A   1      49.441  24.807  37.487  1.00  0.00    -0.237 OA
ATOM     93  O   UNL A   1      50.686  24.944  35.364  1.00  0.00    -0.744 OA
ENDBRANCH  89  90
ENDBRANCH  63  84
ENDBRANCH  37  38
ENDBRANCH  29  32
ENDBRANCH  27  28
ENDBRANCH  26  27
ENDBRANCH   1  26
TORSDOF 18
ENDMDL
MODEL 3
REMARK VINA RESULT:      -8.8      3.780     10.407
REMARK SMILES C[NH2+][C@@]1(C(=O)NCCCNC(=O)c2ccc(-c3c4nc(c(-c5ccc(S(=O)(=O)[O-])cc5)c5ccc([nH]5)c(-c5ccc(S(=O)(=O)[O-])cc5)c5nc(c(-c6ccc(S(=O)(=O)[O-])cc6)c6ccc3[nH]6)C=C5)C=C4)cc2)CCC[C@H]1CCSc1nccc(=O)[nH]1
REMARK SMILES IDX 7 1 6 2 4 3 5 4 3 6 73 7 76 8 74 9 75 10 2 11 1 12 77 15
REMARK SMILES IDX 78 16 79 17 80 18 81 19 86 20 82 21 84 22 83 24 85 25 8 26
REMARK SMILES IDX 9 27 10 28 11 29 12 31 13 32 14 33 72 34 15 35 71 36 16 37
REMARK SMILES IDX 17 38 18 39 65 40 19 41 70 42 64 43 66 44 20 45 69 46 63 47
REMARK SMILES IDX 62 48 21 50 51 51 32 52 50 53 33 54 36 55 49 56 67 57 34 58
REMARK SMILES IDX 35 59 48 61 68 62 37 63 22 64 23 65 31 66 24 67 30 68 25 69
REMARK SMILES IDX 26 70 27 71 28 72 29 73 52 74 53 75 61 76 54 77 60 78 55 79
REMARK SMILES IDX 56 80 57 81 58 82 59 83 38 84 39 85 47 86 40 87 46 88 41 89
REMARK SMILES IDX 42 90 43 91 44 92 45 93
REMARK H PARENT 6 5 2 13 2 14 86 23 10 30 66 49 36 60
REMARK Flexibility Score: inf
ROOT
ATOM      1  C   UNL A   1      33.522  26.696  25.345  1.00  0.00     0.118 C 
ENDROOT
BRANCH   1   2
ATOM      2  N   UNL A   1      32.570  25.987  26.158  1.00  0.00    -0.351 N 
ATOM      3  C   UNL A   1      32.102  24.714  26.155  1.00  0.00     0.281 C 
ATOM      4  O   UNL A   1      31.467  24.443  27.191  1.00  0.00    -0.268 OA
ATOM      5  H   UNL A   1      32.175  26.544  26.868  1.00  0.00     0.163 HD
BRANCH   3   6
ATOM      6  C   UNL A   1      32.301  23.611  24.990  1.00  0.00     0.178 C 
ATOM      7  C   UNL A   1      31.365  22.414  25.242  1.00  0.00     0.079 C 
ATOM      8  C   UNL A   1      33.758  23.034  24.952  1.00  0.00     0.061 C 
ATOM      9  C   UNL A   1      32.192  21.264  25.786  1.00  0.00     0.008 C 
ATOM     10  C   UNL A   1      33.657  21.612  25.570  1.00  0.00     0.011 C 
BRANCH   6  11
ATOM     11  N   UNL A   1      31.894  24.365  23.789  1.00  0.00    -0.336 N 
ATOM     12  C   UNL A   1      30.537  24.454  23.328  1.00  0.00     0.331 C 
ATOM     13  H   UNL A   1      32.197  25.325  23.947  1.00  0.00     0.346 HD
ATOM     14  H   UNL A   1      32.317  23.803  23.050  1.00  0.00     0.346 HD
ENDBRANCH   6  11
BRANCH   8  15
ATOM     15  C   UNL A   1      34.513  22.854  23.606  1.00  0.00     0.022 C 
BRANCH  15  16
ATOM     16  C   UNL A   1      36.036  22.995  23.545  1.00  0.00     0.079 C 
BRANCH  16  17
ATOM     17  S   UNL A   1      36.939  21.627  24.327  1.00  0.00    -0.088 SA
BRANCH  17  18
ATOM     18  C   UNL A   1      37.955  22.482  25.434  1.00  0.00     0.168 A 
ATOM     19  N   UNL A   1      37.843  23.745  25.667  1.00  0.00    -0.233 NA
ATOM     20  N   UNL A   1      38.866  21.665  26.023  1.00  0.00    -0.301 N 
ATOM     21  C   UNL A   1      38.717  24.265  26.588  1.00  0.00     0.120 A 
ATOM     22  C   UNL A   1      39.716  22.119  26.980  1.00  0.00     0.251 A 
ATOM     23  H   UNL A   1      38.911  20.720  25.751  1.00  0.00     0.172 HD
ATOM     24  C   UNL A   1      39.627  23.558  27.265  1.00  0.00     0.091 A 
ATOM     25  O   UNL A   1      40.491  21.396  27.596  1.00  0.00    -0.269 OA
ENDBRANCH  17  18
ENDBRANCH  16  17
ENDBRANCH  15  16
ENDBRANCH   8  15
ENDBRANCH   3   6
ENDBRANCH   1   2
BRANCH   1  26
ATOM     26  C   UNL A   1      33.449  28.206  25.493  1.00  0.00     0.042 C 
BRANCH  26  27
ATOM     27  C   UNL A   1      34.304  28.747  26.633  1.00  0.00     0.118 C 
BRANCH  27  28
ATOM     28  N   UNL A   1      34.075  30.169  26.875  1.00  0.00    -0.352 N 
ATOM     29  C   UNL A   1      34.653  31.040  27.765  1.00  0.00     0.251 C 
ATOM     30  H   UNL A   1      33.384  30.572  26.301  1.00  0.00     0.163 HD
ATOM     31  O   UNL A   1      34.116  32.125  27.971  1.00  0.00    -0.269 OA
BRANCH  29  32
ATOM     32  C   UNL A   1      35.902  30.685  28.471  1.00  0.00     0.039 A 
ATOM     33  C   UNL A   1      35.868  29.715  29.476  1.00  0.00     0.014 A 
ATOM     34  C   UNL A   1      37.100  31.339  28.179  1.00  0.00     0.014 A 
ATOM     35  C   UNL A   1      37.045  29.359  30.139  1.00  0.00     0.010 A 
ATOM     36  C   UNL A   1      38.287  30.908  28.758  1.00  0.00     0.010 A 
ATOM     37  C   UNL A   1      38.271  29.928  29.759  1.00  0.00    -0.014 A 
BRANCH  37  38
ATOM     38  C   UNL A   1      39.549  29.538  30.407  1.00  0.00     0.031 A 
ATOM     39  C   UNL A   1      40.052  30.306  31.601  1.00  0.00     0.074 A 
ATOM     40  C   UNL A   1      40.288  28.542  29.879  1.00  0.00     0.049 A 
ATOM     41  N   UNL A   1      41.175  30.169  32.257  1.00  0.00    -0.248 NA
ATOM     42  C   UNL A   1      39.194  31.394  32.105  1.00  0.00     0.031 C 
ATOM     43  C   UNL A   1      39.928  27.751  28.698  1.00  0.00     0.029 A 
ATOM     44  N   UNL A   1      41.501  28.029  30.261  1.00  0.00    -0.354 N 
ATOM     45  C   UNL A   1      41.169  31.164  33.229  1.00  0.00     0.074 A 
ATOM     46  C   UNL A   1      39.959  31.933  33.042  1.00  0.00     0.031 C 
ATOM     47  C   UNL A   1      40.882  26.833  28.475  1.00  0.00     0.029 A 
ATOM     48  C   UNL A   1      41.944  27.001  29.462  1.00  0.00     0.049 A 
ATOM     49  H   UNL A   1      42.009  28.366  31.036  1.00  0.00     0.167 HD
ATOM     50  C   UNL A   1      42.077  31.403  34.204  1.00  0.00     0.031 A 
ATOM     51  C   UNL A   1      43.080  26.279  29.512  1.00  0.00     0.031 A 
ATOM     52  C   UNL A   1      43.272  30.625  34.393  1.00  0.00     0.049 A 
ATOM     53  C   UNL A   1      44.079  26.570  30.598  1.00  0.00     0.074 A 
ATOM     54  C   UNL A   1      44.227  30.742  35.387  1.00  0.00     0.029 A 
ATOM     55  N   UNL A   1      43.677  29.585  33.568  1.00  0.00    -0.354 N 
ATOM     56  N   UNL A   1      44.022  27.468  31.553  1.00  0.00    -0.248 NA
ATOM     57  C   UNL A   1      45.291  25.741  30.622  1.00  0.00     0.031 C 
ATOM     58  C   UNL A   1      45.242  29.816  35.127  1.00  0.00     0.029 A 
ATOM     59  C   UNL A   1      44.883  29.072  34.014  1.00  0.00     0.049 A 
ATOM     60  H   UNL A   1      43.180  29.261  32.782  1.00  0.00     0.167 HD
ATOM     61  C   UNL A   1      45.174  27.290  32.310  1.00  0.00     0.074 A 
ATOM     62  C   UNL A   1      45.901  26.189  31.711  1.00  0.00     0.031 C 
ATOM     63  C   UNL A   1      45.592  27.973  33.406  1.00  0.00     0.031 A 
BRANCH  50  64
ATOM     64  C   UNL A   1      41.817  32.560  35.136  1.00  0.00    -0.014 A 
ATOM     65  C   UNL A   1      42.339  33.840  34.875  1.00  0.00     0.010 A 
ATOM     66  C   UNL A   1      41.010  32.372  36.273  1.00  0.00     0.010 A 
ATOM     67  C   UNL A   1      42.098  34.898  35.757  1.00  0.00     0.020 A 
ATOM     68  C   UNL A   1      40.737  33.436  37.139  1.00  0.00     0.020 A 
ATOM     69  C   UNL A   1      41.300  34.689  36.884  1.00  0.00     0.054 A 
BRANCH  69  70
ATOM     70  S   UNL A   1      40.985  36.086  37.997  1.00  0.00     0.124 S 
ATOM     71  O   UNL A   1      39.793  36.683  37.400  1.00  0.00    -0.237 OA
ATOM     72  O   UNL A   1      40.779  35.428  39.284  1.00  0.00    -0.237 OA
ATOM     73  O   UNL A   1      42.200  36.891  37.897  1.00  0.00    -0.744 OA
ENDBRANCH  69  70
ENDBRANCH  50  64
BRANCH  51  74
ATOM     74  C   UNL A   1      43.322  25.201  28.514  1.00  0.00    -0.014 A 
ATOM     75  C   UNL A   1      43.805  25.512  27.230  1.00  0.00     0.010 A 
ATOM     76  C   UNL A   1      43.083  23.854  28.845  1.00  0.00     0.010 A 
ATOM     77  C   UNL A   1      44.025  24.500  26.290  1.00  0.00     0.020 A 
ATOM     78  C   UNL A   1      43.331  22.837  27.919  1.00  0.00     0.020 A 
ATOM     79  C   UNL A   1      43.789  23.168  26.643  1.00  0.00     0.054 A 
BRANCH  79  80
ATOM     80  S   UNL A   1      44.127  21.869  25.422  1.00  0.00     0.124 S 
ATOM     81  O   UNL A   1      45.552  21.624  25.625  1.00  0.00    -0.237 OA
ATOM     82  O   UNL A   1      43.232  20.797  25.847  1.00  0.00    -0.237 OA
ATOM     83  O   UNL A   1      43.775  22.496  24.149  1.00  0.00    -0.744 OA
ENDBRANCH  79  80
ENDBRANCH  51  74
BRANCH  63  84
ATOM     84  C   UNL A   1      46.872  27.523  34.058  1.00  0.00    -0.014 A 
ATOM     85  C   UNL A   1      48.100  28.144  33.774  1.00  0.00     0.010 A 
ATOM     86  C   UNL A   1      46.831  26.494  35.019  1.00  0.00     0.010 A 
ATOM     87  C   UNL A   1      49.269  27.722  34.414  1.00  0.00     0.020 A 
ATOM     88  C   UNL A   1      47.990  26.092  35.684  1.00  0.00     0.020 A 
ATOM     89  C   UNL A   1      49.206  26.700  35.366  1.00  0.00     0.054 A 
BRANCH  89  90
ATOM     90  S   UNL A   1      50.730  26.203  36.212  1.00  0.00     0.124 S 
ATOM     91  O   UNL A   1      51.563  27.392  36.062  1.00  0.00    -0.237 OA
ATOM     92  O   UNL A   1      50.265  25.927  37.570  1.00  0.00    -0.237 OA
ATOM     93  O   UNL A   1      51.177  25.030  35.463  1.00  0.00    -0.744 OA
ENDBRANCH  89  90
ENDBRANCH  63  84
ENDBRANCH  37  38
ENDBRANCH  29  32
ENDBRANCH  27  28
ENDBRANCH  26  27
ENDBRANCH   1  26
TORSDOF 18
ENDMDL
