MODEL 1
REMARK VINA RESULT:     -11.9      0.000      0.000
REMARK SMILES COc1cccc([C@@H]2CN(C(=O)CCSC)C[C@H]2C(=O)NCCCNC(=O)c2ccc(-c3c4nc(c(-c5ccc(S(=O)(=O)[O-])cc5)c5ccc([nH]5)c(-c5ccc(S(=O)(=O)[O-])cc5)c5nc(c(-c6ccc(S(=O)(=O)[O-])cc6)c6ccc3[nH]6)C=C5)C=C4)cc2)c1OC
REMARK SMILES IDX 22 1 21 2 19 3 20 4 18 6 8 7 9 8 10 9 17 10 7 11 3 12 4 13
REMARK SMILES IDX 88 14 5 15 6 16 2 17 1 18 89 19 90 20 11 21 12 22 13 23
REMARK SMILES IDX 14 24 15 25 16 26 23 27 24 28 25 29 26 30 27 32 28 33 29 34
REMARK SMILES IDX 87 35 30 36 86 37 31 38 32 39 33 40 80 41 34 42 85 43 79 44
REMARK SMILES IDX 81 45 35 46 84 47 78 48 77 49 36 51 66 52 47 53 65 54 48 55
REMARK SMILES IDX 51 56 64 57 82 58 49 59 50 60 63 62 83 63 52 64 37 65 38 66
REMARK SMILES IDX 46 67 39 68 45 69 40 70 41 71 42 72 43 73 44 74 67 75 68 76
REMARK SMILES IDX 76 77 69 78 75 79 70 80 71 81 72 82 73 83 74 84 53 85 54 86
REMARK SMILES IDX 62 87 55 88 61 89 56 90 57 91 58 92 59 93 60 94
REMARK H PARENT 21 5 25 31 81 50 51 61
REMARK Flexibility Score: inf
ROOT
ATOM      1  C   UNL A   1      33.650  30.463  27.006  1.00  0.00     0.117 C 
ENDROOT
BRANCH   1   2
ATOM      2  N   UNL A   1      32.602  29.678  27.636  1.00  0.00    -0.356 N 
ATOM      3  C   UNL A   1      31.916  28.584  27.214  1.00  0.00     0.225 C 
ATOM      4  O   UNL A   1      31.089  28.104  27.995  1.00  0.00    -0.275 OA
ATOM      5  H   UNL A   1      32.341  29.996  28.531  1.00  0.00     0.163 HD
BRANCH   3   6
ATOM      6  C   UNL A   1      32.126  27.959  25.847  1.00  0.00     0.107 C 
ATOM      7  C   UNL A   1      31.615  26.510  25.759  1.00  0.00     0.057 C 
ATOM      8  C   UNL A   1      30.766  26.440  24.488  1.00  0.00     0.128 C 
ATOM      9  N   UNL A   1      30.561  27.809  24.049  1.00  0.00    -0.341 N 
ATOM     10  C   UNL A   1      31.438  28.740  24.737  1.00  0.00     0.133 C 
BRANCH   7  11
ATOM     11  C   UNL A   1      32.670  25.414  25.788  1.00  0.00     0.004 A 
ATOM     12  C   UNL A   1      33.556  23.279  26.547  1.00  0.00     0.161 A 
ATOM     13  C   UNL A   1      34.762  23.540  25.887  1.00  0.00     0.050 A 
ATOM     14  C   UNL A   1      32.507  24.213  26.515  1.00  0.00     0.164 A 
ATOM     15  C   UNL A   1      34.924  24.721  25.168  1.00  0.00     0.004 A 
ATOM     16  C   UNL A   1      33.886  25.648  25.117  1.00  0.00     0.008 A 
BRANCH  12  17
ATOM     17  O   UNL A   1      33.474  22.156  27.329  1.00  0.00    -0.493 OA
ATOM     18  C   UNL A   1      33.655  20.968  26.559  1.00  0.00     0.278 C 
ENDBRANCH  12  17
BRANCH  14  19
ATOM     19  O   UNL A   1      31.333  24.104  27.215  1.00  0.00    -0.493 OA
ATOM     20  C   UNL A   1      30.378  23.166  26.738  1.00  0.00     0.278 C 
ENDBRANCH  14  19
ENDBRANCH   7  11
BRANCH   9  21
ATOM     21  C   UNL A   1      29.756  28.232  23.017  1.00  0.00     0.223 C 
ATOM     22  O   UNL A   1      30.211  28.455  21.894  1.00  0.00    -0.275 OA
BRANCH  21  23
ATOM     23  C   UNL A   1      28.271  28.377  23.278  1.00  0.00     0.111 C 
BRANCH  23  24
ATOM     24  C   UNL A   1      27.711  29.623  22.601  1.00  0.00     0.079 C 
BRANCH  24  25
ATOM     25  S   UNL A   1      28.182  31.188  23.423  1.00  0.00    -0.165 SA
ATOM     26  C   UNL A   1      28.631  32.183  21.978  1.00  0.00     0.085 C 
ENDBRANCH  24  25
ENDBRANCH  23  24
ENDBRANCH  21  23
ENDBRANCH   9  21
ENDBRANCH   3   6
ENDBRANCH   1   2
BRANCH   1  27
ATOM     27  C   UNL A   1      34.385  31.359  27.991  1.00  0.00     0.042 C 
BRANCH  27  28
ATOM     28  C   UNL A   1      35.669  30.744  28.522  1.00  0.00     0.118 C 
BRANCH  28  29
ATOM     29  N   UNL A   1      35.634  30.570  29.967  1.00  0.00    -0.352 N 
ATOM     30  C   UNL A   1      36.554  29.993  30.802  1.00  0.00     0.251 C 
ATOM     31  H   UNL A   1      34.828  30.921  30.410  1.00  0.00     0.163 HD
ATOM     32  O   UNL A   1      36.228  29.706  31.956  1.00  0.00    -0.269 OA
BRANCH  30  33
ATOM     33  C   UNL A   1      37.920  29.706  30.322  1.00  0.00     0.039 A 
ATOM     34  C   UNL A   1      38.903  29.339  31.243  1.00  0.00     0.014 A 
ATOM     35  C   UNL A   1      38.237  29.820  28.966  1.00  0.00     0.014 A 
ATOM     36  C   UNL A   1      40.189  29.036  30.793  1.00  0.00     0.010 A 
ATOM     37  C   UNL A   1      39.484  29.413  28.509  1.00  0.00     0.010 A 
ATOM     38  C   UNL A   1      40.482  29.040  29.420  1.00  0.00    -0.014 A 
BRANCH  38  39
ATOM     39  C   UNL A   1      41.831  28.682  28.919  1.00  0.00     0.031 A 
ATOM     40  C   UNL A   1      42.906  29.732  28.829  1.00  0.00     0.074 A 
ATOM     41  C   UNL A   1      42.070  27.426  28.493  1.00  0.00     0.049 A 
ATOM     42  N   UNL A   1      44.134  29.620  28.391  1.00  0.00    -0.248 NA
ATOM     43  C   UNL A   1      42.548  31.096  29.257  1.00  0.00     0.031 C 
ATOM     44  C   UNL A   1      41.090  26.335  28.475  1.00  0.00     0.029 A 
ATOM     45  N   UNL A   1      43.210  26.853  27.991  1.00  0.00    -0.354 N 
ATOM     46  C   UNL A   1      44.683  30.894  28.472  1.00  0.00     0.074 A 
ATOM     47  C   UNL A   1      43.639  31.776  28.942  1.00  0.00     0.031 C 
ATOM     48  C   UNL A   1      41.683  25.219  28.023  1.00  0.00     0.029 A 
ATOM     49  C   UNL A   1      43.068  25.521  27.680  1.00  0.00     0.049 A 
ATOM     50  H   UNL A   1      44.052  27.349  27.865  1.00  0.00     0.167 HD
ATOM     51  C   UNL A   1      45.950  31.292  28.203  1.00  0.00     0.031 A 
ATOM     52  C   UNL A   1      43.954  24.642  27.174  1.00  0.00     0.031 A 
ATOM     53  C   UNL A   1      46.988  30.405  27.751  1.00  0.00     0.049 A 
ATOM     54  C   UNL A   1      45.358  25.102  26.896  1.00  0.00     0.074 A 
ATOM     55  C   UNL A   1      48.320  30.689  27.512  1.00  0.00     0.029 A 
ATOM     56  N   UNL A   1      46.809  29.059  27.466  1.00  0.00    -0.354 N 
ATOM     57  N   UNL A   1      45.880  26.295  27.055  1.00  0.00    -0.248 NA
ATOM     58  C   UNL A   1      46.296  24.093  26.387  1.00  0.00     0.031 C 
ATOM     59  C   UNL A   1      48.934  29.529  27.029  1.00  0.00     0.029 A 
ATOM     60  C   UNL A   1      48.000  28.505  27.028  1.00  0.00     0.049 A 
ATOM     61  H   UNL A   1      45.959  28.569  27.561  1.00  0.00     0.167 HD
ATOM     62  C   UNL A   1      47.216  26.175  26.687  1.00  0.00     0.074 A 
ATOM     63  C   UNL A   1      47.424  24.788  26.321  1.00  0.00     0.031 C 
ATOM     64  C   UNL A   1      48.184  27.125  26.658  1.00  0.00     0.031 A 
BRANCH  51  65
ATOM     65  C   UNL A   1      46.276  32.752  28.386  1.00  0.00    -0.014 A 
ATOM     66  C   UNL A   1      46.758  33.244  29.613  1.00  0.00     0.010 A 
ATOM     67  C   UNL A   1      46.125  33.642  27.306  1.00  0.00     0.010 A 
ATOM     68  C   UNL A   1      47.038  34.604  29.772  1.00  0.00     0.020 A 
ATOM     69  C   UNL A   1      46.434  34.998  27.452  1.00  0.00     0.020 A 
ATOM     70  C   UNL A   1      46.870  35.473  28.689  1.00  0.00     0.054 A 
BRANCH  70  71
ATOM     71  S   UNL A   1      47.257  37.230  28.919  1.00  0.00     0.124 S 
ATOM     72  O   UNL A   1      47.021  37.406  30.349  1.00  0.00    -0.237 OA
ATOM     73  O   UNL A   1      48.653  37.309  28.499  1.00  0.00    -0.237 OA
ATOM     74  O   UNL A   1      46.307  37.913  28.044  1.00  0.00    -0.744 OA
ENDBRANCH  70  71
ENDBRANCH  51  65
BRANCH  52  75
ATOM     75  C   UNL A   1      43.538  23.236  26.919  1.00  0.00    -0.014 A 
ATOM     76  C   UNL A   1      43.707  22.657  25.648  1.00  0.00     0.010 A 
ATOM     77  C   UNL A   1      42.991  22.458  27.956  1.00  0.00     0.010 A 
ATOM     78  C   UNL A   1      43.320  21.334  25.414  1.00  0.00     0.020 A 
ATOM     79  C   UNL A   1      42.632  21.125  27.734  1.00  0.00     0.020 A 
ATOM     80  C   UNL A   1      42.787  20.576  26.460  1.00  0.00     0.054 A 
BRANCH  80  81
ATOM     81  S   UNL A   1      42.344  18.844  26.149  1.00  0.00     0.124 S 
ATOM     82  O   UNL A   1      40.968  18.963  25.679  1.00  0.00    -0.237 OA
ATOM     83  O   UNL A   1      43.326  18.445  25.143  1.00  0.00    -0.237 OA
ATOM     84  O   UNL A   1      42.509  18.210  27.455  1.00  0.00    -0.744 OA
ENDBRANCH  80  81
ENDBRANCH  52  75
BRANCH  64  85
ATOM     85  C   UNL A   1      49.563  26.688  26.239  1.00  0.00    -0.014 A 
ATOM     86  C   UNL A   1      50.078  27.011  24.972  1.00  0.00     0.010 A 
ATOM     87  C   UNL A   1      50.369  25.976  27.147  1.00  0.00     0.010 A 
ATOM     88  C   UNL A   1      51.359  26.591  24.602  1.00  0.00     0.020 A 
ATOM     89  C   UNL A   1      51.662  25.582  26.792  1.00  0.00     0.020 A 
ATOM     90  C   UNL A   1      52.141  25.876  25.515  1.00  0.00     0.054 A 
BRANCH  90  91
ATOM     91  S   UNL A   1      53.808  25.364  25.021  1.00  0.00     0.124 S 
ATOM     92  O   UNL A   1      53.790  25.619  23.583  1.00  0.00    -0.237 OA
ATOM     93  O   UNL A   1      54.663  26.252  25.806  1.00  0.00    -0.237 OA
ATOM     94  O   UNL A   1      53.866  23.955  25.404  1.00  0.00    -0.744 OA
ENDBRANCH  90  91
ENDBRANCH  64  85
ENDBRANCH  38  39
ENDBRANCH  30  33
ENDBRANCH  28  29
ENDBRANCH  27  28
ENDBRANCH   1  27
TORSDOF 20
ENDMDL
MODEL 2
REMARK VINA RESULT:     -11.7      6.335     12.361
REMARK SMILES COc1cccc([C@@H]2CN(C(=O)CCSC)C[C@H]2C(=O)NCCCNC(=O)c2ccc(-c3c4nc(c(-c5ccc(S(=O)(=O)[O-])cc5)c5ccc([nH]5)c(-c5ccc(S(=O)(=O)[O-])cc5)c5nc(c(-c6ccc(S(=O)(=O)[O-])cc6)c6ccc3[nH]6)C=C5)C=C4)cc2)c1OC
REMARK SMILES IDX 22 1 21 2 19 3 20 4 18 6 8 7 9 8 10 9 17 10 7 11 3 12 4 13
REMARK SMILES IDX 88 14 5 15 6 16 2 17 1 18 89 19 90 20 11 21 12 22 13 23
REMARK SMILES IDX 14 24 15 25 16 26 23 27 24 28 25 29 26 30 27 32 28 33 29 34
REMARK SMILES IDX 87 35 30 36 86 37 31 38 32 39 33 40 80 41 34 42 85 43 79 44
REMARK SMILES IDX 81 45 35 46 84 47 78 48 77 49 36 51 66 52 47 53 65 54 48 55
REMARK SMILES IDX 51 56 64 57 82 58 49 59 50 60 63 62 83 63 52 64 37 65 38 66
REMARK SMILES IDX 46 67 39 68 45 69 40 70 41 71 42 72 43 73 44 74 67 75 68 76
REMARK SMILES IDX 76 77 69 78 75 79 70 80 71 81 72 82 73 83 74 84 53 85 54 86
REMARK SMILES IDX 62 87 55 88 61 89 56 90 57 91 58 92 59 93 60 94
REMARK H PARENT 21 5 25 31 81 50 51 61
REMARK Flexibility Score: inf
ROOT
ATOM      1  C   UNL A   1      38.010  22.623  25.956  1.00  0.00     0.117 C 
ENDROOT
BRANCH   1   2
ATOM      2  N   UNL A   1      37.780  22.713  24.524  1.00  0.00    -0.356 N 
ATOM      3  C   UNL A   1      36.636  22.802  23.797  1.00  0.00     0.225 C 
ATOM      4  O   UNL A   1      36.756  22.899  22.572  1.00  0.00    -0.275 OA
ATOM      5  H   UNL A   1      38.602  22.709  23.982  1.00  0.00     0.163 HD
BRANCH   3   6
ATOM      6  C   UNL A   1      35.257  22.776  24.428  1.00  0.00     0.107 C 
ATOM      7  C   UNL A   1      34.188  23.485  23.577  1.00  0.00     0.057 C 
ATOM      8  C   UNL A   1      33.006  22.516  23.495  1.00  0.00     0.128 C 
ATOM      9  N   UNL A   1      33.478  21.240  24.001  1.00  0.00    -0.341 N 
ATOM     10  C   UNL A   1      34.756  21.361  24.680  1.00  0.00     0.133 C 
BRANCH   7  11
ATOM     11  C   UNL A   1      33.749  24.864  24.047  1.00  0.00     0.004 A 
ATOM     12  C   UNL A   1      33.226  27.211  23.683  1.00  0.00     0.161 A 
ATOM     13  C   UNL A   1      33.090  27.400  25.063  1.00  0.00     0.050 A 
ATOM     14  C   UNL A   1      33.566  25.951  23.163  1.00  0.00     0.164 A 
ATOM     15  C   UNL A   1      33.267  26.330  25.935  1.00  0.00     0.004 A 
ATOM     16  C   UNL A   1      33.591  25.072  25.431  1.00  0.00     0.008 A 
BRANCH  12  17
ATOM     17  O   UNL A   1      33.147  28.310  22.867  1.00  0.00    -0.493 OA
ATOM     18  C   UNL A   1      31.814  28.815  22.796  1.00  0.00     0.278 C 
ENDBRANCH  12  17
BRANCH  14  19
ATOM     19  O   UNL A   1      33.829  25.688  21.843  1.00  0.00    -0.493 OA
ATOM     20  C   UNL A   1      32.714  25.539  20.976  1.00  0.00     0.278 C 
ENDBRANCH  14  19
ENDBRANCH   7  11
BRANCH   9  21
ATOM     21  C   UNL A   1      32.792  20.047  24.000  1.00  0.00     0.223 C 
ATOM     22  O   UNL A   1      32.152  19.673  23.016  1.00  0.00    -0.275 OA
BRANCH  21  23
ATOM     23  C   UNL A   1      32.876  19.170  25.231  1.00  0.00     0.111 C 
BRANCH  23  24
ATOM     24  C   UNL A   1      32.276  17.792  24.969  1.00  0.00     0.079 C 
BRANCH  24  25
ATOM     25  S   UNL A   1      33.518  16.458  24.823  1.00  0.00    -0.165 SA
ATOM     26  C   UNL A   1      32.596  15.083  25.553  1.00  0.00     0.085 C 
ENDBRANCH  24  25
ENDBRANCH  23  24
ENDBRANCH  21  23
ENDBRANCH   9  21
ENDBRANCH   3   6
ENDBRANCH   1   2
BRANCH   1  27
ATOM     27  C   UNL A   1      38.598  23.898  26.539  1.00  0.00     0.042 C 
BRANCH  27  28
ATOM     28  C   UNL A   1      40.044  23.748  26.981  1.00  0.00     0.118 C 
BRANCH  28  29
ATOM     29  N   UNL A   1      40.967  24.390  26.056  1.00  0.00    -0.352 N 
ATOM     30  C   UNL A   1      41.390  25.692  26.003  1.00  0.00     0.251 C 
ATOM     31  H   UNL A   1      41.344  23.799  25.365  1.00  0.00     0.163 HD
ATOM     32  O   UNL A   1      41.966  26.102  24.994  1.00  0.00    -0.269 OA
BRANCH  30  33
ATOM     33  C   UNL A   1      41.148  26.600  27.142  1.00  0.00     0.039 A 
ATOM     34  C   UNL A   1      40.187  26.259  28.094  1.00  0.00     0.014 A 
ATOM     35  C   UNL A   1      41.857  27.799  27.260  1.00  0.00     0.014 A 
ATOM     36  C   UNL A   1      39.975  27.096  29.190  1.00  0.00     0.010 A 
ATOM     37  C   UNL A   1      41.722  28.574  28.405  1.00  0.00     0.010 A 
ATOM     38  C   UNL A   1      40.763  28.245  29.371  1.00  0.00    -0.014 A 
BRANCH  38  39
ATOM     39  C   UNL A   1      40.581  29.126  30.551  1.00  0.00     0.031 A 
ATOM     40  C   UNL A   1      41.448  28.944  31.769  1.00  0.00     0.074 A 
ATOM     41  C   UNL A   1      39.600  30.049  30.546  1.00  0.00     0.049 A 
ATOM     42  N   UNL A   1      41.421  29.594  32.904  1.00  0.00    -0.248 NA
ATOM     43  C   UNL A   1      42.459  27.872  31.719  1.00  0.00     0.031 C 
ATOM     44  C   UNL A   1      38.657  30.279  29.447  1.00  0.00     0.029 A 
ATOM     45  N   UNL A   1      39.230  30.966  31.495  1.00  0.00    -0.354 N 
ATOM     46  C   UNL A   1      42.389  28.999  33.704  1.00  0.00     0.074 A 
ATOM     47  C   UNL A   1      42.945  27.899  32.949  1.00  0.00     0.031 C 
ATOM     48  C   UNL A   1      37.843  31.295  29.772  1.00  0.00     0.029 A 
ATOM     49  C   UNL A   1      38.176  31.763  31.112  1.00  0.00     0.049 A 
ATOM     50  H   UNL A   1      39.676  31.047  32.369  1.00  0.00     0.167 HD
ATOM     51  C   UNL A   1      42.799  29.351  34.946  1.00  0.00     0.031 A 
ATOM     52  C   UNL A   1      37.548  32.757  31.769  1.00  0.00     0.031 A 
ATOM     53  C   UNL A   1      42.252  30.458  35.685  1.00  0.00     0.049 A 
ATOM     54  C   UNL A   1      38.028  33.140  33.141  1.00  0.00     0.074 A 
ATOM     55  C   UNL A   1      42.638  30.943  36.921  1.00  0.00     0.029 A 
ATOM     56  N   UNL A   1      41.199  31.252  35.255  1.00  0.00    -0.354 N 
ATOM     57  N   UNL A   1      39.000  32.615  33.850  1.00  0.00    -0.248 NA
ATOM     58  C   UNL A   1      37.338  34.260  33.794  1.00  0.00     0.031 C 
ATOM     59  C   UNL A   1      41.782  31.994  37.264  1.00  0.00     0.029 A 
ATOM     60  C   UNL A   1      40.904  32.207  36.213  1.00  0.00     0.049 A 
ATOM     61  H   UNL A   1      40.730  31.152  34.394  1.00  0.00     0.167 HD
ATOM     62  C   UNL A   1      39.054  33.358  35.025  1.00  0.00     0.074 A 
ATOM     63  C   UNL A   1      38.031  34.380  34.918  1.00  0.00     0.031 C 
ATOM     64  C   UNL A   1      39.875  33.209  36.093  1.00  0.00     0.031 A 
BRANCH  51  65
ATOM     65  C   UNL A   1      43.885  28.523  35.584  1.00  0.00    -0.014 A 
ATOM     66  C   UNL A   1      45.245  28.841  35.403  1.00  0.00     0.010 A 
ATOM     67  C   UNL A   1      43.543  27.429  36.398  1.00  0.00     0.010 A 
ATOM     68  C   UNL A   1      46.240  28.052  35.986  1.00  0.00     0.020 A 
ATOM     69  C   UNL A   1      44.535  26.656  37.008  1.00  0.00     0.020 A 
ATOM     70  C   UNL A   1      45.878  26.961  36.782  1.00  0.00     0.054 A 
BRANCH  70  71
ATOM     71  S   UNL A   1      47.191  25.965  37.539  1.00  0.00     0.124 S 
ATOM     72  O   UNL A   1      47.262  26.532  38.883  1.00  0.00    -0.237 OA
ATOM     73  O   UNL A   1      46.654  24.610  37.457  1.00  0.00    -0.237 OA
ATOM     74  O   UNL A   1      48.355  26.223  36.694  1.00  0.00    -0.744 OA
ENDBRANCH  70  71
ENDBRANCH  51  65
BRANCH  52  75
ATOM     75  C   UNL A   1      36.411  33.468  31.123  1.00  0.00    -0.014 A 
ATOM     76  C   UNL A   1      35.340  33.955  31.892  1.00  0.00     0.010 A 
ATOM     77  C   UNL A   1      36.407  33.683  29.732  1.00  0.00     0.010 A 
ATOM     78  C   UNL A   1      34.276  34.628  31.282  1.00  0.00     0.020 A 
ATOM     79  C   UNL A   1      35.361  34.382  29.122  1.00  0.00     0.020 A 
ATOM     80  C   UNL A   1      34.296  34.839  29.900  1.00  0.00     0.054 A 
BRANCH  80  81
ATOM     81  S   UNL A   1      32.933  35.762  29.137  1.00  0.00     0.124 S 
ATOM     82  O   UNL A   1      32.083  36.053  30.286  1.00  0.00    -0.237 OA
ATOM     83  O   UNL A   1      33.621  36.910  28.551  1.00  0.00    -0.237 OA
ATOM     84  O   UNL A   1      32.380  34.817  28.170  1.00  0.00    -0.744 OA
ENDBRANCH  80  81
ENDBRANCH  52  75
BRANCH  64  85
ATOM     85  C   UNL A   1      39.719  34.193  37.223  1.00  0.00    -0.014 A 
ATOM     86  C   UNL A   1      38.924  33.898  38.343  1.00  0.00     0.010 A 
ATOM     87  C   UNL A   1      40.413  35.416  37.176  1.00  0.00     0.010 A 
ATOM     88  C   UNL A   1      38.789  34.828  39.378  1.00  0.00     0.020 A 
ATOM     89  C   UNL A   1      40.305  36.335  38.223  1.00  0.00     0.020 A 
ATOM     90  C   UNL A   1      39.479  36.042  39.309  1.00  0.00     0.054 A 
BRANCH  90  91
ATOM     91  S   UNL A   1      39.307  37.222  40.674  1.00  0.00     0.124 S 
ATOM     92  O   UNL A   1      38.721  36.389  41.722  1.00  0.00    -0.237 OA
ATOM     93  O   UNL A   1      40.685  37.647  40.907  1.00  0.00    -0.237 OA
ATOM     94  O   UNL A   1      38.426  38.253  40.133  1.00  0.00    -0.744 OA
ENDBRANCH  90  91
ENDBRANCH  64  85
ENDBRANCH  38  39
ENDBRANCH  30  33
ENDBRANCH  28  29
ENDBRANCH  27  28
ENDBRANCH   1  27
TORSDOF 20
ENDMDL
MODEL 3
REMARK VINA RESULT:     -11.5      2.743      9.298
REMARK SMILES COc1cccc([C@@H]2CN(C(=O)CCSC)C[C@H]2C(=O)NCCCNC(=O)c2ccc(-c3c4nc(c(-c5ccc(S(=O)(=O)[O-])cc5)c5ccc([nH]5)c(-c5ccc(S(=O)(=O)[O-])cc5)c5nc(c(-c6ccc(S(=O)(=O)[O-])cc6)c6ccc3[nH]6)C=C5)C=C4)cc2)c1OC
REMARK SMILES IDX 22 1 21 2 19 3 20 4 18 6 8 7 9 8 10 9 17 10 7 11 3 12 4 13
REMARK SMILES IDX 88 14 5 15 6 16 2 17 1 18 89 19 90 20 11 21 12 22 13 23
REMARK SMILES IDX 14 24 15 25 16 26 23 27 24 28 25 29 26 30 27 32 28 33 29 34
REMARK SMILES IDX 87 35 30 36 86 37 31 38 32 39 33 40 80 41 34 42 85 43 79 44
REMARK SMILES IDX 81 45 35 46 84 47 78 48 77 49 36 51 66 52 47 53 65 54 48 55
REMARK SMILES IDX 51 56 64 57 82 58 49 59 50 60 63 62 83 63 52 64 37 65 38 66
REMARK SMILES IDX 46 67 39 68 45 69 40 70 41 71 42 72 43 73 44 74 67 75 68 76
REMARK SMILES IDX 76 77 69 78 75 79 70 80 71 81 72 82 73 83 74 84 53 85 54 86
REMARK SMILES IDX 62 87 55 88 61 89 56 90 57 91 58 92 59 93 60 94
REMARK H PARENT 21 5 25 31 81 50 51 61
REMARK Flexibility Score: inf
ROOT
ATOM      1  C   UNL A   1      38.030  22.608  26.077  1.00  0.00     0.117 C 
ENDROOT
BRANCH   1   2
ATOM      2  N   UNL A   1      37.815  22.618  24.640  1.00  0.00    -0.356 N 
ATOM      3  C   UNL A   1      36.682  22.728  23.898  1.00  0.00     0.225 C 
ATOM      4  O   UNL A   1      36.815  22.737  22.670  1.00  0.00    -0.275 OA
ATOM      5  H   UNL A   1      38.638  22.527  24.108  1.00  0.00     0.163 HD
BRANCH   3   6
ATOM      6  C   UNL A   1      35.300  22.830  24.515  1.00  0.00     0.107 C 
ATOM      7  C   UNL A   1      34.290  23.571  23.622  1.00  0.00     0.057 C 
ATOM      8  C   UNL A   1      33.044  22.686  23.573  1.00  0.00     0.128 C 
ATOM      9  N   UNL A   1      33.420  21.405  24.142  1.00  0.00    -0.341 N 
ATOM     10  C   UNL A   1      34.699  21.467  24.827  1.00  0.00     0.133 C 
BRANCH   7  11
ATOM     11  C   UNL A   1      33.947  24.999  24.023  1.00  0.00     0.004 A 
ATOM     12  C   UNL A   1      33.449  27.328  23.528  1.00  0.00     0.161 A 
ATOM     13  C   UNL A   1      33.481  27.630  24.895  1.00  0.00     0.050 A 
ATOM     14  C   UNL A   1      33.692  26.019  23.080  1.00  0.00     0.164 A 
ATOM     15  C   UNL A   1      33.730  26.626  25.826  1.00  0.00     0.004 A 
ATOM     16  C   UNL A   1      33.958  25.321  25.394  1.00  0.00     0.008 A 
BRANCH  12  17
ATOM     17  O   UNL A   1      33.306  28.361  22.639  1.00  0.00    -0.493 OA
ATOM     18  C   UNL A   1      32.057  29.030  22.811  1.00  0.00     0.278 C 
ENDBRANCH  12  17
BRANCH  14  19
ATOM     19  O   UNL A   1      33.792  25.642  21.765  1.00  0.00    -0.493 OA
ATOM     20  C   UNL A   1      32.608  25.699  20.982  1.00  0.00     0.278 C 
ENDBRANCH  14  19
ENDBRANCH   7  11
BRANCH   9  21
ATOM     21  C   UNL A   1      32.651  20.265  24.190  1.00  0.00     0.223 C 
ATOM     22  O   UNL A   1      32.078  19.917  25.224  1.00  0.00    -0.275 OA
BRANCH  21  23
ATOM     23  C   UNL A   1      32.482  19.459  22.919  1.00  0.00     0.111 C 
BRANCH  23  24
ATOM     24  C   UNL A   1      32.333  17.972  23.223  1.00  0.00     0.079 C 
BRANCH  24  25
ATOM     25  S   UNL A   1      33.925  17.096  23.434  1.00  0.00    -0.165 SA
ATOM     26  C   UNL A   1      33.586  16.184  24.960  1.00  0.00     0.085 C 
ENDBRANCH  24  25
ENDBRANCH  23  24
ENDBRANCH  21  23
ENDBRANCH   9  21
ENDBRANCH   3   6
ENDBRANCH   1   2
BRANCH   1  27
ATOM     27  C   UNL A   1      39.207  21.737  26.489  1.00  0.00     0.042 C 
BRANCH  27  28
ATOM     28  C   UNL A   1      39.509  20.626  25.498  1.00  0.00     0.118 C 
BRANCH  28  29
ATOM     29  N   UNL A   1      40.418  19.633  26.052  1.00  0.00    -0.352 N 
ATOM     30  C   UNL A   1      41.714  19.772  26.476  1.00  0.00     0.251 C 
ATOM     31  H   UNL A   1      40.045  18.726  26.137  1.00  0.00     0.163 HD
ATOM     32  O   UNL A   1      42.399  18.765  26.668  1.00  0.00    -0.269 OA
BRANCH  30  33
ATOM     33  C   UNL A   1      42.288  21.115  26.691  1.00  0.00     0.039 A 
ATOM     34  C   UNL A   1      42.543  21.931  25.588  1.00  0.00     0.014 A 
ATOM     35  C   UNL A   1      42.593  21.562  27.979  1.00  0.00     0.014 A 
ATOM     36  C   UNL A   1      43.056  23.214  25.784  1.00  0.00     0.010 A 
ATOM     37  C   UNL A   1      43.000  22.875  28.179  1.00  0.00     0.010 A 
ATOM     38  C   UNL A   1      43.258  23.708  27.083  1.00  0.00    -0.014 A 
BRANCH  38  39
ATOM     39  C   UNL A   1      43.764  25.083  27.315  1.00  0.00     0.031 A 
ATOM     40  C   UNL A   1      45.210  25.410  27.048  1.00  0.00     0.074 A 
ATOM     41  C   UNL A   1      42.936  26.020  27.817  1.00  0.00     0.049 A 
ATOM     42  N   UNL A   1      45.843  26.543  27.217  1.00  0.00    -0.248 NA
ATOM     43  C   UNL A   1      46.066  24.315  26.558  1.00  0.00     0.031 C 
ATOM     44  C   UNL A   1      41.530  25.807  28.171  1.00  0.00     0.029 A 
ATOM     45  N   UNL A   1      43.156  27.340  28.119  1.00  0.00    -0.354 N 
ATOM     46  C   UNL A   1      47.167  26.290  26.875  1.00  0.00     0.074 A 
ATOM     47  C   UNL A   1      47.259  24.886  26.547  1.00  0.00     0.031 C 
ATOM     48  C   UNL A   1      41.006  26.964  28.606  1.00  0.00     0.029 A 
ATOM     49  C   UNL A   1      42.044  27.988  28.602  1.00  0.00     0.049 A 
ATOM     50  H   UNL A   1      44.029  27.781  28.001  1.00  0.00     0.167 HD
ATOM     51  C   UNL A   1      48.208  27.155  26.814  1.00  0.00     0.031 A 
ATOM     52  C   UNL A   1      41.880  29.265  28.998  1.00  0.00     0.031 A 
ATOM     53  C   UNL A   1      48.104  28.555  27.125  1.00  0.00     0.049 A 
ATOM     54  C   UNL A   1      43.045  30.210  28.909  1.00  0.00     0.074 A 
ATOM     55  C   UNL A   1      49.079  29.532  27.033  1.00  0.00     0.029 A 
ATOM     56  N   UNL A   1      46.956  29.178  27.593  1.00  0.00    -0.354 N 
ATOM     57  N   UNL A   1      44.271  29.971  28.506  1.00  0.00    -0.248 NA
ATOM     58  C   UNL A   1      42.801  31.602  29.310  1.00  0.00     0.031 C 
ATOM     59  C   UNL A   1      48.536  30.734  27.498  1.00  0.00     0.029 A 
ATOM     60  C   UNL A   1      47.204  30.521  27.819  1.00  0.00     0.049 A 
ATOM     61  H   UNL A   1      46.091  28.731  27.741  1.00  0.00     0.167 HD
ATOM     62  C   UNL A   1      44.939  31.188  28.583  1.00  0.00     0.074 A 
ATOM     63  C   UNL A   1      43.974  32.164  29.050  1.00  0.00     0.031 C 
ATOM     64  C   UNL A   1      46.233  31.474  28.293  1.00  0.00     0.031 A 
BRANCH  51  65
ATOM     65  C   UNL A   1      49.549  26.604  26.401  1.00  0.00    -0.014 A 
ATOM     66  C   UNL A   1      50.118  26.928  25.155  1.00  0.00     0.010 A 
ATOM     67  C   UNL A   1      50.264  25.772  27.282  1.00  0.00     0.010 A 
ATOM     68  C   UNL A   1      51.354  26.394  24.779  1.00  0.00     0.020 A 
ATOM     69  C   UNL A   1      51.515  25.261  26.922  1.00  0.00     0.020 A 
ATOM     70  C   UNL A   1      52.042  25.560  25.665  1.00  0.00     0.054 A 
BRANCH  70  71
ATOM     71  S   UNL A   1      53.651  24.895  25.158  1.00  0.00     0.124 S 
ATOM     72  O   UNL A   1      54.506  25.291  26.274  1.00  0.00    -0.237 OA
ATOM     73  O   UNL A   1      53.386  23.462  25.048  1.00  0.00    -0.237 OA
ATOM     74  O   UNL A   1      53.925  25.573  23.894  1.00  0.00    -0.744 OA
ENDBRANCH  70  71
ENDBRANCH  51  65
BRANCH  52  75
ATOM     75  C   UNL A   1      40.553  29.721  29.495  1.00  0.00    -0.014 A 
ATOM     76  C   UNL A   1      39.529  30.064  28.593  1.00  0.00     0.010 A 
ATOM     77  C   UNL A   1      40.298  29.792  30.876  1.00  0.00     0.010 A 
ATOM     78  C   UNL A   1      38.282  30.487  29.064  1.00  0.00     0.020 A 
ATOM     79  C   UNL A   1      39.043  30.185  31.351  1.00  0.00     0.020 A 
ATOM     80  C   UNL A   1      38.047  30.541  30.441  1.00  0.00     0.054 A 
BRANCH  80  81
ATOM     81  S   UNL A   1      36.404  31.039  31.028  1.00  0.00     0.124 S 
ATOM     82  O   UNL A   1      36.159  30.075  32.095  1.00  0.00    -0.237 OA
ATOM     83  O   UNL A   1      36.628  32.417  31.458  1.00  0.00    -0.237 OA
ATOM     84  O   UNL A   1      35.560  30.894  29.844  1.00  0.00    -0.744 OA
ENDBRANCH  80  81
ENDBRANCH  52  75
BRANCH  64  85
ATOM     85  C   UNL A   1      46.671  32.907  28.447  1.00  0.00    -0.014 A 
ATOM     86  C   UNL A   1      47.241  33.371  29.645  1.00  0.00     0.010 A 
ATOM     87  C   UNL A   1      46.546  33.789  27.359  1.00  0.00     0.010 A 
ATOM     88  C   UNL A   1      47.637  34.706  29.768  1.00  0.00     0.020 A 
ATOM     89  C   UNL A   1      46.969  35.116  27.467  1.00  0.00     0.020 A 
ATOM     90  C   UNL A   1      47.495  35.571  28.678  1.00  0.00     0.054 A 
BRANCH  90  91
ATOM     91  S   UNL A   1      48.038  37.291  28.853  1.00  0.00     0.124 S 
ATOM     92  O   UNL A   1      47.069  38.001  28.021  1.00  0.00    -0.237 OA
ATOM     93  O   UNL A   1      47.920  37.520  30.291  1.00  0.00    -0.237 OA
ATOM     94  O   UNL A   1      49.406  37.277  28.341  1.00  0.00    -0.744 OA
ENDBRANCH  90  91
ENDBRANCH  64  85
ENDBRANCH  38  39
ENDBRANCH  30  33
ENDBRANCH  28  29
ENDBRANCH  27  28
ENDBRANCH   1  27
TORSDOF 20
ENDMDL
