MODEL 1
REMARK VINA RESULT:     -10.0      0.000      0.000
REMARK SMILES O=C(CC1(NC(=O)c2ccccc2[N+](=O)[O-])CCC1)NCCCNC(=O)c1ccc(-c2c3nc(c(-c4ccc(S(=O)(=O)[O-])cc4)c4ccc([nH]4)c(-c4ccc(S(=O)(=O)[O-])cc4)c4nc(c(-c5ccc(S(=O)(=O)[O-])cc5)c5ccc2[nH]5)C=C4)C=C3)cc1
REMARK SMILES IDX 21 1 20 2 1 3 2 4 3 6 4 7 17 8 19 9 18 10 5 11 6 12 7 14
REMARK SMILES IDX 8 15 9 16 13 17 10 18 12 19 11 20 14 21 15 22 16 23 22 24
REMARK SMILES IDX 23 25 24 26 25 27 26 29 27 30 28 31 86 32 29 33 85 34 30 35
REMARK SMILES IDX 31 36 32 37 79 38 33 39 84 40 78 41 80 42 34 43 83 44 77 45
REMARK SMILES IDX 76 46 35 48 65 49 46 50 64 51 47 52 50 53 63 54 81 55 48 56
REMARK SMILES IDX 49 57 62 59 82 60 51 61 36 62 37 63 45 64 38 65 44 66 39 67
REMARK SMILES IDX 40 68 41 69 42 70 43 71 66 72 67 73 75 74 68 75 74 76 69 77
REMARK SMILES IDX 70 78 71 79 72 80 73 81 52 82 53 83 61 84 54 85 60 86 55 87
REMARK SMILES IDX 56 88 57 89 58 90 59 91
REMARK H PARENT 20 5 5 13 24 28 80 47 50 58
REMARK Flexibility Score: inf
ROOT
ATOM      1  C   UNL A   1      43.158  21.033  25.935  1.00  0.00     0.117 C 
ENDROOT
BRANCH   1   2
ATOM      2  N   UNL A   1      43.315  22.472  26.013  1.00  0.00    -0.356 N 
ATOM      3  O   UNL A   1      43.825  22.682  23.801  1.00  0.00    -0.275 OA
ATOM      4  C   UNL A   1      43.647  23.198  24.899  1.00  0.00     0.222 C 
ATOM      5  H   UNL A   1      43.182  22.931  26.873  1.00  0.00     0.163 HD
BRANCH   4   6
ATOM      6  C   UNL A   1      43.794  24.675  25.109  1.00  0.00     0.128 C 
BRANCH   6   7
ATOM      7  C   UNL A   1      45.219  25.153  25.350  1.00  0.00     0.049 C 
ATOM      8  C   UNL A   1      45.494  25.114  26.901  1.00  0.00     0.029 C 
ATOM      9  C   UNL A   1      46.378  24.122  25.198  1.00  0.00     0.029 C 
ATOM     10  C   UNL A   1      46.760  24.292  26.670  1.00  0.00     0.005 C 
BRANCH   7  11
ATOM     11  N   UNL A   1      45.589  26.491  24.799  1.00  0.00    -0.346 N 
ATOM     12  C   UNL A   1      46.592  27.422  24.981  1.00  0.00     0.258 C 
ATOM     13  H   UNL A   1      44.939  26.791  24.123  1.00  0.00     0.164 HD
ATOM     14  O   UNL A   1      46.195  28.596  24.943  1.00  0.00    -0.269 OA
BRANCH  12  15
ATOM     15  C   UNL A   1      48.072  27.231  24.931  1.00  0.00     0.117 A 
ATOM     16  C   UNL A   1      48.638  26.973  26.207  1.00  0.00     0.021 A 
ATOM     17  C   UNL A   1      48.959  27.195  23.854  1.00  0.00     0.282 A 
ATOM     18  C   UNL A   1      50.005  26.729  26.396  1.00  0.00     0.001 A 
ATOM     19  C   UNL A   1      50.350  26.995  24.040  1.00  0.00     0.086 A 
ATOM     20  C   UNL A   1      50.867  26.760  25.311  1.00  0.00     0.007 A 
BRANCH  17  21
ATOM     21  N   UNL A   1      48.511  27.235  22.485  1.00  0.00     0.063 N 
ATOM     22  O   UNL A   1      48.084  28.315  22.058  1.00  0.00    -0.258 OA
ATOM     23  O   UNL A   1      48.514  26.174  21.843  1.00  0.00    -0.258 OA
ENDBRANCH  17  21
ENDBRANCH  12  15
ENDBRANCH   7  11
ENDBRANCH   6   7
ENDBRANCH   4   6
ENDBRANCH   1   2
BRANCH   1  24
ATOM     24  C   UNL A   1      41.946  20.497  26.703  1.00  0.00     0.042 C 
BRANCH  24  25
ATOM     25  C   UNL A   1      40.984  21.580  27.177  1.00  0.00     0.118 C 
BRANCH  25  26
ATOM     26  N   UNL A   1      39.883  21.745  26.240  1.00  0.00    -0.352 N 
ATOM     27  C   UNL A   1      38.971  22.751  26.159  1.00  0.00     0.251 C 
ATOM     28  H   UNL A   1      39.786  21.029  25.571  1.00  0.00     0.163 HD
ATOM     29  O   UNL A   1      37.910  22.562  25.552  1.00  0.00    -0.269 OA
BRANCH  27  30
ATOM     30  C   UNL A   1      39.262  24.061  26.764  1.00  0.00     0.039 A 
ATOM     31  C   UNL A   1      40.025  24.984  26.047  1.00  0.00     0.014 A 
ATOM     32  C   UNL A   1      38.857  24.340  28.076  1.00  0.00     0.014 A 
ATOM     33  C   UNL A   1      40.398  26.182  26.652  1.00  0.00     0.010 A 
ATOM     34  C   UNL A   1      39.167  25.565  28.651  1.00  0.00     0.010 A 
ATOM     35  C   UNL A   1      39.980  26.473  27.960  1.00  0.00    -0.014 A 
BRANCH  35  36
ATOM     36  C   UNL A   1      40.471  27.684  28.652  1.00  0.00     0.031 A 
ATOM     37  C   UNL A   1      41.893  27.731  29.144  1.00  0.00     0.074 A 
ATOM     38  C   UNL A   1      39.638  28.721  28.843  1.00  0.00     0.049 A 
ATOM     39  N   UNL A   1      42.524  28.701  29.751  1.00  0.00    -0.248 NA
ATOM     40  C   UNL A   1      42.706  26.516  28.951  1.00  0.00     0.031 C 
ATOM     41  C   UNL A   1      38.227  28.758  28.448  1.00  0.00     0.029 A 
ATOM     42  N   UNL A   1      39.858  29.948  29.412  1.00  0.00    -0.354 N 
ATOM     43  C   UNL A   1      43.795  28.209  30.028  1.00  0.00     0.074 A 
ATOM     44  C   UNL A   1      43.831  26.838  29.572  1.00  0.00     0.031 C 
ATOM     45  C   UNL A   1      37.718  29.963  28.755  1.00  0.00     0.029 A 
ATOM     46  C   UNL A   1      38.758  30.770  29.385  1.00  0.00     0.049 A 
ATOM     47  H   UNL A   1      40.721  30.214  29.802  1.00  0.00     0.167 HD
ATOM     48  C   UNL A   1      44.847  28.851  30.591  1.00  0.00     0.031 A 
ATOM     49  C   UNL A   1      38.615  32.041  29.805  1.00  0.00     0.031 A 
ATOM     50  C   UNL A   1      44.804  30.223  31.018  1.00  0.00     0.049 A 
ATOM     51  C   UNL A   1      39.811  32.751  30.376  1.00  0.00     0.074 A 
ATOM     52  C   UNL A   1      45.818  30.991  31.560  1.00  0.00     0.029 A 
ATOM     53  N   UNL A   1      43.683  31.035  30.937  1.00  0.00    -0.354 N 
ATOM     54  N   UNL A   1      41.022  32.289  30.582  1.00  0.00    -0.248 NA
ATOM     55  C   UNL A   1      39.629  34.160  30.743  1.00  0.00     0.031 C 
ATOM     56  C   UNL A   1      45.300  32.262  31.834  1.00  0.00     0.029 A 
ATOM     57  C   UNL A   1      43.977  32.297  31.420  1.00  0.00     0.049 A 
ATOM     58  H   UNL A   1      42.805  30.754  30.588  1.00  0.00     0.167 HD
ATOM     59  C   UNL A   1      41.756  33.361  31.075  1.00  0.00     0.074 A 
ATOM     60  C   UNL A   1      40.854  34.496  31.123  1.00  0.00     0.031 C 
ATOM     61  C   UNL A   1      43.059  33.406  31.452  1.00  0.00     0.031 A 
BRANCH  48  62
ATOM     62  C   UNL A   1      46.121  28.068  30.769  1.00  0.00    -0.014 A 
ATOM     63  C   UNL A   1      46.388  27.379  31.966  1.00  0.00     0.010 A 
ATOM     64  C   UNL A   1      47.060  28.010  29.724  1.00  0.00     0.010 A 
ATOM     65  C   UNL A   1      47.591  26.688  32.135  1.00  0.00     0.020 A 
ATOM     66  C   UNL A   1      48.253  27.296  29.878  1.00  0.00     0.020 A 
ATOM     67  C   UNL A   1      48.521  26.657  31.090  1.00  0.00     0.054 A 
BRANCH  67  68
ATOM     68  S   UNL A   1      50.070  25.745  31.329  1.00  0.00     0.124 S 
ATOM     69  O   UNL A   1      50.962  26.791  31.823  1.00  0.00    -0.237 OA
ATOM     70  O   UNL A   1      49.698  24.725  32.307  1.00  0.00    -0.237 OA
ATOM     71  O   UNL A   1      50.383  25.239  29.994  1.00  0.00    -0.744 OA
ENDBRANCH  67  68
ENDBRANCH  48  62
BRANCH  49  72
ATOM     72  C   UNL A   1      37.307  32.729  29.646  1.00  0.00    -0.014 A 
ATOM     73  C   UNL A   1      36.375  32.744  30.698  1.00  0.00     0.010 A 
ATOM     74  C   UNL A   1      36.999  33.402  28.450  1.00  0.00     0.010 A 
ATOM     75  C   UNL A   1      35.151  33.401  30.552  1.00  0.00     0.020 A 
ATOM     76  C   UNL A   1      35.785  34.081  28.308  1.00  0.00     0.020 A 
ATOM     77  C   UNL A   1      34.864  34.065  29.357  1.00  0.00     0.054 A 
BRANCH  77  78
ATOM     78  S   UNL A   1      33.290  34.958  29.206  1.00  0.00     0.124 S 
ATOM     79  O   UNL A   1      33.728  36.265  28.729  1.00  0.00    -0.237 OA
ATOM     80  O   UNL A   1      32.554  34.144  28.242  1.00  0.00    -0.237 OA
ATOM     81  O   UNL A   1      32.754  34.933  30.567  1.00  0.00    -0.744 OA
ENDBRANCH  77  78
ENDBRANCH  49  72
BRANCH  61  82
ATOM     82  C   UNL A   1      43.589  34.737  31.906  1.00  0.00    -0.014 A 
ATOM     83  C   UNL A   1      43.959  35.730  30.982  1.00  0.00     0.010 A 
ATOM     84  C   UNL A   1      43.688  35.005  33.283  1.00  0.00     0.010 A 
ATOM     85  C   UNL A   1      44.463  36.953  31.428  1.00  0.00     0.020 A 
ATOM     86  C   UNL A   1      44.167  36.237  33.732  1.00  0.00     0.020 A 
ATOM     87  C   UNL A   1      44.571  37.195  32.801  1.00  0.00     0.054 A 
BRANCH  87  88
ATOM     88  S   UNL A   1      45.213  38.797  33.360  1.00  0.00     0.124 S 
ATOM     89  O   UNL A   1      44.818  39.679  32.266  1.00  0.00    -0.237 OA
ATOM     90  O   UNL A   1      44.506  39.005  34.622  1.00  0.00    -0.237 OA
ATOM     91  O   UNL A   1      46.650  38.566  33.490  1.00  0.00    -0.744 OA
ENDBRANCH  87  88
ENDBRANCH  61  82
ENDBRANCH  35  36
ENDBRANCH  27  30
ENDBRANCH  25  26
ENDBRANCH  24  25
ENDBRANCH   1  24
TORSDOF 17
ENDMDL
MODEL 2
REMARK VINA RESULT:     -10.0      4.068      8.169
REMARK SMILES O=C(CC1(NC(=O)c2ccccc2[N+](=O)[O-])CCC1)NCCCNC(=O)c1ccc(-c2c3nc(c(-c4ccc(S(=O)(=O)[O-])cc4)c4ccc([nH]4)c(-c4ccc(S(=O)(=O)[O-])cc4)c4nc(c(-c5ccc(S(=O)(=O)[O-])cc5)c5ccc2[nH]5)C=C4)C=C3)cc1
REMARK SMILES IDX 21 1 20 2 1 3 2 4 3 6 4 7 17 8 19 9 18 10 5 11 6 12 7 14
REMARK SMILES IDX 8 15 9 16 13 17 10 18 12 19 11 20 14 21 15 22 16 23 22 24
REMARK SMILES IDX 23 25 24 26 25 27 26 29 27 30 28 31 86 32 29 33 85 34 30 35
REMARK SMILES IDX 31 36 32 37 79 38 33 39 84 40 78 41 80 42 34 43 83 44 77 45
REMARK SMILES IDX 76 46 35 48 65 49 46 50 64 51 47 52 50 53 63 54 81 55 48 56
REMARK SMILES IDX 49 57 62 59 82 60 51 61 36 62 37 63 45 64 38 65 44 66 39 67
REMARK SMILES IDX 40 68 41 69 42 70 43 71 66 72 67 73 75 74 68 75 74 76 69 77
REMARK SMILES IDX 70 78 71 79 72 80 73 81 52 82 53 83 61 84 54 85 60 86 55 87
REMARK SMILES IDX 56 88 57 89 58 90 59 91
REMARK H PARENT 20 5 5 13 24 28 80 47 50 58
REMARK Flexibility Score: inf
ROOT
ATOM      1  C   UNL A   1      35.314  23.487  23.990  1.00  0.00     0.117 C 
ENDROOT
BRANCH   1   2
ATOM      2  N   UNL A   1      34.641  24.185  25.067  1.00  0.00    -0.356 N 
ATOM      3  O   UNL A   1      33.982  25.912  23.733  1.00  0.00    -0.275 OA
ATOM      4  C   UNL A   1      34.011  25.380  24.838  1.00  0.00     0.222 C 
ATOM      5  H   UNL A   1      34.636  23.797  25.971  1.00  0.00     0.163 HD
BRANCH   4   6
ATOM      6  C   UNL A   1      33.364  26.011  26.033  1.00  0.00     0.128 C 
BRANCH   6   7
ATOM      7  C   UNL A   1      32.153  26.882  25.727  1.00  0.00     0.049 C 
ATOM      8  C   UNL A   1      31.764  27.660  27.041  1.00  0.00     0.029 C 
ATOM      9  C   UNL A   1      32.396  28.275  25.069  1.00  0.00     0.029 C 
ATOM     10  C   UNL A   1      31.791  28.985  26.282  1.00  0.00     0.005 C 
BRANCH   7  11
ATOM     11  N   UNL A   1      30.951  26.201  25.160  1.00  0.00    -0.346 N 
ATOM     12  C   UNL A   1      30.688  25.133  24.327  1.00  0.00     0.258 C 
ATOM     13  H   UNL A   1      30.120  26.633  25.464  1.00  0.00     0.164 HD
ATOM     14  O   UNL A   1      29.741  25.328  23.550  1.00  0.00    -0.269 OA
BRANCH  12  15
ATOM     15  C   UNL A   1      31.176  23.724  24.421  1.00  0.00     0.117 A 
ATOM     16  C   UNL A   1      31.609  23.207  23.172  1.00  0.00     0.021 A 
ATOM     17  C   UNL A   1      31.338  22.878  25.519  1.00  0.00     0.282 A 
ATOM     18  C   UNL A   1      32.137  21.917  23.028  1.00  0.00     0.001 A 
ATOM     19  C   UNL A   1      31.827  21.556  25.375  1.00  0.00     0.086 A 
ATOM     20  C   UNL A   1      32.228  21.081  24.130  1.00  0.00     0.007 A 
BRANCH  17  21
ATOM     21  N   UNL A   1      31.136  23.327  26.874  1.00  0.00     0.063 N 
ATOM     22  O   UNL A   1      32.069  23.166  27.670  1.00  0.00    -0.258 OA
ATOM     23  O   UNL A   1      30.021  23.778  27.175  1.00  0.00    -0.258 OA
ENDBRANCH  17  21
ENDBRANCH  12  15
ENDBRANCH   7  11
ENDBRANCH   6   7
ENDBRANCH   4   6
ENDBRANCH   1   2
BRANCH   1  24
ATOM     24  C   UNL A   1      36.752  23.074  24.319  1.00  0.00     0.042 C 
BRANCH  24  25
ATOM     25  C   UNL A   1      37.067  23.063  25.810  1.00  0.00     0.118 C 
BRANCH  25  26
ATOM     26  N   UNL A   1      38.130  22.116  26.111  1.00  0.00    -0.352 N 
ATOM     27  C   UNL A   1      39.434  22.359  26.414  1.00  0.00     0.251 C 
ATOM     28  H   UNL A   1      37.868  21.167  26.094  1.00  0.00     0.163 HD
ATOM     29  O   UNL A   1      40.266  21.452  26.289  1.00  0.00    -0.269 OA
BRANCH  27  30
ATOM     30  C   UNL A   1      39.841  23.682  26.915  1.00  0.00     0.039 A 
ATOM     31  C   UNL A   1      39.764  24.783  26.060  1.00  0.00     0.014 A 
ATOM     32  C   UNL A   1      40.381  23.816  28.200  1.00  0.00     0.014 A 
ATOM     33  C   UNL A   1      40.248  26.017  26.487  1.00  0.00     0.010 A 
ATOM     34  C   UNL A   1      40.796  25.063  28.651  1.00  0.00     0.010 A 
ATOM     35  C   UNL A   1      40.776  26.160  27.781  1.00  0.00    -0.014 A 
BRANCH  35  36
ATOM     36  C   UNL A   1      41.401  27.433  28.198  1.00  0.00     0.031 A 
ATOM     37  C   UNL A   1      42.885  27.620  28.029  1.00  0.00     0.074 A 
ATOM     38  C   UNL A   1      40.638  28.401  28.735  1.00  0.00     0.049 A 
ATOM     39  N   UNL A   1      43.622  28.662  28.309  1.00  0.00    -0.248 NA
ATOM     40  C   UNL A   1      43.646  26.474  27.499  1.00  0.00     0.031 C 
ATOM     41  C   UNL A   1      39.197  28.302  28.987  1.00  0.00     0.029 A 
ATOM     42  N   UNL A   1      40.966  29.661  29.158  1.00  0.00    -0.354 N 
ATOM     43  C   UNL A   1      44.929  28.292  28.008  1.00  0.00     0.074 A 
ATOM     44  C   UNL A   1      44.893  26.914  27.575  1.00  0.00     0.031 C 
ATOM     45  C   UNL A   1      38.760  29.469  29.489  1.00  0.00     0.029 A 
ATOM     46  C   UNL A   1      39.890  30.385  29.612  1.00  0.00     0.049 A 
ATOM     47  H   UNL A   1      41.884  30.015  29.139  1.00  0.00     0.167 HD
ATOM     48  C   UNL A   1      46.055  29.042  28.065  1.00  0.00     0.031 A 
ATOM     49  C   UNL A   1      39.823  31.652  30.059  1.00  0.00     0.031 A 
ATOM     50  C   UNL A   1      46.073  30.419  28.476  1.00  0.00     0.049 A 
ATOM     51  C   UNL A   1      41.076  32.483  30.061  1.00  0.00     0.074 A 
ATOM     52  C   UNL A   1      47.144  31.292  28.531  1.00  0.00     0.029 A 
ATOM     53  N   UNL A   1      44.955  31.129  28.890  1.00  0.00    -0.354 N 
ATOM     54  N   UNL A   1      42.295  32.135  29.722  1.00  0.00    -0.248 NA
ATOM     55  C   UNL A   1      40.939  33.884  30.477  1.00  0.00     0.031 C 
ATOM     56  C   UNL A   1      46.678  32.522  29.007  1.00  0.00     0.029 A 
ATOM     57  C   UNL A   1      45.309  32.428  29.204  1.00  0.00     0.049 A 
ATOM     58  H   UNL A   1      44.043  30.761  28.952  1.00  0.00     0.167 HD
ATOM     59  C   UNL A   1      43.067  33.283  29.856  1.00  0.00     0.074 A 
ATOM     60  C   UNL A   1      42.172  34.337  30.293  1.00  0.00     0.031 C 
ATOM     61  C   UNL A   1      44.394  33.454  29.634  1.00  0.00     0.031 A 
BRANCH  48  62
ATOM     62  C   UNL A   1      47.349  28.379  27.673  1.00  0.00    -0.014 A 
ATOM     63  C   UNL A   1      47.794  28.387  26.338  1.00  0.00     0.010 A 
ATOM     64  C   UNL A   1      48.138  27.748  28.651  1.00  0.00     0.010 A 
ATOM     65  C   UNL A   1      48.976  27.734  25.979  1.00  0.00     0.020 A 
ATOM     66  C   UNL A   1      49.337  27.118  28.301  1.00  0.00     0.020 A 
ATOM     67  C   UNL A   1      49.738  27.097  26.964  1.00  0.00     0.054 A 
BRANCH  67  68
ATOM     68  S   UNL A   1      51.275  26.267  26.475  1.00  0.00     0.124 S 
ATOM     69  O   UNL A   1      51.249  26.418  25.022  1.00  0.00    -0.237 OA
ATOM     70  O   UNL A   1      52.298  27.045  27.168  1.00  0.00    -0.237 OA
ATOM     71  O   UNL A   1      51.099  24.900  26.962  1.00  0.00    -0.744 OA
ENDBRANCH  67  68
ENDBRANCH  48  62
BRANCH  49  72
ATOM     72  C   UNL A   1      38.516  32.220  30.482  1.00  0.00    -0.014 A 
ATOM     73  C   UNL A   1      38.106  32.143  31.825  1.00  0.00     0.010 A 
ATOM     74  C   UNL A   1      37.686  32.868  29.549  1.00  0.00     0.010 A 
ATOM     75  C   UNL A   1      36.882  32.686  32.224  1.00  0.00     0.020 A 
ATOM     76  C   UNL A   1      36.472  33.433  29.949  1.00  0.00     0.020 A 
ATOM     77  C   UNL A   1      36.073  33.328  31.283  1.00  0.00     0.054 A 
BRANCH  77  78
ATOM     78  S   UNL A   1      34.512  34.074  31.833  1.00  0.00     0.124 S 
ATOM     79  O   UNL A   1      34.972  35.299  32.479  1.00  0.00    -0.237 OA
ATOM     80  O   UNL A   1      33.786  34.253  30.578  1.00  0.00    -0.237 OA
ATOM     81  O   UNL A   1      33.950  33.065  32.729  1.00  0.00    -0.744 OA
ENDBRANCH  77  78
ENDBRANCH  49  72
BRANCH  61  82
ATOM     82  C   UNL A   1      44.941  34.842  29.821  1.00  0.00    -0.014 A 
ATOM     83  C   UNL A   1      45.434  35.271  31.066  1.00  0.00     0.010 A 
ATOM     84  C   UNL A   1      44.989  35.718  28.721  1.00  0.00     0.010 A 
ATOM     85  C   UNL A   1      45.923  36.569  31.218  1.00  0.00     0.020 A 
ATOM     86  C   UNL A   1      45.502  37.007  28.864  1.00  0.00     0.020 A 
ATOM     87  C   UNL A   1      45.947  37.432  30.118  1.00  0.00     0.054 A 
BRANCH  87  88
ATOM     88  S   UNL A   1      46.602  39.109  30.333  1.00  0.00     0.124 S 
ATOM     89  O   UNL A   1      46.659  39.227  31.786  1.00  0.00    -0.237 OA
ATOM     90  O   UNL A   1      47.895  39.040  29.656  1.00  0.00    -0.237 OA
ATOM     91  O   UNL A   1      45.607  39.954  29.675  1.00  0.00    -0.744 OA
ENDBRANCH  87  88
ENDBRANCH  61  82
ENDBRANCH  35  36
ENDBRANCH  27  30
ENDBRANCH  25  26
ENDBRANCH  24  25
ENDBRANCH   1  24
TORSDOF 17
ENDMDL
MODEL 3
REMARK VINA RESULT:      -9.9      4.269     11.898
REMARK SMILES O=C(CC1(NC(=O)c2ccccc2[N+](=O)[O-])CCC1)NCCCNC(=O)c1ccc(-c2c3nc(c(-c4ccc(S(=O)(=O)[O-])cc4)c4ccc([nH]4)c(-c4ccc(S(=O)(=O)[O-])cc4)c4nc(c(-c5ccc(S(=O)(=O)[O-])cc5)c5ccc2[nH]5)C=C4)C=C3)cc1
REMARK SMILES IDX 21 1 20 2 1 3 2 4 3 6 4 7 17 8 19 9 18 10 5 11 6 12 7 14
REMARK SMILES IDX 8 15 9 16 13 17 10 18 12 19 11 20 14 21 15 22 16 23 22 24
REMARK SMILES IDX 23 25 24 26 25 27 26 29 27 30 28 31 86 32 29 33 85 34 30 35
REMARK SMILES IDX 31 36 32 37 79 38 33 39 84 40 78 41 80 42 34 43 83 44 77 45
REMARK SMILES IDX 76 46 35 48 65 49 46 50 64 51 47 52 50 53 63 54 81 55 48 56
REMARK SMILES IDX 49 57 62 59 82 60 51 61 36 62 37 63 45 64 38 65 44 66 39 67
REMARK SMILES IDX 40 68 41 69 42 70 43 71 66 72 67 73 75 74 68 75 74 76 69 77
REMARK SMILES IDX 70 78 71 79 72 80 73 81 52 82 53 83 61 84 54 85 60 86 55 87
REMARK SMILES IDX 56 88 57 89 58 90 59 91
REMARK H PARENT 20 5 5 13 24 28 80 47 50 58
REMARK Flexibility Score: inf
ROOT
ATOM      1  C   UNL A   1      34.086  31.431  28.072  1.00  0.00     0.117 C 
ENDROOT
BRANCH   1   2
ATOM      2  N   UNL A   1      34.403  30.612  26.918  1.00  0.00    -0.356 N 
ATOM      3  O   UNL A   1      32.893  28.995  27.467  1.00  0.00    -0.275 OA
ATOM      4  C   UNL A   1      33.756  29.423  26.708  1.00  0.00     0.222 C 
ATOM      5  H   UNL A   1      35.089  30.914  26.281  1.00  0.00     0.163 HD
BRANCH   4   6
ATOM      6  C   UNL A   1      34.181  28.661  25.490  1.00  0.00     0.128 C 
BRANCH   6   7
ATOM      7  C   UNL A   1      33.055  27.961  24.741  1.00  0.00     0.049 C 
ATOM      8  C   UNL A   1      31.816  28.935  24.698  1.00  0.00     0.029 C 
ATOM      9  C   UNL A   1      33.057  28.022  23.183  1.00  0.00     0.029 C 
ATOM     10  C   UNL A   1      31.722  28.771  23.183  1.00  0.00     0.005 C 
BRANCH   7  11
ATOM     11  N   UNL A   1      32.634  26.620  25.245  1.00  0.00    -0.346 N 
ATOM     12  C   UNL A   1      32.788  25.301  24.870  1.00  0.00     0.258 C 
ATOM     13  H   UNL A   1      32.101  26.700  26.069  1.00  0.00     0.164 HD
ATOM     14  O   UNL A   1      31.774  24.609  25.052  1.00  0.00    -0.269 OA
BRANCH  12  15
ATOM     15  C   UNL A   1      34.041  24.552  24.558  1.00  0.00     0.117 A 
ATOM     16  C   UNL A   1      34.962  24.545  25.639  1.00  0.00     0.021 A 
ATOM     17  C   UNL A   1      34.418  23.815  23.434  1.00  0.00     0.282 A 
ATOM     18  C   UNL A   1      36.191  23.875  25.585  1.00  0.00     0.001 A 
ATOM     19  C   UNL A   1      35.679  23.173  23.352  1.00  0.00     0.086 A 
ATOM     20  C   UNL A   1      36.560  23.203  24.430  1.00  0.00     0.007 A 
BRANCH  17  21
ATOM     21  N   UNL A   1      33.513  23.558  22.342  1.00  0.00     0.063 N 
ATOM     22  O   UNL A   1      33.348  24.464  21.516  1.00  0.00    -0.258 OA
ATOM     23  O   UNL A   1      32.905  22.477  22.337  1.00  0.00    -0.258 OA
ENDBRANCH  17  21
ENDBRANCH  12  15
ENDBRANCH   7  11
ENDBRANCH   6   7
ENDBRANCH   4   6
ENDBRANCH   1   2
BRANCH   1  24
ATOM     24  C   UNL A   1      34.980  32.666  28.223  1.00  0.00     0.042 C 
BRANCH  24  25
ATOM     25  C   UNL A   1      36.271  32.407  28.990  1.00  0.00     0.118 C 
BRANCH  25  26
ATOM     26  N   UNL A   1      36.050  31.473  30.083  1.00  0.00    -0.352 N 
ATOM     27  C   UNL A   1      36.729  30.334  30.389  1.00  0.00     0.251 C 
ATOM     28  H   UNL A   1      35.305  31.698  30.687  1.00  0.00     0.163 HD
ATOM     29  O   UNL A   1      36.199  29.487  31.118  1.00  0.00    -0.269 OA
BRANCH  27  30
ATOM     30  C   UNL A   1      38.095  30.131  29.879  1.00  0.00     0.039 A 
ATOM     31  C   UNL A   1      38.284  29.920  28.513  1.00  0.00     0.014 A 
ATOM     32  C   UNL A   1      39.178  30.061  30.766  1.00  0.00     0.014 A 
ATOM     33  C   UNL A   1      39.557  29.619  28.035  1.00  0.00     0.010 A 
ATOM     34  C   UNL A   1      40.458  29.834  30.279  1.00  0.00     0.010 A 
ATOM     35  C   UNL A   1      40.648  29.564  28.918  1.00  0.00    -0.014 A 
BRANCH  35  36
ATOM     36  C   UNL A   1      41.977  29.126  28.440  1.00  0.00     0.031 A 
ATOM     37  C   UNL A   1      43.108  30.118  28.385  1.00  0.00     0.074 A 
ATOM     38  C   UNL A   1      42.154  27.852  28.051  1.00  0.00     0.049 A 
ATOM     39  N   UNL A   1      44.350  29.933  28.021  1.00  0.00    -0.248 NA
ATOM     40  C   UNL A   1      42.796  31.508  28.764  1.00  0.00     0.031 C 
ATOM     41  C   UNL A   1      41.111  26.822  28.021  1.00  0.00     0.029 A 
ATOM     42  N   UNL A   1      43.278  27.202  27.613  1.00  0.00    -0.354 N 
ATOM     43  C   UNL A   1      44.958  31.181  28.108  1.00  0.00     0.074 A 
ATOM     44  C   UNL A   1      43.940  32.125  28.508  1.00  0.00     0.031 C 
ATOM     45  C   UNL A   1      41.654  25.661  27.620  1.00  0.00     0.029 A 
ATOM     46  C   UNL A   1      43.072  25.870  27.348  1.00  0.00     0.049 A 
ATOM     47  H   UNL A   1      44.149  27.646  27.500  1.00  0.00     0.167 HD
ATOM     48  C   UNL A   1      46.256  31.507  27.897  1.00  0.00     0.031 A 
ATOM     49  C   UNL A   1      43.940  24.922  26.948  1.00  0.00     0.031 A 
ATOM     50  C   UNL A   1      47.263  30.553  27.523  1.00  0.00     0.049 A 
ATOM     51  C   UNL A   1      45.386  25.294  26.774  1.00  0.00     0.074 A 
ATOM     52  C   UNL A   1      48.617  30.757  27.325  1.00  0.00     0.029 A 
ATOM     53  N   UNL A   1      47.024  29.204  27.302  1.00  0.00    -0.354 N 
ATOM     54  N   UNL A   1      45.956  26.468  26.913  1.00  0.00    -0.248 NA
ATOM     55  C   UNL A   1      46.309  24.209  26.418  1.00  0.00     0.031 C 
ATOM     56  C   UNL A   1      49.191  29.535  26.956  1.00  0.00     0.029 A 
ATOM     57  C   UNL A   1      48.203  28.562  26.970  1.00  0.00     0.049 A 
ATOM     58  H   UNL A   1      46.143  28.768  27.372  1.00  0.00     0.167 HD
ATOM     59  C   UNL A   1      47.312  26.258  26.691  1.00  0.00     0.074 A 
ATOM     60  C   UNL A   1      47.475  24.842  26.422  1.00  0.00     0.031 C 
ATOM     61  C   UNL A   1      48.332  27.151  26.711  1.00  0.00     0.031 A 
BRANCH  48  62
ATOM     62  C   UNL A   1      46.644  32.951  28.070  1.00  0.00    -0.014 A 
ATOM     63  C   UNL A   1      47.028  33.455  29.327  1.00  0.00     0.010 A 
ATOM     64  C   UNL A   1      46.636  33.817  26.962  1.00  0.00     0.010 A 
ATOM     65  C   UNL A   1      47.348  34.806  29.483  1.00  0.00     0.020 A 
ATOM     66  C   UNL A   1      46.984  35.164  27.108  1.00  0.00     0.020 A 
ATOM     67  C   UNL A   1      47.318  35.655  28.372  1.00  0.00     0.054 A 
BRANCH  67  68
ATOM     68  S   UNL A   1      47.748  37.402  28.598  1.00  0.00     0.124 S 
ATOM     69  O   UNL A   1      46.448  37.995  28.901  1.00  0.00    -0.237 OA
ATOM     70  O   UNL A   1      48.694  37.361  29.711  1.00  0.00    -0.237 OA
ATOM     71  O   UNL A   1      48.323  37.786  27.310  1.00  0.00    -0.744 OA
ENDBRANCH  67  68
ENDBRANCH  48  62
BRANCH  49  72
ATOM     72  C   UNL A   1      43.468  23.527  26.744  1.00  0.00    -0.014 A 
ATOM     73  C   UNL A   1      43.317  23.007  25.447  1.00  0.00     0.010 A 
ATOM     74  C   UNL A   1      43.198  22.699  27.849  1.00  0.00     0.010 A 
ATOM     75  C   UNL A   1      42.884  21.692  25.256  1.00  0.00     0.020 A 
ATOM     76  C   UNL A   1      42.787  21.375  27.662  1.00  0.00     0.020 A 
ATOM     77  C   UNL A   1      42.622  20.884  26.366  1.00  0.00     0.054 A 
BRANCH  77  78
ATOM     78  S   UNL A   1      42.113  19.163  26.097  1.00  0.00     0.124 S 
ATOM     79  O   UNL A   1      42.888  18.799  24.915  1.00  0.00    -0.237 OA
ATOM     80  O   UNL A   1      42.514  18.515  27.343  1.00  0.00    -0.237 OA
ATOM     81  O   UNL A   1      40.669  19.264  25.894  1.00  0.00    -0.744 OA
ENDBRANCH  77  78
ENDBRANCH  49  72
BRANCH  61  82
ATOM     82  C   UNL A   1      49.715  26.610  26.476  1.00  0.00    -0.014 A 
ATOM     83  C   UNL A   1      50.486  26.094  27.532  1.00  0.00     0.010 A 
ATOM     84  C   UNL A   1      50.235  26.593  25.169  1.00  0.00     0.010 A 
ATOM     85  C   UNL A   1      51.773  25.611  27.291  1.00  0.00     0.020 A 
ATOM     86  C   UNL A   1      51.511  26.086  24.921  1.00  0.00     0.020 A 
ATOM     87  C   UNL A   1      52.281  25.617  25.988  1.00  0.00     0.054 A 
BRANCH  87  88
ATOM     88  S   UNL A   1      53.949  24.969  25.694  1.00  0.00     0.124 S 
ATOM     89  O   UNL A   1      53.683  23.559  25.429  1.00  0.00    -0.237 OA
ATOM     90  O   UNL A   1      54.401  25.751  24.545  1.00  0.00    -0.237 OA
ATOM     91  O   UNL A   1      54.652  25.249  26.944  1.00  0.00    -0.744 OA
ENDBRANCH  87  88
ENDBRANCH  61  82
ENDBRANCH  35  36
ENDBRANCH  27  30
ENDBRANCH  25  26
ENDBRANCH  24  25
ENDBRANCH   1  24
TORSDOF 17
ENDMDL
