MODEL 1
REMARK VINA RESULT:     -12.5      0.000      0.000
REMARK SMILES O=C(NCCCNC(=O)[C@H]1C=C[C@H](NC(=O)c2cccc(C(F)(F)F)c2)C1)c1ccc(-c2c3nc(c(-c4ccc(S(=O)(=O)[O-])cc4)c4ccc([nH]4)c(-c4ccc(S(=O)(=O)[O-])cc4)c4nc(c(-c5ccc(S(=O)(=O)[O-])cc5)c5ccc2[nH]5)C=C4)C=C3)cc1
REMARK SMILES IDX 5 1 4 2 3 3 1 4 2 5 28 7 29 8 87 9 30 10 86 11 31 12 32 13
REMARK SMILES IDX 33 14 80 15 34 16 85 17 79 18 81 19 35 20 84 21 78 22 77 23
REMARK SMILES IDX 36 25 66 26 47 27 65 28 48 29 51 30 64 31 82 32 49 33 50 34
REMARK SMILES IDX 63 36 83 37 52 38 37 39 38 40 46 41 39 42 45 43 40 44 41 45
REMARK SMILES IDX 42 46 43 47 44 48 67 49 68 50 76 51 69 52 75 53 70 54 71 55
REMARK SMILES IDX 72 56 73 57 74 58 53 59 54 60 62 61 55 62 61 63 56 64 57 65
REMARK SMILES IDX 58 66 59 67 60 68 6 69 7 70 8 71 9 73 10 74 11 75 27 76
REMARK SMILES IDX 12 77 13 78 14 79 15 80 16 82 17 83 18 84 26 85 19 86 21 87
REMARK SMILES IDX 20 88 22 89 23 90 24 91 25 92
REMARK H PARENT 3 6 81 24 51 35 7 72 14 81
REMARK Flexibility Score: inf
ROOT
ATOM      1  C   UNL A   1      38.481  22.789  26.490  1.00  0.00     0.042 C 
ENDROOT
BRANCH   1   2
ATOM      2  C   UNL A   1      39.654  23.533  27.109  1.00  0.00     0.118 C 
BRANCH   2   3
ATOM      3  N   UNL A   1      40.509  24.166  26.114  1.00  0.00    -0.352 N 
ATOM      4  O   UNL A   1      41.539  25.848  25.029  1.00  0.00    -0.269 OA
ATOM      5  C   UNL A   1      40.974  25.460  26.043  1.00  0.00     0.251 C 
ATOM      6  H   UNL A   1      40.800  23.578  25.380  1.00  0.00     0.163 HD
BRANCH   5   7
ATOM      7  C   UNL A   1      40.761  26.383  27.180  1.00  0.00     0.039 A 
ATOM      8  C   UNL A   1      41.577  27.501  27.349  1.00  0.00     0.014 A 
ATOM      9  C   UNL A   1      39.732  26.125  28.091  1.00  0.00     0.014 A 
ATOM     10  C   UNL A   1      41.492  28.247  28.516  1.00  0.00     0.010 A 
ATOM     11  C   UNL A   1      39.573  26.950  29.209  1.00  0.00     0.010 A 
ATOM     12  C   UNL A   1      40.477  27.995  29.452  1.00  0.00    -0.014 A 
BRANCH  12  13
ATOM     13  C   UNL A   1      40.352  28.885  30.635  1.00  0.00     0.031 A 
ATOM     14  C   UNL A   1      41.303  28.785  31.796  1.00  0.00     0.074 A 
ATOM     15  C   UNL A   1      39.386  29.825  30.630  1.00  0.00     0.049 A 
ATOM     16  N   UNL A   1      41.347  29.515  32.883  1.00  0.00    -0.248 NA
ATOM     17  C   UNL A   1      42.330  27.735  31.738  1.00  0.00     0.031 C 
ATOM     18  C   UNL A   1      38.401  30.015  29.559  1.00  0.00     0.029 A 
ATOM     19  N   UNL A   1      39.090  30.815  31.529  1.00  0.00    -0.354 N 
ATOM     20  C   UNL A   1      42.383  28.995  33.651  1.00  0.00     0.074 A 
ATOM     21  C   UNL A   1      42.932  27.876  32.912  1.00  0.00     0.031 C 
ATOM     22  C   UNL A   1      37.661  31.097  29.829  1.00  0.00     0.029 A 
ATOM     23  C   UNL A   1      38.060  31.632  31.125  1.00  0.00     0.049 A 
ATOM     24  H   UNL A   1      39.568  30.931  32.382  1.00  0.00     0.167 HD
ATOM     25  C   UNL A   1      42.836  29.411  34.859  1.00  0.00     0.031 A 
ATOM     26  C   UNL A   1      37.484  32.686  31.731  1.00  0.00     0.031 A 
ATOM     27  C   UNL A   1      42.287  30.527  35.586  1.00  0.00     0.049 A 
ATOM     28  C   UNL A   1      37.989  33.114  33.075  1.00  0.00     0.074 A 
ATOM     29  C   UNL A   1      42.691  31.044  36.805  1.00  0.00     0.029 A 
ATOM     30  N   UNL A   1      41.212  31.297  35.165  1.00  0.00    -0.354 N 
ATOM     31  N   UNL A   1      38.981  32.617  33.776  1.00  0.00    -0.248 NA
ATOM     32  C   UNL A   1      37.295  34.237  33.715  1.00  0.00     0.031 C 
ATOM     33  C   UNL A   1      41.833  32.096  37.142  1.00  0.00     0.029 A 
ATOM     34  C   UNL A   1      40.924  32.268  36.110  1.00  0.00     0.049 A 
ATOM     35  H   UNL A   1      40.725  31.171  34.319  1.00  0.00     0.167 HD
ATOM     36  C   UNL A   1      39.034  33.372  34.940  1.00  0.00     0.074 A 
ATOM     37  C   UNL A   1      37.990  34.373  34.836  1.00  0.00     0.031 C 
ATOM     38  C   UNL A   1      39.870  33.246  35.999  1.00  0.00     0.031 A 
BRANCH  25  39
ATOM     39  C   UNL A   1      43.959  28.630  35.489  1.00  0.00    -0.014 A 
ATOM     40  C   UNL A   1      45.305  28.966  35.257  1.00  0.00     0.010 A 
ATOM     41  C   UNL A   1      43.662  27.555  36.348  1.00  0.00     0.010 A 
ATOM     42  C   UNL A   1      46.333  28.212  35.832  1.00  0.00     0.020 A 
ATOM     43  C   UNL A   1      44.687  26.814  36.945  1.00  0.00     0.020 A 
ATOM     44  C   UNL A   1      46.016  27.133  36.666  1.00  0.00     0.054 A 
BRANCH  44  45
ATOM     45  S   UNL A   1      47.367  26.167  37.394  1.00  0.00     0.124 S 
ATOM     46  O   UNL A   1      46.720  24.879  37.631  1.00  0.00    -0.237 OA
ATOM     47  O   UNL A   1      48.377  26.177  36.340  1.00  0.00    -0.237 OA
ATOM     48  O   UNL A   1      47.720  26.917  38.598  1.00  0.00    -0.744 OA
ENDBRANCH  44  45
ENDBRANCH  25  39
BRANCH  26  49
ATOM     49  C   UNL A   1      36.360  33.389  31.060  1.00  0.00    -0.014 A 
ATOM     50  C   UNL A   1      35.178  33.678  31.762  1.00  0.00     0.010 A 
ATOM     51  C   UNL A   1      36.495  33.829  29.730  1.00  0.00     0.010 A 
ATOM     52  C   UNL A   1      34.150  34.399  31.146  1.00  0.00     0.020 A 
ATOM     53  C   UNL A   1      35.482  34.573  29.121  1.00  0.00     0.020 A 
ATOM     54  C   UNL A   1      34.313  34.848  29.831  1.00  0.00     0.054 A 
BRANCH  54  55
ATOM     55  S   UNL A   1      33.005  35.857  29.081  1.00  0.00     0.124 S 
ATOM     56  O   UNL A   1      33.773  36.921  28.444  1.00  0.00    -0.237 OA
ATOM     57  O   UNL A   1      32.356  34.913  28.174  1.00  0.00    -0.237 OA
ATOM     58  O   UNL A   1      32.193  36.266  30.224  1.00  0.00    -0.744 OA
ENDBRANCH  54  55
ENDBRANCH  26  49
BRANCH  38  59
ATOM     59  C   UNL A   1      39.694  34.225  37.125  1.00  0.00    -0.014 A 
ATOM     60  C   UNL A   1      39.007  33.863  38.299  1.00  0.00     0.010 A 
ATOM     61  C   UNL A   1      40.250  35.512  37.021  1.00  0.00     0.010 A 
ATOM     62  C   UNL A   1      38.853  34.785  39.337  1.00  0.00     0.020 A 
ATOM     63  C   UNL A   1      40.117  36.428  38.068  1.00  0.00     0.020 A 
ATOM     64  C   UNL A   1      39.406  36.063  39.213  1.00  0.00     0.054 A 
BRANCH  64  65
ATOM     65  S   UNL A   1      39.223  37.232  40.588  1.00  0.00     0.124 S 
ATOM     66  O   UNL A   1      38.705  36.373  41.648  1.00  0.00    -0.237 OA
ATOM     67  O   UNL A   1      40.588  37.717  40.782  1.00  0.00    -0.237 OA
ATOM     68  O   UNL A   1      38.285  38.226  40.073  1.00  0.00    -0.744 OA
ENDBRANCH  64  65
ENDBRANCH  38  59
ENDBRANCH  12  13
ENDBRANCH   5   7
ENDBRANCH   2   3
ENDBRANCH   1   2
BRANCH   1  69
ATOM     69  C   UNL A   1      37.545  23.687  25.700  1.00  0.00     0.117 C 
BRANCH  69  70
ATOM     70  N   UNL A   1      37.450  23.282  24.307  1.00  0.00    -0.356 N 
ATOM     71  C   UNL A   1      36.334  23.175  23.525  1.00  0.00     0.227 C 
ATOM     72  H   UNL A   1      38.301  23.054  23.869  1.00  0.00     0.163 HD
ATOM     73  O   UNL A   1      36.477  22.870  22.342  1.00  0.00    -0.274 OA
BRANCH  71  74
ATOM     74  C   UNL A   1      34.981  23.469  24.163  1.00  0.00     0.103 C 
ATOM     75  C   UNL A   1      34.013  23.896  23.091  1.00  0.00    -0.016 C 
ATOM     76  C   UNL A   1      34.290  22.232  24.750  1.00  0.00     0.047 C 
ATOM     77  C   UNL A   1      32.831  23.284  23.217  1.00  0.00    -0.006 C 
ATOM     78  C   UNL A   1      32.809  22.372  24.386  1.00  0.00     0.106 C 
BRANCH  78  79
ATOM     79  N   UNL A   1      31.972  22.816  25.496  1.00  0.00    -0.346 N 
ATOM     80  C   UNL A   1      31.846  23.984  26.208  1.00  0.00     0.251 C 
ATOM     81  H   UNL A   1      31.353  22.116  25.807  1.00  0.00     0.164 HD
ATOM     82  O   UNL A   1      31.430  23.928  27.364  1.00  0.00    -0.269 OA
BRANCH  80  83
ATOM     83  C   UNL A   1      32.137  25.312  25.632  1.00  0.00     0.040 A 
ATOM     84  C   UNL A   1      33.299  25.987  26.014  1.00  0.00     0.014 A 
ATOM     85  C   UNL A   1      31.206  25.950  24.809  1.00  0.00     0.027 A 
ATOM     86  C   UNL A   1      33.567  27.259  25.500  1.00  0.00     0.001 A 
ATOM     87  C   UNL A   1      31.499  27.192  24.226  1.00  0.00     0.056 A 
ATOM     88  C   UNL A   1      32.683  27.848  24.592  1.00  0.00     0.013 A 
BRANCH  87  89
ATOM     89  C   UNL A   1      30.577  27.794  23.195  1.00  0.00     0.416 C 
ATOM     90  F   UNL A   1      30.806  29.117  22.982  1.00  0.00    -0.166 F 
ATOM     91  F   UNL A   1      30.697  27.187  21.981  1.00  0.00    -0.166 F 
ATOM     92  F   UNL A   1      29.257  27.690  23.525  1.00  0.00    -0.166 F 
ENDBRANCH  87  89
ENDBRANCH  80  83
ENDBRANCH  78  79
ENDBRANCH  71  74
ENDBRANCH  69  70
ENDBRANCH   1  69
TORSDOF 16
ENDMDL
MODEL 2
REMARK VINA RESULT:     -12.3      3.864      4.725
REMARK SMILES O=C(NCCCNC(=O)[C@H]1C=C[C@H](NC(=O)c2cccc(C(F)(F)F)c2)C1)c1ccc(-c2c3nc(c(-c4ccc(S(=O)(=O)[O-])cc4)c4ccc([nH]4)c(-c4ccc(S(=O)(=O)[O-])cc4)c4nc(c(-c5ccc(S(=O)(=O)[O-])cc5)c5ccc2[nH]5)C=C4)C=C3)cc1
REMARK SMILES IDX 5 1 4 2 3 3 1 4 2 5 28 7 29 8 87 9 30 10 86 11 31 12 32 13
REMARK SMILES IDX 33 14 80 15 34 16 85 17 79 18 81 19 35 20 84 21 78 22 77 23
REMARK SMILES IDX 36 25 66 26 47 27 65 28 48 29 51 30 64 31 82 32 49 33 50 34
REMARK SMILES IDX 63 36 83 37 52 38 37 39 38 40 46 41 39 42 45 43 40 44 41 45
REMARK SMILES IDX 42 46 43 47 44 48 67 49 68 50 76 51 69 52 75 53 70 54 71 55
REMARK SMILES IDX 72 56 73 57 74 58 53 59 54 60 62 61 55 62 61 63 56 64 57 65
REMARK SMILES IDX 58 66 59 67 60 68 6 69 7 70 8 71 9 73 10 74 11 75 27 76
REMARK SMILES IDX 12 77 13 78 14 79 15 80 16 82 17 83 18 84 26 85 19 86 21 87
REMARK SMILES IDX 20 88 22 89 23 90 24 91 25 92
REMARK H PARENT 3 6 81 24 51 35 7 72 14 81
REMARK Flexibility Score: inf
ROOT
ATOM      1  C   UNL A   1      35.068  22.855  26.498  1.00  0.00     0.042 C 
ENDROOT
BRANCH   1   2
ATOM      2  C   UNL A   1      36.329  23.573  26.040  1.00  0.00     0.118 C 
BRANCH   2   3
ATOM      3  N   UNL A   1      37.490  22.694  25.984  1.00  0.00    -0.352 N 
ATOM      4  O   UNL A   1      39.668  22.127  25.996  1.00  0.00    -0.269 OA
ATOM      5  C   UNL A   1      38.809  22.953  26.277  1.00  0.00     0.251 C 
ATOM      6  H   UNL A   1      37.300  21.773  25.691  1.00  0.00     0.163 HD
BRANCH   5   7
ATOM      7  C   UNL A   1      39.186  24.240  26.903  1.00  0.00     0.039 A 
ATOM      8  C   UNL A   1      39.872  25.210  26.172  1.00  0.00     0.014 A 
ATOM      9  C   UNL A   1      38.849  24.481  28.238  1.00  0.00     0.014 A 
ATOM     10  C   UNL A   1      40.386  26.325  26.818  1.00  0.00     0.010 A 
ATOM     11  C   UNL A   1      39.267  25.663  28.857  1.00  0.00     0.010 A 
ATOM     12  C   UNL A   1      40.073  26.577  28.163  1.00  0.00    -0.014 A 
BRANCH  12  13
ATOM     13  C   UNL A   1      40.551  27.838  28.789  1.00  0.00     0.031 A 
ATOM     14  C   UNL A   1      41.985  28.012  29.207  1.00  0.00     0.074 A 
ATOM     15  C   UNL A   1      39.674  28.852  28.935  1.00  0.00     0.049 A 
ATOM     16  N   UNL A   1      42.563  29.064  29.732  1.00  0.00    -0.248 NA
ATOM     17  C   UNL A   1      42.886  26.865  29.022  1.00  0.00     0.031 C 
ATOM     18  C   UNL A   1      38.255  28.798  28.569  1.00  0.00     0.029 A 
ATOM     19  N   UNL A   1      39.848  30.130  29.397  1.00  0.00    -0.354 N 
ATOM     20  C   UNL A   1      43.883  28.698  29.967  1.00  0.00     0.074 A 
ATOM     21  C   UNL A   1      44.018  27.320  29.542  1.00  0.00     0.031 C 
ATOM     22  C   UNL A   1      37.707  30.006  28.752  1.00  0.00     0.029 A 
ATOM     23  C   UNL A   1      38.709  30.898  29.321  1.00  0.00     0.049 A 
ATOM     24  H   UNL A   1      40.703  30.466  29.749  1.00  0.00     0.167 HD
ATOM     25  C   UNL A   1      44.890  29.442  30.487  1.00  0.00     0.031 A 
ATOM     26  C   UNL A   1      38.484  32.174  29.683  1.00  0.00     0.031 A 
ATOM     27  C   UNL A   1      44.750  30.814  30.903  1.00  0.00     0.049 A 
ATOM     28  C   UNL A   1      39.608  32.968  30.276  1.00  0.00     0.074 A 
ATOM     29  C   UNL A   1      45.715  31.661  31.418  1.00  0.00     0.029 A 
ATOM     30  N   UNL A   1      43.568  31.539  30.857  1.00  0.00    -0.354 N 
ATOM     31  N   UNL A   1      40.854  32.607  30.475  1.00  0.00    -0.248 NA
ATOM     32  C   UNL A   1      39.298  34.339  30.699  1.00  0.00     0.031 C 
ATOM     33  C   UNL A   1      45.107  32.883  31.727  1.00  0.00     0.029 A 
ATOM     34  C   UNL A   1      43.774  32.815  31.356  1.00  0.00     0.049 A 
ATOM     35  H   UNL A   1      42.708  31.197  30.519  1.00  0.00     0.167 HD
ATOM     36  C   UNL A   1      41.479  33.708  31.042  1.00  0.00     0.074 A 
ATOM     37  C   UNL A   1      40.480  34.755  31.132  1.00  0.00     0.031 C 
ATOM     38  C   UNL A   1      42.763  33.839  31.454  1.00  0.00     0.031 A 
BRANCH  25  39
ATOM     39  C   UNL A   1      46.227  28.772  30.671  1.00  0.00    -0.014 A 
ATOM     40  C   UNL A   1      47.193  28.772  29.648  1.00  0.00     0.010 A 
ATOM     41  C   UNL A   1      46.531  28.153  31.897  1.00  0.00     0.010 A 
ATOM     42  C   UNL A   1      48.419  28.123  29.832  1.00  0.00     0.020 A 
ATOM     43  C   UNL A   1      47.765  27.524  32.094  1.00  0.00     0.020 A 
ATOM     44  C   UNL A   1      48.693  27.494  31.052  1.00  0.00     0.054 A 
BRANCH  44  45
ATOM     45  S   UNL A   1      50.286  26.654  31.262  1.00  0.00     0.124 S 
ATOM     46  O   UNL A   1      50.281  26.355  32.692  1.00  0.00    -0.237 OA
ATOM     47  O   UNL A   1      50.161  25.498  30.379  1.00  0.00    -0.237 OA
ATOM     48  O   UNL A   1      51.264  27.655  30.838  1.00  0.00    -0.744 OA
ENDBRANCH  44  45
ENDBRANCH  25  39
BRANCH  26  49
ATOM     49  C   UNL A   1      37.130  32.756  29.499  1.00  0.00    -0.014 A 
ATOM     50  C   UNL A   1      36.291  32.978  30.604  1.00  0.00     0.010 A 
ATOM     51  C   UNL A   1      36.699  33.152  28.219  1.00  0.00     0.010 A 
ATOM     52  C   UNL A   1      35.045  33.589  30.432  1.00  0.00     0.020 A 
ATOM     53  C   UNL A   1      35.467  33.788  28.047  1.00  0.00     0.020 A 
ATOM     54  C   UNL A   1      34.645  33.997  29.155  1.00  0.00     0.054 A 
BRANCH  54  55
ATOM     55  S   UNL A   1      33.064  34.866  28.967  1.00  0.00     0.124 S 
ATOM     56  O   UNL A   1      32.542  34.840  30.330  1.00  0.00    -0.237 OA
ATOM     57  O   UNL A   1      33.480  36.176  28.473  1.00  0.00    -0.237 OA
ATOM     58  O   UNL A   1      32.338  34.048  28.000  1.00  0.00    -0.744 OA
ENDBRANCH  54  55
ENDBRANCH  26  49
BRANCH  38  59
ATOM     59  C   UNL A   1      43.161  35.169  32.030  1.00  0.00    -0.014 A 
ATOM     60  C   UNL A   1      43.698  36.181  31.212  1.00  0.00     0.010 A 
ATOM     61  C   UNL A   1      42.967  35.421  33.399  1.00  0.00     0.010 A 
ATOM     62  C   UNL A   1      44.063  37.412  31.763  1.00  0.00     0.020 A 
ATOM     63  C   UNL A   1      43.309  36.660  33.948  1.00  0.00     0.020 A 
ATOM     64  C   UNL A   1      43.869  37.642  33.128  1.00  0.00     0.054 A 
BRANCH  64  65
ATOM     65  S   UNL A   1      44.317  39.260  33.814  1.00  0.00     0.124 S 
ATOM     66  O   UNL A   1      45.250  39.766  32.812  1.00  0.00    -0.237 OA
ATOM     67  O   UNL A   1      43.031  39.949  33.882  1.00  0.00    -0.237 OA
ATOM     68  O   UNL A   1      44.909  38.933  35.110  1.00  0.00    -0.744 OA
ENDBRANCH  64  65
ENDBRANCH  38  59
ENDBRANCH  12  13
ENDBRANCH   5   7
ENDBRANCH   2   3
ENDBRANCH   1   2
BRANCH   1  69
ATOM     69  C   UNL A   1      35.129  21.349  26.311  1.00  0.00     0.117 C 
BRANCH  69  70
ATOM     70  N   UNL A   1      33.807  20.743  26.345  1.00  0.00    -0.356 N 
ATOM     71  C   UNL A   1      32.837  20.760  25.384  1.00  0.00     0.227 C 
ATOM     72  H   UNL A   1      33.583  20.256  27.170  1.00  0.00     0.163 HD
ATOM     73  O   UNL A   1      31.801  20.128  25.588  1.00  0.00    -0.274 OA
BRANCH  71  74
ATOM     74  C   UNL A   1      33.110  21.540  24.102  1.00  0.00     0.103 C 
ATOM     75  C   UNL A   1      32.489  20.812  22.940  1.00  0.00    -0.016 C 
ATOM     76  C   UNL A   1      32.408  22.903  24.045  1.00  0.00     0.047 C 
ATOM     77  C   UNL A   1      31.822  21.643  22.132  1.00  0.00    -0.006 C 
ATOM     78  C   UNL A   1      31.899  23.046  22.608  1.00  0.00     0.106 C 
BRANCH  78  79
ATOM     79  N   UNL A   1      32.714  23.930  21.781  1.00  0.00    -0.346 N 
ATOM     80  C   UNL A   1      32.728  25.279  21.528  1.00  0.00     0.251 C 
ATOM     81  H   UNL A   1      33.418  23.447  21.290  1.00  0.00     0.164 HD
ATOM     82  O   UNL A   1      33.183  25.675  20.455  1.00  0.00    -0.269 OA
BRANCH  80  83
ATOM     83  C   UNL A   1      32.271  26.286  22.508  1.00  0.00     0.040 A 
ATOM     84  C   UNL A   1      31.091  26.995  22.266  1.00  0.00     0.014 A 
ATOM     85  C   UNL A   1      33.065  26.622  23.606  1.00  0.00     0.027 A 
ATOM     86  C   UNL A   1      30.667  27.973  23.170  1.00  0.00     0.001 A 
ATOM     87  C   UNL A   1      32.614  27.545  24.561  1.00  0.00     0.056 A 
ATOM     88  C   UNL A   1      31.412  28.229  24.323  1.00  0.00     0.013 A 
BRANCH  87  89
ATOM     89  C   UNL A   1      33.385  27.771  25.837  1.00  0.00     0.416 C 
ATOM     90  F   UNL A   1      32.605  28.209  26.861  1.00  0.00    -0.166 F 
ATOM     91  F   UNL A   1      33.990  26.633  26.280  1.00  0.00    -0.166 F 
ATOM     92  F   UNL A   1      34.386  28.689  25.708  1.00  0.00    -0.166 F 
ENDBRANCH  87  89
ENDBRANCH  80  83
ENDBRANCH  78  79
ENDBRANCH  71  74
ENDBRANCH  69  70
ENDBRANCH   1  69
TORSDOF 16
ENDMDL
MODEL 3
REMARK VINA RESULT:     -12.3      1.780      2.381
REMARK SMILES O=C(NCCCNC(=O)[C@H]1C=C[C@H](NC(=O)c2cccc(C(F)(F)F)c2)C1)c1ccc(-c2c3nc(c(-c4ccc(S(=O)(=O)[O-])cc4)c4ccc([nH]4)c(-c4ccc(S(=O)(=O)[O-])cc4)c4nc(c(-c5ccc(S(=O)(=O)[O-])cc5)c5ccc2[nH]5)C=C4)C=C3)cc1
REMARK SMILES IDX 5 1 4 2 3 3 1 4 2 5 28 7 29 8 87 9 30 10 86 11 31 12 32 13
REMARK SMILES IDX 33 14 80 15 34 16 85 17 79 18 81 19 35 20 84 21 78 22 77 23
REMARK SMILES IDX 36 25 66 26 47 27 65 28 48 29 51 30 64 31 82 32 49 33 50 34
REMARK SMILES IDX 63 36 83 37 52 38 37 39 38 40 46 41 39 42 45 43 40 44 41 45
REMARK SMILES IDX 42 46 43 47 44 48 67 49 68 50 76 51 69 52 75 53 70 54 71 55
REMARK SMILES IDX 72 56 73 57 74 58 53 59 54 60 62 61 55 62 61 63 56 64 57 65
REMARK SMILES IDX 58 66 59 67 60 68 6 69 7 70 8 71 9 73 10 74 11 75 27 76
REMARK SMILES IDX 12 77 13 78 14 79 15 80 16 82 17 83 18 84 26 85 19 86 21 87
REMARK SMILES IDX 20 88 22 89 23 90 24 91 25 92
REMARK H PARENT 3 6 81 24 51 35 7 72 14 81
REMARK Flexibility Score: inf
ROOT
ATOM      1  C   UNL A   1      37.575  23.542  25.401  1.00  0.00     0.042 C 
ENDROOT
BRANCH   1   2
ATOM      2  C   UNL A   1      38.504  24.066  26.486  1.00  0.00     0.118 C 
BRANCH   2   3
ATOM      3  N   UNL A   1      39.908  24.015  26.100  1.00  0.00    -0.352 N 
ATOM      4  O   UNL A   1      42.033  24.729  25.898  1.00  0.00    -0.269 OA
ATOM      5  C   UNL A   1      40.956  24.826  26.472  1.00  0.00     0.251 C 
ATOM      6  H   UNL A   1      40.143  23.289  25.479  1.00  0.00     0.163 HD
BRANCH   5   7
ATOM      7  C   UNL A   1      40.766  25.832  27.541  1.00  0.00     0.039 A 
ATOM      8  C   UNL A   1      41.636  26.917  27.657  1.00  0.00     0.014 A 
ATOM      9  C   UNL A   1      39.706  25.688  28.440  1.00  0.00     0.014 A 
ATOM     10  C   UNL A   1      41.565  27.741  28.771  1.00  0.00     0.010 A 
ATOM     11  C   UNL A   1      39.565  26.592  29.498  1.00  0.00     0.010 A 
ATOM     12  C   UNL A   1      40.517  27.603  29.695  1.00  0.00    -0.014 A 
BRANCH  12  13
ATOM     13  C   UNL A   1      40.413  28.575  30.814  1.00  0.00     0.031 A 
ATOM     14  C   UNL A   1      41.365  28.537  31.978  1.00  0.00     0.074 A 
ATOM     15  C   UNL A   1      39.465  29.531  30.746  1.00  0.00     0.049 A 
ATOM     16  N   UNL A   1      41.426  29.339  33.012  1.00  0.00    -0.248 NA
ATOM     17  C   UNL A   1      42.372  27.465  31.991  1.00  0.00     0.031 C 
ATOM     18  C   UNL A   1      38.481  29.666  29.666  1.00  0.00     0.029 A 
ATOM     19  N   UNL A   1      39.191  30.587  31.575  1.00  0.00    -0.354 N 
ATOM     20  C   UNL A   1      42.454  28.853  33.812  1.00  0.00     0.074 A 
ATOM     21  C   UNL A   1      42.980  27.676  33.151  1.00  0.00     0.031 C 
ATOM     22  C   UNL A   1      37.763  30.779  29.862  1.00  0.00     0.029 A 
ATOM     23  C   UNL A   1      38.176  31.394  31.117  1.00  0.00     0.049 A 
ATOM     24  H   UNL A   1      39.673  30.752  32.417  1.00  0.00     0.167 HD
ATOM     25  C   UNL A   1      42.919  29.343  34.988  1.00  0.00     0.031 A 
ATOM     26  C   UNL A   1      37.623  32.498  31.650  1.00  0.00     0.031 A 
ATOM     27  C   UNL A   1      42.393  30.517  35.638  1.00  0.00     0.049 A 
ATOM     28  C   UNL A   1      38.139  33.007  32.961  1.00  0.00     0.074 A 
ATOM     29  C   UNL A   1      42.811  31.108  36.817  1.00  0.00     0.029 A 
ATOM     30  N   UNL A   1      41.333  31.276  35.166  1.00  0.00    -0.354 N 
ATOM     31  N   UNL A   1      39.123  32.541  33.693  1.00  0.00    -0.248 NA
ATOM     32  C   UNL A   1      37.469  34.185  33.523  1.00  0.00     0.031 C 
ATOM     33  C   UNL A   1      41.974  32.197  37.083  1.00  0.00     0.029 A 
ATOM     34  C   UNL A   1      41.066  32.315  36.042  1.00  0.00     0.049 A 
ATOM     35  H   UNL A   1      40.840  31.101  34.331  1.00  0.00     0.167 HD
ATOM     36  C   UNL A   1      39.194  33.373  34.802  1.00  0.00     0.074 A 
ATOM     37  C   UNL A   1      38.169  34.385  34.630  1.00  0.00     0.031 C 
ATOM     38  C   UNL A   1      40.030  33.303  35.865  1.00  0.00     0.031 A 
BRANCH  25  39
ATOM     39  C   UNL A   1      44.028  28.584  35.668  1.00  0.00    -0.014 A 
ATOM     40  C   UNL A   1      45.380  28.884  35.419  1.00  0.00     0.010 A 
ATOM     41  C   UNL A   1      43.713  27.571  36.592  1.00  0.00     0.010 A 
ATOM     42  C   UNL A   1      46.395  28.151  36.044  1.00  0.00     0.020 A 
ATOM     43  C   UNL A   1      44.725  26.852  37.238  1.00  0.00     0.020 A 
ATOM     44  C   UNL A   1      46.059  27.133  36.942  1.00  0.00     0.054 A 
BRANCH  44  45
ATOM     45  S   UNL A   1      47.394  26.193  37.733  1.00  0.00     0.124 S 
ATOM     46  O   UNL A   1      48.181  27.255  38.355  1.00  0.00    -0.237 OA
ATOM     47  O   UNL A   1      46.673  25.324  38.659  1.00  0.00    -0.237 OA
ATOM     48  O   UNL A   1      48.044  25.508  36.617  1.00  0.00    -0.744 OA
ENDBRANCH  44  45
ENDBRANCH  25  39
BRANCH  26  49
ATOM     49  C   UNL A   1      36.510  33.174  30.934  1.00  0.00    -0.014 A 
ATOM     50  C   UNL A   1      35.192  33.080  31.410  1.00  0.00     0.010 A 
ATOM     51  C   UNL A   1      36.777  33.972  29.805  1.00  0.00     0.010 A 
ATOM     52  C   UNL A   1      34.160  33.774  30.772  1.00  0.00     0.020 A 
ATOM     53  C   UNL A   1      35.753  34.688  29.182  1.00  0.00     0.020 A 
ATOM     54  C   UNL A   1      34.449  34.579  29.666  1.00  0.00     0.054 A 
BRANCH  54  55
ATOM     55  S   UNL A   1      33.110  35.540  28.906  1.00  0.00     0.124 S 
ATOM     56  O   UNL A   1      32.462  34.541  28.065  1.00  0.00    -0.237 OA
ATOM     57  O   UNL A   1      32.343  35.987  30.066  1.00  0.00    -0.237 OA
ATOM     58  O   UNL A   1      33.816  36.601  28.192  1.00  0.00    -0.744 OA
ENDBRANCH  54  55
ENDBRANCH  26  49
BRANCH  38  59
ATOM     59  C   UNL A   1      39.877  34.361  36.922  1.00  0.00    -0.014 A 
ATOM     60  C   UNL A   1      40.514  35.609  36.796  1.00  0.00     0.010 A 
ATOM     61  C   UNL A   1      39.061  34.114  38.040  1.00  0.00     0.010 A 
ATOM     62  C   UNL A   1      40.360  36.581  37.787  1.00  0.00     0.020 A 
ATOM     63  C   UNL A   1      38.886  35.093  39.021  1.00  0.00     0.020 A 
ATOM     64  C   UNL A   1      39.550  36.316  38.895  1.00  0.00     0.054 A 
BRANCH  64  65
ATOM     65  S   UNL A   1      39.338  37.605  40.153  1.00  0.00     0.124 S 
ATOM     66  O   UNL A   1      40.641  38.262  40.136  1.00  0.00    -0.237 OA
ATOM     67  O   UNL A   1      38.229  38.394  39.621  1.00  0.00    -0.237 OA
ATOM     68  O   UNL A   1      39.032  36.855  41.369  1.00  0.00    -0.744 OA
ENDBRANCH  64  65
ENDBRANCH  38  59
ENDBRANCH  12  13
ENDBRANCH   5   7
ENDBRANCH   2   3
ENDBRANCH   1   2
BRANCH   1  69
ATOM     69  C   UNL A   1      37.497  22.026  25.354  1.00  0.00     0.117 C 
BRANCH  69  70
ATOM     70  N   UNL A   1      36.350  21.517  26.089  1.00  0.00    -0.356 N 
ATOM     71  C   UNL A   1      35.033  21.854  25.953  1.00  0.00     0.227 C 
ATOM     72  H   UNL A   1      36.549  20.841  26.776  1.00  0.00     0.163 HD
ATOM     73  O   UNL A   1      34.203  21.256  26.637  1.00  0.00    -0.274 OA
BRANCH  71  74
ATOM     74  C   UNL A   1      34.669  22.931  24.936  1.00  0.00     0.103 C 
ATOM     75  C   UNL A   1      33.699  22.358  23.938  1.00  0.00    -0.016 C 
ATOM     76  C   UNL A   1      33.873  24.099  25.530  1.00  0.00     0.047 C 
ATOM     77  C   UNL A   1      32.677  23.188  23.706  1.00  0.00    -0.006 C 
ATOM     78  C   UNL A   1      32.801  24.441  24.491  1.00  0.00     0.106 C 
BRANCH  78  79
ATOM     79  N   UNL A   1      33.106  25.631  23.702  1.00  0.00    -0.346 N 
ATOM     80  C   UNL A   1      32.879  26.976  23.854  1.00  0.00     0.251 C 
ATOM     81  H   UNL A   1      33.585  25.420  22.868  1.00  0.00     0.164 HD
ATOM     82  O   UNL A   1      32.804  27.679  22.846  1.00  0.00    -0.269 OA
BRANCH  80  83
ATOM     83  C   UNL A   1      32.774  27.631  25.173  1.00  0.00     0.040 A 
ATOM     84  C   UNL A   1      31.582  27.533  25.896  1.00  0.00     0.014 A 
ATOM     85  C   UNL A   1      33.804  28.446  25.647  1.00  0.00     0.027 A 
ATOM     86  C   UNL A   1      31.461  28.176  27.131  1.00  0.00     0.001 A 
ATOM     87  C   UNL A   1      33.724  29.033  26.919  1.00  0.00     0.056 A 
ATOM     88  C   UNL A   1      32.535  28.903  27.650  1.00  0.00     0.013 A 
BRANCH  87  89
ATOM     89  C   UNL A   1      34.909  29.759  27.505  1.00  0.00     0.416 C 
ATOM     90  F   UNL A   1      35.299  29.259  28.708  1.00  0.00    -0.166 F 
ATOM     91  F   UNL A   1      36.003  29.696  26.695  1.00  0.00    -0.166 F 
ATOM     92  F   UNL A   1      34.682  31.089  27.707  1.00  0.00    -0.166 F 
ENDBRANCH  87  89
ENDBRANCH  80  83
ENDBRANCH  78  79
ENDBRANCH  71  74
ENDBRANCH  69  70
ENDBRANCH   1  69
TORSDOF 16
ENDMDL
