MODEL 1
REMARK VINA RESULT:     -12.8      0.000      0.000
REMARK SMILES O=C(NCCCNC(=O)c1ccc(-c2c3nc(c(-c4ccc(S(=O)(=O)[O-])cc4)c4ccc([nH]4)c(-c4ccc(S(=O)(=O)[O-])cc4)c4nc(c(-c5ccc(S(=O)(=O)[O-])cc5)c5ccc2[nH]5)C=C4)C=C3)cc1)C1=Cc2cc(Cl)cc(-c3ccc(O)cc3)c2O[C@@H]1C(F)(F)F
REMARK SMILES IDX 5 1 4 2 3 3 1 4 2 5 70 7 71 8 87 9 72 10 86 11 73 12 85 13
REMARK SMILES IDX 74 14 77 15 75 16 76 17 88 18 89 19 90 20 91 21 78 22 79 23
REMARK SMILES IDX 84 24 80 25 83 26 81 27 82 28 6 30 7 31 8 32 9 34 10 35
REMARK SMILES IDX 11 36 69 37 12 38 68 39 13 40 14 41 15 42 62 43 16 44 67 45
REMARK SMILES IDX 61 46 63 47 17 48 66 49 60 50 59 51 18 53 48 54 29 55 47 56
REMARK SMILES IDX 30 57 33 58 46 59 64 60 31 61 32 62 45 64 65 65 34 66 19 67
REMARK SMILES IDX 20 68 28 69 21 70 27 71 22 72 23 73 24 74 25 75 26 76 49 77
REMARK SMILES IDX 50 78 58 79 51 80 57 81 52 82 53 83 54 84 55 85 56 86 35 87
REMARK SMILES IDX 36 88 44 89 37 90 43 91 38 92 39 93 40 94 41 95 42 96
REMARK H PARENT 3 6 82 29 7 33 63 52 33 63
REMARK Flexibility Score: inf
ROOT
ATOM      1  C   UNL A   1      33.595  28.709  25.839  1.00  0.00     0.042 C 
ENDROOT
BRANCH   1   2
ATOM      2  C   UNL A   1      32.683  27.746  25.076  1.00  0.00     0.118 C 
BRANCH   2   3
ATOM      3  N   UNL A   1      32.113  26.702  25.935  1.00  0.00    -0.352 N 
ATOM      4  O   UNL A   1      32.022  24.680  26.966  1.00  0.00    -0.270 OA
ATOM      5  C   UNL A   1      32.443  25.376  26.053  1.00  0.00     0.251 C 
ATOM      6  H   UNL A   1      31.377  26.999  26.517  1.00  0.00     0.163 HD
BRANCH   5   7
ATOM      7  C   UNL A   1      33.392  24.842  25.067  1.00  0.00     0.067 C 
ATOM      8  C   UNL A   1      34.698  24.951  25.339  1.00  0.00     0.025 C 
ATOM      9  C   UNL A   1      32.857  23.910  24.030  1.00  0.00     0.314 C 
ATOM     10  C   UNL A   1      35.490  23.774  24.972  1.00  0.00     0.019 A 
ATOM     11  O   UNL A   1      33.515  22.623  24.099  1.00  0.00    -0.475 OA
ATOM     12  C   UNL A   1      36.806  23.700  25.435  1.00  0.00     0.032 A 
ATOM     13  C   UNL A   1      34.814  22.606  24.559  1.00  0.00     0.135 A 
ATOM     14  C   UNL A   1      37.404  22.454  25.590  1.00  0.00     0.042 A 
ATOM     15  C   UNL A   1      35.390  21.343  24.782  1.00  0.00     0.026 A 
ATOM     16  Cl  UNL A   1      38.965  22.352  26.305  1.00  0.00    -0.084 Cl
ATOM     17  C   UNL A   1      36.697  21.287  25.297  1.00  0.00     0.033 A 
BRANCH   9  18
ATOM     18  C   UNL A   1      32.914  24.519  22.619  1.00  0.00     0.429 C 
ATOM     19  F   UNL A   1      31.692  24.950  22.220  1.00  0.00    -0.167 F 
ATOM     20  F   UNL A   1      33.737  25.594  22.568  1.00  0.00    -0.167 F 
ATOM     21  F   UNL A   1      33.348  23.640  21.685  1.00  0.00    -0.167 F 
ENDBRANCH   9  18
BRANCH  15  22
ATOM     22  C   UNL A   1      34.595  20.107  24.707  1.00  0.00    -0.014 A 
ATOM     23  C   UNL A   1      35.248  18.862  24.646  1.00  0.00     0.012 A 
ATOM     24  C   UNL A   1      33.197  20.122  24.662  1.00  0.00     0.012 A 
ATOM     25  C   UNL A   1      34.539  17.673  24.490  1.00  0.00     0.047 A 
ATOM     26  C   UNL A   1      32.478  18.929  24.515  1.00  0.00     0.047 A 
ATOM     27  C   UNL A   1      33.159  17.717  24.413  1.00  0.00     0.115 A 
BRANCH  27  28
ATOM     28  O   UNL A   1      32.500  16.539  24.229  1.00  0.00    -0.508 OA
ATOM     29  H   UNL A   1      32.769  15.774  24.697  1.00  0.00     0.293 HD
ENDBRANCH  27  28
ENDBRANCH  15  22
ENDBRANCH   5   7
ENDBRANCH   2   3
ENDBRANCH   1   2
BRANCH   1  30
ATOM     30  C   UNL A   1      33.096  28.999  27.254  1.00  0.00     0.118 C 
BRANCH  30  31
ATOM     31  N   UNL A   1      33.357  30.344  27.737  1.00  0.00    -0.352 N 
ATOM     32  C   UNL A   1      34.537  30.910  28.181  1.00  0.00     0.251 C 
ATOM     33  H   UNL A   1      32.576  30.943  27.751  1.00  0.00     0.163 HD
ATOM     34  O   UNL A   1      34.530  32.086  28.541  1.00  0.00    -0.269 OA
BRANCH  32  35
ATOM     35  C   UNL A   1      35.772  30.098  28.346  1.00  0.00     0.039 A 
ATOM     36  C   UNL A   1      36.667  30.043  27.270  1.00  0.00     0.014 A 
ATOM     37  C   UNL A   1      36.120  29.483  29.546  1.00  0.00     0.014 A 
ATOM     38  C   UNL A   1      37.948  29.515  27.449  1.00  0.00     0.010 A 
ATOM     39  C   UNL A   1      37.429  29.064  29.761  1.00  0.00     0.010 A 
ATOM     40  C   UNL A   1      38.369  29.107  28.724  1.00  0.00    -0.014 A 
BRANCH  40  41
ATOM     41  C   UNL A   1      39.795  28.805  29.008  1.00  0.00     0.031 A 
ATOM     42  C   UNL A   1      40.695  29.840  29.626  1.00  0.00     0.074 A 
ATOM     43  C   UNL A   1      40.299  27.619  28.608  1.00  0.00     0.049 A 
ATOM     44  N   UNL A   1      41.974  29.766  29.891  1.00  0.00    -0.248 NA
ATOM     45  C   UNL A   1      40.091  31.145  29.944  1.00  0.00     0.031 C 
ATOM     46  C   UNL A   1      39.551  26.572  27.902  1.00  0.00     0.029 A 
ATOM     47  N   UNL A   1      41.558  27.088  28.736  1.00  0.00    -0.354 N 
ATOM     48  C   UNL A   1      42.332  31.019  30.377  1.00  0.00     0.074 A 
ATOM     49  C   UNL A   1      41.151  31.850  30.315  1.00  0.00     0.031 C 
ATOM     50  C   UNL A   1      40.347  25.507  27.713  1.00  0.00     0.029 A 
ATOM     51  C   UNL A   1      41.669  25.805  28.250  1.00  0.00     0.049 A 
ATOM     52  H   UNL A   1      42.311  27.578  29.137  1.00  0.00     0.167 HD
ATOM     53  C   UNL A   1      43.531  31.432  30.857  1.00  0.00     0.031 A 
ATOM     54  C   UNL A   1      42.713  24.955  28.253  1.00  0.00     0.031 A 
ATOM     55  C   UNL A   1      44.691  30.587  30.948  1.00  0.00     0.049 A 
ATOM     56  C   UNL A   1      44.001  25.402  28.882  1.00  0.00     0.074 A 
ATOM     57  C   UNL A   1      45.936  30.880  31.476  1.00  0.00     0.029 A 
ATOM     58  N   UNL A   1      44.740  29.271  30.514  1.00  0.00    -0.354 N 
ATOM     59  N   UNL A   1      44.301  26.570  29.400  1.00  0.00    -0.248 NA
ATOM     60  C   UNL A   1      45.082  24.411  28.950  1.00  0.00     0.031 C 
ATOM     61  C   UNL A   1      46.745  29.744  31.342  1.00  0.00     0.029 A 
ATOM     62  C   UNL A   1      45.991  28.734  30.766  1.00  0.00     0.049 A 
ATOM     63  H   UNL A   1      43.995  28.788  30.090  1.00  0.00     0.167 HD
ATOM     64  C   UNL A   1      45.601  26.448  29.874  1.00  0.00     0.074 A 
ATOM     65  C   UNL A   1      46.019  25.087  29.601  1.00  0.00     0.031 C 
ATOM     66  C   UNL A   1      46.382  27.378  30.480  1.00  0.00     0.031 A 
BRANCH  53  67
ATOM     67  C   UNL A   1      43.627  32.860  31.328  1.00  0.00    -0.014 A 
ATOM     68  C   UNL A   1      43.936  33.898  30.430  1.00  0.00     0.010 A 
ATOM     69  C   UNL A   1      43.413  33.171  32.683  1.00  0.00     0.010 A 
ATOM     70  C   UNL A   1      44.089  35.210  30.885  1.00  0.00     0.020 A 
ATOM     71  C   UNL A   1      43.536  34.488  33.139  1.00  0.00     0.020 A 
ATOM     72  C   UNL A   1      43.898  35.495  32.240  1.00  0.00     0.054 A 
BRANCH  72  73
ATOM     73  S   UNL A   1      44.111  37.204  32.809  1.00  0.00     0.124 S 
ATOM     74  O   UNL A   1      42.988  37.354  33.731  1.00  0.00    -0.237 OA
ATOM     75  O   UNL A   1      45.433  37.177  33.431  1.00  0.00    -0.237 OA
ATOM     76  O   UNL A   1      44.020  37.991  31.582  1.00  0.00    -0.744 OA
ENDBRANCH  72  73
ENDBRANCH  53  67
BRANCH  54  77
ATOM     77  C   UNL A   1      42.558  23.581  27.705  1.00  0.00    -0.014 A 
ATOM     78  C   UNL A   1      42.958  23.295  26.387  1.00  0.00     0.010 A 
ATOM     79  C   UNL A   1      42.034  22.544  28.499  1.00  0.00     0.010 A 
ATOM     80  C   UNL A   1      42.818  22.006  25.865  1.00  0.00     0.020 A 
ATOM     81  C   UNL A   1      41.915  21.248  27.989  1.00  0.00     0.020 A 
ATOM     82  C   UNL A   1      42.296  20.990  26.670  1.00  0.00     0.054 A 
BRANCH  82  83
ATOM     83  S   UNL A   1      42.173  19.311  25.992  1.00  0.00     0.124 S 
ATOM     84  O   UNL A   1      42.668  18.499  27.099  1.00  0.00    -0.237 OA
ATOM     85  O   UNL A   1      40.746  19.187  25.704  1.00  0.00    -0.237 OA
ATOM     86  O   UNL A   1      43.035  19.356  24.812  1.00  0.00    -0.744 OA
ENDBRANCH  82  83
ENDBRANCH  54  77
BRANCH  66  87
ATOM     87  C   UNL A   1      47.751  26.934  30.908  1.00  0.00    -0.014 A 
ATOM     88  C   UNL A   1      48.862  27.086  30.059  1.00  0.00     0.010 A 
ATOM     89  C   UNL A   1      47.928  26.367  32.182  1.00  0.00     0.010 A 
ATOM     90  C   UNL A   1      50.120  26.633  30.460  1.00  0.00     0.020 A 
ATOM     91  C   UNL A   1      49.191  25.935  32.595  1.00  0.00     0.020 A 
ATOM     92  C   UNL A   1      50.274  26.052  31.723  1.00  0.00     0.054 A 
BRANCH  92  93
ATOM     93  S   UNL A   1      51.918  25.480  32.231  1.00  0.00     0.124 S 
ATOM     94  O   UNL A   1      52.100  26.179  33.500  1.00  0.00    -0.237 OA
ATOM     95  O   UNL A   1      51.742  24.033  32.330  1.00  0.00    -0.237 OA
ATOM     96  O   UNL A   1      52.788  25.921  31.143  1.00  0.00    -0.744 OA
ENDBRANCH  92  93
ENDBRANCH  66  87
ENDBRANCH  40  41
ENDBRANCH  32  35
ENDBRANCH  30  31
ENDBRANCH   1  30
TORSDOF 16
ENDMDL
MODEL 2
REMARK VINA RESULT:     -12.7      0.667      8.017
REMARK SMILES O=C(NCCCNC(=O)c1ccc(-c2c3nc(c(-c4ccc(S(=O)(=O)[O-])cc4)c4ccc([nH]4)c(-c4ccc(S(=O)(=O)[O-])cc4)c4nc(c(-c5ccc(S(=O)(=O)[O-])cc5)c5ccc2[nH]5)C=C4)C=C3)cc1)C1=Cc2cc(Cl)cc(-c3ccc(O)cc3)c2O[C@@H]1C(F)(F)F
REMARK SMILES IDX 5 1 4 2 3 3 1 4 2 5 70 7 71 8 87 9 72 10 86 11 73 12 85 13
REMARK SMILES IDX 74 14 77 15 75 16 76 17 88 18 89 19 90 20 91 21 78 22 79 23
REMARK SMILES IDX 84 24 80 25 83 26 81 27 82 28 6 30 7 31 8 32 9 34 10 35
REMARK SMILES IDX 11 36 69 37 12 38 68 39 13 40 14 41 15 42 62 43 16 44 67 45
REMARK SMILES IDX 61 46 63 47 17 48 66 49 60 50 59 51 18 53 48 54 29 55 47 56
REMARK SMILES IDX 30 57 33 58 46 59 64 60 31 61 32 62 45 64 65 65 34 66 19 67
REMARK SMILES IDX 20 68 28 69 21 70 27 71 22 72 23 73 24 74 25 75 26 76 49 77
REMARK SMILES IDX 50 78 58 79 51 80 57 81 52 82 53 83 54 84 55 85 56 86 35 87
REMARK SMILES IDX 36 88 44 89 37 90 43 91 38 92 39 93 40 94 41 95 42 96
REMARK H PARENT 3 6 82 29 7 33 63 52 33 63
REMARK Flexibility Score: inf
ROOT
ATOM      1  C   UNL A   1      33.496  28.765  25.617  1.00  0.00     0.042 C 
ENDROOT
BRANCH   1   2
ATOM      2  C   UNL A   1      32.611  27.740  24.906  1.00  0.00     0.118 C 
BRANCH   2   3
ATOM      3  N   UNL A   1      32.046  26.742  25.822  1.00  0.00    -0.352 N 
ATOM      4  O   UNL A   1      31.963  24.779  26.961  1.00  0.00    -0.270 OA
ATOM      5  C   UNL A   1      32.378  25.425  26.010  1.00  0.00     0.251 C 
ATOM      6  H   UNL A   1      31.313  27.070  26.391  1.00  0.00     0.163 HD
BRANCH   5   7
ATOM      7  C   UNL A   1      33.324  24.840  25.049  1.00  0.00     0.067 C 
ATOM      8  C   UNL A   1      34.631  24.985  25.297  1.00  0.00     0.025 C 
ATOM      9  C   UNL A   1      32.789  23.833  24.084  1.00  0.00     0.314 C 
ATOM     10  C   UNL A   1      35.436  23.797  24.999  1.00  0.00     0.019 A 
ATOM     11  O   UNL A   1      33.467  22.563  24.230  1.00  0.00    -0.475 OA
ATOM     12  C   UNL A   1      36.757  23.771  25.449  1.00  0.00     0.032 A 
ATOM     13  C   UNL A   1      34.771  22.594  24.674  1.00  0.00     0.135 A 
ATOM     14  C   UNL A   1      37.376  22.547  25.679  1.00  0.00     0.042 A 
ATOM     15  C   UNL A   1      35.368  21.357  24.972  1.00  0.00     0.026 A 
ATOM     16  Cl  UNL A   1      38.946  22.515  26.379  1.00  0.00    -0.084 Cl
ATOM     17  C   UNL A   1      36.683  21.353  25.473  1.00  0.00     0.033 A 
BRANCH   9  18
ATOM     18  C   UNL A   1      32.821  24.347  22.634  1.00  0.00     0.429 C 
ATOM     19  F   UNL A   1      33.805  25.264  22.460  1.00  0.00    -0.167 F 
ATOM     20  F   UNL A   1      33.065  23.349  21.752  1.00  0.00    -0.167 F 
ATOM     21  F   UNL A   1      31.660  24.935  22.261  1.00  0.00    -0.167 F 
ENDBRANCH   9  18
BRANCH  15  22
ATOM     22  C   UNL A   1      34.591  20.108  24.991  1.00  0.00    -0.014 A 
ATOM     23  C   UNL A   1      35.115  18.952  24.383  1.00  0.00     0.012 A 
ATOM     24  C   UNL A   1      33.319  20.031  25.569  1.00  0.00     0.012 A 
ATOM     25  C   UNL A   1      34.380  17.772  24.303  1.00  0.00     0.047 A 
ATOM     26  C   UNL A   1      32.579  18.844  25.499  1.00  0.00     0.047 A 
ATOM     27  C   UNL A   1      33.111  17.731  24.851  1.00  0.00     0.115 A 
BRANCH  27  28
ATOM     28  O   UNL A   1      32.407  16.571  24.726  1.00  0.00    -0.508 OA
ATOM     29  H   UNL A   1      32.753  15.867  24.214  1.00  0.00     0.293 HD
ENDBRANCH  27  28
ENDBRANCH  15  22
ENDBRANCH   5   7
ENDBRANCH   2   3
ENDBRANCH   1   2
BRANCH   1  30
ATOM     30  C   UNL A   1      33.208  28.856  27.115  1.00  0.00     0.118 C 
BRANCH  30  31
ATOM     31  N   UNL A   1      33.384  30.174  27.699  1.00  0.00    -0.352 N 
ATOM     32  C   UNL A   1      34.519  30.765  28.221  1.00  0.00     0.251 C 
ATOM     33  H   UNL A   1      32.573  30.730  27.728  1.00  0.00     0.163 HD
ATOM     34  O   UNL A   1      34.440  31.911  28.661  1.00  0.00    -0.269 OA
BRANCH  32  35
ATOM     35  C   UNL A   1      35.790  30.006  28.370  1.00  0.00     0.039 A 
ATOM     36  C   UNL A   1      36.660  29.967  27.273  1.00  0.00     0.014 A 
ATOM     37  C   UNL A   1      36.190  29.428  29.572  1.00  0.00     0.014 A 
ATOM     38  C   UNL A   1      37.966  29.494  27.431  1.00  0.00     0.010 A 
ATOM     39  C   UNL A   1      37.520  29.065  29.762  1.00  0.00     0.010 A 
ATOM     40  C   UNL A   1      38.432  29.126  28.702  1.00  0.00    -0.014 A 
BRANCH  40  41
ATOM     41  C   UNL A   1      39.875  28.887  28.957  1.00  0.00     0.031 A 
ATOM     42  C   UNL A   1      40.518  27.578  28.587  1.00  0.00     0.074 A 
ATOM     43  C   UNL A   1      40.581  29.826  29.623  1.00  0.00     0.049 A 
ATOM     44  N   UNL A   1      41.748  27.179  28.787  1.00  0.00    -0.248 NA
ATOM     45  C   UNL A   1      39.656  26.567  27.953  1.00  0.00     0.031 C 
ATOM     46  C   UNL A   1      40.043  31.094  30.129  1.00  0.00     0.029 A 
ATOM     47  N   UNL A   1      41.903  29.865  29.989  1.00  0.00    -0.354 N 
ATOM     48  C   UNL A   1      41.799  25.867  28.332  1.00  0.00     0.074 A 
ATOM     49  C   UNL A   1      40.464  25.517  27.900  1.00  0.00     0.031 C 
ATOM     50  C   UNL A   1      41.034  31.808  30.685  1.00  0.00     0.029 A 
ATOM     51  C   UNL A   1      42.270  31.038  30.608  1.00  0.00     0.049 A 
ATOM     52  H   UNL A   1      42.530  29.124  29.824  1.00  0.00     0.167 HD
ATOM     53  C   UNL A   1      42.867  25.035  28.255  1.00  0.00     0.031 A 
ATOM     54  C   UNL A   1      43.472  31.456  31.049  1.00  0.00     0.031 A 
ATOM     55  C   UNL A   1      44.199  25.404  28.653  1.00  0.00     0.049 A 
ATOM     56  C   UNL A   1      44.659  30.556  30.861  1.00  0.00     0.074 A 
ATOM     57  C   UNL A   1      45.366  24.667  28.559  1.00  0.00     0.029 A 
ATOM     58  N   UNL A   1      44.543  26.629  29.206  1.00  0.00    -0.354 N 
ATOM     59  N   UNL A   1      44.700  29.342  30.364  1.00  0.00    -0.248 NA
ATOM     60  C   UNL A   1      45.964  31.090  31.268  1.00  0.00     0.031 C 
ATOM     61  C   UNL A   1      46.413  25.440  29.076  1.00  0.00     0.029 A 
ATOM     62  C   UNL A   1      45.903  26.672  29.454  1.00  0.00     0.049 A 
ATOM     63  H   UNL A   1      43.911  27.361  29.394  1.00  0.00     0.167 HD
ATOM     64  C   UNL A   1      46.039  28.974  30.380  1.00  0.00     0.074 A 
ATOM     65  C   UNL A   1      46.775  30.102  30.915  1.00  0.00     0.031 C 
ATOM     66  C   UNL A   1      46.610  27.807  29.991  1.00  0.00     0.031 A 
BRANCH  53  67
ATOM     67  C   UNL A   1      42.624  23.653  27.706  1.00  0.00    -0.014 A 
ATOM     68  C   UNL A   1      42.292  22.584  28.560  1.00  0.00     0.010 A 
ATOM     69  C   UNL A   1      42.732  23.415  26.324  1.00  0.00     0.010 A 
ATOM     70  C   UNL A   1      42.134  21.293  28.052  1.00  0.00     0.020 A 
ATOM     71  C   UNL A   1      42.545  22.127  25.808  1.00  0.00     0.020 A 
ATOM     72  C   UNL A   1      42.272  21.071  26.679  1.00  0.00     0.054 A 
BRANCH  72  73
ATOM     73  S   UNL A   1      42.070  19.383  26.045  1.00  0.00     0.124 S 
ATOM     74  O   UNL A   1      42.949  19.395  24.878  1.00  0.00    -0.237 OA
ATOM     75  O   UNL A   1      42.525  18.560  27.163  1.00  0.00    -0.237 OA
ATOM     76  O   UNL A   1      40.643  19.293  25.750  1.00  0.00    -0.744 OA
ENDBRANCH  72  73
ENDBRANCH  53  67
BRANCH  54  77
ATOM     77  C   UNL A   1      43.618  32.812  31.644  1.00  0.00    -0.014 A 
ATOM     78  C   UNL A   1      43.882  33.921  30.821  1.00  0.00     0.010 A 
ATOM     79  C   UNL A   1      43.472  33.009  33.029  1.00  0.00     0.010 A 
ATOM     80  C   UNL A   1      44.018  35.199  31.371  1.00  0.00     0.020 A 
ATOM     81  C   UNL A   1      43.584  34.289  33.581  1.00  0.00     0.020 A 
ATOM     82  C   UNL A   1      43.869  35.374  32.750  1.00  0.00     0.054 A 
BRANCH  82  83
ATOM     83  S   UNL A   1      43.996  37.049  33.439  1.00  0.00     0.124 S 
ATOM     84  O   UNL A   1      45.258  36.980  34.170  1.00  0.00    -0.237 OA
ATOM     85  O   UNL A   1      44.003  37.887  32.242  1.00  0.00    -0.237 OA
ATOM     86  O   UNL A   1      42.797  37.168  34.266  1.00  0.00    -0.744 OA
ENDBRANCH  82  83
ENDBRANCH  54  77
BRANCH  66  87
ATOM     87  C   UNL A   1      48.104  27.716  30.106  1.00  0.00    -0.014 A 
ATOM     88  C   UNL A   1      48.940  28.117  29.049  1.00  0.00     0.010 A 
ATOM     89  C   UNL A   1      48.679  27.232  31.295  1.00  0.00     0.010 A 
ATOM     90  C   UNL A   1      50.326  27.990  29.161  1.00  0.00     0.020 A 
ATOM     91  C   UNL A   1      50.066  27.127  31.419  1.00  0.00     0.020 A 
ATOM     92  C   UNL A   1      50.879  27.487  30.343  1.00  0.00     0.054 A 
BRANCH  92  93
ATOM     93  S   UNL A   1      52.682  27.339  30.475  1.00  0.00     0.124 S 
ATOM     94  O   UNL A   1      52.830  26.042  31.129  1.00  0.00    -0.237 OA
ATOM     95  O   UNL A   1      53.115  27.392  29.081  1.00  0.00    -0.237 OA
ATOM     96  O   UNL A   1      53.064  28.494  31.283  1.00  0.00    -0.744 OA
ENDBRANCH  92  93
ENDBRANCH  66  87
ENDBRANCH  40  41
ENDBRANCH  32  35
ENDBRANCH  30  31
ENDBRANCH   1  30
TORSDOF 16
ENDMDL
MODEL 3
REMARK VINA RESULT:     -12.5      3.089      9.618
REMARK SMILES O=C(NCCCNC(=O)c1ccc(-c2c3nc(c(-c4ccc(S(=O)(=O)[O-])cc4)c4ccc([nH]4)c(-c4ccc(S(=O)(=O)[O-])cc4)c4nc(c(-c5ccc(S(=O)(=O)[O-])cc5)c5ccc2[nH]5)C=C4)C=C3)cc1)C1=Cc2cc(Cl)cc(-c3ccc(O)cc3)c2O[C@@H]1C(F)(F)F
REMARK SMILES IDX 5 1 4 2 3 3 1 4 2 5 70 7 71 8 87 9 72 10 86 11 73 12 85 13
REMARK SMILES IDX 74 14 77 15 75 16 76 17 88 18 89 19 90 20 91 21 78 22 79 23
REMARK SMILES IDX 84 24 80 25 83 26 81 27 82 28 6 30 7 31 8 32 9 34 10 35
REMARK SMILES IDX 11 36 69 37 12 38 68 39 13 40 14 41 15 42 62 43 16 44 67 45
REMARK SMILES IDX 61 46 63 47 17 48 66 49 60 50 59 51 18 53 48 54 29 55 47 56
REMARK SMILES IDX 30 57 33 58 46 59 64 60 31 61 32 62 45 64 65 65 34 66 19 67
REMARK SMILES IDX 20 68 28 69 21 70 27 71 22 72 23 73 24 74 25 75 26 76 49 77
REMARK SMILES IDX 50 78 58 79 51 80 57 81 52 82 53 83 54 84 55 85 56 86 35 87
REMARK SMILES IDX 36 88 44 89 37 90 43 91 38 92 39 93 40 94 41 95 42 96
REMARK H PARENT 3 6 82 29 7 33 63 52 33 63
REMARK Flexibility Score: inf
ROOT
ATOM      1  C   UNL A   1      36.084  21.890  25.609  1.00  0.00     0.042 C 
ENDROOT
BRANCH   1   2
ATOM      2  C   UNL A   1      34.724  22.563  25.414  1.00  0.00     0.118 C 
BRANCH   2   3
ATOM      3  N   UNL A   1      34.612  23.259  24.127  1.00  0.00    -0.352 N 
ATOM      4  O   UNL A   1      34.245  25.023  22.743  1.00  0.00    -0.270 OA
ATOM      5  C   UNL A   1      34.073  24.484  23.827  1.00  0.00     0.251 C 
ATOM      6  H   UNL A   1      34.981  22.769  23.357  1.00  0.00     0.163 HD
BRANCH   5   7
ATOM      7  C   UNL A   1      33.334  25.160  24.902  1.00  0.00     0.067 C 
ATOM      8  C   UNL A   1      34.020  25.980  25.707  1.00  0.00     0.025 C 
ATOM      9  C   UNL A   1      31.844  25.180  24.805  1.00  0.00     0.314 C 
ATOM     10  C   UNL A   1      33.306  27.209  26.064  1.00  0.00     0.019 A 
ATOM     11  O   UNL A   1      31.344  26.537  24.765  1.00  0.00    -0.475 OA
ATOM     12  C   UNL A   1      34.027  28.225  26.695  1.00  0.00     0.032 A 
ATOM     13  C   UNL A   1      32.091  27.501  25.406  1.00  0.00     0.135 A 
ATOM     14  C   UNL A   1      33.596  29.542  26.575  1.00  0.00     0.042 A 
ATOM     15  C   UNL A   1      31.693  28.837  25.224  1.00  0.00     0.026 A 
ATOM     16  Cl  UNL A   1      34.566  30.808  27.220  1.00  0.00    -0.084 Cl
ATOM     17  C   UNL A   1      32.461  29.851  25.825  1.00  0.00     0.033 A 
BRANCH   9  18
ATOM     18  C   UNL A   1      31.180  24.348  25.916  1.00  0.00     0.429 C 
ATOM     19  F   UNL A   1      30.940  23.079  25.502  1.00  0.00    -0.167 F 
ATOM     20  F   UNL A   1      31.970  24.252  27.012  1.00  0.00    -0.167 F 
ATOM     21  F   UNL A   1      29.995  24.863  26.321  1.00  0.00    -0.167 F 
ENDBRANCH   9  18
BRANCH  15  22
ATOM     22  C   UNL A   1      30.651  29.207  24.254  1.00  0.00    -0.014 A 
ATOM     23  C   UNL A   1      30.104  30.504  24.280  1.00  0.00     0.012 A 
ATOM     24  C   UNL A   1      30.151  28.298  23.315  1.00  0.00     0.012 A 
ATOM     25  C   UNL A   1      29.058  30.871  23.437  1.00  0.00     0.047 A 
ATOM     26  C   UNL A   1      29.105  28.666  22.458  1.00  0.00     0.047 A 
ATOM     27  C   UNL A   1      28.558  29.944  22.541  1.00  0.00     0.115 A 
BRANCH  27  28
ATOM     28  O   UNL A   1      27.513  30.328  21.755  1.00  0.00    -0.508 OA
ATOM     29  H   UNL A   1      26.771  30.754  22.136  1.00  0.00     0.293 HD
ENDBRANCH  27  28
ENDBRANCH  15  22
ENDBRANCH   5   7
ENDBRANCH   2   3
ENDBRANCH   1   2
BRANCH   1  30
ATOM     30  C   UNL A   1      37.254  22.826  25.311  1.00  0.00     0.118 C 
BRANCH  30  31
ATOM     31  N   UNL A   1      38.571  22.259  25.543  1.00  0.00    -0.352 N 
ATOM     32  C   UNL A   1      39.653  22.785  26.225  1.00  0.00     0.251 C 
ATOM     33  H   UNL A   1      38.717  21.366  25.155  1.00  0.00     0.163 HD
ATOM     34  O   UNL A   1      40.682  22.118  26.305  1.00  0.00    -0.269 OA
BRANCH  32  35
ATOM     35  C   UNL A   1      39.634  24.176  26.751  1.00  0.00     0.039 A 
ATOM     36  C   UNL A   1      39.079  24.388  28.020  1.00  0.00     0.014 A 
ATOM     37  C   UNL A   1      40.232  25.245  26.088  1.00  0.00     0.014 A 
ATOM     38  C   UNL A   1      39.262  25.611  28.670  1.00  0.00     0.010 A 
ATOM     39  C   UNL A   1      40.515  26.421  26.775  1.00  0.00     0.010 A 
ATOM     40  C   UNL A   1      40.063  26.605  28.087  1.00  0.00    -0.014 A 
BRANCH  40  41
ATOM     41  C   UNL A   1      40.503  27.794  28.859  1.00  0.00     0.031 A 
ATOM     42  C   UNL A   1      41.855  27.829  29.520  1.00  0.00     0.074 A 
ATOM     43  C   UNL A   1      39.630  28.806  29.047  1.00  0.00     0.049 A 
ATOM     44  N   UNL A   1      42.378  28.760  30.275  1.00  0.00    -0.248 NA
ATOM     45  C   UNL A   1      42.711  26.643  29.349  1.00  0.00     0.031 C 
ATOM     46  C   UNL A   1      38.251  28.843  28.546  1.00  0.00     0.029 A 
ATOM     47  N   UNL A   1      39.766  30.000  29.708  1.00  0.00    -0.354 N 
ATOM     48  C   UNL A   1      43.608  28.262  30.692  1.00  0.00     0.074 A 
ATOM     49  C   UNL A   1      43.726  26.925  30.154  1.00  0.00     0.031 C 
ATOM     50  C   UNL A   1      37.692  30.021  28.866  1.00  0.00     0.029 A 
ATOM     51  C   UNL A   1      38.656  30.809  29.623  1.00  0.00     0.049 A 
ATOM     52  H   UNL A   1      40.582  30.256  30.196  1.00  0.00     0.167 HD
ATOM     53  C   UNL A   1      44.564  28.873  31.434  1.00  0.00     0.031 A 
ATOM     54  C   UNL A   1      38.443  32.055  30.089  1.00  0.00     0.031 A 
ATOM     55  C   UNL A   1      44.452  30.216  31.934  1.00  0.00     0.049 A 
ATOM     56  C   UNL A   1      39.555  32.748  30.821  1.00  0.00     0.074 A 
ATOM     57  C   UNL A   1      45.383  30.958  32.640  1.00  0.00     0.029 A 
ATOM     58  N   UNL A   1      43.341  31.029  31.763  1.00  0.00    -0.354 N 
ATOM     59  N   UNL A   1      40.739  32.285  31.147  1.00  0.00    -0.248 NA
ATOM     60  C   UNL A   1      39.314  34.138  31.226  1.00  0.00     0.031 C 
ATOM     61  C   UNL A   1      44.825  32.213  32.913  1.00  0.00     0.029 A 
ATOM     62  C   UNL A   1      43.562  32.265  32.343  1.00  0.00     0.049 A 
ATOM     63  H   UNL A   1      42.515  30.765  31.296  1.00  0.00     0.167 HD
ATOM     64  C   UNL A   1      41.393  33.336  31.779  1.00  0.00     0.074 A 
ATOM     65  C   UNL A   1      40.480  34.462  31.768  1.00  0.00     0.031 C 
ATOM     66  C   UNL A   1      42.635  33.367  32.321  1.00  0.00     0.031 A 
BRANCH  53  67
ATOM     67  C   UNL A   1      45.813  28.084  31.729  1.00  0.00    -0.014 A 
ATOM     68  C   UNL A   1      46.896  28.083  30.829  1.00  0.00     0.010 A 
ATOM     69  C   UNL A   1      45.909  27.332  32.913  1.00  0.00     0.010 A 
ATOM     70  C   UNL A   1      48.024  27.298  31.077  1.00  0.00     0.020 A 
ATOM     71  C   UNL A   1      47.050  26.567  33.179  1.00  0.00     0.020 A 
ATOM     72  C   UNL A   1      48.089  26.535  32.247  1.00  0.00     0.054 A 
BRANCH  72  73
ATOM     73  S   UNL A   1      49.561  25.517  32.542  1.00  0.00     0.124 S 
ATOM     74  O   UNL A   1      49.029  24.466  33.407  1.00  0.00    -0.237 OA
ATOM     75  O   UNL A   1      49.935  25.090  31.196  1.00  0.00    -0.237 OA
ATOM     76  O   UNL A   1      50.496  26.438  33.182  1.00  0.00    -0.744 OA
ENDBRANCH  72  73
ENDBRANCH  53  67
BRANCH  54  77
ATOM     77  C   UNL A   1      37.153  32.743  29.814  1.00  0.00    -0.014 A 
ATOM     78  C   UNL A   1      36.111  32.696  30.758  1.00  0.00     0.010 A 
ATOM     79  C   UNL A   1      36.963  33.468  28.624  1.00  0.00     0.010 A 
ATOM     80  C   UNL A   1      34.896  33.341  30.509  1.00  0.00     0.020 A 
ATOM     81  C   UNL A   1      35.758  34.136  28.382  1.00  0.00     0.020 A 
ATOM     82  C   UNL A   1      34.727  34.057  29.321  1.00  0.00     0.054 A 
BRANCH  82  83
ATOM     83  S   UNL A   1      33.163  34.934  29.041  1.00  0.00     0.124 S 
ATOM     84  O   UNL A   1      32.560  34.909  30.370  1.00  0.00    -0.237 OA
ATOM     85  O   UNL A   1      33.609  36.243  28.572  1.00  0.00    -0.237 OA
ATOM     86  O   UNL A   1      32.492  34.116  28.032  1.00  0.00    -0.744 OA
ENDBRANCH  82  83
ENDBRANCH  54  77
BRANCH  66  87
ATOM     87  C   UNL A   1      43.078  34.672  32.918  1.00  0.00    -0.014 A 
ATOM     88  C   UNL A   1      42.807  34.984  34.263  1.00  0.00     0.010 A 
ATOM     89  C   UNL A   1      43.785  35.593  32.124  1.00  0.00     0.010 A 
ATOM     90  C   UNL A   1      43.193  36.219  34.789  1.00  0.00     0.020 A 
ATOM     91  C   UNL A   1      44.194  36.818  32.655  1.00  0.00     0.020 A 
ATOM     92  C   UNL A   1      43.877  37.131  33.979  1.00  0.00     0.054 A 
BRANCH  92  93
ATOM     93  S   UNL A   1      44.381  38.724  34.683  1.00  0.00     0.124 S 
ATOM     94  O   UNL A   1      45.733  38.873  34.151  1.00  0.00    -0.237 OA
ATOM     95  O   UNL A   1      43.388  39.648  34.140  1.00  0.00    -0.237 OA
ATOM     96  O   UNL A   1      44.297  38.505  36.125  1.00  0.00    -0.744 OA
ENDBRANCH  92  93
ENDBRANCH  66  87
ENDBRANCH  40  41
ENDBRANCH  32  35
ENDBRANCH  30  31
ENDBRANCH   1  30
TORSDOF 16
ENDMDL
