MODEL 1
REMARK VINA RESULT:     -10.5      0.000      0.000
REMARK SMILES Cc1cc(N(C)[C@H](C)C(=O)NCCCNC(=O)c2ccc(-c3c4nc(c(-c5ccc(S(=O)(=O)[O-])cc5)c5ccc([nH]5)c(-c5ccc(S(=O)(=O)[O-])cc5)c5nc(c(-c6ccc(S(=O)(=O)[O-])cc6)c6ccc3[nH]6)C=C5)C=C4)cc2)ncc1[N+](=O)[O-]
REMARK SMILES IDX 13 1 12 2 11 3 9 4 10 5 7 7 8 8 5 9 6 10 4 11 1 12 2 13 3 14
REMARK SMILES IDX 80 15 79 16 78 17 81 18 82 19 83 20 14 21 15 22 16 23 17 25
REMARK SMILES IDX 18 26 19 27 77 28 20 29 76 30 21 31 22 32 23 33 70 34 24 35
REMARK SMILES IDX 75 36 69 37 71 38 25 39 74 40 68 41 67 42 26 44 56 45 37 46
REMARK SMILES IDX 55 47 38 48 41 49 54 50 72 51 39 52 40 53 53 55 73 56 42 57
REMARK SMILES IDX 27 58 28 59 36 60 29 61 35 62 30 63 31 64 32 65 33 66 34 67
REMARK SMILES IDX 57 68 58 69 66 70 59 71 65 72 60 73 61 74 62 75 63 76 64 77
REMARK SMILES IDX 43 78 44 79 52 80 45 81 51 82 46 83 47 84 48 85 49 86 50 87
REMARK H PARENT 11 6 15 24 71 43 41 54
REMARK Flexibility Score: inf
ROOT
ATOM      1  C   UNL A   1      33.850  27.845  26.262  1.00  0.00     0.042 C 
ENDROOT
BRANCH   1   2
ATOM      2  C   UNL A   1      33.299  26.504  25.819  1.00  0.00     0.117 C 
BRANCH   2   3
ATOM      3  N   UNL A   1      31.849  26.454  25.853  1.00  0.00    -0.354 N 
ATOM      4  C   UNL A   1      30.998  25.425  26.131  1.00  0.00     0.242 C 
ATOM      5  O   UNL A   1      29.812  25.739  26.298  1.00  0.00    -0.273 OA
ATOM      6  H   UNL A   1      31.405  27.306  25.642  1.00  0.00     0.163 HD
BRANCH   4   7
ATOM      7  C   UNL A   1      31.447  23.950  26.232  1.00  0.00     0.169 C 
ATOM      8  C   UNL A   1      30.334  23.035  26.748  1.00  0.00     0.042 C 
BRANCH   7   9
ATOM      9  N   UNL A   1      32.125  23.402  25.023  1.00  0.00    -0.348 N 
ATOM     10  C   UNL A   1      31.505  23.416  23.710  1.00  0.00     0.146 C 
BRANCH   9  11
ATOM     11  C   UNL A   1      33.468  23.061  25.132  1.00  0.00     0.129 A 
ATOM     12  C   UNL A   1      36.479  22.960  22.846  1.00  0.00     0.052 C 
ATOM     13  C   UNL A   1      35.708  22.855  24.131  1.00  0.00     0.032 A 
ATOM     14  C   UNL A   1      34.311  23.014  24.016  1.00  0.00     0.057 A 
ATOM     15  C   UNL A   1      36.216  22.647  25.414  1.00  0.00     0.290 A 
ATOM     16  C   UNL A   1      35.322  22.626  26.478  1.00  0.00     0.199 A 
ATOM     17  N   UNL A   1      33.985  22.822  26.352  1.00  0.00    -0.232 NA
BRANCH  15  18
ATOM     18  N   UNL A   1      37.627  22.446  25.728  1.00  0.00     0.064 N 
ATOM     19  O   UNL A   1      38.100  21.316  25.534  1.00  0.00    -0.258 OA
ATOM     20  O   UNL A   1      38.284  23.407  26.144  1.00  0.00    -0.258 OA
ENDBRANCH  15  18
ENDBRANCH   9  11
ENDBRANCH   7   9
ENDBRANCH   4   7
ENDBRANCH   2   3
ENDBRANCH   1   2
BRANCH   1  21
ATOM     21  C   UNL A   1      33.168  28.388  27.511  1.00  0.00     0.118 C 
BRANCH  21  22
ATOM     22  N   UNL A   1      33.239  29.841  27.620  1.00  0.00    -0.352 N 
ATOM     23  C   UNL A   1      34.267  30.662  28.030  1.00  0.00     0.251 C 
ATOM     24  H   UNL A   1      32.416  30.314  27.358  1.00  0.00     0.163 HD
ATOM     25  O   UNL A   1      34.053  31.848  28.230  1.00  0.00    -0.269 OA
BRANCH  23  26
ATOM     26  C   UNL A   1      35.615  30.094  28.251  1.00  0.00     0.039 A 
ATOM     27  C   UNL A   1      36.544  30.106  27.208  1.00  0.00     0.014 A 
ATOM     28  C   UNL A   1      35.966  29.567  29.493  1.00  0.00     0.014 A 
ATOM     29  C   UNL A   1      37.854  29.682  27.447  1.00  0.00     0.010 A 
ATOM     30  C   UNL A   1      37.293  29.265  29.762  1.00  0.00     0.010 A 
ATOM     31  C   UNL A   1      38.253  29.311  28.742  1.00  0.00    -0.014 A 
BRANCH  31  32
ATOM     32  C   UNL A   1      39.659  28.953  29.060  1.00  0.00     0.031 A 
ATOM     33  C   UNL A   1      40.572  29.983  29.675  1.00  0.00     0.074 A 
ATOM     34  C   UNL A   1      40.137  27.739  28.718  1.00  0.00     0.049 A 
ATOM     35  N   UNL A   1      41.854  29.906  29.920  1.00  0.00    -0.248 NA
ATOM     36  C   UNL A   1      39.974  31.284  30.025  1.00  0.00     0.031 C 
ATOM     37  C   UNL A   1      39.370  26.672  28.070  1.00  0.00     0.029 A 
ATOM     38  N   UNL A   1      41.392  27.200  28.860  1.00  0.00    -0.354 N 
ATOM     39  C   UNL A   1      42.218  31.149  30.427  1.00  0.00     0.074 A 
ATOM     40  C   UNL A   1      41.037  31.981  30.396  1.00  0.00     0.031 C 
ATOM     41  C   UNL A   1      40.159  25.598  27.904  1.00  0.00     0.029 A 
ATOM     42  C   UNL A   1      41.498  25.913  28.386  1.00  0.00     0.049 A 
ATOM     43  H   UNL A   1      42.145  27.689  29.264  1.00  0.00     0.167 HD
ATOM     44  C   UNL A   1      43.418  31.555  30.903  1.00  0.00     0.031 A 
ATOM     45  C   UNL A   1      42.558  25.082  28.338  1.00  0.00     0.031 A 
ATOM     46  C   UNL A   1      44.581  30.714  30.964  1.00  0.00     0.049 A 
ATOM     47  C   UNL A   1      43.880  25.556  28.877  1.00  0.00     0.074 A 
ATOM     48  C   UNL A   1      45.830  31.010  31.482  1.00  0.00     0.029 A 
ATOM     49  N   UNL A   1      44.639  29.409  30.498  1.00  0.00    -0.354 N 
ATOM     50  N   UNL A   1      44.186  26.717  29.406  1.00  0.00    -0.248 NA
ATOM     51  C   UNL A   1      44.998  24.603  28.823  1.00  0.00     0.031 C 
ATOM     52  C   UNL A   1      46.656  29.898  31.289  1.00  0.00     0.029 A 
ATOM     53  C   UNL A   1      45.905  28.892  30.703  1.00  0.00     0.049 A 
ATOM     54  H   UNL A   1      43.889  28.924  30.083  1.00  0.00     0.167 HD
ATOM     55  C   UNL A   1      45.524  26.622  29.777  1.00  0.00     0.074 A 
ATOM     56  C   UNL A   1      45.962  25.287  29.425  1.00  0.00     0.031 C 
ATOM     57  C   UNL A   1      46.318  27.556  30.355  1.00  0.00     0.031 A 
BRANCH  44  58
ATOM     58  C   UNL A   1      43.526  32.968  31.414  1.00  0.00    -0.014 A 
ATOM     59  C   UNL A   1      43.222  33.279  32.753  1.00  0.00     0.010 A 
ATOM     60  C   UNL A   1      43.984  33.988  30.562  1.00  0.00     0.010 A 
ATOM     61  C   UNL A   1      43.341  34.589  33.220  1.00  0.00     0.020 A 
ATOM     62  C   UNL A   1      44.133  35.296  31.034  1.00  0.00     0.020 A 
ATOM     63  C   UNL A   1      43.796  35.590  32.357  1.00  0.00     0.054 A 
BRANCH  63  64
ATOM     64  S   UNL A   1      43.980  37.274  33.004  1.00  0.00     0.124 S 
ATOM     65  O   UNL A   1      42.861  37.360  33.940  1.00  0.00    -0.237 OA
ATOM     66  O   UNL A   1      45.307  37.239  33.615  1.00  0.00    -0.237 OA
ATOM     67  O   UNL A   1      43.865  38.118  31.818  1.00  0.00    -0.744 OA
ENDBRANCH  63  64
ENDBRANCH  44  58
BRANCH  45  68
ATOM     68  C   UNL A   1      42.413  23.711  27.773  1.00  0.00    -0.014 A 
ATOM     69  C   UNL A   1      42.055  22.633  28.602  1.00  0.00     0.010 A 
ATOM     70  C   UNL A   1      42.642  23.474  26.406  1.00  0.00     0.010 A 
ATOM     71  C   UNL A   1      41.961  21.339  28.082  1.00  0.00     0.020 A 
ATOM     72  C   UNL A   1      42.518  22.186  25.875  1.00  0.00     0.020 A 
ATOM     73  C   UNL A   1      42.194  21.124  26.721  1.00  0.00     0.054 A 
BRANCH  73  74
ATOM     74  S   UNL A   1      42.037  19.441  26.061  1.00  0.00     0.124 S 
ATOM     75  O   UNL A   1      42.879  19.503  24.870  1.00  0.00    -0.237 OA
ATOM     76  O   UNL A   1      42.549  18.622  27.157  1.00  0.00    -0.237 OA
ATOM     77  O   UNL A   1      40.603  19.305  25.810  1.00  0.00    -0.744 OA
ENDBRANCH  73  74
ENDBRANCH  45  68
BRANCH  57  78
ATOM     78  C   UNL A   1      47.729  27.155  30.688  1.00  0.00    -0.014 A 
ATOM     79  C   UNL A   1      48.782  27.369  29.782  1.00  0.00     0.010 A 
ATOM     80  C   UNL A   1      48.012  26.612  31.955  1.00  0.00     0.010 A 
ATOM     81  C   UNL A   1      50.090  27.017  30.125  1.00  0.00     0.020 A 
ATOM     82  C   UNL A   1      49.322  26.286  32.313  1.00  0.00     0.020 A 
ATOM     83  C   UNL A   1      50.351  26.479  31.390  1.00  0.00     0.054 A 
BRANCH  83  84
ATOM     84  S   UNL A   1      52.064  26.076  31.829  1.00  0.00     0.124 S 
ATOM     85  O   UNL A   1      52.249  26.842  33.059  1.00  0.00    -0.237 OA
ATOM     86  O   UNL A   1      52.020  24.625  31.993  1.00  0.00    -0.237 OA
ATOM     87  O   UNL A   1      52.835  26.544  30.681  1.00  0.00    -0.744 OA
ENDBRANCH  83  84
ENDBRANCH  57  78
ENDBRANCH  31  32
ENDBRANCH  23  26
ENDBRANCH  21  22
ENDBRANCH   1  21
TORSDOF 16
ENDMDL
MODEL 2
REMARK VINA RESULT:     -10.2      2.984      9.636
REMARK SMILES Cc1cc(N(C)[C@H](C)C(=O)NCCCNC(=O)c2ccc(-c3c4nc(c(-c5ccc(S(=O)(=O)[O-])cc5)c5ccc([nH]5)c(-c5ccc(S(=O)(=O)[O-])cc5)c5nc(c(-c6ccc(S(=O)(=O)[O-])cc6)c6ccc3[nH]6)C=C5)C=C4)cc2)ncc1[N+](=O)[O-]
REMARK SMILES IDX 13 1 12 2 11 3 9 4 10 5 7 7 8 8 5 9 6 10 4 11 1 12 2 13 3 14
REMARK SMILES IDX 80 15 79 16 78 17 81 18 82 19 83 20 14 21 15 22 16 23 17 25
REMARK SMILES IDX 18 26 19 27 77 28 20 29 76 30 21 31 22 32 23 33 70 34 24 35
REMARK SMILES IDX 75 36 69 37 71 38 25 39 74 40 68 41 67 42 26 44 56 45 37 46
REMARK SMILES IDX 55 47 38 48 41 49 54 50 72 51 39 52 40 53 53 55 73 56 42 57
REMARK SMILES IDX 27 58 28 59 36 60 29 61 35 62 30 63 31 64 32 65 33 66 34 67
REMARK SMILES IDX 57 68 58 69 66 70 59 71 65 72 60 73 61 74 62 75 63 76 64 77
REMARK SMILES IDX 43 78 44 79 52 80 45 81 51 82 46 83 47 84 48 85 49 86 50 87
REMARK H PARENT 11 6 15 24 71 43 41 54
REMARK Flexibility Score: inf
ROOT
ATOM      1  C   UNL A   1      35.708  23.614  25.836  1.00  0.00     0.042 C 
ENDROOT
BRANCH   1   2
ATOM      2  C   UNL A   1      34.787  24.793  25.592  1.00  0.00     0.117 C 
BRANCH   2   3
ATOM      3  N   UNL A   1      34.230  24.802  24.252  1.00  0.00    -0.354 N 
ATOM      4  C   UNL A   1      33.872  25.839  23.441  1.00  0.00     0.242 C 
ATOM      5  O   UNL A   1      33.631  25.542  22.263  1.00  0.00    -0.273 OA
ATOM      6  H   UNL A   1      34.088  23.910  23.862  1.00  0.00     0.163 HD
BRANCH   4   7
ATOM      7  C   UNL A   1      33.758  27.301  23.927  1.00  0.00     0.169 C 
ATOM      8  C   UNL A   1      33.785  28.304  22.770  1.00  0.00     0.042 C 
BRANCH   7   9
ATOM      9  N   UNL A   1      32.657  27.572  24.894  1.00  0.00    -0.348 N 
ATOM     10  C   UNL A   1      32.868  27.583  26.330  1.00  0.00     0.146 C 
BRANCH   9  11
ATOM     11  C   UNL A   1      31.445  28.027  24.385  1.00  0.00     0.129 A 
ATOM     12  C   UNL A   1      29.678  31.352  24.043  1.00  0.00     0.052 C 
ATOM     13  C   UNL A   1      29.904  29.877  23.874  1.00  0.00     0.032 A 
ATOM     14  C   UNL A   1      31.032  29.355  24.539  1.00  0.00     0.057 A 
ATOM     15  C   UNL A   1      29.147  28.981  23.117  1.00  0.00     0.290 A 
ATOM     16  C   UNL A   1      29.561  27.656  23.062  1.00  0.00     0.199 A 
ATOM     17  N   UNL A   1      30.674  27.180  23.677  1.00  0.00    -0.232 NA
BRANCH  15  18
ATOM     18  N   UNL A   1      27.941  29.332  22.374  1.00  0.00     0.064 N 
ATOM     19  O   UNL A   1      28.089  29.899  21.281  1.00  0.00    -0.258 OA
ATOM     20  O   UNL A   1      26.841  29.028  22.851  1.00  0.00    -0.258 OA
ENDBRANCH  15  18
ENDBRANCH   9  11
ENDBRANCH   7   9
ENDBRANCH   4   7
ENDBRANCH   2   3
ENDBRANCH   1   2
BRANCH   1  21
ATOM     21  C   UNL A   1      36.962  23.647  24.973  1.00  0.00     0.118 C 
BRANCH  21  22
ATOM     22  N   UNL A   1      37.997  22.723  25.426  1.00  0.00    -0.352 N 
ATOM     23  C   UNL A   1      39.148  22.948  26.149  1.00  0.00     0.251 C 
ATOM     24  H   UNL A   1      37.849  21.784  25.173  1.00  0.00     0.163 HD
ATOM     25  O   UNL A   1      39.980  22.061  26.258  1.00  0.00    -0.269 OA
BRANCH  23  26
ATOM     26  C   UNL A   1      39.380  24.274  26.764  1.00  0.00     0.039 A 
ATOM     27  C   UNL A   1      38.955  24.506  28.075  1.00  0.00     0.014 A 
ATOM     28  C   UNL A   1      40.032  25.280  26.054  1.00  0.00     0.014 A 
ATOM     29  C   UNL A   1      39.278  25.712  28.701  1.00  0.00     0.010 A 
ATOM     30  C   UNL A   1      40.460  26.423  26.714  1.00  0.00     0.010 A 
ATOM     31  C   UNL A   1      40.083  26.658  28.043  1.00  0.00    -0.014 A 
BRANCH  31  32
ATOM     32  C   UNL A   1      40.535  27.907  28.709  1.00  0.00     0.031 A 
ATOM     33  C   UNL A   1      41.918  27.978  29.304  1.00  0.00     0.074 A 
ATOM     34  C   UNL A   1      39.677  28.937  28.857  1.00  0.00     0.049 A 
ATOM     35  N   UNL A   1      42.458  28.928  30.022  1.00  0.00    -0.248 NA
ATOM     36  C   UNL A   1      42.797  26.814  29.095  1.00  0.00     0.031 C 
ATOM     37  C   UNL A   1      38.294  28.972  28.374  1.00  0.00     0.029 A 
ATOM     38  N   UNL A   1      39.841  30.156  29.468  1.00  0.00    -0.354 N 
ATOM     39  C   UNL A   1      43.723  28.467  30.370  1.00  0.00     0.074 A 
ATOM     40  C   UNL A   1      43.847  27.129  29.838  1.00  0.00     0.031 C 
ATOM     41  C   UNL A   1      37.751  30.163  28.674  1.00  0.00     0.029 A 
ATOM     42  C   UNL A   1      38.724  30.958  29.414  1.00  0.00     0.049 A 
ATOM     43  H   UNL A   1      40.680  30.431  29.903  1.00  0.00     0.167 HD
ATOM     44  C   UNL A   1      44.705  29.108  31.046  1.00  0.00     0.031 A 
ATOM     45  C   UNL A   1      38.507  32.191  29.911  1.00  0.00     0.031 A 
ATOM     46  C   UNL A   1      44.590  30.451  31.544  1.00  0.00     0.049 A 
ATOM     47  C   UNL A   1      39.616  32.883  30.655  1.00  0.00     0.074 A 
ATOM     48  C   UNL A   1      45.547  31.212  32.191  1.00  0.00     0.029 A 
ATOM     49  N   UNL A   1      43.451  31.236  31.445  1.00  0.00    -0.354 N 
ATOM     50  N   UNL A   1      40.825  32.449  30.922  1.00  0.00    -0.248 NA
ATOM     51  C   UNL A   1      39.334  34.236  31.157  1.00  0.00     0.031 C 
ATOM     52  C   UNL A   1      44.973  32.443  32.522  1.00  0.00     0.029 A 
ATOM     53  C   UNL A   1      43.677  32.468  32.031  1.00  0.00     0.049 A 
ATOM     54  H   UNL A   1      42.608  30.957  31.020  1.00  0.00     0.167 HD
ATOM     55  C   UNL A   1      41.459  33.489  31.594  1.00  0.00     0.074 A 
ATOM     56  C   UNL A   1      40.505  34.576  31.680  1.00  0.00     0.031 C 
ATOM     57  C   UNL A   1      42.717  33.540  32.097  1.00  0.00     0.031 A 
BRANCH  44  58
ATOM     58  C   UNL A   1      45.998  28.368  31.269  1.00  0.00    -0.014 A 
ATOM     59  C   UNL A   1      47.029  28.408  30.312  1.00  0.00     0.010 A 
ATOM     60  C   UNL A   1      46.206  27.665  32.469  1.00  0.00     0.010 A 
ATOM     61  C   UNL A   1      48.230  27.731  30.536  1.00  0.00     0.020 A 
ATOM     62  C   UNL A   1      47.418  27.011  32.710  1.00  0.00     0.020 A 
ATOM     63  C   UNL A   1      48.417  27.037  31.734  1.00  0.00     0.054 A 
BRANCH  63  64
ATOM     64  S   UNL A   1      50.003  26.202  32.014  1.00  0.00     0.124 S 
ATOM     65  O   UNL A   1      50.679  26.406  30.735  1.00  0.00    -0.237 OA
ATOM     66  O   UNL A   1      50.558  26.944  33.143  1.00  0.00    -0.237 OA
ATOM     67  O   UNL A   1      49.623  24.822  32.304  1.00  0.00    -0.744 OA
ENDBRANCH  63  64
ENDBRANCH  44  58
BRANCH  45  68
ATOM     68  C   UNL A   1      37.190  32.860  29.710  1.00  0.00    -0.014 A 
ATOM     69  C   UNL A   1      36.938  33.598  28.540  1.00  0.00     0.010 A 
ATOM     70  C   UNL A   1      36.187  32.771  30.692  1.00  0.00     0.010 A 
ATOM     71  C   UNL A   1      35.719  34.262  28.370  1.00  0.00     0.020 A 
ATOM     72  C   UNL A   1      34.955  33.409  30.511  1.00  0.00     0.020 A 
ATOM     73  C   UNL A   1      34.736  34.164  29.358  1.00  0.00     0.054 A 
BRANCH  73  74
ATOM     74  S   UNL A   1      33.150  35.009  29.103  1.00  0.00     0.124 S 
ATOM     75  O   UNL A   1      32.527  34.178  28.076  1.00  0.00    -0.237 OA
ATOM     76  O   UNL A   1      32.540  34.942  30.428  1.00  0.00    -0.237 OA
ATOM     77  O   UNL A   1      33.543  36.349  28.673  1.00  0.00    -0.744 OA
ENDBRANCH  73  74
ENDBRANCH  45  68
BRANCH  57  78
ATOM     78  C   UNL A   1      43.153  34.826  32.743  1.00  0.00    -0.014 A 
ATOM     79  C   UNL A   1      42.977  35.049  34.119  1.00  0.00     0.010 A 
ATOM     80  C   UNL A   1      43.806  35.802  31.967  1.00  0.00     0.010 A 
ATOM     81  C   UNL A   1      43.419  36.239  34.703  1.00  0.00     0.020 A 
ATOM     82  C   UNL A   1      44.276  36.980  32.552  1.00  0.00     0.020 A 
ATOM     83  C   UNL A   1      44.066  37.196  33.915  1.00  0.00     0.054 A 
BRANCH  83  84
ATOM     84  S   UNL A   1      44.673  38.711  34.706  1.00  0.00     0.124 S 
ATOM     85  O   UNL A   1      44.952  38.252  36.066  1.00  0.00    -0.237 OA
ATOM     86  O   UNL A   1      45.847  39.044  33.903  1.00  0.00    -0.237 OA
ATOM     87  O   UNL A   1      43.555  39.641  34.580  1.00  0.00    -0.744 OA
ENDBRANCH  83  84
ENDBRANCH  57  78
ENDBRANCH  31  32
ENDBRANCH  23  26
ENDBRANCH  21  22
ENDBRANCH   1  21
TORSDOF 16
ENDMDL
MODEL 3
REMARK VINA RESULT:     -10.2      2.478      9.186
REMARK SMILES Cc1cc(N(C)[C@H](C)C(=O)NCCCNC(=O)c2ccc(-c3c4nc(c(-c5ccc(S(=O)(=O)[O-])cc5)c5ccc([nH]5)c(-c5ccc(S(=O)(=O)[O-])cc5)c5nc(c(-c6ccc(S(=O)(=O)[O-])cc6)c6ccc3[nH]6)C=C5)C=C4)cc2)ncc1[N+](=O)[O-]
REMARK SMILES IDX 13 1 12 2 11 3 9 4 10 5 7 7 8 8 5 9 6 10 4 11 1 12 2 13 3 14
REMARK SMILES IDX 80 15 79 16 78 17 81 18 82 19 83 20 14 21 15 22 16 23 17 25
REMARK SMILES IDX 18 26 19 27 77 28 20 29 76 30 21 31 22 32 23 33 70 34 24 35
REMARK SMILES IDX 75 36 69 37 71 38 25 39 74 40 68 41 67 42 26 44 56 45 37 46
REMARK SMILES IDX 55 47 38 48 41 49 54 50 72 51 39 52 40 53 53 55 73 56 42 57
REMARK SMILES IDX 27 58 28 59 36 60 29 61 35 62 30 63 31 64 32 65 33 66 34 67
REMARK SMILES IDX 57 68 58 69 66 70 59 71 65 72 60 73 61 74 62 75 63 76 64 77
REMARK SMILES IDX 43 78 44 79 52 80 45 81 51 82 46 83 47 84 48 85 49 86 50 87
REMARK H PARENT 11 6 15 24 71 43 41 54
REMARK Flexibility Score: inf
ROOT
ATOM      1  C   UNL A   1      35.683  23.347  26.194  1.00  0.00     0.042 C 
ENDROOT
BRANCH   1   2
ATOM      2  C   UNL A   1      35.021  21.985  26.131  1.00  0.00     0.117 C 
BRANCH   2   3
ATOM      3  N   UNL A   1      33.591  22.044  26.373  1.00  0.00    -0.354 N 
ATOM      4  C   UNL A   1      32.554  22.321  25.531  1.00  0.00     0.242 C 
ATOM      5  O   UNL A   1      31.423  22.079  25.974  1.00  0.00    -0.273 OA
ATOM      6  H   UNL A   1      33.325  21.851  27.300  1.00  0.00     0.163 HD
BRANCH   4   7
ATOM      7  C   UNL A   1      32.740  22.904  24.112  1.00  0.00     0.169 C 
ATOM      8  C   UNL A   1      32.474  21.868  23.016  1.00  0.00     0.042 C 
BRANCH   7   9
ATOM      9  N   UNL A   1      32.049  24.199  23.856  1.00  0.00    -0.348 N 
ATOM     10  C   UNL A   1      30.721  24.271  23.273  1.00  0.00     0.146 C 
BRANCH   9  11
ATOM     11  C   UNL A   1      32.618  25.352  24.384  1.00  0.00     0.129 A 
ATOM     12  C   UNL A   1      34.098  28.560  23.036  1.00  0.00     0.052 C 
ATOM     13  C   UNL A   1      33.614  27.581  24.067  1.00  0.00     0.032 A 
ATOM     14  C   UNL A   1      33.203  26.328  23.569  1.00  0.00     0.057 A 
ATOM     15  C   UNL A   1      33.502  27.781  25.444  1.00  0.00     0.290 A 
ATOM     16  C   UNL A   1      32.985  26.748  26.216  1.00  0.00     0.199 A 
ATOM     17  N   UNL A   1      32.556  25.562  25.713  1.00  0.00    -0.232 NA
BRANCH  15  18
ATOM     18  N   UNL A   1      33.890  29.002  26.142  1.00  0.00     0.064 N 
ATOM     19  O   UNL A   1      34.879  28.943  26.888  1.00  0.00    -0.258 OA
ATOM     20  O   UNL A   1      33.238  30.034  25.940  1.00  0.00    -0.258 OA
ENDBRANCH  15  18
ENDBRANCH   9  11
ENDBRANCH   7   9
ENDBRANCH   4   7
ENDBRANCH   2   3
ENDBRANCH   1   2
BRANCH   1  21
ATOM     21  C   UNL A   1      36.877  23.474  25.256  1.00  0.00     0.118 C 
BRANCH  21  22
ATOM     22  N   UNL A   1      37.990  22.603  25.621  1.00  0.00    -0.352 N 
ATOM     23  C   UNL A   1      39.186  22.887  26.243  1.00  0.00     0.251 C 
ATOM     24  H   UNL A   1      37.866  21.656  25.382  1.00  0.00     0.163 HD
ATOM     25  O   UNL A   1      40.066  22.040  26.282  1.00  0.00    -0.269 OA
BRANCH  23  26
ATOM     26  C   UNL A   1      39.405  24.226  26.834  1.00  0.00     0.039 A 
ATOM     27  C   UNL A   1      38.969  24.479  28.137  1.00  0.00     0.014 A 
ATOM     28  C   UNL A   1      40.057  25.221  26.110  1.00  0.00     0.014 A 
ATOM     29  C   UNL A   1      39.280  25.700  28.742  1.00  0.00     0.010 A 
ATOM     30  C   UNL A   1      40.473  26.379  26.751  1.00  0.00     0.010 A 
ATOM     31  C   UNL A   1      40.084  26.638  28.073  1.00  0.00    -0.014 A 
BRANCH  31  32
ATOM     32  C   UNL A   1      40.524  27.901  28.718  1.00  0.00     0.031 A 
ATOM     33  C   UNL A   1      41.907  27.997  29.310  1.00  0.00     0.074 A 
ATOM     34  C   UNL A   1      39.656  28.925  28.851  1.00  0.00     0.049 A 
ATOM     35  N   UNL A   1      42.437  28.964  30.013  1.00  0.00    -0.248 NA
ATOM     36  C   UNL A   1      42.798  26.838  29.119  1.00  0.00     0.031 C 
ATOM     37  C   UNL A   1      38.272  28.938  28.368  1.00  0.00     0.029 A 
ATOM     38  N   UNL A   1      39.807  30.155  29.442  1.00  0.00    -0.354 N 
ATOM     39  C   UNL A   1      43.707  28.521  30.367  1.00  0.00     0.074 A 
ATOM     40  C   UNL A   1      43.845  27.176  29.856  1.00  0.00     0.031 C 
ATOM     41  C   UNL A   1      37.716  30.127  28.650  1.00  0.00     0.029 A 
ATOM     42  C   UNL A   1      38.682  30.944  29.376  1.00  0.00     0.049 A 
ATOM     43  H   UNL A   1      40.644  30.446  29.872  1.00  0.00     0.167 HD
ATOM     44  C   UNL A   1      44.683  29.183  31.031  1.00  0.00     0.031 A 
ATOM     45  C   UNL A   1      38.452  32.182  29.853  1.00  0.00     0.031 A 
ATOM     46  C   UNL A   1      44.554  30.532  31.508  1.00  0.00     0.049 A 
ATOM     47  C   UNL A   1      39.554  32.898  30.585  1.00  0.00     0.074 A 
ATOM     48  C   UNL A   1      45.504  31.314  32.141  1.00  0.00     0.029 A 
ATOM     49  N   UNL A   1      43.408  31.304  31.397  1.00  0.00    -0.354 N 
ATOM     50  N   UNL A   1      40.768  32.481  30.858  1.00  0.00    -0.248 NA
ATOM     51  C   UNL A   1      39.259  34.256  31.066  1.00  0.00     0.031 C 
ATOM     52  C   UNL A   1      44.917  32.544  32.454  1.00  0.00     0.029 A 
ATOM     53  C   UNL A   1      43.621  32.547  31.964  1.00  0.00     0.049 A 
ATOM     54  H   UNL A   1      42.567  31.009  30.977  1.00  0.00     0.167 HD
ATOM     55  C   UNL A   1      41.392  33.538  31.513  1.00  0.00     0.074 A 
ATOM     56  C   UNL A   1      40.427  34.616  31.582  1.00  0.00     0.031 C 
ATOM     57  C   UNL A   1      42.650  33.611  32.013  1.00  0.00     0.031 A 
BRANCH  44  58
ATOM     58  C   UNL A   1      45.984  28.460  31.265  1.00  0.00    -0.014 A 
ATOM     59  C   UNL A   1      47.038  28.550  30.337  1.00  0.00     0.010 A 
ATOM     60  C   UNL A   1      46.174  27.723  32.448  1.00  0.00     0.010 A 
ATOM     61  C   UNL A   1      48.246  27.888  30.571  1.00  0.00     0.020 A 
ATOM     62  C   UNL A   1      47.392  27.084  32.699  1.00  0.00     0.020 A 
ATOM     63  C   UNL A   1      48.415  27.160  31.752  1.00  0.00     0.054 A 
BRANCH  63  64
ATOM     64  S   UNL A   1      50.009  26.346  32.046  1.00  0.00     0.124 S 
ATOM     65  O   UNL A   1      49.914  26.004  33.464  1.00  0.00    -0.237 OA
ATOM     66  O   UNL A   1      49.964  25.214  31.124  1.00  0.00    -0.237 OA
ATOM     67  O   UNL A   1      50.992  27.375  31.719  1.00  0.00    -0.744 OA
ENDBRANCH  63  64
ENDBRANCH  44  58
BRANCH  45  68
ATOM     68  C   UNL A   1      37.129  32.834  29.643  1.00  0.00    -0.014 A 
ATOM     69  C   UNL A   1      36.798  33.389  28.394  1.00  0.00     0.010 A 
ATOM     70  C   UNL A   1      36.197  32.914  30.694  1.00  0.00     0.010 A 
ATOM     71  C   UNL A   1      35.574  34.039  28.208  1.00  0.00     0.020 A 
ATOM     72  C   UNL A   1      34.959  33.536  30.502  1.00  0.00     0.020 A 
ATOM     73  C   UNL A   1      34.663  34.109  29.264  1.00  0.00     0.054 A 
BRANCH  73  74
ATOM     74  S   UNL A   1      33.068  34.932  28.992  1.00  0.00     0.124 S 
ATOM     75  O   UNL A   1      32.489  34.919  30.332  1.00  0.00    -0.237 OA
ATOM     76  O   UNL A   1      33.470  36.242  28.488  1.00  0.00    -0.237 OA
ATOM     77  O   UNL A   1      32.404  34.073  28.013  1.00  0.00    -0.744 OA
ENDBRANCH  73  74
ENDBRANCH  45  68
BRANCH  57  78
ATOM     78  C   UNL A   1      43.073  34.911  32.638  1.00  0.00    -0.014 A 
ATOM     79  C   UNL A   1      43.678  35.925  31.876  1.00  0.00     0.010 A 
ATOM     80  C   UNL A   1      42.802  35.144  33.999  1.00  0.00     0.010 A 
ATOM     81  C   UNL A   1      44.034  37.138  32.471  1.00  0.00     0.020 A 
ATOM     82  C   UNL A   1      43.130  36.366  34.592  1.00  0.00     0.020 A 
ATOM     83  C   UNL A   1      43.757  37.350  33.826  1.00  0.00     0.054 A 
BRANCH  83  84
ATOM     84  S   UNL A   1      44.185  38.950  34.564  1.00  0.00     0.124 S 
ATOM     85  O   UNL A   1      43.126  39.815  34.047  1.00  0.00    -0.237 OA
ATOM     86  O   UNL A   1      44.124  38.670  35.996  1.00  0.00    -0.237 OA
ATOM     87  O   UNL A   1      45.522  39.225  34.045  1.00  0.00    -0.744 OA
ENDBRANCH  83  84
ENDBRANCH  57  78
ENDBRANCH  31  32
ENDBRANCH  23  26
ENDBRANCH  21  22
ENDBRANCH   1  21
TORSDOF 16
ENDMDL
