MODEL 1
REMARK VINA RESULT:     -13.3      0.000      0.000
REMARK SMILES O=C(NCCCNC(=O)[C@H]1C[C@](O)(c2ccc(Cl)cc2)[C@@H](c2ccc(Cl)cc2)O1)c1ccc(-c2c3nc(c(-c4ccc(S(=O)(=O)[O-])cc4)c4ccc([nH]4)c(-c4ccc(S(=O)(=O)[O-])cc4)c4nc(c(-c5ccc(S(=O)(=O)[O-])cc5)c5ccc2[nH]5)C=C4)C=C3)cc1
REMARK SMILES IDX 4 1 3 2 1 3 2 4 30 6 31 7 89 8 32 9 88 10 33 11 34 12 35 13
REMARK SMILES IDX 82 14 36 15 87 16 81 17 83 18 37 19 86 20 80 21 79 22 38 24
REMARK SMILES IDX 68 25 49 26 67 27 50 28 53 29 66 30 84 31 51 32 52 33 65 35
REMARK SMILES IDX 85 36 54 37 39 38 40 39 48 40 41 41 47 42 42 43 43 44 44 45
REMARK SMILES IDX 45 46 46 47 69 48 70 49 78 50 71 51 77 52 72 53 73 54 74 55
REMARK SMILES IDX 75 56 76 57 55 58 56 59 64 60 57 61 63 62 58 63 59 64 60 65
REMARK SMILES IDX 61 66 62 67 5 68 6 69 7 70 8 71 9 73 10 74 11 75 29 76 12 77
REMARK SMILES IDX 21 78 14 79 15 80 20 81 16 82 19 83 17 84 18 85 13 86 22 88
REMARK SMILES IDX 23 89 28 90 24 91 27 92 25 93 26 94
REMARK H PARENT 3 5 83 23 53 34 7 72 13 87
REMARK Flexibility Score: inf
ROOT
ATOM      1  C   UNL A   1      39.424  23.753  26.871  1.00  0.00     0.118 C 
ENDROOT
BRANCH   1   2
ATOM      2  N   UNL A   1      40.470  24.303  26.006  1.00  0.00    -0.352 N 
ATOM      3  O   UNL A   1      41.824  25.877  25.119  1.00  0.00    -0.269 OA
ATOM      4  C   UNL A   1      41.079  25.535  26.033  1.00  0.00     0.251 C 
ATOM      5  H   UNL A   1      40.785  23.698  25.297  1.00  0.00     0.163 HD
BRANCH   4   6
ATOM      6  C   UNL A   1      40.800  26.456  27.151  1.00  0.00     0.039 A 
ATOM      7  C   UNL A   1      41.163  27.799  27.058  1.00  0.00     0.014 A 
ATOM      8  C   UNL A   1      40.212  25.964  28.318  1.00  0.00     0.014 A 
ATOM      9  C   UNL A   1      41.140  28.592  28.192  1.00  0.00     0.010 A 
ATOM     10  C   UNL A   1      40.066  26.806  29.423  1.00  0.00     0.010 A 
ATOM     11  C   UNL A   1      40.570  28.114  29.381  1.00  0.00    -0.014 A 
BRANCH  11  12
ATOM     12  C   UNL A   1      40.469  29.026  30.546  1.00  0.00     0.031 A 
ATOM     13  C   UNL A   1      41.433  28.929  31.693  1.00  0.00     0.074 A 
ATOM     14  C   UNL A   1      39.509  29.971  30.532  1.00  0.00     0.049 A 
ATOM     15  N   UNL A   1      41.459  29.626  32.801  1.00  0.00    -0.248 NA
ATOM     16  C   UNL A   1      42.498  27.918  31.596  1.00  0.00     0.031 C 
ATOM     17  C   UNL A   1      38.526  30.159  29.459  1.00  0.00     0.029 A 
ATOM     18  N   UNL A   1      39.212  30.964  31.426  1.00  0.00    -0.354 N 
ATOM     19  C   UNL A   1      42.511  29.111  33.551  1.00  0.00     0.074 A 
ATOM     20  C   UNL A   1      43.096  28.039  32.774  1.00  0.00     0.031 C 
ATOM     21  C   UNL A   1      37.781  31.240  29.726  1.00  0.00     0.029 A 
ATOM     22  C   UNL A   1      38.168  31.763  31.028  1.00  0.00     0.049 A 
ATOM     23  H   UNL A   1      39.700  31.094  32.272  1.00  0.00     0.167 HD
ATOM     24  C   UNL A   1      42.942  29.498  34.776  1.00  0.00     0.031 A 
ATOM     25  C   UNL A   1      37.560  32.788  31.653  1.00  0.00     0.031 A 
ATOM     26  C   UNL A   1      42.353  30.575  35.529  1.00  0.00     0.049 A 
ATOM     27  C   UNL A   1      38.045  33.187  33.012  1.00  0.00     0.074 A 
ATOM     28  C   UNL A   1      42.718  31.057  36.773  1.00  0.00     0.029 A 
ATOM     29  N   UNL A   1      41.276  31.341  35.104  1.00  0.00    -0.354 N 
ATOM     30  N   UNL A   1      39.032  32.677  33.710  1.00  0.00    -0.248 NA
ATOM     31  C   UNL A   1      37.335  34.286  33.671  1.00  0.00     0.031 C 
ATOM     32  C   UNL A   1      41.834  32.086  37.118  1.00  0.00     0.029 A 
ATOM     33  C   UNL A   1      40.953  32.281  36.066  1.00  0.00     0.049 A 
ATOM     34  H   UNL A   1      40.811  31.231  34.243  1.00  0.00     0.167 HD
ATOM     35  C   UNL A   1      39.068  33.401  34.893  1.00  0.00     0.074 A 
ATOM     36  C   UNL A   1      38.016  34.396  34.805  1.00  0.00     0.031 C 
ATOM     37  C   UNL A   1      39.895  33.255  35.957  1.00  0.00     0.031 A 
BRANCH  24  38
ATOM     38  C   UNL A   1      44.073  28.718  35.394  1.00  0.00    -0.014 A 
ATOM     39  C   UNL A   1      45.417  29.050  35.148  1.00  0.00     0.010 A 
ATOM     40  C   UNL A   1      43.783  27.641  36.253  1.00  0.00     0.010 A 
ATOM     41  C   UNL A   1      46.449  28.289  35.707  1.00  0.00     0.020 A 
ATOM     42  C   UNL A   1      44.811  26.893  36.834  1.00  0.00     0.020 A 
ATOM     43  C   UNL A   1      46.139  27.207  36.539  1.00  0.00     0.054 A 
BRANCH  43  44
ATOM     44  S   UNL A   1      47.495  26.229  37.243  1.00  0.00     0.124 S 
ATOM     45  O   UNL A   1      48.625  27.146  37.109  1.00  0.00    -0.237 OA
ATOM     46  O   UNL A   1      47.043  25.988  38.610  1.00  0.00    -0.237 OA
ATOM     47  O   UNL A   1      47.548  25.046  36.389  1.00  0.00    -0.744 OA
ENDBRANCH  43  44
ENDBRANCH  24  38
BRANCH  25  48
ATOM     48  C   UNL A   1      36.415  33.464  30.991  1.00  0.00    -0.014 A 
ATOM     49  C   UNL A   1      35.255  33.783  31.715  1.00  0.00     0.010 A 
ATOM     50  C   UNL A   1      36.520  33.876  29.648  1.00  0.00     0.010 A 
ATOM     51  C   UNL A   1      34.223  34.508  31.112  1.00  0.00     0.020 A 
ATOM     52  C   UNL A   1      35.503  34.624  29.051  1.00  0.00     0.020 A 
ATOM     53  C   UNL A   1      34.358  34.930  29.786  1.00  0.00     0.054 A 
BRANCH  53  54
ATOM     54  S   UNL A   1      33.050  35.951  29.052  1.00  0.00     0.124 S 
ATOM     55  O   UNL A   1      32.356  36.449  30.234  1.00  0.00    -0.237 OA
ATOM     56  O   UNL A   1      33.808  36.945  28.296  1.00  0.00    -0.237 OA
ATOM     57  O   UNL A   1      32.297  35.003  28.234  1.00  0.00    -0.744 OA
ENDBRANCH  53  54
ENDBRANCH  25  48
BRANCH  37  58
ATOM     58  C   UNL A   1      39.708  34.212  37.098  1.00  0.00    -0.014 A 
ATOM     59  C   UNL A   1      38.922  33.869  38.212  1.00  0.00     0.010 A 
ATOM     60  C   UNL A   1      40.366  35.455  37.074  1.00  0.00     0.010 A 
ATOM     61  C   UNL A   1      38.777  34.765  39.273  1.00  0.00     0.020 A 
ATOM     62  C   UNL A   1      40.241  36.344  38.142  1.00  0.00     0.020 A 
ATOM     63  C   UNL A   1      39.437  35.998  39.230  1.00  0.00     0.054 A 
BRANCH  63  64
ATOM     64  S   UNL A   1      39.272  37.127  40.640  1.00  0.00     0.124 S 
ATOM     65  O   UNL A   1      38.339  38.124  40.122  1.00  0.00    -0.237 OA
ATOM     66  O   UNL A   1      38.746  36.258  41.688  1.00  0.00    -0.237 OA
ATOM     67  O   UNL A   1      40.636  37.603  40.860  1.00  0.00    -0.744 OA
ENDBRANCH  63  64
ENDBRANCH  37  58
ENDBRANCH  11  12
ENDBRANCH   4   6
ENDBRANCH   1   2
BRANCH   1  68
ATOM     68  C   UNL A   1      38.040  23.875  26.260  1.00  0.00     0.042 C 
BRANCH  68  69
ATOM     69  C   UNL A   1      37.531  22.532  25.781  1.00  0.00     0.117 C 
BRANCH  69  70
ATOM     70  N   UNL A   1      37.419  22.421  24.346  1.00  0.00    -0.354 N 
ATOM     71  C   UNL A   1      36.513  22.981  23.496  1.00  0.00     0.249 C 
ATOM     72  H   UNL A   1      38.101  21.856  23.916  1.00  0.00     0.163 HD
ATOM     73  O   UNL A   1      36.779  22.917  22.290  1.00  0.00    -0.272 OA
BRANCH  71  74
ATOM     74  C   UNL A   1      35.208  23.681  23.967  1.00  0.00     0.211 C 
ATOM     75  C   UNL A   1      34.285  24.176  22.875  1.00  0.00     0.085 C 
ATOM     76  O   UNL A   1      34.434  23.000  24.943  1.00  0.00    -0.357 OA
ATOM     77  C   UNL A   1      32.904  23.537  23.130  1.00  0.00     0.123 C 
ATOM     78  C   UNL A   1      33.158  22.610  24.391  1.00  0.00     0.186 C 
BRANCH  77  79
ATOM     79  C   UNL A   1      31.841  24.645  23.216  1.00  0.00    -0.013 A 
ATOM     80  C   UNL A   1      32.008  25.806  22.419  1.00  0.00     0.008 A 
ATOM     81  C   UNL A   1      30.673  24.559  23.985  1.00  0.00     0.008 A 
ATOM     82  C   UNL A   1      31.079  26.848  22.425  1.00  0.00     0.021 A 
ATOM     83  C   UNL A   1      29.738  25.604  23.993  1.00  0.00     0.021 A 
ATOM     84  C   UNL A   1      29.947  26.744  23.221  1.00  0.00     0.041 A 
ATOM     85  Cl  UNL A   1      28.797  28.022  23.244  1.00  0.00    -0.084 Cl
ENDBRANCH  77  79
BRANCH  77  86
ATOM     86  O   UNL A   1      32.564  22.772  21.960  1.00  0.00    -0.382 OA
ATOM     87  H   UNL A   1      31.723  22.313  22.107  1.00  0.00     0.212 HD
ENDBRANCH  77  86
BRANCH  78  88
ATOM     88  C   UNL A   1      33.164  21.081  24.230  1.00  0.00    -0.016 A 
ATOM     89  C   UNL A   1      34.170  20.286  24.824  1.00  0.00     0.008 A 
ATOM     90  C   UNL A   1      32.184  20.424  23.469  1.00  0.00     0.008 A 
ATOM     91  C   UNL A   1      34.262  18.914  24.568  1.00  0.00     0.021 A 
ATOM     92  C   UNL A   1      32.269  19.048  23.221  1.00  0.00     0.021 A 
ATOM     93  C   UNL A   1      33.319  18.304  23.753  1.00  0.00     0.041 A 
ATOM     94  Cl  UNL A   1      33.462  16.628  23.394  1.00  0.00    -0.084 Cl
ENDBRANCH  78  88
ENDBRANCH  71  74
ENDBRANCH  69  70
ENDBRANCH  68  69
ENDBRANCH   1  68
TORSDOF 16
ENDMDL
MODEL 2
REMARK VINA RESULT:     -13.1      6.450     12.153
REMARK SMILES O=C(NCCCNC(=O)[C@H]1C[C@](O)(c2ccc(Cl)cc2)[C@@H](c2ccc(Cl)cc2)O1)c1ccc(-c2c3nc(c(-c4ccc(S(=O)(=O)[O-])cc4)c4ccc([nH]4)c(-c4ccc(S(=O)(=O)[O-])cc4)c4nc(c(-c5ccc(S(=O)(=O)[O-])cc5)c5ccc2[nH]5)C=C4)C=C3)cc1
REMARK SMILES IDX 4 1 3 2 1 3 2 4 30 6 31 7 89 8 32 9 88 10 33 11 34 12 35 13
REMARK SMILES IDX 82 14 36 15 87 16 81 17 83 18 37 19 86 20 80 21 79 22 38 24
REMARK SMILES IDX 68 25 49 26 67 27 50 28 53 29 66 30 84 31 51 32 52 33 65 35
REMARK SMILES IDX 85 36 54 37 39 38 40 39 48 40 41 41 47 42 42 43 43 44 44 45
REMARK SMILES IDX 45 46 46 47 69 48 70 49 78 50 71 51 77 52 72 53 73 54 74 55
REMARK SMILES IDX 75 56 76 57 55 58 56 59 64 60 57 61 63 62 58 63 59 64 60 65
REMARK SMILES IDX 61 66 62 67 5 68 6 69 7 70 8 71 9 73 10 74 11 75 29 76 12 77
REMARK SMILES IDX 21 78 14 79 15 80 20 81 16 82 19 83 17 84 18 85 13 86 22 88
REMARK SMILES IDX 23 89 28 90 24 91 27 92 25 93 26 94
REMARK H PARENT 3 5 83 23 53 34 7 72 13 87
REMARK Flexibility Score: inf
ROOT
ATOM      1  C   UNL A   1      35.548  30.643  28.188  1.00  0.00     0.118 C 
ENDROOT
BRANCH   1   2
ATOM      2  N   UNL A   1      35.526  30.611  29.652  1.00  0.00    -0.352 N 
ATOM      3  O   UNL A   1      36.176  30.022  31.732  1.00  0.00    -0.269 OA
ATOM      4  C   UNL A   1      36.447  30.105  30.537  1.00  0.00     0.251 C 
ATOM      5  H   UNL A   1      34.728  31.014  30.065  1.00  0.00     0.163 HD
BRANCH   4   6
ATOM      6  C   UNL A   1      37.749  29.627  30.033  1.00  0.00     0.039 A 
ATOM      7  C   UNL A   1      38.606  28.918  30.873  1.00  0.00     0.014 A 
ATOM      8  C   UNL A   1      38.133  29.931  28.725  1.00  0.00     0.014 A 
ATOM      9  C   UNL A   1      39.917  28.702  30.485  1.00  0.00     0.010 A 
ATOM     10  C   UNL A   1      39.416  29.592  28.289  1.00  0.00     0.010 A 
ATOM     11  C   UNL A   1      40.332  29.014  29.182  1.00  0.00    -0.014 A 
BRANCH  11  12
ATOM     12  C   UNL A   1      41.715  28.675  28.769  1.00  0.00     0.031 A 
ATOM     13  C   UNL A   1      42.820  29.689  28.849  1.00  0.00     0.074 A 
ATOM     14  C   UNL A   1      41.963  27.418  28.352  1.00  0.00     0.049 A 
ATOM     15  N   UNL A   1      44.073  29.563  28.493  1.00  0.00    -0.248 NA
ATOM     16  C   UNL A   1      42.479  31.017  29.385  1.00  0.00     0.031 C 
ATOM     17  C   UNL A   1      40.962  26.351  28.246  1.00  0.00     0.029 A 
ATOM     18  N   UNL A   1      43.129  26.814  27.963  1.00  0.00    -0.354 N 
ATOM     19  C   UNL A   1      44.660  30.803  28.720  1.00  0.00     0.074 A 
ATOM     20  C   UNL A   1      43.624  31.670  29.239  1.00  0.00     0.031 C 
ATOM     21  C   UNL A   1      41.567  25.211  27.886  1.00  0.00     0.029 A 
ATOM     22  C   UNL A   1      42.976  25.487  27.644  1.00  0.00     0.049 A 
ATOM     23  H   UNL A   1      43.993  27.284  27.918  1.00  0.00     0.167 HD
ATOM     24  C   UNL A   1      45.945  31.179  28.509  1.00  0.00     0.031 A 
ATOM     25  C   UNL A   1      43.861  24.590  27.173  1.00  0.00     0.031 A 
ATOM     26  C   UNL A   1      46.964  30.298  28.001  1.00  0.00     0.049 A 
ATOM     27  C   UNL A   1      45.271  25.034  26.935  1.00  0.00     0.074 A 
ATOM     28  C   UNL A   1      48.298  30.572  27.759  1.00  0.00     0.029 A 
ATOM     29  N   UNL A   1      46.762  28.968  27.660  1.00  0.00    -0.354 N 
ATOM     30  N   UNL A   1      45.803  26.215  27.142  1.00  0.00    -0.248 NA
ATOM     31  C   UNL A   1      46.196  24.035  26.392  1.00  0.00     0.031 C 
ATOM     32  C   UNL A   1      48.892  29.419  27.232  1.00  0.00     0.029 A 
ATOM     33  C   UNL A   1      47.941  28.412  27.196  1.00  0.00     0.049 A 
ATOM     34  H   UNL A   1      45.904  28.490  27.737  1.00  0.00     0.167 HD
ATOM     35  C   UNL A   1      47.133  26.101  26.762  1.00  0.00     0.074 A 
ATOM     36  C   UNL A   1      47.325  24.729  26.331  1.00  0.00     0.031 C 
ATOM     37  C   UNL A   1      48.105  27.045  26.766  1.00  0.00     0.031 A 
BRANCH  24  38
ATOM     38  C   UNL A   1      46.303  32.618  28.780  1.00  0.00    -0.014 A 
ATOM     39  C   UNL A   1      46.738  33.040  30.049  1.00  0.00     0.010 A 
ATOM     40  C   UNL A   1      46.217  33.561  27.740  1.00  0.00     0.010 A 
ATOM     41  C   UNL A   1      47.032  34.387  30.285  1.00  0.00     0.020 A 
ATOM     42  C   UNL A   1      46.534  34.904  27.964  1.00  0.00     0.020 A 
ATOM     43  C   UNL A   1      46.917  35.314  29.242  1.00  0.00     0.054 A 
BRANCH  43  44
ATOM     44  S   UNL A   1      47.293  37.057  29.576  1.00  0.00     0.124 S 
ATOM     45  O   UNL A   1      46.040  37.709  29.202  1.00  0.00    -0.237 OA
ATOM     46  O   UNL A   1      47.596  37.054  31.004  1.00  0.00    -0.237 OA
ATOM     47  O   UNL A   1      48.428  37.340  28.702  1.00  0.00    -0.744 OA
ENDBRANCH  43  44
ENDBRANCH  24  38
BRANCH  25  48
ATOM     48  C   UNL A   1      43.407  23.206  26.880  1.00  0.00    -0.014 A 
ATOM     49  C   UNL A   1      43.596  22.645  25.608  1.00  0.00     0.010 A 
ATOM     50  C   UNL A   1      42.863  22.411  27.908  1.00  0.00     0.010 A 
ATOM     51  C   UNL A   1      43.257  21.309  25.368  1.00  0.00     0.020 A 
ATOM     52  C   UNL A   1      42.548  21.070  27.679  1.00  0.00     0.020 A 
ATOM     53  C   UNL A   1      42.743  20.529  26.409  1.00  0.00     0.054 A 
BRANCH  53  54
ATOM     54  S   UNL A   1      42.399  18.774  26.102  1.00  0.00     0.124 S 
ATOM     55  O   UNL A   1      43.347  18.462  25.038  1.00  0.00    -0.237 OA
ATOM     56  O   UNL A   1      42.678  18.164  27.400  1.00  0.00    -0.237 OA
ATOM     57  O   UNL A   1      40.991  18.767  25.711  1.00  0.00    -0.744 OA
ENDBRANCH  53  54
ENDBRANCH  25  48
BRANCH  37  58
ATOM     58  C   UNL A   1      49.470  26.615  26.314  1.00  0.00    -0.014 A 
ATOM     59  C   UNL A   1      49.893  26.818  24.990  1.00  0.00     0.010 A 
ATOM     60  C   UNL A   1      50.356  26.041  27.243  1.00  0.00     0.010 A 
ATOM     61  C   UNL A   1      51.175  26.429  24.594  1.00  0.00     0.020 A 
ATOM     62  C   UNL A   1      51.646  25.672  26.857  1.00  0.00     0.020 A 
ATOM     63  C   UNL A   1      52.043  25.857  25.531  1.00  0.00     0.054 A 
BRANCH  63  64
ATOM     64  S   UNL A   1      53.719  25.403  25.007  1.00  0.00     0.124 S 
ATOM     65  O   UNL A   1      53.808  24.014  25.447  1.00  0.00    -0.237 OA
ATOM     66  O   UNL A   1      53.670  25.605  23.561  1.00  0.00    -0.237 OA
ATOM     67  O   UNL A   1      54.572  26.343  25.732  1.00  0.00    -0.744 OA
ENDBRANCH  63  64
ENDBRANCH  37  58
ENDBRANCH  11  12
ENDBRANCH   4   6
ENDBRANCH   1   2
BRANCH   1  68
ATOM     68  C   UNL A   1      34.233  31.114  27.596  1.00  0.00     0.042 C 
BRANCH  68  69
ATOM     69  C   UNL A   1      33.535  29.997  26.849  1.00  0.00     0.117 C 
BRANCH  69  70
ATOM     70  N   UNL A   1      32.366  29.481  27.519  1.00  0.00    -0.354 N 
ATOM     71  C   UNL A   1      31.832  28.227  27.499  1.00  0.00     0.249 C 
ATOM     72  H   UNL A   1      31.881  30.132  28.075  1.00  0.00     0.163 HD
ATOM     73  O   UNL A   1      30.962  27.988  28.345  1.00  0.00    -0.272 OA
BRANCH  71  74
ATOM     74  C   UNL A   1      32.264  27.121  26.496  1.00  0.00     0.211 C 
ATOM     75  C   UNL A   1      31.439  25.853  26.504  1.00  0.00     0.085 C 
ATOM     76  O   UNL A   1      32.466  27.524  25.149  1.00  0.00    -0.357 OA
ATOM     77  C   UNL A   1      30.939  25.633  25.062  1.00  0.00     0.123 C 
ATOM     78  C   UNL A   1      31.490  26.902  24.286  1.00  0.00     0.186 C 
BRANCH  77  79
ATOM     79  C   UNL A   1      31.353  24.228  24.590  1.00  0.00    -0.013 A 
ATOM     80  C   UNL A   1      31.421  23.186  25.550  1.00  0.00     0.008 A 
ATOM     81  C   UNL A   1      31.608  23.888  23.256  1.00  0.00     0.008 A 
ATOM     82  C   UNL A   1      31.770  21.880  25.201  1.00  0.00     0.021 A 
ATOM     83  C   UNL A   1      31.958  22.576  22.903  1.00  0.00     0.021 A 
ATOM     84  C   UNL A   1      32.045  21.582  23.874  1.00  0.00     0.041 A 
ATOM     85  Cl  UNL A   1      32.482  19.981  23.429  1.00  0.00    -0.084 Cl
ENDBRANCH  77  79
BRANCH  77  86
ATOM     86  O   UNL A   1      29.501  25.612  25.106  1.00  0.00    -0.382 OA
ATOM     87  H   UNL A   1      29.151  25.535  24.205  1.00  0.00     0.212 HD
ENDBRANCH  77  86
BRANCH  78  88
ATOM     88  C   UNL A   1      30.516  27.993  23.814  1.00  0.00    -0.016 A 
ATOM     89  C   UNL A   1      30.748  29.356  24.106  1.00  0.00     0.008 A 
ATOM     90  C   UNL A   1      29.354  27.673  23.096  1.00  0.00     0.008 A 
ATOM     91  C   UNL A   1      29.800  30.339  23.801  1.00  0.00     0.021 A 
ATOM     92  C   UNL A   1      28.408  28.658  22.780  1.00  0.00     0.021 A 
ATOM     93  C   UNL A   1      28.625  29.982  23.154  1.00  0.00     0.041 A 
ATOM     94  Cl  UNL A   1      27.436  31.179  22.828  1.00  0.00    -0.084 Cl
ENDBRANCH  78  88
ENDBRANCH  71  74
ENDBRANCH  69  70
ENDBRANCH  68  69
ENDBRANCH   1  68
TORSDOF 16
ENDMDL
MODEL 3
REMARK VINA RESULT:     -13.0      6.572     11.707
REMARK SMILES O=C(NCCCNC(=O)[C@H]1C[C@](O)(c2ccc(Cl)cc2)[C@@H](c2ccc(Cl)cc2)O1)c1ccc(-c2c3nc(c(-c4ccc(S(=O)(=O)[O-])cc4)c4ccc([nH]4)c(-c4ccc(S(=O)(=O)[O-])cc4)c4nc(c(-c5ccc(S(=O)(=O)[O-])cc5)c5ccc2[nH]5)C=C4)C=C3)cc1
REMARK SMILES IDX 4 1 3 2 1 3 2 4 30 6 31 7 89 8 32 9 88 10 33 11 34 12 35 13
REMARK SMILES IDX 82 14 36 15 87 16 81 17 83 18 37 19 86 20 80 21 79 22 38 24
REMARK SMILES IDX 68 25 49 26 67 27 50 28 53 29 66 30 84 31 51 32 52 33 65 35
REMARK SMILES IDX 85 36 54 37 39 38 40 39 48 40 41 41 47 42 42 43 43 44 44 45
REMARK SMILES IDX 45 46 46 47 69 48 70 49 78 50 71 51 77 52 72 53 73 54 74 55
REMARK SMILES IDX 75 56 76 57 55 58 56 59 64 60 57 61 63 62 58 63 59 64 60 65
REMARK SMILES IDX 61 66 62 67 5 68 6 69 7 70 8 71 9 73 10 74 11 75 29 76 12 77
REMARK SMILES IDX 21 78 14 79 15 80 20 81 16 82 19 83 17 84 18 85 13 86 22 88
REMARK SMILES IDX 23 89 28 90 24 91 27 92 25 93 26 94
REMARK H PARENT 3 5 83 23 53 34 7 72 13 87
REMARK Flexibility Score: inf
ROOT
ATOM      1  C   UNL A   1      35.786  29.699  28.212  1.00  0.00     0.118 C 
ENDROOT
BRANCH   1   2
ATOM      2  N   UNL A   1      35.700  29.830  29.668  1.00  0.00    -0.352 N 
ATOM      3  O   UNL A   1      36.380  29.682  31.815  1.00  0.00    -0.269 OA
ATOM      4  C   UNL A   1      36.678  29.697  30.624  1.00  0.00     0.251 C 
ATOM      5  H   UNL A   1      34.804  30.047  30.014  1.00  0.00     0.163 HD
BRANCH   4   6
ATOM      6  C   UNL A   1      38.083  29.535  30.205  1.00  0.00     0.039 A 
ATOM      7  C   UNL A   1      38.481  29.924  28.927  1.00  0.00     0.014 A 
ATOM      8  C   UNL A   1      38.999  28.947  31.081  1.00  0.00     0.014 A 
ATOM      9  C   UNL A   1      39.720  29.534  28.450  1.00  0.00     0.010 A 
ATOM     10  C   UNL A   1      40.296  28.675  30.639  1.00  0.00     0.010 A 
ATOM     11  C   UNL A   1      40.651  28.927  29.305  1.00  0.00    -0.014 A 
BRANCH  11  12
ATOM     12  C   UNL A   1      42.005  28.616  28.789  1.00  0.00     0.031 A 
ATOM     13  C   UNL A   1      42.338  27.253  28.252  1.00  0.00     0.074 A 
ATOM     14  C   UNL A   1      42.924  29.602  28.779  1.00  0.00     0.049 A 
ATOM     15  N   UNL A   1      43.482  26.810  27.798  1.00  0.00    -0.248 NA
ATOM     16  C   UNL A   1      41.257  26.255  28.231  1.00  0.00     0.031 C 
ATOM     17  C   UNL A   1      42.701  30.968  29.267  1.00  0.00     0.029 A 
ATOM     18  N   UNL A   1      44.215  29.624  28.323  1.00  0.00    -0.354 N 
ATOM     19  C   UNL A   1      43.273  25.473  27.477  1.00  0.00     0.074 A 
ATOM     20  C   UNL A   1      41.893  25.175  27.795  1.00  0.00     0.031 C 
ATOM     21  C   UNL A   1      43.791  31.707  29.025  1.00  0.00     0.029 A 
ATOM     22  C   UNL A   1      44.819  30.850  28.455  1.00  0.00     0.049 A 
ATOM     23  H   UNL A   1      44.666  28.837  27.939  1.00  0.00     0.167 HD
ATOM     24  C   UNL A   1      44.156  24.579  26.969  1.00  0.00     0.031 A 
ATOM     25  C   UNL A   1      46.077  31.242  28.180  1.00  0.00     0.031 A 
ATOM     26  C   UNL A   1      45.524  24.898  26.650  1.00  0.00     0.049 A 
ATOM     27  C   UNL A   1      47.037  30.232  27.633  1.00  0.00     0.074 A 
ATOM     28  C   UNL A   1      46.500  24.072  26.121  1.00  0.00     0.029 A 
ATOM     29  N   UNL A   1      46.107  26.145  26.826  1.00  0.00    -0.354 N 
ATOM     30  N   UNL A   1      46.824  28.969  27.351  1.00  0.00    -0.248 NA
ATOM     31  C   UNL A   1      48.405  30.692  27.376  1.00  0.00     0.031 C 
ATOM     32  C   UNL A   1      47.685  24.810  26.018  1.00  0.00     0.029 A 
ATOM     33  C   UNL A   1      47.433  26.108  26.432  1.00  0.00     0.049 A 
ATOM     34  H   UNL A   1      45.645  26.939  27.180  1.00  0.00     0.167 HD
ATOM     35  C   UNL A   1      48.032  28.481  26.873  1.00  0.00     0.074 A 
ATOM     36  C   UNL A   1      48.965  29.592  26.888  1.00  0.00     0.031 C 
ATOM     37  C   UNL A   1      48.343  27.227  26.464  1.00  0.00     0.031 A 
BRANCH  24  38
ATOM     38  C   UNL A   1      43.680  23.163  26.777  1.00  0.00    -0.014 A 
ATOM     39  C   UNL A   1      42.978  22.480  27.786  1.00  0.00     0.010 A 
ATOM     40  C   UNL A   1      43.927  22.509  25.555  1.00  0.00     0.010 A 
ATOM     41  C   UNL A   1      42.576  21.153  27.595  1.00  0.00     0.020 A 
ATOM     42  C   UNL A   1      43.505  21.192  25.351  1.00  0.00     0.020 A 
ATOM     43  C   UNL A   1      42.852  20.514  26.381  1.00  0.00     0.054 A 
BRANCH  43  44
ATOM     44  S   UNL A   1      42.330  18.790  26.163  1.00  0.00     0.124 S 
ATOM     45  O   UNL A   1      40.941  18.950  25.740  1.00  0.00    -0.237 OA
ATOM     46  O   UNL A   1      43.246  18.303  25.135  1.00  0.00    -0.237 OA
ATOM     47  O   UNL A   1      42.515  18.202  27.487  1.00  0.00    -0.744 OA
ENDBRANCH  43  44
ENDBRANCH  24  38
BRANCH  25  48
ATOM     48  C   UNL A   1      46.476  32.646  28.454  1.00  0.00    -0.014 A 
ATOM     49  C   UNL A   1      46.307  33.642  27.479  1.00  0.00     0.010 A 
ATOM     50  C   UNL A   1      46.944  33.009  29.732  1.00  0.00     0.010 A 
ATOM     51  C   UNL A   1      46.591  34.978  27.778  1.00  0.00     0.020 A 
ATOM     52  C   UNL A   1      47.204  34.346  30.042  1.00  0.00     0.020 A 
ATOM     53  C   UNL A   1      47.030  35.321  29.061  1.00  0.00     0.054 A 
BRANCH  53  54
ATOM     54  S   UNL A   1      47.301  37.071  29.457  1.00  0.00     0.124 S 
ATOM     55  O   UNL A   1      47.188  37.699  28.145  1.00  0.00    -0.237 OA
ATOM     56  O   UNL A   1      46.217  37.358  30.392  1.00  0.00    -0.237 OA
ATOM     57  O   UNL A   1      48.639  37.083  30.046  1.00  0.00    -0.744 OA
ENDBRANCH  53  54
ENDBRANCH  25  48
BRANCH  37  58
ATOM     58  C   UNL A   1      49.743  27.001  25.972  1.00  0.00    -0.014 A 
ATOM     59  C   UNL A   1      50.762  26.591  26.849  1.00  0.00     0.010 A 
ATOM     60  C   UNL A   1      50.030  27.160  24.605  1.00  0.00     0.010 A 
ATOM     61  C   UNL A   1      52.054  26.366  26.369  1.00  0.00     0.020 A 
ATOM     62  C   UNL A   1      51.315  26.915  24.117  1.00  0.00     0.020 A 
ATOM     63  C   UNL A   1      52.322  26.532  25.005  1.00  0.00     0.054 A 
BRANCH  63  64
ATOM     64  S   UNL A   1      53.996  26.189  24.396  1.00  0.00     0.124 S 
ATOM     65  O   UNL A   1      54.175  24.790  24.776  1.00  0.00    -0.237 OA
ATOM     66  O   UNL A   1      53.875  26.443  22.964  1.00  0.00    -0.237 OA
ATOM     67  O   UNL A   1      54.829  27.145  25.124  1.00  0.00    -0.744 OA
ENDBRANCH  63  64
ENDBRANCH  37  58
ENDBRANCH  11  12
ENDBRANCH   4   6
ENDBRANCH   1   2
BRANCH   1  68
ATOM     68  C   UNL A   1      34.861  30.657  27.485  1.00  0.00     0.042 C 
BRANCH  68  69
ATOM     69  C   UNL A   1      33.843  29.911  26.648  1.00  0.00     0.117 C 
BRANCH  69  70
ATOM     70  N   UNL A   1      32.706  29.429  27.395  1.00  0.00    -0.354 N 
ATOM     71  C   UNL A   1      32.141  28.189  27.421  1.00  0.00     0.249 C 
ATOM     72  H   UNL A   1      32.272  30.098  27.973  1.00  0.00     0.163 HD
ATOM     73  O   UNL A   1      31.320  27.980  28.322  1.00  0.00    -0.272 OA
BRANCH  71  74
ATOM     74  C   UNL A   1      32.484  27.064  26.406  1.00  0.00     0.211 C 
ATOM     75  C   UNL A   1      31.697  25.778  26.543  1.00  0.00     0.085 C 
ATOM     76  O   UNL A   1      32.521  27.430  25.035  1.00  0.00    -0.357 OA
ATOM     77  C   UNL A   1      31.042  25.505  25.173  1.00  0.00     0.123 C 
ATOM     78  C   UNL A   1      31.470  26.762  24.306  1.00  0.00     0.186 C 
BRANCH  77  79
ATOM     79  C   UNL A   1      31.434  24.097  24.696  1.00  0.00    -0.013 A 
ATOM     80  C   UNL A   1      31.472  23.046  25.648  1.00  0.00     0.008 A 
ATOM     81  C   UNL A   1      31.696  23.761  23.362  1.00  0.00     0.008 A 
ATOM     82  C   UNL A   1      31.801  21.737  25.294  1.00  0.00     0.021 A 
ATOM     83  C   UNL A   1      32.025  22.445  23.003  1.00  0.00     0.021 A 
ATOM     84  C   UNL A   1      32.083  21.443  23.968  1.00  0.00     0.041 A 
ATOM     85  Cl  UNL A   1      32.495  19.836  23.515  1.00  0.00    -0.084 Cl
ENDBRANCH  77  79
BRANCH  77  86
ATOM     86  O   UNL A   1      29.619  25.455  25.382  1.00  0.00    -0.382 OA
ATOM     87  H   UNL A   1      29.359  24.553  25.623  1.00  0.00     0.212 HD
ENDBRANCH  77  86
BRANCH  78  88
ATOM     88  C   UNL A   1      30.422  27.818  23.919  1.00  0.00    -0.016 A 
ATOM     89  C   UNL A   1      29.186  27.448  23.345  1.00  0.00     0.008 A 
ATOM     90  C   UNL A   1      30.666  29.188  24.103  1.00  0.00     0.008 A 
ATOM     91  C   UNL A   1      28.287  28.406  22.865  1.00  0.00     0.021 A 
ATOM     92  C   UNL A   1      29.762  30.150  23.632  1.00  0.00     0.021 A 
ATOM     93  C   UNL A   1      28.588  29.755  22.996  1.00  0.00     0.041 A 
ATOM     94  Cl  UNL A   1      27.511  30.933  22.357  1.00  0.00    -0.084 Cl
ENDBRANCH  78  88
ENDBRANCH  71  74
ENDBRANCH  69  70
ENDBRANCH  68  69
ENDBRANCH   1  68
TORSDOF 16
ENDMDL
