MODEL 1
REMARK VINA RESULT:     -12.0      0.000      0.000
REMARK SMILES COc1ccc(CCN2C(=O)CC[C@@H](C(=O)NCCCNC(=O)c3ccc(-c4c5nc(c(-c6ccc(S(=O)(=O)[O-])cc6)c6ccc([nH]6)c(-c6ccc(S(=O)(=O)[O-])cc6)c6nc(c(-c7ccc(S(=O)(=O)[O-])cc7)c7ccc4[nH]7)C=C6)C=C5)cc3)[C@@H]2c2ccc(Cl)cc2)cc1OC
REMARK SMILES IDX 18 1 17 2 15 3 16 4 14 6 9 7 10 8 84 9 11 10 12 11 13 12
REMARK SMILES IDX 8 13 7 14 6 15 3 16 4 17 93 18 5 19 92 20 2 21 1 22 94 23
REMARK SMILES IDX 95 24 85 25 86 26 91 27 87 28 90 29 88 30 89 31 19 32 20 33
REMARK SMILES IDX 21 34 22 35 23 37 24 38 25 39 83 40 26 41 82 42 27 43 28 44
REMARK SMILES IDX 29 45 76 46 30 47 81 48 75 49 77 50 31 51 80 52 74 53 73 54
REMARK SMILES IDX 32 56 62 57 43 58 61 59 44 60 47 61 60 62 78 63 45 64 46 65
REMARK SMILES IDX 59 67 79 68 48 69 33 70 34 71 42 72 35 73 41 74 36 75 37 76
REMARK SMILES IDX 38 77 39 78 40 79 63 80 64 81 72 82 65 83 71 84 66 85 67 86
REMARK SMILES IDX 68 87 69 88 70 89 49 90 50 91 58 92 51 93 57 94 52 95 53 96
REMARK SMILES IDX 54 97 55 98 56 99
REMARK H PARENT 17 5 21 36 77 55 47 66
REMARK Flexibility Score: inf
ROOT
ATOM      1  C   UNL A   1      36.025  23.219  23.551  1.00  0.00     0.117 C 
ENDROOT
BRANCH   1   2
ATOM      2  N   UNL A   1      34.639  22.869  23.327  1.00  0.00    -0.356 N 
ATOM      3  C   UNL A   1      33.507  23.429  23.843  1.00  0.00     0.225 C 
ATOM      4  O   UNL A   1      32.435  23.031  23.379  1.00  0.00    -0.275 OA
ATOM      5  H   UNL A   1      34.491  22.117  22.710  1.00  0.00     0.163 HD
BRANCH   3   6
ATOM      6  C   UNL A   1      33.556  24.413  25.017  1.00  0.00     0.106 C 
ATOM      7  N   UNL A   1      31.168  24.648  25.796  1.00  0.00    -0.335 N 
ATOM      8  C   UNL A   1      31.303  23.691  26.793  1.00  0.00     0.223 C 
ATOM      9  C   UNL A   1      32.333  25.342  25.206  1.00  0.00     0.128 C 
ATOM     10  O   UNL A   1      30.370  23.343  27.517  1.00  0.00    -0.275 OA
ATOM     11  C   UNL A   1      32.617  22.948  26.864  1.00  0.00     0.101 C 
ATOM     12  C   UNL A   1      33.829  23.706  26.353  1.00  0.00     0.026 C 
BRANCH   7  13
ATOM     13  C   UNL A   1      29.801  25.091  25.455  1.00  0.00     0.125 C 
BRANCH  13  14
ATOM     14  C   UNL A   1      29.529  25.544  24.003  1.00  0.00     0.057 C 
BRANCH  14  15
ATOM     15  C   UNL A   1      29.361  27.007  23.635  1.00  0.00    -0.042 A 
ATOM     16  C   UNL A   1      29.094  29.523  22.354  1.00  0.00     0.160 A 
ATOM     17  C   UNL A   1      27.977  28.860  22.863  1.00  0.00     0.051 A 
ATOM     18  C   UNL A   1      30.363  28.985  22.570  1.00  0.00     0.160 A 
ATOM     19  C   UNL A   1      28.117  27.622  23.501  1.00  0.00     0.008 A 
ATOM     20  C   UNL A   1      30.483  27.739  23.209  1.00  0.00     0.054 A 
BRANCH  16  21
ATOM     21  O   UNL A   1      28.930  30.718  21.708  1.00  0.00    -0.493 OA
ATOM     22  C   UNL A   1      28.111  31.616  22.463  1.00  0.00     0.278 C 
ENDBRANCH  16  21
BRANCH  18  23
ATOM     23  O   UNL A   1      31.554  29.565  22.217  1.00  0.00    -0.493 OA
ATOM     24  C   UNL A   1      32.716  28.954  22.769  1.00  0.00     0.278 C 
ENDBRANCH  18  23
ENDBRANCH  14  15
ENDBRANCH  13  14
ENDBRANCH   7  13
BRANCH   9  25
ATOM     25  C   UNL A   1      32.751  26.649  25.915  1.00  0.00    -0.025 A 
ATOM     26  C   UNL A   1      31.909  27.364  26.776  1.00  0.00     0.007 A 
ATOM     27  C   UNL A   1      34.028  27.197  25.646  1.00  0.00     0.007 A 
ATOM     28  C   UNL A   1      32.327  28.574  27.348  1.00  0.00     0.021 A 
ATOM     29  C   UNL A   1      34.457  28.386  26.239  1.00  0.00     0.021 A 
ATOM     30  C   UNL A   1      33.600  29.075  27.086  1.00  0.00     0.041 A 
ATOM     31  Cl  UNL A   1      34.112  30.553  27.799  1.00  0.00    -0.084 Cl
ENDBRANCH   9  25
ENDBRANCH   3   6
ENDBRANCH   1   2
BRANCH   1  32
ATOM     32  C   UNL A   1      36.867  22.146  24.210  1.00  0.00     0.042 C 
BRANCH  32  33
ATOM     33  C   UNL A   1      37.323  22.466  25.630  1.00  0.00     0.118 C 
BRANCH  33  34
ATOM     34  N   UNL A   1      38.682  22.041  25.949  1.00  0.00    -0.352 N 
ATOM     35  C   UNL A   1      39.767  22.719  26.457  1.00  0.00     0.251 C 
ATOM     36  H   UNL A   1      38.855  21.090  25.767  1.00  0.00     0.163 HD
ATOM     37  O   UNL A   1      40.862  22.159  26.493  1.00  0.00    -0.269 OA
BRANCH  35  38
ATOM     38  C   UNL A   1      39.675  24.127  26.893  1.00  0.00     0.039 A 
ATOM     39  C   UNL A   1      39.145  24.386  28.162  1.00  0.00     0.014 A 
ATOM     40  C   UNL A   1      40.154  25.179  26.118  1.00  0.00     0.014 A 
ATOM     41  C   UNL A   1      39.276  25.656  28.717  1.00  0.00     0.010 A 
ATOM     42  C   UNL A   1      40.414  26.402  26.720  1.00  0.00     0.010 A 
ATOM     43  C   UNL A   1      40.019  26.636  28.042  1.00  0.00    -0.014 A 
BRANCH  43  44
ATOM     44  C   UNL A   1      40.483  27.855  28.747  1.00  0.00     0.031 A 
ATOM     45  C   UNL A   1      41.854  27.916  29.353  1.00  0.00     0.074 A 
ATOM     46  C   UNL A   1      39.608  28.869  28.919  1.00  0.00     0.049 A 
ATOM     47  N   UNL A   1      42.398  28.877  30.053  1.00  0.00    -0.248 NA
ATOM     48  C   UNL A   1      42.712  26.731  29.191  1.00  0.00     0.031 C 
ATOM     49  C   UNL A   1      38.215  28.879  28.453  1.00  0.00     0.029 A 
ATOM     50  N   UNL A   1      39.755  30.089  29.525  1.00  0.00    -0.354 N 
ATOM     51  C   UNL A   1      43.649  28.405  30.433  1.00  0.00     0.074 A 
ATOM     52  C   UNL A   1      43.760  27.052  29.935  1.00  0.00     0.031 C 
ATOM     53  C   UNL A   1      37.660  30.067  28.737  1.00  0.00     0.029 A 
ATOM     54  C   UNL A   1      38.634  30.884  29.445  1.00  0.00     0.049 A 
ATOM     55  H   UNL A   1      40.583  30.370  29.977  1.00  0.00     0.167 HD
ATOM     56  C   UNL A   1      44.624  29.051  31.114  1.00  0.00     0.031 A 
ATOM     57  C   UNL A   1      38.418  32.136  29.886  1.00  0.00     0.031 A 
ATOM     58  C   UNL A   1      44.508  30.405  31.584  1.00  0.00     0.049 A 
ATOM     59  C   UNL A   1      39.536  32.852  30.586  1.00  0.00     0.074 A 
ATOM     60  C   UNL A   1      45.454  31.177  32.233  1.00  0.00     0.029 A 
ATOM     61  N   UNL A   1      43.374  31.192  31.445  1.00  0.00    -0.354 N 
ATOM     62  N   UNL A   1      40.737  32.410  30.878  1.00  0.00    -0.248 NA
ATOM     63  C   UNL A   1      39.277  34.234  31.005  1.00  0.00     0.031 C 
ATOM     64  C   UNL A   1      44.880  32.422  32.517  1.00  0.00     0.029 A 
ATOM     65  C   UNL A   1      43.591  32.440  32.005  1.00  0.00     0.049 A 
ATOM     66  H   UNL A   1      42.537  30.906  31.013  1.00  0.00     0.167 HD
ATOM     67  C   UNL A   1      41.384  33.467  31.504  1.00  0.00     0.074 A 
ATOM     68  C   UNL A   1      40.448  34.575  31.524  1.00  0.00     0.031 C 
ATOM     69  C   UNL A   1      42.637  33.518  32.021  1.00  0.00     0.031 A 
BRANCH  56  70
ATOM     70  C   UNL A   1      45.896  28.290  31.380  1.00  0.00    -0.014 A 
ATOM     71  C   UNL A   1      46.957  28.309  30.455  1.00  0.00     0.010 A 
ATOM     72  C   UNL A   1      46.039  27.551  32.568  1.00  0.00     0.010 A 
ATOM     73  C   UNL A   1      48.112  27.558  30.685  1.00  0.00     0.020 A 
ATOM     74  C   UNL A   1      47.206  26.821  32.816  1.00  0.00     0.020 A 
ATOM     75  C   UNL A   1      48.226  26.813  31.862  1.00  0.00     0.054 A 
BRANCH  75  76
ATOM     76  S   UNL A   1      49.737  25.847  32.138  1.00  0.00     0.124 S 
ATOM     77  O   UNL A   1      50.628  26.847  32.719  1.00  0.00    -0.237 OA
ATOM     78  O   UNL A   1      49.287  24.800  33.051  1.00  0.00    -0.237 OA
ATOM     79  O   UNL A   1      50.101  25.388  30.800  1.00  0.00    -0.744 OA
ENDBRANCH  75  76
ENDBRANCH  56  70
BRANCH  57  80
ATOM     80  C   UNL A   1      37.109  32.798  29.639  1.00  0.00    -0.014 A 
ATOM     81  C   UNL A   1      36.157  32.895  30.669  1.00  0.00     0.010 A 
ATOM     82  C   UNL A   1      36.816  33.361  28.383  1.00  0.00     0.010 A 
ATOM     83  C   UNL A   1      34.930  33.527  30.445  1.00  0.00     0.020 A 
ATOM     84  C   UNL A   1      35.601  34.017  28.163  1.00  0.00     0.020 A 
ATOM     85  C   UNL A   1      34.660  34.084  29.193  1.00  0.00     0.054 A 
BRANCH  85  86
ATOM     86  S   UNL A   1      33.085  34.950  28.939  1.00  0.00     0.124 S 
ATOM     87  O   UNL A   1      32.403  34.069  27.997  1.00  0.00    -0.237 OA
ATOM     88  O   UNL A   1      32.525  34.994  30.288  1.00  0.00    -0.237 OA
ATOM     89  O   UNL A   1      33.494  36.248  28.402  1.00  0.00    -0.744 OA
ENDBRANCH  85  86
ENDBRANCH  57  80
BRANCH  69  90
ATOM     90  C   UNL A   1      43.059  34.822  32.636  1.00  0.00    -0.014 A 
ATOM     91  C   UNL A   1      42.765  35.117  33.979  1.00  0.00     0.010 A 
ATOM     92  C   UNL A   1      43.774  35.754  31.864  1.00  0.00     0.010 A 
ATOM     93  C   UNL A   1      43.142  36.343  34.528  1.00  0.00     0.020 A 
ATOM     94  C   UNL A   1      44.176  36.971  32.419  1.00  0.00     0.020 A 
ATOM     95  C   UNL A   1      43.839  37.265  33.742  1.00  0.00     0.054 A 
BRANCH  95  96
ATOM     96  S   UNL A   1      44.336  38.845  34.480  1.00  0.00     0.124 S 
ATOM     97  O   UNL A   1      43.278  39.739  34.019  1.00  0.00    -0.237 OA
ATOM     98  O   UNL A   1      44.330  38.549  35.911  1.00  0.00    -0.237 OA
ATOM     99  O   UNL A   1      45.657  39.092  33.907  1.00  0.00    -0.744 OA
ENDBRANCH  95  96
ENDBRANCH  69  90
ENDBRANCH  43  44
ENDBRANCH  35  38
ENDBRANCH  33  34
ENDBRANCH  32  33
ENDBRANCH   1  32
TORSDOF 19
ENDMDL
MODEL 2
REMARK VINA RESULT:     -11.6      0.848      7.878
REMARK SMILES COc1ccc(CCN2C(=O)CC[C@@H](C(=O)NCCCNC(=O)c3ccc(-c4c5nc(c(-c6ccc(S(=O)(=O)[O-])cc6)c6ccc([nH]6)c(-c6ccc(S(=O)(=O)[O-])cc6)c6nc(c(-c7ccc(S(=O)(=O)[O-])cc7)c7ccc4[nH]7)C=C6)C=C5)cc3)[C@@H]2c2ccc(Cl)cc2)cc1OC
REMARK SMILES IDX 18 1 17 2 15 3 16 4 14 6 9 7 10 8 84 9 11 10 12 11 13 12
REMARK SMILES IDX 8 13 7 14 6 15 3 16 4 17 93 18 5 19 92 20 2 21 1 22 94 23
REMARK SMILES IDX 95 24 85 25 86 26 91 27 87 28 90 29 88 30 89 31 19 32 20 33
REMARK SMILES IDX 21 34 22 35 23 37 24 38 25 39 83 40 26 41 82 42 27 43 28 44
REMARK SMILES IDX 29 45 76 46 30 47 81 48 75 49 77 50 31 51 80 52 74 53 73 54
REMARK SMILES IDX 32 56 62 57 43 58 61 59 44 60 47 61 60 62 78 63 45 64 46 65
REMARK SMILES IDX 59 67 79 68 48 69 33 70 34 71 42 72 35 73 41 74 36 75 37 76
REMARK SMILES IDX 38 77 39 78 40 79 63 80 64 81 72 82 65 83 71 84 66 85 67 86
REMARK SMILES IDX 68 87 69 88 70 89 49 90 50 91 58 92 51 93 57 94 52 95 53 96
REMARK SMILES IDX 54 97 55 98 56 99
REMARK H PARENT 17 5 21 36 77 55 47 66
REMARK Flexibility Score: inf
ROOT
ATOM      1  C   UNL A   1      35.813  23.312  23.279  1.00  0.00     0.117 C 
ENDROOT
BRANCH   1   2
ATOM      2  N   UNL A   1      34.422  22.931  23.159  1.00  0.00    -0.356 N 
ATOM      3  C   UNL A   1      33.319  23.472  23.754  1.00  0.00     0.225 C 
ATOM      4  O   UNL A   1      32.225  23.047  23.372  1.00  0.00    -0.275 OA
ATOM      5  H   UNL A   1      34.245  22.170  22.560  1.00  0.00     0.163 HD
BRANCH   3   6
ATOM      6  C   UNL A   1      33.432  24.467  24.913  1.00  0.00     0.106 C 
ATOM      7  N   UNL A   1      31.073  24.803  25.742  1.00  0.00    -0.335 N 
ATOM      8  C   UNL A   1      31.194  23.854  26.748  1.00  0.00     0.223 C 
ATOM      9  C   UNL A   1      32.250  25.445  25.117  1.00  0.00     0.128 C 
ATOM     10  O   UNL A   1      30.266  23.551  27.497  1.00  0.00    -0.275 OA
ATOM     11  C   UNL A   1      32.480  23.062  26.799  1.00  0.00     0.101 C 
ATOM     12  C   UNL A   1      33.708  23.766  26.252  1.00  0.00     0.026 C 
BRANCH   7  13
ATOM     13  C   UNL A   1      29.717  25.295  25.426  1.00  0.00     0.125 C 
BRANCH  13  14
ATOM     14  C   UNL A   1      29.432  25.748  23.977  1.00  0.00     0.057 C 
BRANCH  14  15
ATOM     15  C   UNL A   1      29.348  27.215  23.594  1.00  0.00    -0.042 A 
ATOM     16  C   UNL A   1      29.240  29.731  22.290  1.00  0.00     0.160 A 
ATOM     17  C   UNL A   1      28.080  29.131  22.779  1.00  0.00     0.051 A 
ATOM     18  C   UNL A   1      30.474  29.129  22.536  1.00  0.00     0.160 A 
ATOM     19  C   UNL A   1      28.141  27.893  23.429  1.00  0.00     0.008 A 
ATOM     20  C   UNL A   1      30.516  27.884  23.187  1.00  0.00     0.054 A 
BRANCH  16  21
ATOM     21  O   UNL A   1      29.152  30.927  21.632  1.00  0.00    -0.493 OA
ATOM     22  C   UNL A   1      28.009  30.973  20.773  1.00  0.00     0.278 C 
ENDBRANCH  16  21
BRANCH  18  23
ATOM     23  O   UNL A   1      31.701  29.643  22.204  1.00  0.00    -0.493 OA
ATOM     24  C   UNL A   1      32.820  28.872  22.630  1.00  0.00     0.278 C 
ENDBRANCH  18  23
ENDBRANCH  14  15
ENDBRANCH  13  14
ENDBRANCH   7  13
BRANCH   9  25
ATOM     25  C   UNL A   1      32.735  26.743  25.800  1.00  0.00    -0.025 A 
ATOM     26  C   UNL A   1      34.021  27.271  25.629  1.00  0.00     0.007 A 
ATOM     27  C   UNL A   1      31.866  27.413  26.693  1.00  0.00     0.007 A 
ATOM     28  C   UNL A   1      34.421  28.424  26.319  1.00  0.00     0.021 A 
ATOM     29  C   UNL A   1      32.253  28.579  27.357  1.00  0.00     0.021 A 
ATOM     30  C   UNL A   1      33.535  29.078  27.171  1.00  0.00     0.041 A 
ATOM     31  Cl  UNL A   1      34.026  30.499  28.005  1.00  0.00    -0.084 Cl
ENDBRANCH   9  25
ENDBRANCH   3   6
ENDBRANCH   1   2
BRANCH   1  32
ATOM     32  C   UNL A   1      36.709  22.293  23.951  1.00  0.00     0.042 C 
BRANCH  32  33
ATOM     33  C   UNL A   1      37.271  22.721  25.303  1.00  0.00     0.118 C 
BRANCH  33  34
ATOM     34  N   UNL A   1      38.611  22.226  25.597  1.00  0.00    -0.352 N 
ATOM     35  C   UNL A   1      39.708  22.817  26.182  1.00  0.00     0.251 C 
ATOM     36  H   UNL A   1      38.759  21.291  25.325  1.00  0.00     0.163 HD
ATOM     37  O   UNL A   1      40.785  22.223  26.177  1.00  0.00    -0.269 OA
BRANCH  35  38
ATOM     38  C   UNL A   1      39.650  24.178  26.752  1.00  0.00     0.039 A 
ATOM     39  C   UNL A   1      39.038  24.341  27.999  1.00  0.00     0.014 A 
ATOM     40  C   UNL A   1      40.237  25.273  26.124  1.00  0.00     0.014 A 
ATOM     41  C   UNL A   1      39.186  25.541  28.689  1.00  0.00     0.010 A 
ATOM     42  C   UNL A   1      40.509  26.415  26.865  1.00  0.00     0.010 A 
ATOM     43  C   UNL A   1      40.025  26.540  28.172  1.00  0.00    -0.014 A 
BRANCH  43  44
ATOM     44  C   UNL A   1      40.492  27.656  29.030  1.00  0.00     0.031 A 
ATOM     45  C   UNL A   1      39.631  28.863  29.256  1.00  0.00     0.074 A 
ATOM     46  C   UNL A   1      41.750  27.605  29.520  1.00  0.00     0.049 A 
ATOM     47  N   UNL A   1      39.906  29.951  29.926  1.00  0.00    -0.248 NA
ATOM     48  C   UNL A   1      38.306  28.871  28.614  1.00  0.00     0.031 C 
ATOM     49  C   UNL A   1      42.712  26.520  29.283  1.00  0.00     0.029 A 
ATOM     50  N   UNL A   1      42.438  28.479  30.319  1.00  0.00    -0.354 N 
ATOM     51  C   UNL A   1      38.801  30.780  29.767  1.00  0.00     0.074 A 
ATOM     52  C   UNL A   1      37.879  30.093  28.892  1.00  0.00     0.031 C 
ATOM     53  C   UNL A   1      43.837  26.766  29.972  1.00  0.00     0.029 A 
ATOM     54  C   UNL A   1      43.699  28.043  30.658  1.00  0.00     0.049 A 
ATOM     55  H   UNL A   1      42.066  29.339  30.622  1.00  0.00     0.167 HD
ATOM     56  C   UNL A   1      38.570  31.993  30.321  1.00  0.00     0.031 A 
ATOM     57  C   UNL A   1      44.637  28.605  31.440  1.00  0.00     0.031 A 
ATOM     58  C   UNL A   1      39.488  32.655  31.209  1.00  0.00     0.049 A 
ATOM     59  C   UNL A   1      44.332  29.923  32.090  1.00  0.00     0.074 A 
ATOM     60  C   UNL A   1      39.331  33.858  31.873  1.00  0.00     0.029 A 
ATOM     61  N   UNL A   1      40.736  32.162  31.562  1.00  0.00    -0.354 N 
ATOM     62  N   UNL A   1      43.253  30.661  31.979  1.00  0.00    -0.248 NA
ATOM     63  C   UNL A   1      45.361  30.477  32.977  1.00  0.00     0.031 C 
ATOM     64  C   UNL A   1      40.499  34.107  32.604  1.00  0.00     0.029 A 
ATOM     65  C   UNL A   1      41.365  33.039  32.428  1.00  0.00     0.049 A 
ATOM     66  H   UNL A   1      41.118  31.312  31.243  1.00  0.00     0.167 HD
ATOM     67  C   UNL A   1      43.467  31.763  32.796  1.00  0.00     0.074 A 
ATOM     68  C   UNL A   1      44.767  31.580  33.412  1.00  0.00     0.031 C 
ATOM     69  C   UNL A   1      42.665  32.835  33.015  1.00  0.00     0.031 A 
BRANCH  56  70
ATOM     70  C   UNL A   1      37.269  32.669  29.979  1.00  0.00    -0.014 A 
ATOM     71  C   UNL A   1      37.131  33.415  28.792  1.00  0.00     0.010 A 
ATOM     72  C   UNL A   1      36.168  32.557  30.846  1.00  0.00     0.010 A 
ATOM     73  C   UNL A   1      35.938  34.082  28.508  1.00  0.00     0.020 A 
ATOM     74  C   UNL A   1      34.961  33.200  30.552  1.00  0.00     0.020 A 
ATOM     75  C   UNL A   1      34.862  33.976  29.395  1.00  0.00     0.054 A 
BRANCH  75  76
ATOM     76  S   UNL A   1      33.322  34.852  29.002  1.00  0.00     0.124 S 
ATOM     77  O   UNL A   1      32.649  34.866  30.298  1.00  0.00    -0.237 OA
ATOM     78  O   UNL A   1      33.801  36.148  28.529  1.00  0.00    -0.237 OA
ATOM     79  O   UNL A   1      32.698  34.012  27.984  1.00  0.00    -0.744 OA
ENDBRANCH  75  76
ENDBRANCH  56  70
BRANCH  57  80
ATOM     80  C   UNL A   1      45.927  27.903  31.680  1.00  0.00    -0.014 A 
ATOM     81  C   UNL A   1      46.049  26.984  32.736  1.00  0.00     0.010 A 
ATOM     82  C   UNL A   1      47.031  28.126  30.836  1.00  0.00     0.010 A 
ATOM     83  C   UNL A   1      47.256  26.313  32.958  1.00  0.00     0.020 A 
ATOM     84  C   UNL A   1      48.231  27.437  31.038  1.00  0.00     0.020 A 
ATOM     85  C   UNL A   1      48.339  26.543  32.106  1.00  0.00     0.054 A 
BRANCH  85  86
ATOM     86  S   UNL A   1      49.878  25.620  32.375  1.00  0.00     0.124 S 
ATOM     87  O   UNL A   1      50.138  25.072  31.048  1.00  0.00    -0.237 OA
ATOM     88  O   UNL A   1      50.800  26.661  32.823  1.00  0.00    -0.237 OA
ATOM     89  O   UNL A   1      49.513  24.641  33.398  1.00  0.00    -0.744 OA
ENDBRANCH  85  86
ENDBRANCH  57  80
BRANCH  69  90
ATOM     90  C   UNL A   1      43.177  33.876  33.970  1.00  0.00    -0.014 A 
ATOM     91  C   UNL A   1      43.939  34.964  33.512  1.00  0.00     0.010 A 
ATOM     92  C   UNL A   1      42.873  33.770  35.338  1.00  0.00     0.010 A 
ATOM     93  C   UNL A   1      44.429  35.909  34.415  1.00  0.00     0.020 A 
ATOM     94  C   UNL A   1      43.340  34.729  36.241  1.00  0.00     0.020 A 
ATOM     95  C   UNL A   1      44.131  35.781  35.776  1.00  0.00     0.054 A 
BRANCH  95  96
ATOM     96  S   UNL A   1      44.762  37.029  36.930  1.00  0.00     0.124 S 
ATOM     97  O   UNL A   1      46.045  37.376  36.327  1.00  0.00    -0.237 OA
ATOM     98  O   UNL A   1      43.737  38.069  36.872  1.00  0.00    -0.237 OA
ATOM     99  O   UNL A   1      44.842  36.312  38.201  1.00  0.00    -0.744 OA
ENDBRANCH  95  96
ENDBRANCH  69  90
ENDBRANCH  43  44
ENDBRANCH  35  38
ENDBRANCH  33  34
ENDBRANCH  32  33
ENDBRANCH   1  32
TORSDOF 19
ENDMDL
MODEL 3
REMARK VINA RESULT:     -11.2      2.235      2.855
REMARK SMILES COc1ccc(CCN2C(=O)CC[C@@H](C(=O)NCCCNC(=O)c3ccc(-c4c5nc(c(-c6ccc(S(=O)(=O)[O-])cc6)c6ccc([nH]6)c(-c6ccc(S(=O)(=O)[O-])cc6)c6nc(c(-c7ccc(S(=O)(=O)[O-])cc7)c7ccc4[nH]7)C=C6)C=C5)cc3)[C@@H]2c2ccc(Cl)cc2)cc1OC
REMARK SMILES IDX 18 1 17 2 15 3 16 4 14 6 9 7 10 8 84 9 11 10 12 11 13 12
REMARK SMILES IDX 8 13 7 14 6 15 3 16 4 17 93 18 5 19 92 20 2 21 1 22 94 23
REMARK SMILES IDX 95 24 85 25 86 26 91 27 87 28 90 29 88 30 89 31 19 32 20 33
REMARK SMILES IDX 21 34 22 35 23 37 24 38 25 39 83 40 26 41 82 42 27 43 28 44
REMARK SMILES IDX 29 45 76 46 30 47 81 48 75 49 77 50 31 51 80 52 74 53 73 54
REMARK SMILES IDX 32 56 62 57 43 58 61 59 44 60 47 61 60 62 78 63 45 64 46 65
REMARK SMILES IDX 59 67 79 68 48 69 33 70 34 71 42 72 35 73 41 74 36 75 37 76
REMARK SMILES IDX 38 77 39 78 40 79 63 80 64 81 72 82 65 83 71 84 66 85 67 86
REMARK SMILES IDX 68 87 69 88 70 89 49 90 50 91 58 92 51 93 57 94 52 95 53 96
REMARK SMILES IDX 54 97 55 98 56 99
REMARK H PARENT 17 5 21 36 77 55 47 66
REMARK Flexibility Score: inf
ROOT
ATOM      1  C   UNL A   1      36.241  23.226  23.741  1.00  0.00     0.117 C 
ENDROOT
BRANCH   1   2
ATOM      2  N   UNL A   1      34.864  22.993  23.363  1.00  0.00    -0.356 N 
ATOM      3  C   UNL A   1      33.738  23.679  23.718  1.00  0.00     0.225 C 
ATOM      4  O   UNL A   1      32.694  23.358  23.142  1.00  0.00    -0.275 OA
ATOM      5  H   UNL A   1      34.717  22.229  22.761  1.00  0.00     0.163 HD
BRANCH   3   6
ATOM      6  C   UNL A   1      33.744  24.710  24.851  1.00  0.00     0.106 C 
ATOM      7  N   UNL A   1      31.382  24.745  25.739  1.00  0.00    -0.335 N 
ATOM      8  C   UNL A   1      31.656  23.848  26.762  1.00  0.00     0.223 C 
ATOM      9  C   UNL A   1      32.445  25.524  25.067  1.00  0.00     0.128 C 
ATOM     10  O   UNL A   1      30.797  23.440  27.544  1.00  0.00    -0.275 OA
ATOM     11  C   UNL A   1      33.039  23.238  26.794  1.00  0.00     0.101 C 
ATOM     12  C   UNL A   1      34.145  24.088  26.197  1.00  0.00     0.026 C 
BRANCH   7  13
ATOM     13  C   UNL A   1      29.964  25.040  25.450  1.00  0.00     0.125 C 
BRANCH  13  14
ATOM     14  C   UNL A   1      29.593  25.471  24.014  1.00  0.00     0.057 C 
BRANCH  14  15
ATOM     15  C   UNL A   1      29.246  26.908  23.670  1.00  0.00    -0.042 A 
ATOM     16  C   UNL A   1      28.606  29.378  22.431  1.00  0.00     0.160 A 
ATOM     17  C   UNL A   1      27.616  28.612  23.046  1.00  0.00     0.051 A 
ATOM     18  C   UNL A   1      29.937  28.969  22.516  1.00  0.00     0.160 A 
ATOM     19  C   UNL A   1      27.940  27.397  23.663  1.00  0.00     0.008 A 
ATOM     20  C   UNL A   1      30.243  27.745  23.136  1.00  0.00     0.054 A 
BRANCH  16  21
ATOM     21  O   UNL A   1      28.262  30.546  21.809  1.00  0.00    -0.493 OA
ATOM     22  C   UNL A   1      27.847  31.541  22.750  1.00  0.00     0.278 C 
ENDBRANCH  16  21
BRANCH  18  23
ATOM     23  O   UNL A   1      31.024  29.660  22.048  1.00  0.00    -0.493 OA
ATOM     24  C   UNL A   1      32.284  29.229  22.552  1.00  0.00     0.278 C 
ENDBRANCH  18  23
ENDBRANCH  14  15
ENDBRANCH  13  14
ENDBRANCH   7  13
BRANCH   9  25
ATOM     25  C   UNL A   1      32.765  26.892  25.706  1.00  0.00    -0.025 A 
ATOM     26  C   UNL A   1      33.913  27.637  25.403  1.00  0.00     0.007 A 
ATOM     27  C   UNL A   1      31.894  27.409  26.694  1.00  0.00     0.007 A 
ATOM     28  C   UNL A   1      34.176  28.848  26.058  1.00  0.00     0.021 A 
ATOM     29  C   UNL A   1      32.140  28.630  27.324  1.00  0.00     0.021 A 
ATOM     30  C   UNL A   1      33.286  29.345  27.007  1.00  0.00     0.041 A 
ATOM     31  Cl  UNL A   1      33.608  30.837  27.798  1.00  0.00    -0.084 Cl
ENDBRANCH   9  25
ENDBRANCH   3   6
ENDBRANCH   1   2
BRANCH   1  32
ATOM     32  C   UNL A   1      36.985  22.013  24.260  1.00  0.00     0.042 C 
BRANCH  32  33
ATOM     33  C   UNL A   1      37.649  22.198  25.621  1.00  0.00     0.118 C 
BRANCH  33  34
ATOM     34  N   UNL A   1      39.001  21.660  25.723  1.00  0.00    -0.352 N 
ATOM     35  C   UNL A   1      40.180  22.203  26.180  1.00  0.00     0.251 C 
ATOM     36  H   UNL A   1      39.086  20.732  25.406  1.00  0.00     0.163 HD
ATOM     37  O   UNL A   1      41.230  21.584  26.018  1.00  0.00    -0.269 OA
BRANCH  35  38
ATOM     38  C   UNL A   1      40.235  23.545  26.796  1.00  0.00     0.039 A 
ATOM     39  C   UNL A   1      40.808  23.660  28.067  1.00  0.00     0.014 A 
ATOM     40  C   UNL A   1      39.802  24.688  26.129  1.00  0.00     0.014 A 
ATOM     41  C   UNL A   1      41.117  24.919  28.572  1.00  0.00     0.010 A 
ATOM     42  C   UNL A   1      40.236  25.932  26.563  1.00  0.00     0.010 A 
ATOM     43  C   UNL A   1      40.939  26.054  27.767  1.00  0.00    -0.014 A 
BRANCH  43  44
ATOM     44  C   UNL A   1      41.583  27.342  28.120  1.00  0.00     0.031 A 
ATOM     45  C   UNL A   1      43.062  27.531  27.960  1.00  0.00     0.074 A 
ATOM     46  C   UNL A   1      40.822  28.306  28.682  1.00  0.00     0.049 A 
ATOM     47  N   UNL A   1      43.795  28.567  28.273  1.00  0.00    -0.248 NA
ATOM     48  C   UNL A   1      43.828  26.396  27.418  1.00  0.00     0.031 C 
ATOM     49  C   UNL A   1      39.387  28.196  28.973  1.00  0.00     0.029 A 
ATOM     50  N   UNL A   1      41.143  29.569  29.107  1.00  0.00    -0.354 N 
ATOM     51  C   UNL A   1      45.105  28.202  27.989  1.00  0.00     0.074 A 
ATOM     52  C   UNL A   1      45.074  26.831  27.533  1.00  0.00     0.031 C 
ATOM     53  C   UNL A   1      38.943  29.361  29.470  1.00  0.00     0.029 A 
ATOM     54  C   UNL A   1      40.065  30.283  29.578  1.00  0.00     0.049 A 
ATOM     55  H   UNL A   1      42.058  29.931  29.079  1.00  0.00     0.167 HD
ATOM     56  C   UNL A   1      46.229  28.952  28.079  1.00  0.00     0.031 A 
ATOM     57  C   UNL A   1      39.986  31.544  30.041  1.00  0.00     0.031 A 
ATOM     58  C   UNL A   1      46.243  30.323  28.514  1.00  0.00     0.049 A 
ATOM     59  C   UNL A   1      41.236  32.373  30.074  1.00  0.00     0.074 A 
ATOM     60  C   UNL A   1      47.314  31.194  28.587  1.00  0.00     0.029 A 
ATOM     61  N   UNL A   1      45.125  31.024  28.942  1.00  0.00    -0.354 N 
ATOM     62  N   UNL A   1      42.457  32.030  29.738  1.00  0.00    -0.248 NA
ATOM     63  C   UNL A   1      41.099  33.759  30.536  1.00  0.00     0.031 C 
ATOM     64  C   UNL A   1      46.849  32.414  29.092  1.00  0.00     0.029 A 
ATOM     65  C   UNL A   1      45.480  32.316  29.290  1.00  0.00     0.049 A 
ATOM     66  H   UNL A   1      44.213  30.657  28.990  1.00  0.00     0.167 HD
ATOM     67  C   UNL A   1      43.234  33.164  29.934  1.00  0.00     0.074 A 
ATOM     68  C   UNL A   1      42.338  34.208  30.394  1.00  0.00     0.031 C 
ATOM     69  C   UNL A   1      44.569  33.329  29.756  1.00  0.00     0.031 A 
BRANCH  56  70
ATOM     70  C   UNL A   1      47.527  28.294  27.692  1.00  0.00    -0.014 A 
ATOM     71  C   UNL A   1      48.002  28.353  26.368  1.00  0.00     0.010 A 
ATOM     72  C   UNL A   1      48.286  27.611  28.659  1.00  0.00     0.010 A 
ATOM     73  C   UNL A   1      49.180  27.696  26.006  1.00  0.00     0.020 A 
ATOM     74  C   UNL A   1      49.481  26.976  28.308  1.00  0.00     0.020 A 
ATOM     75  C   UNL A   1      49.909  27.004  26.978  1.00  0.00     0.054 A 
BRANCH  75  76
ATOM     76  S   UNL A   1      51.436  26.159  26.483  1.00  0.00     0.124 S 
ATOM     77  O   UNL A   1      51.219  24.817  27.016  1.00  0.00    -0.237 OA
ATOM     78  O   UNL A   1      51.407  26.269  25.028  1.00  0.00    -0.237 OA
ATOM     79  O   UNL A   1      52.486  26.930  27.143  1.00  0.00    -0.744 OA
ENDBRANCH  75  76
ENDBRANCH  56  70
BRANCH  57  80
ATOM     80  C   UNL A   1      38.674  32.102  30.465  1.00  0.00    -0.014 A 
ATOM     81  C   UNL A   1      37.828  32.719  29.527  1.00  0.00     0.010 A 
ATOM     82  C   UNL A   1      38.249  31.995  31.802  1.00  0.00     0.010 A 
ATOM     83  C   UNL A   1      36.589  33.234  29.919  1.00  0.00     0.020 A 
ATOM     84  C   UNL A   1      36.999  32.486  32.193  1.00  0.00     0.020 A 
ATOM     85  C   UNL A   1      36.182  33.114  31.250  1.00  0.00     0.054 A 
BRANCH  85  86
ATOM     86  S   UNL A   1      34.546  33.737  31.728  1.00  0.00     0.124 S 
ATOM     87  O   UNL A   1      33.913  33.953  30.431  1.00  0.00    -0.237 OA
ATOM     88  O   UNL A   1      34.005  32.636  32.522  1.00  0.00    -0.237 OA
ATOM     89  O   UNL A   1      34.852  34.949  32.486  1.00  0.00    -0.744 OA
ENDBRANCH  85  86
ENDBRANCH  57  80
BRANCH  69  90
ATOM     90  C   UNL A   1      45.123  34.694  30.050  1.00  0.00    -0.014 A 
ATOM     91  C   UNL A   1      45.597  35.021  31.332  1.00  0.00     0.010 A 
ATOM     92  C   UNL A   1      45.188  35.652  29.023  1.00  0.00     0.010 A 
ATOM     93  C   UNL A   1      46.087  36.301  31.595  1.00  0.00     0.020 A 
ATOM     94  C   UNL A   1      45.701  36.926  29.277  1.00  0.00     0.020 A 
ATOM     95  C   UNL A   1      46.129  37.247  30.567  1.00  0.00     0.054 A 
BRANCH  95  96
ATOM     96  S   UNL A   1      46.785  38.900  30.925  1.00  0.00     0.124 S 
ATOM     97  O   UNL A   1      47.690  38.629  32.038  1.00  0.00    -0.237 OA
ATOM     98  O   UNL A   1      47.428  39.272  29.667  1.00  0.00    -0.237 OA
ATOM     99  O   UNL A   1      45.594  39.676  31.263  1.00  0.00    -0.744 OA
ENDBRANCH  95  96
ENDBRANCH  69  90
ENDBRANCH  43  44
ENDBRANCH  35  38
ENDBRANCH  33  34
ENDBRANCH  32  33
ENDBRANCH   1  32
TORSDOF 19
ENDMDL
