MODEL 1
REMARK VINA RESULT:      -8.9      0.000      0.000
REMARK SMILES N#CCC[NH2+]C1(C(=O)NCCCNC(=O)c2ccc(-c3c4nc(c(-c5ccc(S(=O)(=O)[O-])cc5)c5ccc([nH]5)c(-c5ccc(S(=O)(=O)[O-])cc5)c5nc(c(-c6ccc(S(=O)(=O)[O-])cc6)c6ccc3[nH]6)C=C5)C=C4)cc2)CC1
REMARK SMILES IDX 10 1 9 2 7 3 8 4 6 6 76 7 77 8 5 9 4 12 3 13 2 14 1 15 11 16
REMARK SMILES IDX 12 17 13 18 14 19 15 21 16 22 17 23 75 24 18 25 74 26 19 27
REMARK SMILES IDX 20 28 21 29 68 30 22 31 73 32 67 33 69 34 23 35 72 36 66 37
REMARK SMILES IDX 65 38 24 40 54 41 35 42 53 43 36 44 39 45 52 46 70 47 37 48
REMARK SMILES IDX 38 49 51 51 71 52 40 53 25 54 26 55 34 56 27 57 33 58 28 59
REMARK SMILES IDX 29 60 30 61 31 62 32 63 55 64 56 65 64 66 57 67 63 68 58 69
REMARK SMILES IDX 59 70 60 71 61 72 62 73 41 74 42 75 50 76 43 77 49 78 44 79
REMARK SMILES IDX 45 80 46 81 47 82 48 83
REMARK H PARENT 9 5 5 10 5 11 13 20 69 39 39 50
REMARK Flexibility Score: inf
ROOT
ATOM      1  C   UNL A   1      35.053  33.747  30.616  1.00  0.00     0.118 C 
ENDROOT
BRANCH   1   2
ATOM      2  N   UNL A   1      34.179  33.096  31.575  1.00  0.00    -0.351 N 
ATOM      3  C   UNL A   1      34.005  33.388  32.899  1.00  0.00     0.281 C 
ATOM      4  O   UNL A   1      33.139  32.808  33.548  1.00  0.00    -0.268 OA
ATOM      5  H   UNL A   1      33.644  32.346  31.227  1.00  0.00     0.163 HD
BRANCH   3   6
ATOM      6  C   UNL A   1      34.816  34.486  33.537  1.00  0.00     0.176 C 
ATOM      7  C   UNL A   1      36.333  34.533  33.501  1.00  0.00     0.086 C 
ATOM      8  C   UNL A   1      35.661  34.032  34.732  1.00  0.00     0.086 C 
BRANCH   6   9
ATOM      9  N   UNL A   1      34.109  35.783  33.718  1.00  0.00    -0.333 N 
ATOM     10  H   UNL A   1      33.113  35.574  33.783  1.00  0.00     0.347 HD
ATOM     11  H   UNL A   1      34.544  36.186  34.548  1.00  0.00     0.347 HD
BRANCH   9  12
ATOM     12  C   UNL A   1      34.265  36.828  32.690  1.00  0.00     0.276 C 
BRANCH  12  13
ATOM     13  C   UNL A   1      33.071  37.019  31.722  1.00  0.00     0.181 C 
BRANCH  13  14
ATOM     14  C   UNL A   1      31.942  36.155  32.258  1.00  0.00     0.068 C 
ATOM     15  N   UNL A   1      31.004  35.438  32.702  1.00  0.00    -0.198 NA
ENDBRANCH  13  14
ENDBRANCH  12  13
ENDBRANCH   9  12
ENDBRANCH   6   9
ENDBRANCH   3   6
ENDBRANCH   1   2
BRANCH   1  16
ATOM     16  C   UNL A   1      34.303  34.137  29.355  1.00  0.00     0.042 C 
BRANCH  16  17
ATOM     17  C   UNL A   1      34.949  33.572  28.101  1.00  0.00     0.118 C 
BRANCH  17  18
ATOM     18  N   UNL A   1      34.252  32.398  27.592  1.00  0.00    -0.352 N 
ATOM     19  C   UNL A   1      34.642  31.083  27.716  1.00  0.00     0.251 C 
ATOM     20  H   UNL A   1      33.412  32.564  27.109  1.00  0.00     0.163 HD
ATOM     21  O   UNL A   1      34.047  30.189  27.131  1.00  0.00    -0.269 OA
BRANCH  19  22
ATOM     22  C   UNL A   1      35.828  30.792  28.547  1.00  0.00     0.039 A 
ATOM     23  C   UNL A   1      35.737  29.828  29.552  1.00  0.00     0.014 A 
ATOM     24  C   UNL A   1      37.053  31.389  28.233  1.00  0.00     0.014 A 
ATOM     25  C   UNL A   1      36.898  29.412  30.205  1.00  0.00     0.010 A 
ATOM     26  C   UNL A   1      38.215  30.919  28.833  1.00  0.00     0.010 A 
ATOM     27  C   UNL A   1      38.148  29.928  29.826  1.00  0.00    -0.014 A 
BRANCH  27  28
ATOM     28  C   UNL A   1      39.402  29.462  30.466  1.00  0.00     0.031 A 
ATOM     29  C   UNL A   1      39.902  30.150  31.707  1.00  0.00     0.074 A 
ATOM     30  C   UNL A   1      40.129  28.481  29.896  1.00  0.00     0.049 A 
ATOM     31  N   UNL A   1      41.009  29.947  32.374  1.00  0.00    -0.248 NA
ATOM     32  C   UNL A   1      39.062  31.231  32.247  1.00  0.00     0.031 C 
ATOM     33  C   UNL A   1      39.784  27.777  28.659  1.00  0.00     0.029 A 
ATOM     34  N   UNL A   1      41.319  27.915  30.279  1.00  0.00    -0.354 N 
ATOM     35  C   UNL A   1      41.010  30.890  33.393  1.00  0.00     0.074 A 
ATOM     36  C   UNL A   1      39.822  31.697  33.227  1.00  0.00     0.031 C 
ATOM     37  C   UNL A   1      40.732  26.862  28.395  1.00  0.00     0.029 A 
ATOM     38  C   UNL A   1      41.763  26.932  29.426  1.00  0.00     0.049 A 
ATOM     39  H   UNL A   1      41.809  28.187  31.088  1.00  0.00     0.167 HD
ATOM     40  C   UNL A   1      41.907  31.058  34.393  1.00  0.00     0.031 A 
ATOM     41  C   UNL A   1      42.876  26.174  29.470  1.00  0.00     0.031 A 
ATOM     42  C   UNL A   1      43.074  30.241  34.573  1.00  0.00     0.049 A 
ATOM     43  C   UNL A   1      43.838  26.346  30.612  1.00  0.00     0.074 A 
ATOM     44  C   UNL A   1      44.014  30.290  35.588  1.00  0.00     0.029 A 
ATOM     45  N   UNL A   1      43.460  29.220  33.717  1.00  0.00    -0.354 N 
ATOM     46  N   UNL A   1      43.787  27.200  31.607  1.00  0.00    -0.248 NA
ATOM     47  C   UNL A   1      44.996  25.443  30.647  1.00  0.00     0.031 C 
ATOM     48  C   UNL A   1      44.985  29.315  35.329  1.00  0.00     0.029 A 
ATOM     49  C   UNL A   1      44.628  28.636  34.174  1.00  0.00     0.049 A 
ATOM     50  H   UNL A   1      42.974  28.951  32.904  1.00  0.00     0.167 HD
ATOM     51  C   UNL A   1      44.898  26.925  32.397  1.00  0.00     0.074 A 
ATOM     52  C   UNL A   1      45.592  25.817  31.772  1.00  0.00     0.031 C 
ATOM     53  C   UNL A   1      45.304  27.535  33.537  1.00  0.00     0.031 A 
BRANCH  40  54
ATOM     54  C   UNL A   1      41.642  32.176  35.365  1.00  0.00    -0.014 A 
ATOM     55  C   UNL A   1      40.936  31.942  36.559  1.00  0.00     0.010 A 
ATOM     56  C   UNL A   1      42.088  33.477  35.075  1.00  0.00     0.010 A 
ATOM     57  C   UNL A   1      40.624  33.002  37.415  1.00  0.00     0.020 A 
ATOM     58  C   UNL A   1      41.801  34.536  35.943  1.00  0.00     0.020 A 
ATOM     59  C   UNL A   1      41.049  34.294  37.095  1.00  0.00     0.054 A 
BRANCH  59  60
ATOM     60  S   UNL A   1      40.618  35.657  38.210  1.00  0.00     0.124 S 
ATOM     61  O   UNL A   1      40.217  36.699  37.267  1.00  0.00    -0.237 OA
ATOM     62  O   UNL A   1      39.536  35.090  39.013  1.00  0.00    -0.237 OA
ATOM     63  O   UNL A   1      41.858  35.914  38.937  1.00  0.00    -0.744 OA
ENDBRANCH  59  60
ENDBRANCH  40  54
BRANCH  41  64
ATOM     64  C   UNL A   1      43.120  25.164  28.406  1.00  0.00    -0.014 A 
ATOM     65  C   UNL A   1      43.915  25.483  27.290  1.00  0.00     0.010 A 
ATOM     66  C   UNL A   1      42.591  23.866  28.521  1.00  0.00     0.010 A 
ATOM     67  C   UNL A   1      44.172  24.524  26.307  1.00  0.00     0.020 A 
ATOM     68  C   UNL A   1      42.863  22.898  27.550  1.00  0.00     0.020 A 
ATOM     69  C   UNL A   1      43.647  23.236  26.445  1.00  0.00     0.054 A 
BRANCH  69  70
ATOM     70  S   UNL A   1      44.058  21.982  25.199  1.00  0.00     0.124 S 
ATOM     71  O   UNL A   1      45.443  21.665  25.532  1.00  0.00    -0.237 OA
ATOM     72  O   UNL A   1      43.083  20.929  25.475  1.00  0.00    -0.237 OA
ATOM     73  O   UNL A   1      43.860  22.685  23.933  1.00  0.00    -0.744 OA
ENDBRANCH  69  70
ENDBRANCH  41  64
BRANCH  53  74
ATOM     74  C   UNL A   1      46.547  27.006  34.197  1.00  0.00    -0.014 A 
ATOM     75  C   UNL A   1      46.479  25.954  35.127  1.00  0.00     0.010 A 
ATOM     76  C   UNL A   1      47.802  27.525  33.833  1.00  0.00     0.010 A 
ATOM     77  C   UNL A   1      47.647  25.444  35.699  1.00  0.00     0.020 A 
ATOM     78  C   UNL A   1      48.973  27.004  34.387  1.00  0.00     0.020 A 
ATOM     79  C   UNL A   1      48.887  25.974  35.326  1.00  0.00     0.054 A 
BRANCH  79  80
ATOM     80  S   UNL A   1      50.395  25.262  36.040  1.00  0.00     0.124 S 
ATOM     81  O   UNL A   1      49.978  24.983  37.411  1.00  0.00    -0.237 OA
ATOM     82  O   UNL A   1      50.626  24.088  35.202  1.00  0.00    -0.237 OA
ATOM     83  O   UNL A   1      51.383  26.328  35.893  1.00  0.00    -0.744 OA
ENDBRANCH  79  80
ENDBRANCH  53  74
ENDBRANCH  27  28
ENDBRANCH  19  22
ENDBRANCH  17  18
ENDBRANCH  16  17
ENDBRANCH   1  16
TORSDOF 17
ENDMDL
MODEL 2
REMARK VINA RESULT:      -8.6      4.321     10.559
REMARK SMILES N#CCC[NH2+]C1(C(=O)NCCCNC(=O)c2ccc(-c3c4nc(c(-c5ccc(S(=O)(=O)[O-])cc5)c5ccc([nH]5)c(-c5ccc(S(=O)(=O)[O-])cc5)c5nc(c(-c6ccc(S(=O)(=O)[O-])cc6)c6ccc3[nH]6)C=C5)C=C4)cc2)CC1
REMARK SMILES IDX 10 1 9 2 7 3 8 4 6 6 76 7 77 8 5 9 4 12 3 13 2 14 1 15 11 16
REMARK SMILES IDX 12 17 13 18 14 19 15 21 16 22 17 23 75 24 18 25 74 26 19 27
REMARK SMILES IDX 20 28 21 29 68 30 22 31 73 32 67 33 69 34 23 35 72 36 66 37
REMARK SMILES IDX 65 38 24 40 54 41 35 42 53 43 36 44 39 45 52 46 70 47 37 48
REMARK SMILES IDX 38 49 51 51 71 52 40 53 25 54 26 55 34 56 27 57 33 58 28 59
REMARK SMILES IDX 29 60 30 61 31 62 32 63 55 64 56 65 64 66 57 67 63 68 58 69
REMARK SMILES IDX 59 70 60 71 61 72 62 73 41 74 42 75 50 76 43 77 49 78 44 79
REMARK SMILES IDX 45 80 46 81 47 82 48 83
REMARK H PARENT 9 5 5 10 5 11 13 20 69 39 39 50
REMARK Flexibility Score: inf
ROOT
ATOM      1  C   UNL A   1      34.340  23.702  25.427  1.00  0.00     0.118 C 
ENDROOT
BRANCH   1   2
ATOM      2  N   UNL A   1      33.199  23.585  26.319  1.00  0.00    -0.351 N 
ATOM      3  C   UNL A   1      32.163  24.459  26.491  1.00  0.00     0.281 C 
ATOM      4  O   UNL A   1      31.215  24.156  27.210  1.00  0.00    -0.268 OA
ATOM      5  H   UNL A   1      33.170  22.770  26.872  1.00  0.00     0.163 HD
BRANCH   3   6
ATOM      6  C   UNL A   1      32.145  25.758  25.728  1.00  0.00     0.176 C 
ATOM      7  C   UNL A   1      32.866  27.011  26.192  1.00  0.00     0.086 C 
ATOM      8  C   UNL A   1      31.401  26.895  26.436  1.00  0.00     0.086 C 
BRANCH   6   9
ATOM      9  N   UNL A   1      31.876  25.640  24.268  1.00  0.00    -0.333 N 
ATOM     10  H   UNL A   1      31.840  24.644  24.051  1.00  0.00     0.347 HD
ATOM     11  H   UNL A   1      31.013  26.166  24.134  1.00  0.00     0.347 HD
BRANCH   9  12
ATOM     12  C   UNL A   1      32.822  26.256  23.319  1.00  0.00     0.276 C 
BRANCH  12  13
ATOM     13  C   UNL A   1      32.224  27.292  22.336  1.00  0.00     0.181 C 
BRANCH  13  14
ATOM     14  C   UNL A   1      30.772  27.485  22.744  1.00  0.00     0.068 C 
ATOM     15  N   UNL A   1      29.568  27.644  23.083  1.00  0.00    -0.198 NA
ENDBRANCH  13  14
ENDBRANCH  12  13
ENDBRANCH   9  12
ENDBRANCH   6   9
ENDBRANCH   3   6
ENDBRANCH   1   2
BRANCH   1  16
ATOM     16  C   UNL A   1      35.548  22.962  25.971  1.00  0.00     0.042 C 
BRANCH  16  17
ATOM     17  C   UNL A   1      36.858  23.565  25.489  1.00  0.00     0.118 C 
BRANCH  17  18
ATOM     18  N   UNL A   1      37.983  22.652  25.639  1.00  0.00    -0.352 N 
ATOM     19  C   UNL A   1      39.215  22.935  26.186  1.00  0.00     0.251 C 
ATOM     20  H   UNL A   1      37.847  21.733  25.314  1.00  0.00     0.163 HD
ATOM     21  O   UNL A   1      40.131  22.125  26.136  1.00  0.00    -0.269 OA
BRANCH  19  22
ATOM     22  C   UNL A   1      39.406  24.264  26.801  1.00  0.00     0.039 A 
ATOM     23  C   UNL A   1      38.992  24.473  28.117  1.00  0.00     0.014 A 
ATOM     24  C   UNL A   1      40.113  25.250  26.104  1.00  0.00     0.014 A 
ATOM     25  C   UNL A   1      39.346  25.659  28.763  1.00  0.00     0.010 A 
ATOM     26  C   UNL A   1      40.526  26.395  26.774  1.00  0.00     0.010 A 
ATOM     27  C   UNL A   1      40.145  26.612  28.108  1.00  0.00    -0.014 A 
BRANCH  27  28
ATOM     28  C   UNL A   1      40.580  27.854  28.791  1.00  0.00     0.031 A 
ATOM     29  C   UNL A   1      41.948  27.919  29.413  1.00  0.00     0.074 A 
ATOM     30  C   UNL A   1      39.726  28.888  28.922  1.00  0.00     0.049 A 
ATOM     31  N   UNL A   1      42.489  28.879  30.118  1.00  0.00    -0.248 NA
ATOM     32  C   UNL A   1      42.806  26.734  29.249  1.00  0.00     0.031 C 
ATOM     33  C   UNL A   1      38.351  28.925  28.418  1.00  0.00     0.029 A 
ATOM     34  N   UNL A   1      39.888  30.106  29.533  1.00  0.00    -0.354 N 
ATOM     35  C   UNL A   1      43.736  28.404  30.503  1.00  0.00     0.074 A 
ATOM     36  C   UNL A   1      43.851  27.054  29.997  1.00  0.00     0.031 C 
ATOM     37  C   UNL A   1      37.802  30.112  28.726  1.00  0.00     0.029 A 
ATOM     38  C   UNL A   1      38.773  30.909  29.469  1.00  0.00     0.049 A 
ATOM     39  H   UNL A   1      40.724  30.380  29.976  1.00  0.00     0.167 HD
ATOM     40  C   UNL A   1      44.710  29.040  31.195  1.00  0.00     0.031 A 
ATOM     41  C   UNL A   1      38.558  32.146  29.957  1.00  0.00     0.031 A 
ATOM     42  C   UNL A   1      44.606  30.390  31.675  1.00  0.00     0.049 A 
ATOM     43  C   UNL A   1      39.667  32.853  30.685  1.00  0.00     0.074 A 
ATOM     44  C   UNL A   1      45.558  31.147  32.335  1.00  0.00     0.029 A 
ATOM     45  N   UNL A   1      43.480  31.187  31.543  1.00  0.00    -0.354 N 
ATOM     46  N   UNL A   1      40.867  32.412  30.981  1.00  0.00    -0.248 NA
ATOM     47  C   UNL A   1      39.400  34.227  31.131  1.00  0.00     0.031 C 
ATOM     48  C   UNL A   1      44.996  32.395  32.627  1.00  0.00     0.029 A 
ATOM     49  C   UNL A   1      43.708  32.426  32.116  1.00  0.00     0.049 A 
ATOM     50  H   UNL A   1      42.641  30.912  31.107  1.00  0.00     0.167 HD
ATOM     51  C   UNL A   1      41.505  33.461  31.632  1.00  0.00     0.074 A 
ATOM     52  C   UNL A   1      40.563  34.563  31.673  1.00  0.00     0.031 C 
ATOM     53  C   UNL A   1      42.757  33.508  32.148  1.00  0.00     0.031 A 
BRANCH  40  54
ATOM     54  C   UNL A   1      45.971  28.265  31.464  1.00  0.00    -0.014 A 
ATOM     55  C   UNL A   1      46.110  27.495  32.634  1.00  0.00     0.010 A 
ATOM     56  C   UNL A   1      47.035  28.317  30.546  1.00  0.00     0.010 A 
ATOM     57  C   UNL A   1      47.315  26.845  32.913  1.00  0.00     0.020 A 
ATOM     58  C   UNL A   1      48.233  27.644  30.809  1.00  0.00     0.020 A 
ATOM     59  C   UNL A   1      48.373  26.934  32.004  1.00  0.00     0.054 A 
BRANCH  59  60
ATOM     60  S   UNL A   1      49.932  26.097  32.395  1.00  0.00     0.124 S 
ATOM     61  O   UNL A   1      50.917  27.107  32.014  1.00  0.00    -0.237 OA
ATOM     62  O   UNL A   1      49.816  25.846  33.831  1.00  0.00    -0.237 OA
ATOM     63  O   UNL A   1      49.904  24.903  31.555  1.00  0.00    -0.744 OA
ENDBRANCH  59  60
ENDBRANCH  40  54
BRANCH  41  64
ATOM     64  C   UNL A   1      37.240  32.802  29.743  1.00  0.00    -0.014 A 
ATOM     65  C   UNL A   1      36.302  32.874  30.788  1.00  0.00     0.010 A 
ATOM     66  C   UNL A   1      36.931  33.392  28.504  1.00  0.00     0.010 A 
ATOM     67  C   UNL A   1      35.077  33.519  30.598  1.00  0.00     0.020 A 
ATOM     68  C   UNL A   1      35.716  34.056  28.316  1.00  0.00     0.020 A 
ATOM     69  C   UNL A   1      34.793  34.109  29.364  1.00  0.00     0.054 A 
BRANCH  69  70
ATOM     70  S   UNL A   1      33.232  35.012  29.160  1.00  0.00     0.124 S 
ATOM     71  O   UNL A   1      32.674  34.962  30.508  1.00  0.00    -0.237 OA
ATOM     72  O   UNL A   1      33.681  36.327  28.709  1.00  0.00    -0.237 OA
ATOM     73  O   UNL A   1      32.517  34.230  28.153  1.00  0.00    -0.744 OA
ENDBRANCH  69  70
ENDBRANCH  41  64
BRANCH  53  74
ATOM     74  C   UNL A   1      43.193  34.799  32.784  1.00  0.00    -0.014 A 
ATOM     75  C   UNL A   1      43.699  35.854  32.005  1.00  0.00     0.010 A 
ATOM     76  C   UNL A   1      43.033  34.978  34.170  1.00  0.00     0.010 A 
ATOM     77  C   UNL A   1      44.059  37.062  32.607  1.00  0.00     0.020 A 
ATOM     78  C   UNL A   1      43.372  36.192  34.771  1.00  0.00     0.020 A 
ATOM     79  C   UNL A   1      43.894  37.223  33.987  1.00  0.00     0.054 A 
BRANCH  79  80
ATOM     80  S   UNL A   1      44.317  38.818  34.740  1.00  0.00     0.124 S 
ATOM     81  O   UNL A   1      44.104  38.550  36.159  1.00  0.00    -0.237 OA
ATOM     82  O   UNL A   1      45.709  39.007  34.338  1.00  0.00    -0.237 OA
ATOM     83  O   UNL A   1      43.369  39.749  34.132  1.00  0.00    -0.744 OA
ENDBRANCH  79  80
ENDBRANCH  53  74
ENDBRANCH  27  28
ENDBRANCH  19  22
ENDBRANCH  17  18
ENDBRANCH  16  17
ENDBRANCH   1  16
TORSDOF 17
ENDMDL
MODEL 3
REMARK VINA RESULT:      -8.5      5.675      7.840
REMARK SMILES N#CCC[NH2+]C1(C(=O)NCCCNC(=O)c2ccc(-c3c4nc(c(-c5ccc(S(=O)(=O)[O-])cc5)c5ccc([nH]5)c(-c5ccc(S(=O)(=O)[O-])cc5)c5nc(c(-c6ccc(S(=O)(=O)[O-])cc6)c6ccc3[nH]6)C=C5)C=C4)cc2)CC1
REMARK SMILES IDX 10 1 9 2 7 3 8 4 6 6 76 7 77 8 5 9 4 12 3 13 2 14 1 15 11 16
REMARK SMILES IDX 12 17 13 18 14 19 15 21 16 22 17 23 75 24 18 25 74 26 19 27
REMARK SMILES IDX 20 28 21 29 68 30 22 31 73 32 67 33 69 34 23 35 72 36 66 37
REMARK SMILES IDX 65 38 24 40 54 41 35 42 53 43 36 44 39 45 52 46 70 47 37 48
REMARK SMILES IDX 38 49 51 51 71 52 40 53 25 54 26 55 34 56 27 57 33 58 28 59
REMARK SMILES IDX 29 60 30 61 31 62 32 63 55 64 56 65 64 66 57 67 63 68 58 69
REMARK SMILES IDX 59 70 60 71 61 72 62 73 41 74 42 75 50 76 43 77 49 78 44 79
REMARK SMILES IDX 45 80 46 81 47 82 48 83
REMARK H PARENT 9 5 5 10 5 11 13 20 69 39 39 50
REMARK Flexibility Score: inf
ROOT
ATOM      1  C   UNL A   1      33.492  29.728  27.259  1.00  0.00     0.118 C 
ENDROOT
BRANCH   1   2
ATOM      2  N   UNL A   1      32.571  28.655  27.589  1.00  0.00    -0.351 N 
ATOM      3  C   UNL A   1      31.853  27.862  26.739  1.00  0.00     0.281 C 
ATOM      4  O   UNL A   1      31.199  26.920  27.180  1.00  0.00    -0.268 OA
ATOM      5  H   UNL A   1      32.447  28.477  28.550  1.00  0.00     0.163 HD
BRANCH   3   6
ATOM      6  C   UNL A   1      31.937  28.089  25.251  1.00  0.00     0.176 C 
ATOM      7  C   UNL A   1      31.172  29.184  24.529  1.00  0.00     0.086 C 
ATOM      8  C   UNL A   1      30.638  27.794  24.494  1.00  0.00     0.086 C 
BRANCH   6   9
ATOM      9  N   UNL A   1      33.178  27.593  24.596  1.00  0.00    -0.333 N 
ATOM     10  H   UNL A   1      33.782  27.231  25.334  1.00  0.00     0.347 HD
ATOM     11  H   UNL A   1      32.840  26.916  23.912  1.00  0.00     0.347 HD
BRANCH   9  12
ATOM     12  C   UNL A   1      33.986  28.534  23.798  1.00  0.00     0.276 C 
BRANCH  12  13
ATOM     13  C   UNL A   1      34.094  28.226  22.284  1.00  0.00     0.181 C 
BRANCH  13  14
ATOM     14  C   UNL A   1      33.342  26.926  22.054  1.00  0.00     0.068 C 
ATOM     15  N   UNL A   1      32.718  25.847  21.864  1.00  0.00    -0.198 NA
ENDBRANCH  13  14
ENDBRANCH  12  13
ENDBRANCH   9  12
ENDBRANCH   6   9
ENDBRANCH   3   6
ENDBRANCH   1   2
BRANCH   1  16
ATOM     16  C   UNL A   1      34.931  29.327  27.526  1.00  0.00     0.042 C 
BRANCH  16  17
ATOM     17  C   UNL A   1      35.724  30.436  28.199  1.00  0.00     0.118 C 
BRANCH  17  18
ATOM     18  N   UNL A   1      35.500  30.492  29.637  1.00  0.00    -0.352 N 
ATOM     19  C   UNL A   1      36.432  30.296  30.631  1.00  0.00     0.251 C 
ATOM     20  H   UNL A   1      34.582  30.691  29.929  1.00  0.00     0.163 HD
ATOM     21  O   UNL A   1      36.101  30.232  31.807  1.00  0.00    -0.269 OA
BRANCH  19  22
ATOM     22  C   UNL A   1      37.843  30.124  30.227  1.00  0.00     0.039 A 
ATOM     23  C   UNL A   1      38.786  29.750  31.185  1.00  0.00     0.014 A 
ATOM     24  C   UNL A   1      38.188  30.211  28.874  1.00  0.00     0.014 A 
ATOM     25  C   UNL A   1      40.073  29.398  30.774  1.00  0.00     0.010 A 
ATOM     26  C   UNL A   1      39.446  29.789  28.463  1.00  0.00     0.010 A 
ATOM     27  C   UNL A   1      40.400  29.381  29.408  1.00  0.00    -0.014 A 
BRANCH  27  28
ATOM     28  C   UNL A   1      41.744  28.958  28.942  1.00  0.00     0.031 A 
ATOM     29  C   UNL A   1      42.851  29.972  28.851  1.00  0.00     0.074 A 
ATOM     30  C   UNL A   1      41.949  27.692  28.529  1.00  0.00     0.049 A 
ATOM     31  N   UNL A   1      44.069  29.825  28.398  1.00  0.00    -0.248 NA
ATOM     32  C   UNL A   1      42.533  31.340  29.293  1.00  0.00     0.031 C 
ATOM     33  C   UNL A   1      40.940  26.630  28.511  1.00  0.00     0.029 A 
ATOM     34  N   UNL A   1      43.076  27.087  28.033  1.00  0.00    -0.354 N 
ATOM     35  C   UNL A   1      44.652  31.082  28.478  1.00  0.00     0.074 A 
ATOM     36  C   UNL A   1      43.641  31.989  28.973  1.00  0.00     0.031 C 
ATOM     37  C   UNL A   1      41.499  25.501  28.043  1.00  0.00     0.029 A 
ATOM     38  C   UNL A   1      42.895  25.764  27.706  1.00  0.00     0.049 A 
ATOM     39  H   UNL A   1      43.934  27.557  27.922  1.00  0.00     0.167 HD
ATOM     40  C   UNL A   1      45.924  31.449  28.188  1.00  0.00     0.031 A 
ATOM     41  C   UNL A   1      43.756  24.865  27.190  1.00  0.00     0.031 A 
ATOM     42  C   UNL A   1      46.935  30.543  27.720  1.00  0.00     0.049 A 
ATOM     43  C   UNL A   1      45.175  25.280  26.916  1.00  0.00     0.074 A 
ATOM     44  C   UNL A   1      48.268  30.801  27.454  1.00  0.00     0.029 A 
ATOM     45  N   UNL A   1      46.725  29.199  27.452  1.00  0.00    -0.354 N 
ATOM     46  N   UNL A   1      45.728  26.461  27.062  1.00  0.00    -0.248 NA
ATOM     47  C   UNL A   1      46.087  24.240  26.423  1.00  0.00     0.031 C 
ATOM     48  C   UNL A   1      48.858  29.617  26.998  1.00  0.00     0.029 A 
ATOM     49  C   UNL A   1      47.901  28.614  27.016  1.00  0.00     0.049 A 
ATOM     50  H   UNL A   1      45.866  28.730  27.557  1.00  0.00     0.167 HD
ATOM     51  C   UNL A   1      47.060  26.301  26.696  1.00  0.00     0.074 A 
ATOM     52  C   UNL A   1      47.231  24.907  26.336  1.00  0.00     0.031 C 
ATOM     53  C   UNL A   1      48.050  27.226  26.662  1.00  0.00     0.031 A 
BRANCH  40  54
ATOM     54  C   UNL A   1      46.273  32.900  28.376  1.00  0.00    -0.014 A 
ATOM     55  C   UNL A   1      46.103  33.825  27.330  1.00  0.00     0.010 A 
ATOM     56  C   UNL A   1      46.793  33.342  29.605  1.00  0.00     0.010 A 
ATOM     57  C   UNL A   1      46.506  35.154  27.489  1.00  0.00     0.020 A 
ATOM     58  C   UNL A   1      47.172  34.677  29.777  1.00  0.00     0.020 A 
ATOM     59  C   UNL A   1      47.050  35.568  28.707  1.00  0.00     0.054 A 
BRANCH  59  60
ATOM     60  S   UNL A   1      47.584  37.291  28.885  1.00  0.00     0.124 S 
ATOM     61  O   UNL A   1      49.030  37.175  28.714  1.00  0.00    -0.237 OA
ATOM     62  O   UNL A   1      46.876  37.964  27.797  1.00  0.00    -0.237 OA
ATOM     63  O   UNL A   1      47.140  37.653  30.228  1.00  0.00    -0.744 OA
ENDBRANCH  59  60
ENDBRANCH  40  54
BRANCH  41  64
ATOM     64  C   UNL A   1      43.298  23.475  26.929  1.00  0.00    -0.014 A 
ATOM     65  C   UNL A   1      43.065  23.038  25.613  1.00  0.00     0.010 A 
ATOM     66  C   UNL A   1      43.131  22.568  27.992  1.00  0.00     0.010 A 
ATOM     67  C   UNL A   1      42.667  21.721  25.364  1.00  0.00     0.020 A 
ATOM     68  C   UNL A   1      42.754  21.245  27.745  1.00  0.00     0.020 A 
ATOM     69  C   UNL A   1      42.517  20.832  26.432  1.00  0.00     0.054 A 
BRANCH  69  70
ATOM     70  S   UNL A   1      42.079  19.106  26.083  1.00  0.00     0.124 S 
ATOM     71  O   UNL A   1      42.907  18.811  24.919  1.00  0.00    -0.237 OA
ATOM     72  O   UNL A   1      42.458  18.425  27.319  1.00  0.00    -0.237 OA
ATOM     73  O   UNL A   1      40.640  19.166  25.833  1.00  0.00    -0.744 OA
ENDBRANCH  69  70
ENDBRANCH  41  64
BRANCH  53  74
ATOM     74  C   UNL A   1      49.416  26.758  26.240  1.00  0.00    -0.014 A 
ATOM     75  C   UNL A   1      49.903  27.022  24.949  1.00  0.00     0.010 A 
ATOM     76  C   UNL A   1      50.243  26.105  27.171  1.00  0.00     0.010 A 
ATOM     77  C   UNL A   1      51.191  26.619  24.587  1.00  0.00     0.020 A 
ATOM     78  C   UNL A   1      51.539  25.719  26.819  1.00  0.00     0.020 A 
ATOM     79  C   UNL A   1      52.000  25.969  25.525  1.00  0.00     0.054 A 
BRANCH  79  80
ATOM     80  S   UNL A   1      53.688  25.503  25.051  1.00  0.00     0.124 S 
ATOM     81  O   UNL A   1      53.707  24.076  25.364  1.00  0.00    -0.237 OA
ATOM     82  O   UNL A   1      53.729  25.835  23.629  1.00  0.00    -0.237 OA
ATOM     83  O   UNL A   1      54.529  26.339  25.904  1.00  0.00    -0.744 OA
ENDBRANCH  79  80
ENDBRANCH  53  74
ENDBRANCH  27  28
ENDBRANCH  19  22
ENDBRANCH  17  18
ENDBRANCH  16  17
ENDBRANCH   1  16
TORSDOF 17
ENDMDL
