MODEL 1
REMARK VINA RESULT:     -11.4      0.000      0.000
REMARK SMILES O=C(NCCCNC(=O)C1(CCc2ccccn2)CCCCC1)c1ccc(-c2c3nc(c(-c4ccc(S(=O)(=O)[O-])cc4)c4ccc([nH]4)c(-c4ccc(S(=O)(=O)[O-])cc4)c4nc(c(-c5ccc(S(=O)(=O)[O-])cc5)c5ccc2[nH]5)C=C4)C=C3)cc1
REMARK SMILES IDX 5 1 4 2 3 3 1 4 2 5 24 7 25 8 83 9 26 10 82 11 27 12 28 13
REMARK SMILES IDX 29 14 76 15 30 16 81 17 75 18 77 19 31 20 80 21 74 22 73 23
REMARK SMILES IDX 32 25 62 26 43 27 61 28 44 29 47 30 60 31 78 32 45 33 46 34
REMARK SMILES IDX 59 36 79 37 48 38 33 39 34 40 42 41 35 42 41 43 36 44 37 45
REMARK SMILES IDX 38 46 39 47 40 48 63 49 64 50 72 51 65 52 71 53 66 54 67 55
REMARK SMILES IDX 68 56 69 57 70 58 49 59 50 60 58 61 51 62 57 63 52 64 53 65
REMARK SMILES IDX 54 66 55 67 56 68 6 69 7 70 8 71 9 73 10 74 19 75 23 76
REMARK SMILES IDX 20 77 22 78 21 79 11 80 12 81 13 82 14 83 18 84 15 85 17 86
REMARK SMILES IDX 16 87
REMARK H PARENT 3 6 77 24 47 35 7 72
REMARK Flexibility Score: inf
ROOT
ATOM      1  C   UNL A   1      37.898  20.332  24.999  1.00  0.00     0.042 C 
ENDROOT
BRANCH   1   2
ATOM      2  C   UNL A   1      39.134  20.702  25.805  1.00  0.00     0.118 C 
BRANCH   2   3
ATOM      3  N   UNL A   1      40.007  19.560  25.999  1.00  0.00    -0.352 N 
ATOM      4  O   UNL A   1      41.948  18.439  25.990  1.00  0.00    -0.269 OA
ATOM      5  C   UNL A   1      41.375  19.519  26.113  1.00  0.00     0.251 C 
ATOM      6  H   UNL A   1      39.554  18.688  26.058  1.00  0.00     0.163 HD
BRANCH   5   7
ATOM      7  C   UNL A   1      42.166  20.747  26.386  1.00  0.00     0.039 A 
ATOM      8  C   UNL A   1      42.663  21.546  25.352  1.00  0.00     0.014 A 
ATOM      9  C   UNL A   1      42.302  21.173  27.712  1.00  0.00     0.014 A 
ATOM     10  C   UNL A   1      43.335  22.736  25.642  1.00  0.00     0.010 A 
ATOM     11  C   UNL A   1      42.919  22.394  28.000  1.00  0.00     0.010 A 
ATOM     12  C   UNL A   1      43.430  23.193  26.966  1.00  0.00    -0.014 A 
BRANCH  12  13
ATOM     13  C   UNL A   1      43.911  24.572  27.246  1.00  0.00     0.031 A 
ATOM     14  C   UNL A   1      42.965  25.679  27.617  1.00  0.00     0.074 A 
ATOM     15  C   UNL A   1      45.230  24.829  27.105  1.00  0.00     0.049 A 
ATOM     16  N   UNL A   1      43.232  26.940  27.846  1.00  0.00    -0.248 NA
ATOM     17  C   UNL A   1      41.540  25.336  27.740  1.00  0.00     0.031 C 
ATOM     18  C   UNL A   1      46.243  23.844  26.712  1.00  0.00     0.029 A 
ATOM     19  N   UNL A   1      45.943  25.990  27.262  1.00  0.00    -0.354 N 
ATOM     20  C   UNL A   1      42.013  27.546  28.122  1.00  0.00     0.074 A 
ATOM     21  C   UNL A   1      41.000  26.515  28.022  1.00  0.00     0.031 C 
ATOM     22  C   UNL A   1      47.444  24.440  26.670  1.00  0.00     0.029 A 
ATOM     23  C   UNL A   1      47.283  25.855  26.978  1.00  0.00     0.049 A 
ATOM     24  H   UNL A   1      45.536  26.839  27.549  1.00  0.00     0.167 HD
ATOM     25  C   UNL A   1      41.765  28.843  28.429  1.00  0.00     0.031 A 
ATOM     26  C   UNL A   1      48.270  26.769  26.933  1.00  0.00     0.031 A 
ATOM     27  C   UNL A   1      42.778  29.862  28.532  1.00  0.00     0.049 A 
ATOM     28  C   UNL A   1      47.956  28.203  27.245  1.00  0.00     0.074 A 
ATOM     29  C   UNL A   1      42.626  31.184  28.921  1.00  0.00     0.029 A 
ATOM     30  N   UNL A   1      44.117  29.688  28.226  1.00  0.00    -0.354 N 
ATOM     31  N   UNL A   1      46.808  28.734  27.597  1.00  0.00    -0.248 NA
ATOM     32  C   UNL A   1      49.063  29.164  27.148  1.00  0.00     0.031 C 
ATOM     33  C   UNL A   1      43.863  31.822  28.791  1.00  0.00     0.029 A 
ATOM     34  C   UNL A   1      44.796  30.887  28.372  1.00  0.00     0.049 A 
ATOM     35  H   UNL A   1      44.527  28.838  27.946  1.00  0.00     0.167 HD
ATOM     36  C   UNL A   1      47.061  30.090  27.768  1.00  0.00     0.074 A 
ATOM     37  C   UNL A   1      48.471  30.293  27.510  1.00  0.00     0.031 C 
ATOM     38  C   UNL A   1      46.197  31.079  28.100  1.00  0.00     0.031 A 
BRANCH  25  39
ATOM     39  C   UNL A   1      40.338  29.260  28.666  1.00  0.00    -0.014 A 
ATOM     40  C   UNL A   1      39.906  29.679  29.936  1.00  0.00     0.010 A 
ATOM     41  C   UNL A   1      39.451  29.348  27.576  1.00  0.00     0.010 A 
ATOM     42  C   UNL A   1      38.608  30.168  30.114  1.00  0.00     0.020 A 
ATOM     43  C   UNL A   1      38.160  29.853  27.746  1.00  0.00     0.020 A 
ATOM     44  C   UNL A   1      37.744  30.256  29.018  1.00  0.00     0.054 A 
BRANCH  44  45
ATOM     45  S   UNL A   1      36.088  30.957  29.267  1.00  0.00     0.124 S 
ATOM     46  O   UNL A   1      36.219  32.268  28.637  1.00  0.00    -0.237 OA
ATOM     47  O   UNL A   1      35.230  30.005  28.567  1.00  0.00    -0.237 OA
ATOM     48  O   UNL A   1      35.935  30.977  30.720  1.00  0.00    -0.744 OA
ENDBRANCH  44  45
ENDBRANCH  25  39
BRANCH  26  49
ATOM     49  C   UNL A   1      49.642  26.364  26.526  1.00  0.00    -0.014 A 
ATOM     50  C   UNL A   1      50.038  26.416  25.179  1.00  0.00     0.010 A 
ATOM     51  C   UNL A   1      50.560  25.911  27.493  1.00  0.00     0.010 A 
ATOM     52  C   UNL A   1      51.318  25.996  24.802  1.00  0.00     0.020 A 
ATOM     53  C   UNL A   1      51.848  25.517  27.124  1.00  0.00     0.020 A 
ATOM     54  C   UNL A   1      52.212  25.545  25.777  1.00  0.00     0.054 A 
BRANCH  54  55
ATOM     55  S   UNL A   1      53.876  25.029  25.273  1.00  0.00     0.124 S 
ATOM     56  O   UNL A   1      54.641  25.239  26.498  1.00  0.00    -0.237 OA
ATOM     57  O   UNL A   1      53.675  23.636  24.883  1.00  0.00    -0.237 OA
ATOM     58  O   UNL A   1      54.194  25.936  24.171  1.00  0.00    -0.744 OA
ENDBRANCH  54  55
ENDBRANCH  26  49
BRANCH  38  59
ATOM     59  C   UNL A   1      46.753  32.472  28.206  1.00  0.00    -0.014 A 
ATOM     60  C   UNL A   1      47.308  32.936  29.412  1.00  0.00     0.010 A 
ATOM     61  C   UNL A   1      46.768  33.309  27.076  1.00  0.00     0.010 A 
ATOM     62  C   UNL A   1      47.846  34.222  29.493  1.00  0.00     0.020 A 
ATOM     63  C   UNL A   1      47.328  34.587  27.146  1.00  0.00     0.020 A 
ATOM     64  C   UNL A   1      47.852  35.040  28.359  1.00  0.00     0.054 A 
BRANCH  64  65
ATOM     65  S   UNL A   1      48.604  36.686  28.476  1.00  0.00     0.124 S 
ATOM     66  O   UNL A   1      48.623  37.111  27.079  1.00  0.00    -0.237 OA
ATOM     67  O   UNL A   1      47.671  37.407  29.339  1.00  0.00    -0.237 OA
ATOM     68  O   UNL A   1      49.916  36.427  29.066  1.00  0.00    -0.744 OA
ENDBRANCH  64  65
ENDBRANCH  38  59
ENDBRANCH  12  13
ENDBRANCH   5   7
ENDBRANCH   2   3
ENDBRANCH   1   2
BRANCH   1  69
ATOM     69  C   UNL A   1      36.782  21.375  25.027  1.00  0.00     0.117 C 
BRANCH  69  70
ATOM     70  N   UNL A   1      35.977  21.360  26.236  1.00  0.00    -0.356 N 
ATOM     71  C   UNL A   1      34.798  21.929  26.611  1.00  0.00     0.226 C 
ATOM     72  H   UNL A   1      36.376  20.811  26.949  1.00  0.00     0.163 HD
ATOM     73  O   UNL A   1      34.339  21.502  27.680  1.00  0.00    -0.274 OA
BRANCH  71  74
ATOM     74  C   UNL A   1      33.985  22.915  25.725  1.00  0.00     0.050 C 
ATOM     75  C   UNL A   1      32.842  23.435  26.651  1.00  0.00     0.017 C 
ATOM     76  C   UNL A   1      34.885  24.144  25.381  1.00  0.00     0.017 C 
ATOM     77  C   UNL A   1      32.084  24.653  26.123  1.00  0.00     0.001 C 
ATOM     78  C   UNL A   1      34.110  25.316  24.777  1.00  0.00     0.001 C 
ATOM     79  C   UNL A   1      33.015  25.789  25.722  1.00  0.00     0.000 C 
BRANCH  74  80
ATOM     80  C   UNL A   1      33.408  22.299  24.415  1.00  0.00     0.023 C 
BRANCH  80  81
ATOM     81  C   UNL A   1      32.403  21.121  24.486  1.00  0.00     0.057 C 
BRANCH  81  82
ATOM     82  C   UNL A   1      32.872  19.744  24.094  1.00  0.00     0.040 A 
ATOM     83  C   UNL A   1      32.261  19.028  23.067  1.00  0.00     0.024 A 
ATOM     84  N   UNL A   1      33.964  19.269  24.723  1.00  0.00    -0.261 NA
ATOM     85  C   UNL A   1      32.763  17.773  22.721  1.00  0.00     0.003 A 
ATOM     86  C   UNL A   1      34.426  18.046  24.387  1.00  0.00     0.111 A 
ATOM     87  C   UNL A   1      33.861  17.262  23.401  1.00  0.00     0.020 A 
ENDBRANCH  81  82
ENDBRANCH  80  81
ENDBRANCH  74  80
ENDBRANCH  71  74
ENDBRANCH  69  70
ENDBRANCH   1  69
TORSDOF 16
ENDMDL
MODEL 2
REMARK VINA RESULT:     -11.2      4.116      9.596
REMARK SMILES O=C(NCCCNC(=O)C1(CCc2ccccn2)CCCCC1)c1ccc(-c2c3nc(c(-c4ccc(S(=O)(=O)[O-])cc4)c4ccc([nH]4)c(-c4ccc(S(=O)(=O)[O-])cc4)c4nc(c(-c5ccc(S(=O)(=O)[O-])cc5)c5ccc2[nH]5)C=C4)C=C3)cc1
REMARK SMILES IDX 5 1 4 2 3 3 1 4 2 5 24 7 25 8 83 9 26 10 82 11 27 12 28 13
REMARK SMILES IDX 29 14 76 15 30 16 81 17 75 18 77 19 31 20 80 21 74 22 73 23
REMARK SMILES IDX 32 25 62 26 43 27 61 28 44 29 47 30 60 31 78 32 45 33 46 34
REMARK SMILES IDX 59 36 79 37 48 38 33 39 34 40 42 41 35 42 41 43 36 44 37 45
REMARK SMILES IDX 38 46 39 47 40 48 63 49 64 50 72 51 65 52 71 53 66 54 67 55
REMARK SMILES IDX 68 56 69 57 70 58 49 59 50 60 58 61 51 62 57 63 52 64 53 65
REMARK SMILES IDX 54 66 55 67 56 68 6 69 7 70 8 71 9 73 10 74 19 75 23 76
REMARK SMILES IDX 20 77 22 78 21 79 11 80 12 81 13 82 14 83 18 84 15 85 17 86
REMARK SMILES IDX 16 87
REMARK H PARENT 3 6 77 24 47 35 7 72
REMARK Flexibility Score: inf
ROOT
ATOM      1  C   UNL A   1      31.954  28.293  27.524  1.00  0.00     0.042 C 
ENDROOT
BRANCH   1   2
ATOM      2  C   UNL A   1      33.354  28.817  27.241  1.00  0.00     0.118 C 
BRANCH   2   3
ATOM      3  N   UNL A   1      33.498  30.203  27.642  1.00  0.00    -0.352 N 
ATOM      4  O   UNL A   1      34.355  31.926  28.791  1.00  0.00    -0.269 OA
ATOM      5  C   UNL A   1      34.539  30.818  28.292  1.00  0.00     0.251 C 
ATOM      6  H   UNL A   1      32.739  30.789  27.415  1.00  0.00     0.163 HD
BRANCH   5   7
ATOM      7  C   UNL A   1      35.873  30.174  28.398  1.00  0.00     0.039 A 
ATOM      8  C   UNL A   1      36.790  30.206  27.342  1.00  0.00     0.014 A 
ATOM      9  C   UNL A   1      36.261  29.637  29.631  1.00  0.00     0.014 A 
ATOM     10  C   UNL A   1      38.066  29.660  27.501  1.00  0.00     0.010 A 
ATOM     11  C   UNL A   1      37.559  29.147  29.809  1.00  0.00     0.010 A 
ATOM     12  C   UNL A   1      38.477  29.165  28.749  1.00  0.00    -0.014 A 
BRANCH  12  13
ATOM     13  C   UNL A   1      39.907  28.828  28.983  1.00  0.00     0.031 A 
ATOM     14  C   UNL A   1      40.479  27.495  28.591  1.00  0.00     0.074 A 
ATOM     15  C   UNL A   1      40.681  29.737  29.615  1.00  0.00     0.049 A 
ATOM     16  N   UNL A   1      41.694  27.043  28.772  1.00  0.00    -0.248 NA
ATOM     17  C   UNL A   1      39.579  26.546  27.920  1.00  0.00     0.031 C 
ATOM     18  C   UNL A   1      40.229  31.053  30.078  1.00  0.00     0.029 A 
ATOM     19  N   UNL A   1      42.000  29.692  29.988  1.00  0.00    -0.354 N 
ATOM     20  C   UNL A   1      41.703  25.752  28.256  1.00  0.00     0.074 A 
ATOM     21  C   UNL A   1      40.367  25.489  27.763  1.00  0.00     0.031 C 
ATOM     22  C   UNL A   1      41.254  31.692  30.661  1.00  0.00     0.029 A 
ATOM     23  C   UNL A   1      42.419  30.816  30.664  1.00  0.00     0.049 A 
ATOM     24  H   UNL A   1      42.591  28.930  29.791  1.00  0.00     0.167 HD
ATOM     25  C   UNL A   1      42.732  24.872  28.202  1.00  0.00     0.031 A 
ATOM     26  C   UNL A   1      43.595  31.101  31.253  1.00  0.00     0.031 A 
ATOM     27  C   UNL A   1      44.061  25.143  28.690  1.00  0.00     0.049 A 
ATOM     28  C   UNL A   1      44.704  30.091  31.205  1.00  0.00     0.074 A 
ATOM     29  C   UNL A   1      45.186  24.340  28.600  1.00  0.00     0.029 A 
ATOM     30  N   UNL A   1      44.439  26.284  29.377  1.00  0.00    -0.354 N 
ATOM     31  N   UNL A   1      44.716  28.913  30.626  1.00  0.00    -0.248 NA
ATOM     32  C   UNL A   1      45.954  30.441  31.894  1.00  0.00     0.031 C 
ATOM     33  C   UNL A   1      46.229  24.970  29.285  1.00  0.00     0.029 A 
ATOM     34  C   UNL A   1      45.768  26.188  29.758  1.00  0.00     0.049 A 
ATOM     35  H   UNL A   1      43.852  27.051  29.568  1.00  0.00     0.167 HD
ATOM     36  C   UNL A   1      45.977  28.387  30.877  1.00  0.00     0.074 A 
ATOM     37  C   UNL A   1      46.708  29.382  31.633  1.00  0.00     0.031 C 
ATOM     38  C   UNL A   1      46.480  27.181  30.520  1.00  0.00     0.031 A 
BRANCH  25  39
ATOM     39  C   UNL A   1      42.479  23.513  27.607  1.00  0.00    -0.014 A 
ATOM     40  C   UNL A   1      42.813  23.231  26.271  1.00  0.00     0.010 A 
ATOM     41  C   UNL A   1      42.010  22.472  28.431  1.00  0.00     0.010 A 
ATOM     42  C   UNL A   1      42.674  21.935  25.767  1.00  0.00     0.020 A 
ATOM     43  C   UNL A   1      41.887  21.171  27.936  1.00  0.00     0.020 A 
ATOM     44  C   UNL A   1      42.216  20.911  26.604  1.00  0.00     0.054 A 
BRANCH  44  45
ATOM     45  S   UNL A   1      42.109  19.226  25.939  1.00  0.00     0.124 S 
ATOM     46  O   UNL A   1      42.975  19.310  24.766  1.00  0.00    -0.237 OA
ATOM     47  O   UNL A   1      42.620  18.415  27.041  1.00  0.00    -0.237 OA
ATOM     48  O   UNL A   1      40.687  19.055  25.652  1.00  0.00    -0.744 OA
ENDBRANCH  44  45
ENDBRANCH  25  39
BRANCH  26  49
ATOM     49  C   UNL A   1      43.767  32.384  31.988  1.00  0.00    -0.014 A 
ATOM     50  C   UNL A   1      44.424  33.472  31.392  1.00  0.00     0.010 A 
ATOM     51  C   UNL A   1      43.278  32.514  33.302  1.00  0.00     0.010 A 
ATOM     52  C   UNL A   1      44.615  34.660  32.106  1.00  0.00     0.020 A 
ATOM     53  C   UNL A   1      43.440  33.707  34.008  1.00  0.00     0.020 A 
ATOM     54  C   UNL A   1      44.125  34.767  33.411  1.00  0.00     0.054 A 
BRANCH  54  55
ATOM     55  S   UNL A   1      44.357  36.324  34.312  1.00  0.00     0.124 S 
ATOM     56  O   UNL A   1      43.462  37.225  33.593  1.00  0.00    -0.237 OA
ATOM     57  O   UNL A   1      43.946  35.972  35.669  1.00  0.00    -0.237 OA
ATOM     58  O   UNL A   1      45.784  36.599  34.154  1.00  0.00    -0.744 OA
ENDBRANCH  54  55
ENDBRANCH  26  49
BRANCH  38  59
ATOM     59  C   UNL A   1      47.890  26.871  30.942  1.00  0.00    -0.014 A 
ATOM     60  C   UNL A   1      48.150  26.235  32.169  1.00  0.00     0.010 A 
ATOM     61  C   UNL A   1      48.962  27.171  30.083  1.00  0.00     0.010 A 
ATOM     62  C   UNL A   1      49.461  25.928  32.541  1.00  0.00     0.020 A 
ATOM     63  C   UNL A   1      50.272  26.843  30.440  1.00  0.00     0.020 A 
ATOM     64  C   UNL A   1      50.514  26.234  31.674  1.00  0.00     0.054 A 
BRANCH  64  65
ATOM     65  S   UNL A   1      52.202  25.777  32.156  1.00  0.00     0.124 S 
ATOM     66  O   UNL A   1      52.983  26.266  31.023  1.00  0.00    -0.237 OA
ATOM     67  O   UNL A   1      52.388  26.506  33.409  1.00  0.00    -0.237 OA
ATOM     68  O   UNL A   1      52.142  24.323  32.290  1.00  0.00    -0.744 OA
ENDBRANCH  64  65
ENDBRANCH  38  59
ENDBRANCH  12  13
ENDBRANCH   5   7
ENDBRANCH   2   3
ENDBRANCH   1   2
BRANCH   1  69
ATOM     69  C   UNL A   1      31.356  27.435  26.410  1.00  0.00     0.117 C 
BRANCH  69  70
ATOM     70  N   UNL A   1      30.995  26.088  26.819  1.00  0.00    -0.356 N 
ATOM     71  C   UNL A   1      31.094  24.855  26.251  1.00  0.00     0.226 C 
ATOM     72  H   UNL A   1      30.584  26.062  27.713  1.00  0.00     0.163 HD
ATOM     73  O   UNL A   1      30.850  23.915  27.021  1.00  0.00    -0.274 OA
BRANCH  71  74
ATOM     74  C   UNL A   1      31.623  24.597  24.812  1.00  0.00     0.050 C 
ATOM     75  C   UNL A   1      33.066  25.188  24.803  1.00  0.00     0.017 C 
ATOM     76  C   UNL A   1      31.761  23.057  24.594  1.00  0.00     0.017 C 
ATOM     77  C   UNL A   1      33.923  24.788  23.601  1.00  0.00     0.001 C 
ATOM     78  C   UNL A   1      32.552  22.688  23.338  1.00  0.00     0.001 C 
ATOM     79  C   UNL A   1      33.953  23.282  23.385  1.00  0.00     0.000 C 
BRANCH  74  80
ATOM     80  C   UNL A   1      30.756  25.216  23.673  1.00  0.00     0.023 C 
BRANCH  80  81
ATOM     81  C   UNL A   1      31.115  26.607  23.092  1.00  0.00     0.057 C 
BRANCH  81  82
ATOM     82  C   UNL A   1      30.006  27.603  22.861  1.00  0.00     0.040 A 
ATOM     83  C   UNL A   1      28.750  27.445  23.442  1.00  0.00     0.024 A 
ATOM     84  N   UNL A   1      30.309  28.697  22.137  1.00  0.00    -0.261 NA
ATOM     85  C   UNL A   1      27.773  28.418  23.225  1.00  0.00     0.003 A 
ATOM     86  C   UNL A   1      29.348  29.620  21.923  1.00  0.00     0.111 A 
ATOM     87  C   UNL A   1      28.071  29.524  22.439  1.00  0.00     0.020 A 
ENDBRANCH  81  82
ENDBRANCH  80  81
ENDBRANCH  74  80
ENDBRANCH  71  74
ENDBRANCH  69  70
ENDBRANCH   1  69
TORSDOF 16
ENDMDL
MODEL 3
REMARK VINA RESULT:     -11.1      4.052      8.634
REMARK SMILES O=C(NCCCNC(=O)C1(CCc2ccccn2)CCCCC1)c1ccc(-c2c3nc(c(-c4ccc(S(=O)(=O)[O-])cc4)c4ccc([nH]4)c(-c4ccc(S(=O)(=O)[O-])cc4)c4nc(c(-c5ccc(S(=O)(=O)[O-])cc5)c5ccc2[nH]5)C=C4)C=C3)cc1
REMARK SMILES IDX 5 1 4 2 3 3 1 4 2 5 24 7 25 8 83 9 26 10 82 11 27 12 28 13
REMARK SMILES IDX 29 14 76 15 30 16 81 17 75 18 77 19 31 20 80 21 74 22 73 23
REMARK SMILES IDX 32 25 62 26 43 27 61 28 44 29 47 30 60 31 78 32 45 33 46 34
REMARK SMILES IDX 59 36 79 37 48 38 33 39 34 40 42 41 35 42 41 43 36 44 37 45
REMARK SMILES IDX 38 46 39 47 40 48 63 49 64 50 72 51 65 52 71 53 66 54 67 55
REMARK SMILES IDX 68 56 69 57 70 58 49 59 50 60 58 61 51 62 57 63 52 64 53 65
REMARK SMILES IDX 54 66 55 67 56 68 6 69 7 70 8 71 9 73 10 74 19 75 23 76
REMARK SMILES IDX 20 77 22 78 21 79 11 80 12 81 13 82 14 83 18 84 15 85 17 86
REMARK SMILES IDX 16 87
REMARK H PARENT 3 6 77 24 47 35 7 72
REMARK Flexibility Score: inf
ROOT
ATOM      1  C   UNL A   1      32.124  28.212  27.554  1.00  0.00     0.042 C 
ENDROOT
BRANCH   1   2
ATOM      2  C   UNL A   1      33.469  28.776  27.121  1.00  0.00     0.118 C 
BRANCH   2   3
ATOM      3  N   UNL A   1      33.586  30.185  27.443  1.00  0.00    -0.352 N 
ATOM      4  O   UNL A   1      34.364  31.979  28.539  1.00  0.00    -0.269 OA
ATOM      5  C   UNL A   1      34.581  30.843  28.125  1.00  0.00     0.251 C 
ATOM      6  H   UNL A   1      32.846  30.754  27.128  1.00  0.00     0.163 HD
BRANCH   5   7
ATOM      7  C   UNL A   1      35.904  30.211  28.362  1.00  0.00     0.039 A 
ATOM      8  C   UNL A   1      36.909  30.222  27.389  1.00  0.00     0.014 A 
ATOM      9  C   UNL A   1      36.186  29.709  29.638  1.00  0.00     0.014 A 
ATOM     10  C   UNL A   1      38.169  29.689  27.672  1.00  0.00     0.010 A 
ATOM     11  C   UNL A   1      37.465  29.233  29.941  1.00  0.00     0.010 A 
ATOM     12  C   UNL A   1      38.472  29.230  28.964  1.00  0.00    -0.014 A 
BRANCH  12  13
ATOM     13  C   UNL A   1      39.877  28.908  29.330  1.00  0.00     0.031 A 
ATOM     14  C   UNL A   1      40.781  29.926  29.967  1.00  0.00     0.074 A 
ATOM     15  C   UNL A   1      40.350  27.681  29.024  1.00  0.00     0.049 A 
ATOM     16  N   UNL A   1      42.041  29.804  30.301  1.00  0.00    -0.248 NA
ATOM     17  C   UNL A   1      40.207  31.248  30.260  1.00  0.00     0.031 C 
ATOM     18  C   UNL A   1      39.580  26.618  28.371  1.00  0.00     0.029 A 
ATOM     19  N   UNL A   1      41.590  27.122  29.209  1.00  0.00    -0.354 N 
ATOM     20  C   UNL A   1      42.418  31.034  30.826  1.00  0.00     0.074 A 
ATOM     21  C   UNL A   1      41.255  31.894  30.758  1.00  0.00     0.031 C 
ATOM     22  C   UNL A   1      40.358  25.537  28.220  1.00  0.00     0.029 A 
ATOM     23  C   UNL A   1      41.695  25.842  28.714  1.00  0.00     0.049 A 
ATOM     24  H   UNL A   1      42.333  27.591  29.653  1.00  0.00     0.167 HD
ATOM     25  C   UNL A   1      43.625  31.408  31.318  1.00  0.00     0.031 A 
ATOM     26  C   UNL A   1      42.754  25.015  28.630  1.00  0.00     0.031 A 
ATOM     27  C   UNL A   1      44.777  30.545  31.389  1.00  0.00     0.049 A 
ATOM     28  C   UNL A   1      44.085  25.472  29.153  1.00  0.00     0.074 A 
ATOM     29  C   UNL A   1      46.015  30.815  31.949  1.00  0.00     0.029 A 
ATOM     30  N   UNL A   1      44.845  29.264  30.867  1.00  0.00    -0.354 N 
ATOM     31  N   UNL A   1      44.392  26.607  29.733  1.00  0.00    -0.248 NA
ATOM     32  C   UNL A   1      45.212  24.542  29.006  1.00  0.00     0.031 C 
ATOM     33  C   UNL A   1      46.850  29.719  31.712  1.00  0.00     0.029 A 
ATOM     34  C   UNL A   1      46.118  28.747  31.050  1.00  0.00     0.049 A 
ATOM     35  H   UNL A   1      44.101  28.791  30.429  1.00  0.00     0.167 HD
ATOM     36  C   UNL A   1      45.748  26.523  30.024  1.00  0.00     0.074 A 
ATOM     37  C   UNL A   1      46.195  25.218  29.584  1.00  0.00     0.031 C 
ATOM     38  C   UNL A   1      46.553  27.451  30.597  1.00  0.00     0.031 A 
BRANCH  25  39
ATOM     39  C   UNL A   1      43.788  32.820  31.814  1.00  0.00    -0.014 A 
ATOM     40  C   UNL A   1      44.005  33.882  30.920  1.00  0.00     0.010 A 
ATOM     41  C   UNL A   1      43.601  33.101  33.181  1.00  0.00     0.010 A 
ATOM     42  C   UNL A   1      44.043  35.200  31.385  1.00  0.00     0.020 A 
ATOM     43  C   UNL A   1      43.620  34.418  33.647  1.00  0.00     0.020 A 
ATOM     44  C   UNL A   1      43.847  35.460  32.746  1.00  0.00     0.054 A 
BRANCH  44  45
ATOM     45  S   UNL A   1      43.836  37.186  33.309  1.00  0.00     0.124 S 
ATOM     46  O   UNL A   1      42.603  37.238  34.092  1.00  0.00    -0.237 OA
ATOM     47  O   UNL A   1      45.073  37.278  34.080  1.00  0.00    -0.237 OA
ATOM     48  O   UNL A   1      43.819  37.957  32.069  1.00  0.00    -0.744 OA
ENDBRANCH  44  45
ENDBRANCH  25  39
BRANCH  26  49
ATOM     49  C   UNL A   1      42.610  23.686  27.977  1.00  0.00    -0.014 A 
ATOM     50  C   UNL A   1      42.153  22.573  28.701  1.00  0.00     0.010 A 
ATOM     51  C   UNL A   1      42.943  23.529  26.618  1.00  0.00     0.010 A 
ATOM     52  C   UNL A   1      42.058  21.320  28.087  1.00  0.00     0.020 A 
ATOM     53  C   UNL A   1      42.823  22.286  25.993  1.00  0.00     0.020 A 
ATOM     54  C   UNL A   1      42.398  21.185  26.738  1.00  0.00     0.054 A 
BRANCH  54  55
ATOM     55  S   UNL A   1      42.244  19.558  25.951  1.00  0.00     0.124 S 
ATOM     56  O   UNL A   1      40.817  19.503  25.651  1.00  0.00    -0.237 OA
ATOM     57  O   UNL A   1      43.130  19.677  24.796  1.00  0.00    -0.237 OA
ATOM     58  O   UNL A   1      42.704  18.634  26.986  1.00  0.00    -0.744 OA
ENDBRANCH  54  55
ENDBRANCH  26  49
BRANCH  38  59
ATOM     59  C   UNL A   1      48.000  27.086  30.782  1.00  0.00    -0.014 A 
ATOM     60  C   UNL A   1      48.949  27.381  29.787  1.00  0.00     0.010 A 
ATOM     61  C   UNL A   1      48.425  26.489  31.982  1.00  0.00     0.010 A 
ATOM     62  C   UNL A   1      50.295  27.062  29.979  1.00  0.00     0.020 A 
ATOM     63  C   UNL A   1      49.774  26.191  32.188  1.00  0.00     0.020 A 
ATOM     64  C   UNL A   1      50.699  26.469  31.179  1.00  0.00     0.054 A 
BRANCH  64  65
ATOM     65  S   UNL A   1      52.460  26.112  31.426  1.00  0.00     0.124 S 
ATOM     66  O   UNL A   1      52.997  26.291  30.080  1.00  0.00    -0.237 OA
ATOM     67  O   UNL A   1      52.861  27.124  32.402  1.00  0.00    -0.237 OA
ATOM     68  O   UNL A   1      52.469  24.738  31.924  1.00  0.00    -0.744 OA
ENDBRANCH  64  65
ENDBRANCH  38  59
ENDBRANCH  12  13
ENDBRANCH   5   7
ENDBRANCH   2   3
ENDBRANCH   1   2
BRANCH   1  69
ATOM     69  C   UNL A   1      31.374  27.444  26.467  1.00  0.00     0.117 C 
BRANCH  69  70
ATOM     70  N   UNL A   1      30.968  26.103  26.851  1.00  0.00    -0.356 N 
ATOM     71  C   UNL A   1      30.940  24.894  26.227  1.00  0.00     0.226 C 
ATOM     72  H   UNL A   1      30.635  26.060  27.777  1.00  0.00     0.163 HD
ATOM     73  O   UNL A   1      30.706  23.935  26.977  1.00  0.00    -0.274 OA
BRANCH  71  74
ATOM     74  C   UNL A   1      31.324  24.672  24.737  1.00  0.00     0.050 C 
ATOM     75  C   UNL A   1      32.792  25.183  24.621  1.00  0.00     0.017 C 
ATOM     76  C   UNL A   1      31.352  23.138  24.447  1.00  0.00     0.017 C 
ATOM     77  C   UNL A   1      33.516  24.791  23.332  1.00  0.00     0.001 C 
ATOM     78  C   UNL A   1      32.006  22.783  23.110  1.00  0.00     0.001 C 
ATOM     79  C   UNL A   1      33.439  23.296  23.053  1.00  0.00     0.000 C 
BRANCH  74  80
ATOM     80  C   UNL A   1      30.398  25.388  23.707  1.00  0.00     0.023 C 
BRANCH  80  81
ATOM     81  C   UNL A   1      30.838  26.729  23.067  1.00  0.00     0.057 C 
BRANCH  81  82
ATOM     82  C   UNL A   1      29.796  27.790  22.821  1.00  0.00     0.040 A 
ATOM     83  C   UNL A   1      28.510  27.688  23.348  1.00  0.00     0.024 A 
ATOM     84  N   UNL A   1      30.187  28.884  22.138  1.00  0.00    -0.261 NA
ATOM     85  C   UNL A   1      27.598  28.719  23.120  1.00  0.00     0.003 A 
ATOM     86  C   UNL A   1      29.287  29.864  21.913  1.00  0.00     0.111 A 
ATOM     87  C   UNL A   1      27.987  29.826  22.377  1.00  0.00     0.020 A 
ENDBRANCH  81  82
ENDBRANCH  80  81
ENDBRANCH  74  80
ENDBRANCH  71  74
ENDBRANCH  69  70
ENDBRANCH   1  69
TORSDOF 16
ENDMDL
