MODEL 1
REMARK VINA RESULT:     -11.8      0.000      0.000
REMARK SMILES C[C@@H]1[C@H](C(=O)NCCCNC(=O)c2ccc(-c3c4nc(c(-c5ccc(S(=O)(=O)[O-])cc5)c5ccc([nH]5)c(-c5ccc(S(=O)(=O)[O-])cc5)c5nc(c(-c6ccc(S(=O)(=O)[O-])cc6)c6ccc3[nH]6)C=C5)C=C4)cc2)CC[N@@H+]1[C@@H](C)c1cc(F)cc(F)c1
REMARK SMILES IDX 8 1 7 2 6 3 4 4 5 5 3 7 1 8 2 9 75 10 73 11 74 12 76 14
REMARK SMILES IDX 77 15 78 16 79 17 85 18 80 19 83 20 81 21 82 22 84 23 9 24
REMARK SMILES IDX 10 25 11 26 12 28 13 29 14 30 72 31 15 32 71 33 16 34 17 35
REMARK SMILES IDX 18 36 65 37 19 38 70 39 64 40 66 41 20 42 69 43 63 44 62 45
REMARK SMILES IDX 21 47 51 48 32 49 50 50 33 51 36 52 49 53 67 54 34 55 35 56
REMARK SMILES IDX 48 58 68 59 37 60 22 61 23 62 31 63 24 64 30 65 25 66 26 67
REMARK SMILES IDX 27 68 28 69 29 70 52 71 53 72 61 73 54 74 60 75 55 76 56 77
REMARK SMILES IDX 57 78 58 79 59 80 38 81 39 82 47 83 40 84 46 85 41 86 42 87
REMARK SMILES IDX 43 88 44 89 45 90
REMARK H PARENT 6 6 75 13 10 27 66 46 36 57
REMARK Flexibility Score: inf
ROOT
ATOM      1  C   UNL A   1      33.062  27.570  26.009  1.00  0.00     0.042 C 
ENDROOT
BRANCH   1   2
ATOM      2  C   UNL A   1      33.274  26.328  25.148  1.00  0.00     0.117 C 
BRANCH   2   3
ATOM      3  N   UNL A   1      33.665  26.658  23.790  1.00  0.00    -0.356 N 
ATOM      4  C   UNL A   1      33.413  26.065  22.597  1.00  0.00     0.229 C 
ATOM      5  O   UNL A   1      33.934  26.593  21.607  1.00  0.00    -0.275 OA
ATOM      6  H   UNL A   1      34.219  27.468  23.721  1.00  0.00     0.163 HD
BRANCH   4   7
ATOM      7  C   UNL A   1      32.548  24.824  22.411  1.00  0.00     0.142 C 
ATOM      8  C   UNL A   1      34.581  23.383  23.217  1.00  0.00     0.076 C 
ATOM      9  C   UNL A   1      33.137  23.440  22.738  1.00  0.00     0.194 C 
ATOM     10  N   UNL A   1      32.103  22.751  23.510  1.00  0.00    -0.326 N 
ATOM     11  C   UNL A   1      31.164  24.874  23.047  1.00  0.00     0.081 C 
ATOM     12  C   UNL A   1      30.828  23.429  23.372  1.00  0.00     0.264 C 
ATOM     13  H   UNL A   1      32.068  21.835  23.061  1.00  0.00     0.348 HD
BRANCH  10  14
ATOM     14  C   UNL A   1      32.375  21.941  24.692  1.00  0.00     0.212 C 
ATOM     15  C   UNL A   1      31.422  22.233  25.860  1.00  0.00     0.081 C 
BRANCH  14  16
ATOM     16  C   UNL A   1      32.444  20.452  24.337  1.00  0.00     0.015 A 
ATOM     17  C   UNL A   1      32.286  19.962  23.029  1.00  0.00     0.049 A 
ATOM     18  C   UNL A   1      32.668  19.517  25.364  1.00  0.00     0.049 A 
ATOM     19  C   UNL A   1      32.324  18.592  22.775  1.00  0.00     0.126 A 
ATOM     20  C   UNL A   1      32.710  18.152  25.085  1.00  0.00     0.126 A 
ATOM     21  F   UNL A   1      32.160  18.154  21.519  1.00  0.00    -0.207 F 
ATOM     22  C   UNL A   1      32.533  17.678  23.794  1.00  0.00     0.078 A 
ATOM     23  F   UNL A   1      32.927  17.283  26.080  1.00  0.00    -0.207 F 
ENDBRANCH  14  16
ENDBRANCH  10  14
ENDBRANCH   4   7
ENDBRANCH   2   3
ENDBRANCH   1   2
BRANCH   1  24
ATOM     24  C   UNL A   1      34.230  28.544  26.002  1.00  0.00     0.118 C 
BRANCH  24  25
ATOM     25  N   UNL A   1      33.920  29.782  26.698  1.00  0.00    -0.352 N 
ATOM     26  C   UNL A   1      34.599  30.430  27.701  1.00  0.00     0.251 C 
ATOM     27  H   UNL A   1      33.093  30.227  26.404  1.00  0.00     0.163 HD
ATOM     28  O   UNL A   1      34.037  31.349  28.300  1.00  0.00    -0.269 OA
BRANCH  26  29
ATOM     29  C   UNL A   1      35.975  30.034  28.089  1.00  0.00     0.039 A 
ATOM     30  C   UNL A   1      36.197  29.534  29.376  1.00  0.00     0.014 A 
ATOM     31  C   UNL A   1      37.060  30.197  27.223  1.00  0.00     0.014 A 
ATOM     32  C   UNL A   1      37.485  29.152  29.770  1.00  0.00     0.010 A 
ATOM     33  C   UNL A   1      38.322  29.726  27.580  1.00  0.00     0.010 A 
ATOM     34  C   UNL A   1      38.555  29.215  28.864  1.00  0.00    -0.014 A 
BRANCH  34  35
ATOM     35  C   UNL A   1      39.929  28.793  29.250  1.00  0.00     0.031 A 
ATOM     36  C   UNL A   1      40.833  29.746  29.993  1.00  0.00     0.074 A 
ATOM     37  C   UNL A   1      40.391  27.579  28.887  1.00  0.00     0.049 A 
ATOM     38  N   UNL A   1      42.083  29.593  30.346  1.00  0.00    -0.248 NA
ATOM     39  C   UNL A   1      40.264  31.053  30.363  1.00  0.00     0.031 C 
ATOM     40  C   UNL A   1      39.637  26.574  28.135  1.00  0.00     0.029 A 
ATOM     41  N   UNL A   1      41.612  26.987  29.098  1.00  0.00    -0.354 N 
ATOM     42  C   UNL A   1      42.456  30.789  30.951  1.00  0.00     0.074 A 
ATOM     43  C   UNL A   1      41.316  31.673  30.875  1.00  0.00     0.031 C 
ATOM     44  C   UNL A   1      40.400  25.480  27.975  1.00  0.00     0.029 A 
ATOM     45  C   UNL A   1      41.710  25.719  28.574  1.00  0.00     0.049 A 
ATOM     46  H   UNL A   1      42.349  27.428  29.579  1.00  0.00     0.167 HD
ATOM     47  C   UNL A   1      43.633  31.116  31.540  1.00  0.00     0.031 A 
ATOM     48  C   UNL A   1      42.736  24.846  28.572  1.00  0.00     0.031 A 
ATOM     49  C   UNL A   1      44.758  30.228  31.645  1.00  0.00     0.049 A 
ATOM     50  C   UNL A   1      44.029  25.228  29.238  1.00  0.00     0.074 A 
ATOM     51  C   UNL A   1      45.973  30.448  32.271  1.00  0.00     0.029 A 
ATOM     52  N   UNL A   1      44.806  28.947  31.116  1.00  0.00    -0.354 N 
ATOM     53  N   UNL A   1      44.343  26.346  29.846  1.00  0.00    -0.248 NA
ATOM     54  C   UNL A   1      45.104  24.225  29.225  1.00  0.00     0.031 C 
ATOM     55  C   UNL A   1      46.771  29.313  32.087  1.00  0.00     0.029 A 
ATOM     56  C   UNL A   1      46.034  28.369  31.390  1.00  0.00     0.049 A 
ATOM     57  H   UNL A   1      44.075  28.512  30.621  1.00  0.00     0.167 HD
ATOM     58  C   UNL A   1      45.642  26.171  30.313  1.00  0.00     0.074 A 
ATOM     59  C   UNL A   1      46.049  24.836  29.925  1.00  0.00     0.031 C 
ATOM     60  C   UNL A   1      46.425  27.039  31.000  1.00  0.00     0.031 A 
BRANCH  47  61
ATOM     61  C   UNL A   1      43.757  32.502  32.118  1.00  0.00    -0.014 A 
ATOM     62  C   UNL A   1      44.247  33.569  31.344  1.00  0.00     0.010 A 
ATOM     63  C   UNL A   1      43.350  32.749  33.441  1.00  0.00     0.010 A 
ATOM     64  C   UNL A   1      44.374  34.847  31.896  1.00  0.00     0.020 A 
ATOM     65  C   UNL A   1      43.448  34.032  33.990  1.00  0.00     0.020 A 
ATOM     66  C   UNL A   1      43.978  35.068  33.219  1.00  0.00     0.054 A 
BRANCH  66  67
ATOM     67  S   UNL A   1      44.141  36.738  33.908  1.00  0.00     0.124 S 
ATOM     68  O   UNL A   1      43.368  37.532  32.955  1.00  0.00    -0.237 OA
ATOM     69  O   UNL A   1      43.548  36.597  35.235  1.00  0.00    -0.237 OA
ATOM     70  O   UNL A   1      45.582  36.978  33.895  1.00  0.00    -0.744 OA
ENDBRANCH  66  67
ENDBRANCH  47  61
BRANCH  48  71
ATOM     71  C   UNL A   1      42.573  23.511  27.935  1.00  0.00    -0.014 A 
ATOM     72  C   UNL A   1      43.158  23.244  26.684  1.00  0.00     0.010 A 
ATOM     73  C   UNL A   1      41.849  22.494  28.582  1.00  0.00     0.010 A 
ATOM     74  C   UNL A   1      43.008  21.991  26.084  1.00  0.00     0.020 A 
ATOM     75  C   UNL A   1      41.718  21.231  27.997  1.00  0.00     0.020 A 
ATOM     76  C   UNL A   1      42.291  20.991  26.746  1.00  0.00     0.054 A 
BRANCH  76  77
ATOM     77  S   UNL A   1      42.158  19.353  25.977  1.00  0.00     0.124 S 
ATOM     78  O   UNL A   1      42.680  18.482  27.026  1.00  0.00    -0.237 OA
ATOM     79  O   UNL A   1      40.724  19.241  25.717  1.00  0.00    -0.237 OA
ATOM     80  O   UNL A   1      42.992  19.468  24.783  1.00  0.00    -0.744 OA
ENDBRANCH  76  77
ENDBRANCH  48  71
BRANCH  60  81
ATOM     81  C   UNL A   1      47.792  26.562  31.411  1.00  0.00    -0.014 A 
ATOM     82  C   UNL A   1      47.998  25.916  32.641  1.00  0.00     0.010 A 
ATOM     83  C   UNL A   1      48.873  26.714  30.523  1.00  0.00     0.010 A 
ATOM     84  C   UNL A   1      49.270  25.455  32.990  1.00  0.00     0.020 A 
ATOM     85  C   UNL A   1      50.141  26.232  30.858  1.00  0.00     0.020 A 
ATOM     86  C   UNL A   1      50.334  25.617  32.097  1.00  0.00     0.054 A 
BRANCH  86  87
ATOM     87  S   UNL A   1      51.966  24.969  32.552  1.00  0.00     0.124 S 
ATOM     88  O   UNL A   1      52.138  25.500  33.901  1.00  0.00    -0.237 OA
ATOM     89  O   UNL A   1      51.774  23.523  32.467  1.00  0.00    -0.237 OA
ATOM     90  O   UNL A   1      52.856  25.533  31.541  1.00  0.00    -0.744 OA
ENDBRANCH  86  87
ENDBRANCH  60  81
ENDBRANCH  34  35
ENDBRANCH  26  29
ENDBRANCH  24  25
ENDBRANCH   1  24
TORSDOF 15
ENDMDL
MODEL 2
REMARK VINA RESULT:     -11.6      3.587      9.670
REMARK SMILES C[C@@H]1[C@H](C(=O)NCCCNC(=O)c2ccc(-c3c4nc(c(-c5ccc(S(=O)(=O)[O-])cc5)c5ccc([nH]5)c(-c5ccc(S(=O)(=O)[O-])cc5)c5nc(c(-c6ccc(S(=O)(=O)[O-])cc6)c6ccc3[nH]6)C=C5)C=C4)cc2)CC[N@@H+]1[C@@H](C)c1cc(F)cc(F)c1
REMARK SMILES IDX 8 1 7 2 6 3 4 4 5 5 3 7 1 8 2 9 75 10 73 11 74 12 76 14
REMARK SMILES IDX 77 15 78 16 79 17 85 18 80 19 83 20 81 21 82 22 84 23 9 24
REMARK SMILES IDX 10 25 11 26 12 28 13 29 14 30 72 31 15 32 71 33 16 34 17 35
REMARK SMILES IDX 18 36 65 37 19 38 70 39 64 40 66 41 20 42 69 43 63 44 62 45
REMARK SMILES IDX 21 47 51 48 32 49 50 50 33 51 36 52 49 53 67 54 34 55 35 56
REMARK SMILES IDX 48 58 68 59 37 60 22 61 23 62 31 63 24 64 30 65 25 66 26 67
REMARK SMILES IDX 27 68 28 69 29 70 52 71 53 72 61 73 54 74 60 75 55 76 56 77
REMARK SMILES IDX 57 78 58 79 59 80 38 81 39 82 47 83 40 84 46 85 41 86 42 87
REMARK SMILES IDX 43 88 44 89 45 90
REMARK H PARENT 6 6 75 13 10 27 66 46 36 57
REMARK Flexibility Score: inf
ROOT
ATOM      1  C   UNL A   1      35.519  23.561  24.820  1.00  0.00     0.042 C 
ENDROOT
BRANCH   1   2
ATOM      2  C   UNL A   1      34.141  24.191  25.004  1.00  0.00     0.117 C 
BRANCH   2   3
ATOM      3  N   UNL A   1      33.462  23.697  26.188  1.00  0.00    -0.356 N 
ATOM      4  C   UNL A   1      32.149  23.583  26.509  1.00  0.00     0.229 C 
ATOM      5  O   UNL A   1      31.903  23.143  27.638  1.00  0.00    -0.275 OA
ATOM      6  H   UNL A   1      34.072  23.385  26.895  1.00  0.00     0.163 HD
BRANCH   4   7
ATOM      7  C   UNL A   1      30.996  23.952  25.583  1.00  0.00     0.142 C 
ATOM      8  C   UNL A   1      31.352  26.454  26.266  1.00  0.00     0.076 C 
ATOM      9  C   UNL A   1      30.585  25.429  25.444  1.00  0.00     0.194 C 
ATOM     10  N   UNL A   1      30.416  25.650  24.008  1.00  0.00    -0.326 N 
ATOM     11  C   UNL A   1      31.063  23.379  24.173  1.00  0.00     0.081 C 
ATOM     12  C   UNL A   1      30.326  24.384  23.304  1.00  0.00     0.264 C 
ATOM     13  H   UNL A   1      29.523  26.142  23.966  1.00  0.00     0.348 HD
BRANCH  10  14
ATOM     14  C   UNL A   1      30.881  26.842  23.308  1.00  0.00     0.212 C 
ATOM     15  C   UNL A   1      31.674  26.527  22.033  1.00  0.00     0.081 C 
BRANCH  14  16
ATOM     16  C   UNL A   1      29.730  27.825  23.067  1.00  0.00     0.015 A 
ATOM     17  C   UNL A   1      28.413  27.593  23.501  1.00  0.00     0.049 A 
ATOM     18  C   UNL A   1      29.989  29.018  22.369  1.00  0.00     0.049 A 
ATOM     19  C   UNL A   1      27.401  28.509  23.220  1.00  0.00     0.126 A 
ATOM     20  C   UNL A   1      28.963  29.923  22.105  1.00  0.00     0.126 A 
ATOM     21  F   UNL A   1      26.154  28.256  23.637  1.00  0.00    -0.207 F 
ATOM     22  C   UNL A   1      27.663  29.676  22.521  1.00  0.00     0.078 A 
ATOM     23  F   UNL A   1      29.236  31.054  21.440  1.00  0.00    -0.207 F 
ENDBRANCH  14  16
ENDBRANCH  10  14
ENDBRANCH   4   7
ENDBRANCH   2   3
ENDBRANCH   1   2
BRANCH   1  24
ATOM     24  C   UNL A   1      36.485  23.826  25.963  1.00  0.00     0.118 C 
BRANCH  24  25
ATOM     25  N   UNL A   1      37.598  22.890  25.972  1.00  0.00    -0.352 N 
ATOM     26  C   UNL A   1      38.910  23.074  26.338  1.00  0.00     0.251 C 
ATOM     27  H   UNL A   1      37.377  21.981  25.668  1.00  0.00     0.163 HD
ATOM     28  O   UNL A   1      39.733  22.203  26.052  1.00  0.00    -0.269 OA
BRANCH  26  29
ATOM     29  C   UNL A   1      39.354  24.300  27.044  1.00  0.00     0.039 A 
ATOM     30  C   UNL A   1      40.074  25.266  26.333  1.00  0.00     0.014 A 
ATOM     31  C   UNL A   1      39.119  24.490  28.409  1.00  0.00     0.014 A 
ATOM     32  C   UNL A   1      40.507  26.434  26.973  1.00  0.00     0.010 A 
ATOM     33  C   UNL A   1      39.463  25.694  29.021  1.00  0.00     0.010 A 
ATOM     34  C   UNL A   1      40.178  26.673  28.317  1.00  0.00    -0.014 A 
BRANCH  34  35
ATOM     35  C   UNL A   1      40.604  27.916  29.015  1.00  0.00     0.031 A 
ATOM     36  C   UNL A   1      41.976  28.001  29.639  1.00  0.00     0.074 A 
ATOM     37  C   UNL A   1      39.747  28.950  29.141  1.00  0.00     0.049 A 
ATOM     38  N   UNL A   1      42.500  28.963  30.354  1.00  0.00    -0.248 NA
ATOM     39  C   UNL A   1      42.862  26.839  29.460  1.00  0.00     0.031 C 
ATOM     40  C   UNL A   1      38.380  28.988  28.617  1.00  0.00     0.029 A 
ATOM     41  N   UNL A   1      39.899  30.168  29.756  1.00  0.00    -0.354 N 
ATOM     42  C   UNL A   1      43.761  28.513  30.731  1.00  0.00     0.074 A 
ATOM     43  C   UNL A   1      43.904  27.173  30.207  1.00  0.00     0.031 C 
ATOM     44  C   UNL A   1      37.831  30.179  28.907  1.00  0.00     0.029 A 
ATOM     45  C   UNL A   1      38.787  30.974  29.670  1.00  0.00     0.049 A 
ATOM     46  H   UNL A   1      40.727  30.440  30.215  1.00  0.00     0.167 HD
ATOM     47  C   UNL A   1      44.725  29.162  31.429  1.00  0.00     0.031 A 
ATOM     48  C   UNL A   1      38.560  32.210  30.154  1.00  0.00     0.031 A 
ATOM     49  C   UNL A   1      44.597  30.505  31.926  1.00  0.00     0.049 A 
ATOM     50  C   UNL A   1      39.647  32.915  30.919  1.00  0.00     0.074 A 
ATOM     51  C   UNL A   1      45.537  31.268  32.595  1.00  0.00     0.029 A 
ATOM     52  N   UNL A   1      43.461  31.289  31.800  1.00  0.00    -0.354 N 
ATOM     53  N   UNL A   1      40.849  32.487  31.222  1.00  0.00    -0.248 NA
ATOM     54  C   UNL A   1      39.348  34.271  31.399  1.00  0.00     0.031 C 
ATOM     55  C   UNL A   1      44.956  32.501  32.910  1.00  0.00     0.029 A 
ATOM     56  C   UNL A   1      43.671  32.523  32.392  1.00  0.00     0.049 A 
ATOM     57  H   UNL A   1      42.628  31.011  31.355  1.00  0.00     0.167 HD
ATOM     58  C   UNL A   1      41.460  33.534  31.905  1.00  0.00     0.074 A 
ATOM     59  C   UNL A   1      40.499  34.616  31.960  1.00  0.00     0.031 C 
ATOM     60  C   UNL A   1      42.706  33.591  32.437  1.00  0.00     0.031 A 
BRANCH  47  61
ATOM     61  C   UNL A   1      46.008  28.417  31.697  1.00  0.00    -0.014 A 
ATOM     62  C   UNL A   1      46.155  27.616  32.843  1.00  0.00     0.010 A 
ATOM     63  C   UNL A   1      47.068  28.495  30.777  1.00  0.00     0.010 A 
ATOM     64  C   UNL A   1      47.355  26.944  33.089  1.00  0.00     0.020 A 
ATOM     65  C   UNL A   1      48.261  27.801  31.004  1.00  0.00     0.020 A 
ATOM     66  C   UNL A   1      48.403  27.046  32.169  1.00  0.00     0.054 A 
BRANCH  66  67
ATOM     67  S   UNL A   1      49.946  26.154  32.506  1.00  0.00     0.124 S 
ATOM     68  O   UNL A   1      49.455  24.936  33.144  1.00  0.00    -0.237 OA
ATOM     69  O   UNL A   1      50.514  25.978  31.171  1.00  0.00    -0.237 OA
ATOM     70  O   UNL A   1      50.687  27.061  33.379  1.00  0.00    -0.744 OA
ENDBRANCH  66  67
ENDBRANCH  47  61
BRANCH  48  71
ATOM     71  C   UNL A   1      37.251  32.874  29.906  1.00  0.00    -0.014 A 
ATOM     72  C   UNL A   1      36.186  32.704  30.809  1.00  0.00     0.010 A 
ATOM     73  C   UNL A   1      37.067  33.693  28.778  1.00  0.00     0.010 A 
ATOM     74  C   UNL A   1      34.957  33.328  30.580  1.00  0.00     0.020 A 
ATOM     75  C   UNL A   1      35.847  34.339  28.559  1.00  0.00     0.020 A 
ATOM     76  C   UNL A   1      34.796  34.144  29.457  1.00  0.00     0.054 A 
BRANCH  76  77
ATOM     77  S   UNL A   1      33.210  34.991  29.209  1.00  0.00     0.124 S 
ATOM     78  O   UNL A   1      33.635  36.281  28.676  1.00  0.00    -0.237 OA
ATOM     79  O   UNL A   1      32.525  34.110  28.266  1.00  0.00    -0.237 OA
ATOM     80  O   UNL A   1      32.629  35.026  30.549  1.00  0.00    -0.744 OA
ENDBRANCH  76  77
ENDBRANCH  48  71
BRANCH  60  81
ATOM     81  C   UNL A   1      43.118  34.880  33.097  1.00  0.00    -0.014 A 
ATOM     82  C   UNL A   1      42.932  35.084  34.475  1.00  0.00     0.010 A 
ATOM     83  C   UNL A   1      43.753  35.876  32.333  1.00  0.00     0.010 A 
ATOM     84  C   UNL A   1      43.348  36.276  35.073  1.00  0.00     0.020 A 
ATOM     85  C   UNL A   1      44.192  37.059  32.932  1.00  0.00     0.020 A 
ATOM     86  C   UNL A   1      43.975  37.257  34.297  1.00  0.00     0.054 A 
BRANCH  86  87
ATOM     87  S   UNL A   1      44.548  38.777  35.105  1.00  0.00     0.124 S 
ATOM     88  O   UNL A   1      43.800  39.803  34.385  1.00  0.00    -0.237 OA
ATOM     89  O   UNL A   1      44.153  38.571  36.496  1.00  0.00    -0.237 OA
ATOM     90  O   UNL A   1      45.989  38.772  34.867  1.00  0.00    -0.744 OA
ENDBRANCH  86  87
ENDBRANCH  60  81
ENDBRANCH  34  35
ENDBRANCH  26  29
ENDBRANCH  24  25
ENDBRANCH   1  24
TORSDOF 15
ENDMDL
MODEL 3
REMARK VINA RESULT:     -11.6      1.714      2.246
REMARK SMILES C[C@@H]1[C@H](C(=O)NCCCNC(=O)c2ccc(-c3c4nc(c(-c5ccc(S(=O)(=O)[O-])cc5)c5ccc([nH]5)c(-c5ccc(S(=O)(=O)[O-])cc5)c5nc(c(-c6ccc(S(=O)(=O)[O-])cc6)c6ccc3[nH]6)C=C5)C=C4)cc2)CC[N@@H+]1[C@@H](C)c1cc(F)cc(F)c1
REMARK SMILES IDX 8 1 7 2 6 3 4 4 5 5 3 7 1 8 2 9 75 10 73 11 74 12 76 14
REMARK SMILES IDX 77 15 78 16 79 17 85 18 80 19 83 20 81 21 82 22 84 23 9 24
REMARK SMILES IDX 10 25 11 26 12 28 13 29 14 30 72 31 15 32 71 33 16 34 17 35
REMARK SMILES IDX 18 36 65 37 19 38 70 39 64 40 66 41 20 42 69 43 63 44 62 45
REMARK SMILES IDX 21 47 51 48 32 49 50 50 33 51 36 52 49 53 67 54 34 55 35 56
REMARK SMILES IDX 48 58 68 59 37 60 22 61 23 62 31 63 24 64 30 65 25 66 26 67
REMARK SMILES IDX 27 68 28 69 29 70 52 71 53 72 61 73 54 74 60 75 55 76 56 77
REMARK SMILES IDX 57 78 58 79 59 80 38 81 39 82 47 83 40 84 46 85 41 86 42 87
REMARK SMILES IDX 43 88 44 89 45 90
REMARK H PARENT 6 6 75 13 10 27 66 46 36 57
REMARK Flexibility Score: inf
ROOT
ATOM      1  C   UNL A   1      33.210  27.793  25.690  1.00  0.00     0.042 C 
ENDROOT
BRANCH   1   2
ATOM      2  C   UNL A   1      32.021  26.863  25.467  1.00  0.00     0.117 C 
BRANCH   2   3
ATOM      3  N   UNL A   1      31.690  26.716  24.062  1.00  0.00    -0.356 N 
ATOM      4  C   UNL A   1      31.634  25.637  23.243  1.00  0.00     0.229 C 
ATOM      5  O   UNL A   1      31.342  25.865  22.063  1.00  0.00    -0.275 OA
ATOM      6  H   UNL A   1      31.460  27.564  23.617  1.00  0.00     0.163 HD
BRANCH   4   7
ATOM      7  C   UNL A   1      31.899  24.202  23.682  1.00  0.00     0.142 C 
ATOM      8  C   UNL A   1      34.436  24.815  23.884  1.00  0.00     0.076 C 
ATOM      9  C   UNL A   1      33.337  23.773  24.024  1.00  0.00     0.194 C 
ATOM     10  N   UNL A   1      33.228  23.015  25.271  1.00  0.00    -0.326 N 
ATOM     11  C   UNL A   1      31.004  23.669  24.794  1.00  0.00     0.081 C 
ATOM     12  C   UNL A   1      31.850  22.636  25.519  1.00  0.00     0.264 C 
ATOM     13  H   UNL A   1      33.793  22.188  25.074  1.00  0.00     0.348 HD
BRANCH  10  14
ATOM     14  C   UNL A   1      34.161  23.144  26.385  1.00  0.00     0.212 C 
ATOM     15  C   UNL A   1      33.599  22.617  27.712  1.00  0.00     0.081 C 
BRANCH  14  16
ATOM     16  C   UNL A   1      35.526  22.541  26.033  1.00  0.00     0.015 A 
ATOM     17  C   UNL A   1      36.738  23.241  26.169  1.00  0.00     0.049 A 
ATOM     18  C   UNL A   1      35.582  21.225  25.541  1.00  0.00     0.049 A 
ATOM     19  C   UNL A   1      37.944  22.650  25.799  1.00  0.00     0.126 A 
ATOM     20  C   UNL A   1      36.801  20.652  25.184  1.00  0.00     0.126 A 
ATOM     21  F   UNL A   1      39.082  23.346  25.930  1.00  0.00    -0.207 F 
ATOM     22  C   UNL A   1      37.989  21.358  25.303  1.00  0.00     0.078 A 
ATOM     23  F   UNL A   1      36.828  19.396  24.718  1.00  0.00    -0.207 F 
ENDBRANCH  14  16
ENDBRANCH  10  14
ENDBRANCH   4   7
ENDBRANCH   2   3
ENDBRANCH   1   2
BRANCH   1  24
ATOM     24  C   UNL A   1      33.428  28.193  27.140  1.00  0.00     0.118 C 
BRANCH  24  25
ATOM     25  N   UNL A   1      33.339  29.632  27.335  1.00  0.00    -0.352 N 
ATOM     26  C   UNL A   1      34.228  30.506  27.910  1.00  0.00     0.251 C 
ATOM     27  H   UNL A   1      32.510  30.044  27.001  1.00  0.00     0.163 HD
ATOM     28  O   UNL A   1      33.849  31.649  28.173  1.00  0.00    -0.269 OA
BRANCH  26  29
ATOM     29  C   UNL A   1      35.615  30.099  28.240  1.00  0.00     0.039 A 
ATOM     30  C   UNL A   1      36.587  30.133  27.234  1.00  0.00     0.014 A 
ATOM     31  C   UNL A   1      35.963  29.632  29.511  1.00  0.00     0.014 A 
ATOM     32  C   UNL A   1      37.905  29.755  27.516  1.00  0.00     0.010 A 
ATOM     33  C   UNL A   1      37.293  29.350  29.816  1.00  0.00     0.010 A 
ATOM     34  C   UNL A   1      38.278  29.388  28.819  1.00  0.00    -0.014 A 
BRANCH  34  35
ATOM     35  C   UNL A   1      39.677  29.004  29.152  1.00  0.00     0.031 A 
ATOM     36  C   UNL A   1      40.596  29.997  29.820  1.00  0.00     0.074 A 
ATOM     37  C   UNL A   1      40.144  27.787  28.806  1.00  0.00     0.049 A 
ATOM     38  N   UNL A   1      41.864  29.878  30.117  1.00  0.00    -0.248 NA
ATOM     39  C   UNL A   1      40.019  31.305  30.174  1.00  0.00     0.031 C 
ATOM     40  C   UNL A   1      39.375  26.744  28.123  1.00  0.00     0.029 A 
ATOM     41  N   UNL A   1      41.385  27.224  28.977  1.00  0.00    -0.354 N 
ATOM     42  C   UNL A   1      42.242  31.099  30.665  1.00  0.00     0.074 A 
ATOM     43  C   UNL A   1      41.083  31.961  30.615  1.00  0.00     0.031 C 
ATOM     44  C   UNL A   1      40.150  25.660  27.962  1.00  0.00     0.029 A 
ATOM     45  C   UNL A   1      41.482  25.941  28.490  1.00  0.00     0.049 A 
ATOM     46  H   UNL A   1      42.135  27.694  29.408  1.00  0.00     0.167 HD
ATOM     47  C   UNL A   1      43.439  31.467  31.186  1.00  0.00     0.031 A 
ATOM     48  C   UNL A   1      42.524  25.087  28.466  1.00  0.00     0.031 A 
ATOM     49  C   UNL A   1      44.585  30.602  31.265  1.00  0.00     0.049 A 
ATOM     50  C   UNL A   1      43.840  25.514  29.057  1.00  0.00     0.074 A 
ATOM     51  C   UNL A   1      45.823  30.865  31.825  1.00  0.00     0.029 A 
ATOM     52  N   UNL A   1      44.632  29.306  30.776  1.00  0.00    -0.354 N 
ATOM     53  N   UNL A   1      44.160  26.657  29.613  1.00  0.00    -0.248 NA
ATOM     54  C   UNL A   1      44.931  24.530  29.025  1.00  0.00     0.031 C 
ATOM     55  C   UNL A   1      46.633  29.739  31.639  1.00  0.00     0.029 A 
ATOM     56  C   UNL A   1      45.883  28.759  31.008  1.00  0.00     0.049 A 
ATOM     57  H   UNL A   1      43.887  28.842  30.330  1.00  0.00     0.167 HD
ATOM     58  C   UNL A   1      45.483  26.521  30.022  1.00  0.00     0.074 A 
ATOM     59  C   UNL A   1      45.897  25.181  29.659  1.00  0.00     0.031 C 
ATOM     60  C   UNL A   1      46.281  27.424  30.643  1.00  0.00     0.031 A 
BRANCH  47  61
ATOM     61  C   UNL A   1      43.563  32.873  31.713  1.00  0.00    -0.014 A 
ATOM     62  C   UNL A   1      44.039  33.914  30.895  1.00  0.00     0.010 A 
ATOM     63  C   UNL A   1      43.171  33.165  33.031  1.00  0.00     0.010 A 
ATOM     64  C   UNL A   1      44.166  35.211  31.400  1.00  0.00     0.020 A 
ATOM     65  C   UNL A   1      43.269  34.467  33.532  1.00  0.00     0.020 A 
ATOM     66  C   UNL A   1      43.785  35.477  32.719  1.00  0.00     0.054 A 
BRANCH  66  67
ATOM     67  S   UNL A   1      43.949  37.172  33.346  1.00  0.00     0.124 S 
ATOM     68  O   UNL A   1      43.876  37.955  32.115  1.00  0.00    -0.237 OA
ATOM     69  O   UNL A   1      42.799  37.296  34.238  1.00  0.00    -0.237 OA
ATOM     70  O   UNL A   1      45.250  37.171  34.009  1.00  0.00    -0.744 OA
ENDBRANCH  66  67
ENDBRANCH  47  61
BRANCH  48  71
ATOM     71  C   UNL A   1      42.357  23.730  27.881  1.00  0.00    -0.014 A 
ATOM     72  C   UNL A   1      42.554  23.520  26.504  1.00  0.00     0.010 A 
ATOM     73  C   UNL A   1      42.017  22.636  28.697  1.00  0.00     0.010 A 
ATOM     74  C   UNL A   1      42.400  22.246  25.952  1.00  0.00     0.020 A 
ATOM     75  C   UNL A   1      41.887  21.355  28.153  1.00  0.00     0.020 A 
ATOM     76  C   UNL A   1      42.070  21.170  26.781  1.00  0.00     0.054 A 
BRANCH  76  77
ATOM     77  S   UNL A   1      41.931  19.513  26.054  1.00  0.00     0.124 S 
ATOM     78  O   UNL A   1      42.778  19.629  24.871  1.00  0.00    -0.237 OA
ATOM     79  O   UNL A   1      42.445  18.656  27.120  1.00  0.00    -0.237 OA
ATOM     80  O   UNL A   1      40.501  19.375  25.791  1.00  0.00    -0.744 OA
ENDBRANCH  76  77
ENDBRANCH  48  71
BRANCH  60  81
ATOM     81  C   UNL A   1      47.674  26.986  31.003  1.00  0.00    -0.014 A 
ATOM     82  C   UNL A   1      47.956  26.407  32.252  1.00  0.00     0.010 A 
ATOM     83  C   UNL A   1      48.704  27.104  30.051  1.00  0.00     0.010 A 
ATOM     84  C   UNL A   1      49.251  25.979  32.555  1.00  0.00     0.020 A 
ATOM     85  C   UNL A   1      49.995  26.656  30.341  1.00  0.00     0.020 A 
ATOM     86  C   UNL A   1      50.263  26.108  31.597  1.00  0.00     0.054 A 
BRANCH  86  87
ATOM     87  S   UNL A   1      51.927  25.503  31.996  1.00  0.00     0.124 S 
ATOM     88  O   UNL A   1      52.231  26.238  33.220  1.00  0.00    -0.237 OA
ATOM     89  O   UNL A   1      51.716  24.067  32.161  1.00  0.00    -0.237 OA
ATOM     90  O   UNL A   1      52.720  25.880  30.829  1.00  0.00    -0.744 OA
ENDBRANCH  86  87
ENDBRANCH  60  81
ENDBRANCH  34  35
ENDBRANCH  26  29
ENDBRANCH  24  25
ENDBRANCH   1  24
TORSDOF 15
ENDMDL
