MODEL 1
REMARK VINA RESULT:     -11.2      0.000      0.000
REMARK SMILES C[C@H]1[C@@H](C(=O)NCCCNC(=O)c2ccc(-c3c4nc(c(-c5ccc(S(=O)(=O)[O-])cc5)c5ccc([nH]5)c(-c5ccc(S(=O)(=O)[O-])cc5)c5nc(c(-c6ccc(S(=O)(=O)[O-])cc6)c6ccc3[nH]6)C=C5)C=C4)cc2)CC[N@@H+]1CC1(O)CCCC1
REMARK SMILES IDX 8 1 7 2 6 3 4 4 5 5 3 7 1 8 2 9 75 10 73 11 74 12 76 14
REMARK SMILES IDX 77 15 79 16 82 17 80 18 81 19 78 20 9 22 10 23 11 24 12 26
REMARK SMILES IDX 13 27 14 28 72 29 15 30 71 31 16 32 17 33 18 34 65 35 19 36
REMARK SMILES IDX 70 37 64 38 66 39 20 40 69 41 63 42 62 43 21 45 51 46 32 47
REMARK SMILES IDX 50 48 33 49 36 50 49 51 67 52 34 53 35 54 48 56 68 57 37 58
REMARK SMILES IDX 22 59 23 60 31 61 24 62 30 63 25 64 26 65 27 66 28 67 29 68
REMARK SMILES IDX 52 69 53 70 61 71 54 72 60 73 55 74 56 75 57 76 58 77 59 78
REMARK SMILES IDX 38 79 39 80 47 81 40 82 46 83 41 84 42 85 43 86 44 87 45 88
REMARK H PARENT 6 6 75 13 78 21 10 25 66 44 36 55
REMARK Flexibility Score: inf
ROOT
ATOM      1  C   UNL A   1      33.662  28.098  25.476  1.00  0.00     0.042 C 
ENDROOT
BRANCH   1   2
ATOM      2  C   UNL A   1      33.074  26.756  25.042  1.00  0.00     0.117 C 
BRANCH   2   3
ATOM      3  N   UNL A   1      32.472  26.091  26.182  1.00  0.00    -0.356 N 
ATOM      4  C   UNL A   1      32.261  24.771  26.434  1.00  0.00     0.229 C 
ATOM      5  O   UNL A   1      31.424  24.512  27.301  1.00  0.00    -0.275 OA
ATOM      6  H   UNL A   1      32.163  26.698  26.893  1.00  0.00     0.163 HD
BRANCH   4   7
ATOM      7  C   UNL A   1      33.142  23.701  25.792  1.00  0.00     0.142 C 
ATOM      8  C   UNL A   1      31.050  22.121  25.469  1.00  0.00     0.076 C 
ATOM      9  C   UNL A   1      32.541  22.367  25.301  1.00  0.00     0.193 C 
ATOM     10  N   UNL A   1      33.212  21.300  26.046  1.00  0.00    -0.330 N 
ATOM     11  C   UNL A   1      34.252  23.272  26.771  1.00  0.00     0.081 C 
ATOM     12  C   UNL A   1      33.850  21.882  27.212  1.00  0.00     0.263 C 
ATOM     13  H   UNL A   1      32.502  20.647  26.379  1.00  0.00     0.348 HD
BRANCH  10  14
ATOM     14  C   UNL A   1      33.978  20.323  25.267  1.00  0.00     0.297 C 
BRANCH  14  15
ATOM     15  C   UNL A   1      33.308  19.049  24.690  1.00  0.00     0.113 C 
ATOM     16  C   UNL A   1      34.252  17.904  24.305  1.00  0.00     0.041 C 
ATOM     17  C   UNL A   1      32.644  19.347  23.338  1.00  0.00     0.041 C 
ATOM     18  C   UNL A   1      33.454  17.050  23.321  1.00  0.00     0.003 C 
ATOM     19  C   UNL A   1      32.383  17.969  22.736  1.00  0.00     0.003 C 
BRANCH  15  20
ATOM     20  O   UNL A   1      32.273  18.600  25.574  1.00  0.00    -0.384 OA
ATOM     21  H   UNL A   1      31.613  18.099  25.072  1.00  0.00     0.211 HD
ENDBRANCH  15  20
ENDBRANCH  14  15
ENDBRANCH  10  14
ENDBRANCH   4   7
ENDBRANCH   2   3
ENDBRANCH   1   2
BRANCH   1  22
ATOM     22  C   UNL A   1      33.716  28.298  26.985  1.00  0.00     0.118 C 
BRANCH  22  23
ATOM     23  N   UNL A   1      33.616  29.695  27.355  1.00  0.00    -0.352 N 
ATOM     24  C   UNL A   1      34.514  30.493  28.020  1.00  0.00     0.251 C 
ATOM     25  H   UNL A   1      32.779  30.139  27.091  1.00  0.00     0.163 HD
ATOM     26  O   UNL A   1      34.130  31.587  28.439  1.00  0.00    -0.269 OA
BRANCH  24  27
ATOM     27  C   UNL A   1      35.915  30.062  28.260  1.00  0.00     0.039 A 
ATOM     28  C   UNL A   1      36.260  29.590  29.530  1.00  0.00     0.014 A 
ATOM     29  C   UNL A   1      36.909  30.178  27.283  1.00  0.00     0.014 A 
ATOM     30  C   UNL A   1      37.577  29.208  29.807  1.00  0.00     0.010 A 
ATOM     31  C   UNL A   1      38.198  29.704  27.529  1.00  0.00     0.010 A 
ATOM     32  C   UNL A   1      38.558  29.243  28.803  1.00  0.00    -0.014 A 
BRANCH  32  33
ATOM     33  C   UNL A   1      39.966  28.857  29.090  1.00  0.00     0.031 A 
ATOM     34  C   UNL A   1      40.902  29.836  29.756  1.00  0.00     0.074 A 
ATOM     35  C   UNL A   1      40.419  27.640  28.730  1.00  0.00     0.049 A 
ATOM     36  N   UNL A   1      42.164  29.689  30.073  1.00  0.00    -0.248 NA
ATOM     37  C   UNL A   1      40.357  31.164  30.085  1.00  0.00     0.031 C 
ATOM     38  C   UNL A   1      39.637  26.616  28.034  1.00  0.00     0.029 A 
ATOM     39  N   UNL A   1      41.650  27.056  28.903  1.00  0.00    -0.354 N 
ATOM     40  C   UNL A   1      42.565  30.905  30.617  1.00  0.00     0.074 A 
ATOM     41  C   UNL A   1      41.430  31.797  30.536  1.00  0.00     0.031 C 
ATOM     42  C   UNL A   1      40.395  25.520  27.868  1.00  0.00     0.029 A 
ATOM     43  C   UNL A   1      41.725  25.772  28.416  1.00  0.00     0.049 A 
ATOM     44  H   UNL A   1      42.407  27.513  29.335  1.00  0.00     0.167 HD
ATOM     45  C   UNL A   1      43.759  31.246  31.159  1.00  0.00     0.031 A 
ATOM     46  C   UNL A   1      42.746  24.893  28.412  1.00  0.00     0.031 A 
ATOM     47  C   UNL A   1      44.883  30.354  31.262  1.00  0.00     0.049 A 
ATOM     48  C   UNL A   1      44.053  25.281  29.045  1.00  0.00     0.074 A 
ATOM     49  C   UNL A   1      46.118  30.589  31.842  1.00  0.00     0.029 A 
ATOM     50  N   UNL A   1      44.907  29.055  30.780  1.00  0.00    -0.354 N 
ATOM     51  N   UNL A   1      44.391  26.418  29.606  1.00  0.00    -0.248 NA
ATOM     52  C   UNL A   1      45.111  24.262  29.058  1.00  0.00     0.031 C 
ATOM     53  C   UNL A   1      46.903  29.441  31.677  1.00  0.00     0.029 A 
ATOM     54  C   UNL A   1      46.139  28.478  31.036  1.00  0.00     0.049 A 
ATOM     55  H   UNL A   1      44.159  28.608  30.321  1.00  0.00     0.167 HD
ATOM     56  C   UNL A   1      45.696  26.244  30.055  1.00  0.00     0.074 A 
ATOM     57  C   UNL A   1      46.076  24.887  29.719  1.00  0.00     0.031 C 
ATOM     58  C   UNL A   1      46.506  27.130  30.687  1.00  0.00     0.031 A 
BRANCH  45  59
ATOM     59  C   UNL A   1      43.902  32.650  31.688  1.00  0.00    -0.014 A 
ATOM     60  C   UNL A   1      44.315  33.701  30.849  1.00  0.00     0.010 A 
ATOM     61  C   UNL A   1      43.604  32.927  33.034  1.00  0.00     0.010 A 
ATOM     62  C   UNL A   1      44.477  34.993  31.358  1.00  0.00     0.020 A 
ATOM     63  C   UNL A   1      43.737  34.225  33.541  1.00  0.00     0.020 A 
ATOM     64  C   UNL A   1      44.194  35.245  32.703  1.00  0.00     0.054 A 
BRANCH  64  65
ATOM     65  S   UNL A   1      44.406  36.932  33.336  1.00  0.00     0.124 S 
ATOM     66  O   UNL A   1      45.012  36.688  34.643  1.00  0.00    -0.237 OA
ATOM     67  O   UNL A   1      45.285  37.541  32.341  1.00  0.00    -0.237 OA
ATOM     68  O   UNL A   1      43.046  37.463  33.370  1.00  0.00    -0.744 OA
ENDBRANCH  64  65
ENDBRANCH  45  59
BRANCH  46  69
ATOM     69  C   UNL A   1      42.557  23.545  27.809  1.00  0.00    -0.014 A 
ATOM     70  C   UNL A   1      42.862  23.320  26.455  1.00  0.00     0.010 A 
ATOM     71  C   UNL A   1      42.099  22.474  28.595  1.00  0.00     0.010 A 
ATOM     72  C   UNL A   1      42.701  22.050  25.895  1.00  0.00     0.020 A 
ATOM     73  C   UNL A   1      41.961  21.196  28.045  1.00  0.00     0.020 A 
ATOM     74  C   UNL A   1      42.255  20.994  26.694  1.00  0.00     0.054 A 
BRANCH  74  75
ATOM     75  S   UNL A   1      42.120  19.337  25.966  1.00  0.00     0.124 S 
ATOM     76  O   UNL A   1      40.684  19.226  25.727  1.00  0.00    -0.237 OA
ATOM     77  O   UNL A   1      42.955  19.446  24.773  1.00  0.00    -0.237 OA
ATOM     78  O   UNL A   1      42.652  18.462  27.008  1.00  0.00    -0.744 OA
ENDBRANCH  74  75
ENDBRANCH  46  69
BRANCH  58  79
ATOM     79  C   UNL A   1      47.879  26.649  31.073  1.00  0.00    -0.014 A 
ATOM     80  C   UNL A   1      48.969  26.787  30.197  1.00  0.00     0.010 A 
ATOM     81  C   UNL A   1      48.086  26.086  32.345  1.00  0.00     0.010 A 
ATOM     82  C   UNL A   1      50.237  26.332  30.571  1.00  0.00     0.020 A 
ATOM     83  C   UNL A   1      49.357  25.653  32.731  1.00  0.00     0.020 A 
ATOM     84  C   UNL A   1      50.422  25.763  31.834  1.00  0.00     0.054 A 
BRANCH  84  85
ATOM     85  S   UNL A   1      52.080  25.201  32.308  1.00  0.00     0.124 S 
ATOM     86  O   UNL A   1      51.904  23.753  32.367  1.00  0.00    -0.237 OA
ATOM     87  O   UNL A   1      52.912  25.690  31.210  1.00  0.00    -0.237 OA
ATOM     88  O   UNL A   1      52.312  25.855  33.594  1.00  0.00    -0.744 OA
ENDBRANCH  84  85
ENDBRANCH  58  79
ENDBRANCH  32  33
ENDBRANCH  24  27
ENDBRANCH  22  23
ENDBRANCH   1  22
TORSDOF 16
ENDMDL
MODEL 2
REMARK VINA RESULT:     -11.1      3.911     10.889
REMARK SMILES C[C@H]1[C@@H](C(=O)NCCCNC(=O)c2ccc(-c3c4nc(c(-c5ccc(S(=O)(=O)[O-])cc5)c5ccc([nH]5)c(-c5ccc(S(=O)(=O)[O-])cc5)c5nc(c(-c6ccc(S(=O)(=O)[O-])cc6)c6ccc3[nH]6)C=C5)C=C4)cc2)CC[N@@H+]1CC1(O)CCCC1
REMARK SMILES IDX 8 1 7 2 6 3 4 4 5 5 3 7 1 8 2 9 75 10 73 11 74 12 76 14
REMARK SMILES IDX 77 15 79 16 82 17 80 18 81 19 78 20 9 22 10 23 11 24 12 26
REMARK SMILES IDX 13 27 14 28 72 29 15 30 71 31 16 32 17 33 18 34 65 35 19 36
REMARK SMILES IDX 70 37 64 38 66 39 20 40 69 41 63 42 62 43 21 45 51 46 32 47
REMARK SMILES IDX 50 48 33 49 36 50 49 51 67 52 34 53 35 54 48 56 68 57 37 58
REMARK SMILES IDX 22 59 23 60 31 61 24 62 30 63 25 64 26 65 27 66 28 67 29 68
REMARK SMILES IDX 52 69 53 70 61 71 54 72 60 73 55 74 56 75 57 76 58 77 59 78
REMARK SMILES IDX 38 79 39 80 47 81 40 82 46 83 41 84 42 85 43 86 44 87 45 88
REMARK H PARENT 6 6 75 13 78 21 10 25 66 44 36 55
REMARK Flexibility Score: inf
ROOT
ATOM      1  C   UNL A   1      40.885  19.986  26.345  1.00  0.00     0.042 C 
ENDROOT
BRANCH   1   2
ATOM      2  C   UNL A   1      42.340  19.699  26.717  1.00  0.00     0.117 C 
BRANCH   2   3
ATOM      3  N   UNL A   1      43.111  19.434  25.517  1.00  0.00    -0.356 N 
ATOM      4  C   UNL A   1      44.009  20.206  24.848  1.00  0.00     0.229 C 
ATOM      5  O   UNL A   1      44.243  19.878  23.683  1.00  0.00    -0.275 OA
ATOM      6  H   UNL A   1      42.958  18.546  25.120  1.00  0.00     0.163 HD
BRANCH   4   7
ATOM      7  C   UNL A   1      44.794  21.299  25.571  1.00  0.00     0.142 C 
ATOM      8  C   UNL A   1      42.874  23.048  25.087  1.00  0.00     0.076 C 
ATOM      9  C   UNL A   1      44.229  22.730  25.699  1.00  0.00     0.193 C 
ATOM     10  N   UNL A   1      45.187  23.624  25.043  1.00  0.00    -0.330 N 
ATOM     11  C   UNL A   1      46.166  21.498  24.898  1.00  0.00     0.081 C 
ATOM     12  C   UNL A   1      46.049  22.829  24.188  1.00  0.00     0.263 C 
ATOM     13  H   UNL A   1      44.667  24.265  24.444  1.00  0.00     0.348 HD
BRANCH  10  14
ATOM     14  C   UNL A   1      45.815  24.653  25.876  1.00  0.00     0.297 C 
BRANCH  14  15
ATOM     15  C   UNL A   1      45.433  26.149  25.731  1.00  0.00     0.113 C 
ATOM     16  C   UNL A   1      45.862  27.069  26.880  1.00  0.00     0.041 C 
ATOM     17  C   UNL A   1      43.908  26.329  25.766  1.00  0.00     0.041 C 
ATOM     18  C   UNL A   1      44.949  28.291  26.767  1.00  0.00     0.003 C 
ATOM     19  C   UNL A   1      43.712  27.824  26.003  1.00  0.00     0.003 C 
BRANCH  15  20
ATOM     20  O   UNL A   1      45.884  26.647  24.465  1.00  0.00    -0.384 OA
ATOM     21  H   UNL A   1      46.825  26.870  24.522  1.00  0.00     0.211 HD
ENDBRANCH  15  20
ENDBRANCH  14  15
ENDBRANCH  10  14
ENDBRANCH   4   7
ENDBRANCH   2   3
ENDBRANCH   1   2
BRANCH   1  22
ATOM     22  C   UNL A   1      40.408  21.383  26.720  1.00  0.00     0.118 C 
BRANCH  22  23
ATOM     23  N   UNL A   1      39.316  21.831  25.880  1.00  0.00    -0.352 N 
ATOM     24  C   UNL A   1      38.655  23.034  25.869  1.00  0.00     0.251 C 
ATOM     25  H   UNL A   1      38.999  21.174  25.219  1.00  0.00     0.163 HD
ATOM     26  O   UNL A   1      37.601  23.119  25.234  1.00  0.00    -0.269 OA
BRANCH  24  27
ATOM     27  C   UNL A   1      39.164  24.214  26.612  1.00  0.00     0.039 A 
ATOM     28  C   UNL A   1      38.757  24.394  27.939  1.00  0.00     0.014 A 
ATOM     29  C   UNL A   1      39.977  25.181  26.013  1.00  0.00     0.014 A 
ATOM     30  C   UNL A   1      39.186  25.512  28.662  1.00  0.00     0.010 A 
ATOM     31  C   UNL A   1      40.485  26.241  26.764  1.00  0.00     0.010 A 
ATOM     32  C   UNL A   1      40.071  26.439  28.088  1.00  0.00    -0.014 A 
BRANCH  32  33
ATOM     33  C   UNL A   1      40.520  27.641  28.842  1.00  0.00     0.031 A 
ATOM     34  C   UNL A   1      41.897  27.681  29.460  1.00  0.00     0.074 A 
ATOM     35  C   UNL A   1      39.687  28.689  28.999  1.00  0.00     0.049 A 
ATOM     36  N   UNL A   1      42.460  28.630  30.164  1.00  0.00    -0.248 NA
ATOM     37  C   UNL A   1      42.741  26.487  29.288  1.00  0.00     0.031 C 
ATOM     38  C   UNL A   1      38.313  28.763  28.498  1.00  0.00     0.029 A 
ATOM     39  N   UNL A   1      39.877  29.897  29.624  1.00  0.00    -0.354 N 
ATOM     40  C   UNL A   1      43.709  28.142  30.532  1.00  0.00     0.074 A 
ATOM     41  C   UNL A   1      43.800  26.791  30.024  1.00  0.00     0.031 C 
ATOM     42  C   UNL A   1      37.796  29.963  28.807  1.00  0.00     0.029 A 
ATOM     43  C   UNL A   1      38.787  30.732  29.553  1.00  0.00     0.049 A 
ATOM     44  H   UNL A   1      40.715  30.142  30.080  1.00  0.00     0.167 HD
ATOM     45  C   UNL A   1      44.704  28.764  31.210  1.00  0.00     0.031 A 
ATOM     46  C   UNL A   1      38.603  31.979  30.032  1.00  0.00     0.031 A 
ATOM     47  C   UNL A   1      44.626  30.115  31.698  1.00  0.00     0.049 A 
ATOM     48  C   UNL A   1      39.730  32.662  30.756  1.00  0.00     0.074 A 
ATOM     49  C   UNL A   1      45.599  30.853  32.350  1.00  0.00     0.029 A 
ATOM     50  N   UNL A   1      43.513  30.933  31.583  1.00  0.00    -0.354 N 
ATOM     51  N   UNL A   1      40.924  32.201  31.042  1.00  0.00    -0.248 NA
ATOM     52  C   UNL A   1      39.489  34.039  31.207  1.00  0.00     0.031 C 
ATOM     53  C   UNL A   1      45.060  32.107  32.662  1.00  0.00     0.029 A 
ATOM     54  C   UNL A   1      43.769  32.164  32.162  1.00  0.00     0.049 A 
ATOM     55  H   UNL A   1      42.665  30.677  31.153  1.00  0.00     0.167 HD
ATOM     56  C   UNL A   1      41.584  33.239  31.692  1.00  0.00     0.074 A 
ATOM     57  C   UNL A   1      40.663  34.356  31.736  1.00  0.00     0.031 C 
ATOM     58  C   UNL A   1      42.838  33.263  32.207  1.00  0.00     0.031 A 
BRANCH  45  59
ATOM     59  C   UNL A   1      45.968  27.981  31.457  1.00  0.00    -0.014 A 
ATOM     60  C   UNL A   1      47.015  27.981  30.517  1.00  0.00     0.010 A 
ATOM     61  C   UNL A   1      46.120  27.250  32.649  1.00  0.00     0.010 A 
ATOM     62  C   UNL A   1      48.169  27.225  30.740  1.00  0.00     0.020 A 
ATOM     63  C   UNL A   1      47.285  26.514  32.890  1.00  0.00     0.020 A 
ATOM     64  C   UNL A   1      48.293  26.490  31.923  1.00  0.00     0.054 A 
BRANCH  64  65
ATOM     65  S   UNL A   1      49.804  25.522  32.191  1.00  0.00     0.124 S 
ATOM     66  O   UNL A   1      50.728  26.539  32.687  1.00  0.00    -0.237 OA
ATOM     67  O   UNL A   1      49.380  24.527  33.172  1.00  0.00    -0.237 OA
ATOM     68  O   UNL A   1      50.115  24.992  30.865  1.00  0.00    -0.744 OA
ENDBRANCH  64  65
ENDBRANCH  45  59
BRANCH  46  69
ATOM     69  C   UNL A   1      37.303  32.669  29.814  1.00  0.00    -0.014 A 
ATOM     70  C   UNL A   1      36.283  32.593  30.779  1.00  0.00     0.010 A 
ATOM     71  C   UNL A   1      37.089  33.429  28.650  1.00  0.00     0.010 A 
ATOM     72  C   UNL A   1      35.070  33.257  30.580  1.00  0.00     0.020 A 
ATOM     73  C   UNL A   1      35.886  34.114  28.460  1.00  0.00     0.020 A 
ATOM     74  C   UNL A   1      34.879  34.017  29.422  1.00  0.00     0.054 A 
BRANCH  74  75
ATOM     75  S   UNL A   1      33.324  34.928  29.216  1.00  0.00     0.124 S 
ATOM     76  O   UNL A   1      32.766  34.887  30.564  1.00  0.00    -0.237 OA
ATOM     77  O   UNL A   1      33.782  36.238  28.759  1.00  0.00    -0.237 OA
ATOM     78  O   UNL A   1      32.602  34.147  28.214  1.00  0.00    -0.744 OA
ENDBRANCH  74  75
ENDBRANCH  46  69
BRANCH  58  79
ATOM     79  C   UNL A   1      43.294  34.548  32.845  1.00  0.00    -0.014 A 
ATOM     80  C   UNL A   1      43.905  35.560  32.085  1.00  0.00     0.010 A 
ATOM     81  C   UNL A   1      43.072  34.758  34.218  1.00  0.00     0.010 A 
ATOM     82  C   UNL A   1      44.324  36.745  32.696  1.00  0.00     0.020 A 
ATOM     83  C   UNL A   1      43.468  35.952  34.827  1.00  0.00     0.020 A 
ATOM     84  C   UNL A   1      44.108  36.932  34.064  1.00  0.00     0.054 A 
BRANCH  84  85
ATOM     85  S   UNL A   1      44.638  38.487  34.831  1.00  0.00     0.124 S 
ATOM     86  O   UNL A   1      44.535  38.174  36.253  1.00  0.00    -0.237 OA
ATOM     87  O   UNL A   1      45.997  38.652  34.320  1.00  0.00    -0.237 OA
ATOM     88  O   UNL A   1      43.671  39.464  34.336  1.00  0.00    -0.744 OA
ENDBRANCH  84  85
ENDBRANCH  58  79
ENDBRANCH  32  33
ENDBRANCH  24  27
ENDBRANCH  22  23
ENDBRANCH   1  22
TORSDOF 16
ENDMDL
MODEL 3
REMARK VINA RESULT:     -10.8      4.695     10.288
REMARK SMILES C[C@H]1[C@@H](C(=O)NCCCNC(=O)c2ccc(-c3c4nc(c(-c5ccc(S(=O)(=O)[O-])cc5)c5ccc([nH]5)c(-c5ccc(S(=O)(=O)[O-])cc5)c5nc(c(-c6ccc(S(=O)(=O)[O-])cc6)c6ccc3[nH]6)C=C5)C=C4)cc2)CC[N@@H+]1CC1(O)CCCC1
REMARK SMILES IDX 8 1 7 2 6 3 4 4 5 5 3 7 1 8 2 9 75 10 73 11 74 12 76 14
REMARK SMILES IDX 77 15 79 16 82 17 80 18 81 19 78 20 9 22 10 23 11 24 12 26
REMARK SMILES IDX 13 27 14 28 72 29 15 30 71 31 16 32 17 33 18 34 65 35 19 36
REMARK SMILES IDX 70 37 64 38 66 39 20 40 69 41 63 42 62 43 21 45 51 46 32 47
REMARK SMILES IDX 50 48 33 49 36 50 49 51 67 52 34 53 35 54 48 56 68 57 37 58
REMARK SMILES IDX 22 59 23 60 31 61 24 62 30 63 25 64 26 65 27 66 28 67 29 68
REMARK SMILES IDX 52 69 53 70 61 71 54 72 60 73 55 74 56 75 57 76 58 77 59 78
REMARK SMILES IDX 38 79 39 80 47 81 40 82 46 83 41 84 42 85 43 86 44 87 45 88
REMARK H PARENT 6 6 75 13 78 21 10 25 66 44 36 55
REMARK Flexibility Score: inf
ROOT
ATOM      1  C   UNL A   1      39.607  22.027  26.683  1.00  0.00     0.042 C 
ENDROOT
BRANCH   1   2
ATOM      2  C   UNL A   1      38.405  22.023  25.739  1.00  0.00     0.117 C 
BRANCH   2   3
ATOM      3  N   UNL A   1      37.425  22.994  26.187  1.00  0.00    -0.356 N 
ATOM      4  C   UNL A   1      36.076  23.041  26.019  1.00  0.00     0.229 C 
ATOM      5  O   UNL A   1      35.546  24.140  26.193  1.00  0.00    -0.275 OA
ATOM      6  H   UNL A   1      37.800  23.747  26.699  1.00  0.00     0.163 HD
BRANCH   4   7
ATOM      7  C   UNL A   1      35.270  21.762  25.798  1.00  0.00     0.142 C 
ATOM      8  C   UNL A   1      34.369  22.686  23.493  1.00  0.00     0.076 C 
ATOM      9  C   UNL A   1      34.412  21.574  24.529  1.00  0.00     0.193 C 
ATOM     10  N   UNL A   1      33.030  21.387  24.976  1.00  0.00    -0.330 N 
ATOM     11  C   UNL A   1      34.274  21.559  26.956  1.00  0.00     0.081 C 
ATOM     12  C   UNL A   1      32.921  21.852  26.347  1.00  0.00     0.263 C 
ATOM     13  H   UNL A   1      32.426  21.977  24.403  1.00  0.00     0.348 HD
BRANCH  10  14
ATOM     14  C   UNL A   1      32.386  20.115  24.636  1.00  0.00     0.297 C 
BRANCH  14  15
ATOM     15  C   UNL A   1      33.031  18.758  25.019  1.00  0.00     0.113 C 
ATOM     16  C   UNL A   1      34.482  18.550  24.569  1.00  0.00     0.041 C 
ATOM     17  C   UNL A   1      32.332  17.598  24.297  1.00  0.00     0.041 C 
ATOM     18  C   UNL A   1      34.684  17.034  24.583  1.00  0.00     0.003 C 
ATOM     19  C   UNL A   1      33.291  16.422  24.460  1.00  0.00     0.003 C 
BRANCH  15  20
ATOM     20  O   UNL A   1      32.880  18.527  26.425  1.00  0.00    -0.384 OA
ATOM     21  H   UNL A   1      32.738  17.581  26.585  1.00  0.00     0.211 HD
ENDBRANCH  15  20
ENDBRANCH  14  15
ENDBRANCH  10  14
ENDBRANCH   4   7
ENDBRANCH   2   3
ENDBRANCH   1   2
BRANCH   1  22
ATOM     22  C   UNL A   1      40.032  23.413  27.148  1.00  0.00     0.118 C 
BRANCH  22  23
ATOM     23  N   UNL A   1      40.781  24.125  26.133  1.00  0.00    -0.352 N 
ATOM     24  C   UNL A   1      41.152  25.446  26.082  1.00  0.00     0.251 C 
ATOM     25  H   UNL A   1      41.067  23.581  25.365  1.00  0.00     0.163 HD
ATOM     26  O   UNL A   1      41.581  25.894  25.016  1.00  0.00    -0.269 OA
BRANCH  24  27
ATOM     27  C   UNL A   1      41.031  26.339  27.261  1.00  0.00     0.039 A 
ATOM     28  C   UNL A   1      40.004  26.096  28.179  1.00  0.00     0.014 A 
ATOM     29  C   UNL A   1      41.861  27.449  27.447  1.00  0.00     0.014 A 
ATOM     30  C   UNL A   1      39.833  26.937  29.285  1.00  0.00     0.010 A 
ATOM     31  C   UNL A   1      41.755  28.226  28.600  1.00  0.00     0.010 A 
ATOM     32  C   UNL A   1      40.719  28.001  29.518  1.00  0.00    -0.014 A 
BRANCH  32  33
ATOM     33  C   UNL A   1      40.538  28.912  30.680  1.00  0.00     0.031 A 
ATOM     34  C   UNL A   1      41.395  28.753  31.913  1.00  0.00     0.074 A 
ATOM     35  C   UNL A   1      39.586  29.867  30.647  1.00  0.00     0.049 A 
ATOM     36  N   UNL A   1      41.374  29.439  33.028  1.00  0.00    -0.248 NA
ATOM     37  C   UNL A   1      42.386  27.665  31.901  1.00  0.00     0.031 C 
ATOM     38  C   UNL A   1      38.654  30.097  29.541  1.00  0.00     0.029 A 
ATOM     39  N   UNL A   1      39.247  30.824  31.572  1.00  0.00    -0.354 N 
ATOM     40  C   UNL A   1      42.330  28.854  33.852  1.00  0.00     0.074 A 
ATOM     41  C   UNL A   1      42.873  27.724  33.132  1.00  0.00     0.031 C 
ATOM     42  C   UNL A   1      37.873  31.148  29.837  1.00  0.00     0.029 A 
ATOM     43  C   UNL A   1      38.223  31.646  31.163  1.00  0.00     0.049 A 
ATOM     44  H   UNL A   1      39.694  30.913  32.444  1.00  0.00     0.167 HD
ATOM     45  C   UNL A   1      42.741  29.233  35.086  1.00  0.00     0.031 A 
ATOM     46  C   UNL A   1      37.633  32.688  31.783  1.00  0.00     0.031 A 
ATOM     47  C   UNL A   1      42.220  30.371  35.797  1.00  0.00     0.049 A 
ATOM     48  C   UNL A   1      38.124  33.110  33.140  1.00  0.00     0.074 A 
ATOM     49  C   UNL A   1      42.608  30.868  37.029  1.00  0.00     0.029 A 
ATOM     50  N   UNL A   1      41.202  31.191  35.336  1.00  0.00    -0.354 N 
ATOM     51  N   UNL A   1      39.070  32.577  33.876  1.00  0.00    -0.248 NA
ATOM     52  C   UNL A   1      37.478  34.285  33.741  1.00  0.00     0.031 C 
ATOM     53  C   UNL A   1      41.797  31.970  37.329  1.00  0.00     0.029 A 
ATOM     54  C   UNL A   1      40.939  32.184  36.264  1.00  0.00     0.049 A 
ATOM     55  H   UNL A   1      40.735  31.083  34.476  1.00  0.00     0.167 HD
ATOM     56  C   UNL A   1      39.145  33.363  35.021  1.00  0.00     0.074 A 
ATOM     57  C   UNL A   1      38.164  34.419  34.868  1.00  0.00     0.031 C 
ATOM     58  C   UNL A   1      39.952  33.222  36.102  1.00  0.00     0.031 A 
BRANCH  45  59
ATOM     59  C   UNL A   1      43.816  28.406  35.742  1.00  0.00    -0.014 A 
ATOM     60  C   UNL A   1      43.487  27.322  36.577  1.00  0.00     0.010 A 
ATOM     61  C   UNL A   1      45.171  28.702  35.508  1.00  0.00     0.010 A 
ATOM     62  C   UNL A   1      44.492  26.581  37.206  1.00  0.00     0.020 A 
ATOM     63  C   UNL A   1      46.181  27.945  36.114  1.00  0.00     0.020 A 
ATOM     64  C   UNL A   1      45.833  26.903  36.976  1.00  0.00     0.054 A 
BRANCH  64  65
ATOM     65  S   UNL A   1      47.117  25.922  37.801  1.00  0.00     0.124 S 
ATOM     66  O   UNL A   1      46.614  25.860  39.171  1.00  0.00    -0.237 OA
ATOM     67  O   UNL A   1      47.084  24.662  37.062  1.00  0.00    -0.237 OA
ATOM     68  O   UNL A   1      48.330  26.716  37.618  1.00  0.00    -0.744 OA
ENDBRANCH  64  65
ENDBRANCH  45  59
BRANCH  46  69
ATOM     69  C   UNL A   1      36.527  33.418  31.107  1.00  0.00    -0.014 A 
ATOM     70  C   UNL A   1      36.700  33.936  29.811  1.00  0.00     0.010 A 
ATOM     71  C   UNL A   1      35.284  33.575  31.746  1.00  0.00     0.010 A 
ATOM     72  C   UNL A   1      35.654  34.605  29.171  1.00  0.00     0.020 A 
ATOM     73  C   UNL A   1      34.228  34.222  31.098  1.00  0.00     0.020 A 
ATOM     74  C   UNL A   1      34.422  34.742  29.817  1.00  0.00     0.054 A 
BRANCH  74  75
ATOM     75  S   UNL A   1      33.055  35.553  28.941  1.00  0.00     0.124 S 
ATOM     76  O   UNL A   1      32.517  34.459  28.138  1.00  0.00    -0.237 OA
ATOM     77  O   UNL A   1      32.205  36.012  30.036  1.00  0.00    -0.237 OA
ATOM     78  O   UNL A   1      33.716  36.617  28.190  1.00  0.00    -0.744 OA
ENDBRANCH  74  75
ENDBRANCH  46  69
BRANCH  58  79
ATOM     79  C   UNL A   1      39.820  34.247  37.196  1.00  0.00    -0.014 A 
ATOM     80  C   UNL A   1      38.956  34.039  38.285  1.00  0.00     0.010 A 
ATOM     81  C   UNL A   1      40.600  35.417  37.150  1.00  0.00     0.010 A 
ATOM     82  C   UNL A   1      38.843  35.003  39.290  1.00  0.00     0.020 A 
ATOM     83  C   UNL A   1      40.507  36.371  38.167  1.00  0.00     0.020 A 
ATOM     84  C   UNL A   1      39.616  36.165  39.222  1.00  0.00     0.054 A 
BRANCH  84  85
ATOM     85  S   UNL A   1      39.472  37.392  40.551  1.00  0.00     0.124 S 
ATOM     86  O   UNL A   1      39.177  36.553  41.708  1.00  0.00    -0.237 OA
ATOM     87  O   UNL A   1      40.790  38.024  40.551  1.00  0.00    -0.237 OA
ATOM     88  O   UNL A   1      38.376  38.253  40.108  1.00  0.00    -0.744 OA
ENDBRANCH  84  85
ENDBRANCH  58  79
ENDBRANCH  32  33
ENDBRANCH  24  27
ENDBRANCH  22  23
ENDBRANCH   1  22
TORSDOF 16
ENDMDL
