MODEL 1
REMARK VINA RESULT:     -11.5      0.000      0.000
REMARK SMILES COC(=O)c1cc(F)cc(-c2ccc(C(=O)NCCCNC(=O)c3ccc(-c4c5nc(c(-c6ccc(S(=O)(=O)[O-])cc6)c6ccc([nH]6)c(-c6ccc(S(=O)(=O)[O-])cc6)c6nc(c(-c7ccc(S(=O)(=O)[O-])cc7)c7ccc4[nH]7)C=C6)C=C5)cc3)cc2C)c1
REMARK SMILES IDX 19 1 18 2 17 3 15 4 16 5 14 7 11 8 12 9 85 10 13 11 84 12
REMARK SMILES IDX 86 13 10 14 5 15 6 16 87 17 7 18 8 19 9 20 3 21 4 22 2 23
REMARK SMILES IDX 1 24 20 25 21 26 22 27 23 29 24 30 25 31 83 32 26 33 82 34
REMARK SMILES IDX 27 35 28 36 29 37 76 38 30 39 81 40 75 41 77 42 31 43 80 44
REMARK SMILES IDX 74 45 73 46 32 48 62 49 43 50 61 51 44 52 47 53 60 54 78 55
REMARK SMILES IDX 45 56 46 57 59 59 79 60 48 61 33 62 34 63 42 64 35 65 41 66
REMARK SMILES IDX 36 67 37 68 38 69 39 70 40 71 63 72 64 73 72 74 65 75 71 76
REMARK SMILES IDX 66 77 67 78 68 79 69 80 70 81 49 82 50 83 58 84 51 85 57 86
REMARK SMILES IDX 52 87 53 88 54 89 55 90 56 91
REMARK H PARENT 17 6 21 28 77 47 47 58
REMARK Flexibility Score: inf
ROOT
ATOM      1  C   UNL A   1      34.154  33.662  28.729  1.00  0.00     0.042 C 
ENDROOT
BRANCH   1   2
ATOM      2  C   UNL A   1      33.697  33.889  30.285  1.00  0.00     0.118 C 
BRANCH   2   3
ATOM      3  N   UNL A   1      33.534  35.199  30.997  1.00  0.00    -0.352 N 
ATOM      4  C   UNL A   1      34.228  35.781  32.083  1.00  0.00     0.251 C 
ATOM      5  O   UNL A   1      34.001  36.920  32.488  1.00  0.00    -0.269 OA
ATOM      6  H   UNL A   1      32.807  35.760  30.640  1.00  0.00     0.163 HD
BRANCH   4   7
ATOM      7  C   UNL A   1      35.251  34.989  32.832  1.00  0.00     0.040 A 
ATOM      8  C   UNL A   1      37.176  34.111  34.700  1.00  0.00    -0.015 A 
ATOM      9  C   UNL A   1      35.796  34.161  34.977  1.00  0.00     0.010 A 
ATOM     10  C   UNL A   1      37.574  34.350  33.373  1.00  0.00    -0.042 A 
ATOM     11  C   UNL A   1      34.854  34.405  34.008  1.00  0.00     0.014 A 
ATOM     12  C   UNL A   1      36.608  34.867  32.459  1.00  0.00     0.018 A 
ATOM     13  C   UNL A   1      38.950  33.998  32.864  1.00  0.00     0.045 C 
BRANCH   8  14
ATOM     14  C   UNL A   1      38.023  33.723  35.846  1.00  0.00    -0.014 A 
ATOM     15  C   UNL A   1      38.070  32.460  37.951  1.00  0.00     0.063 A 
ATOM     16  C   UNL A   1      39.238  33.110  38.331  1.00  0.00     0.055 A 
ATOM     17  C   UNL A   1      37.516  32.729  36.704  1.00  0.00     0.024 A 
ATOM     18  C   UNL A   1      39.799  34.043  37.459  1.00  0.00     0.124 A 
ATOM     19  F   UNL A   1      40.932  34.662  37.820  1.00  0.00    -0.207 F 
ATOM     20  C   UNL A   1      39.195  34.378  36.241  1.00  0.00     0.048 A 
BRANCH  15  21
ATOM     21  C   UNL A   1      37.304  31.539  38.811  1.00  0.00     0.337 C 
ATOM     22  O   UNL A   1      37.002  30.395  38.464  1.00  0.00    -0.246 OA
BRANCH  21  23
ATOM     23  O   UNL A   1      36.873  32.166  39.925  1.00  0.00    -0.465 OA
ATOM     24  C   UNL A   1      35.746  31.519  40.519  1.00  0.00     0.282 C 
ENDBRANCH  21  23
ENDBRANCH  15  21
ENDBRANCH   8  14
ENDBRANCH   4   7
ENDBRANCH   2   3
ENDBRANCH   1   2
BRANCH   1  25
ATOM     25  C   UNL A   1      35.693  33.333  28.497  1.00  0.00     0.118 C 
BRANCH  25  26
ATOM     26  N   UNL A   1      36.864  32.691  29.437  1.00  0.00    -0.352 N 
ATOM     27  C   UNL A   1      37.903  31.630  29.608  1.00  0.00     0.251 C 
ATOM     28  H   UNL A   1      36.903  33.248  30.248  1.00  0.00     0.163 HD
ATOM     29  O   UNL A   1      38.948  32.118  30.092  1.00  0.00    -0.269 OA
BRANCH  27  30
ATOM     30  C   UNL A   1      38.113  30.044  29.253  1.00  0.00     0.039 A 
ATOM     31  C   UNL A   1      38.226  29.020  30.251  1.00  0.00     0.014 A 
ATOM     32  C   UNL A   1      38.284  29.496  28.005  1.00  0.00     0.014 A 
ATOM     33  C   UNL A   1      39.233  27.992  30.109  1.00  0.00     0.010 A 
ATOM     34  C   UNL A   1      39.241  28.460  27.841  1.00  0.00     0.010 A 
ATOM     35  C   UNL A   1      39.953  27.925  28.921  1.00  0.00    -0.014 A 
BRANCH  35  36
ATOM     36  C   UNL A   1      41.380  27.426  28.746  1.00  0.00     0.031 A 
ATOM     37  C   UNL A   1      41.571  26.037  28.372  1.00  0.00     0.074 A 
ATOM     38  C   UNL A   1      42.571  28.105  28.737  1.00  0.00     0.049 A 
ATOM     39  N   UNL A   1      42.217  25.154  29.058  1.00  0.00    -0.248 NA
ATOM     40  C   UNL A   1      41.001  25.552  27.126  1.00  0.00     0.031 C 
ATOM     41  C   UNL A   1      43.972  27.692  28.501  1.00  0.00     0.029 A 
ATOM     42  N   UNL A   1      42.786  29.447  28.971  1.00  0.00    -0.354 N 
ATOM     43  C   UNL A   1      42.416  24.118  28.172  1.00  0.00     0.074 A 
ATOM     44  C   UNL A   1      41.395  24.282  27.162  1.00  0.00     0.031 C 
ATOM     45  C   UNL A   1      44.809  28.624  29.024  1.00  0.00     0.029 A 
ATOM     46  C   UNL A   1      43.992  29.651  29.638  1.00  0.00     0.049 A 
ATOM     47  H   UNL A   1      42.169  30.166  28.703  1.00  0.00     0.167 HD
ATOM     48  C   UNL A   1      43.606  23.447  28.119  1.00  0.00     0.031 A 
ATOM     49  C   UNL A   1      43.934  30.070  30.943  1.00  0.00     0.031 A 
ATOM     50  C   UNL A   1      44.632  24.072  28.978  1.00  0.00     0.049 A 
ATOM     51  C   UNL A   1      44.288  28.942  31.874  1.00  0.00     0.074 A 
ATOM     52  C   UNL A   1      45.820  24.738  28.707  1.00  0.00     0.029 A 
ATOM     53  N   UNL A   1      44.345  24.364  30.306  1.00  0.00    -0.354 N 
ATOM     54  N   UNL A   1      44.696  27.780  31.457  1.00  0.00    -0.248 NA
ATOM     55  C   UNL A   1      44.146  28.983  33.327  1.00  0.00     0.031 C 
ATOM     56  C   UNL A   1      46.216  25.455  29.876  1.00  0.00     0.029 A 
ATOM     57  C   UNL A   1      45.298  25.193  30.876  1.00  0.00     0.049 A 
ATOM     58  H   UNL A   1      43.556  24.022  30.787  1.00  0.00     0.167 HD
ATOM     59  C   UNL A   1      44.794  26.908  32.493  1.00  0.00     0.074 A 
ATOM     60  C   UNL A   1      44.445  27.711  33.656  1.00  0.00     0.031 C 
ATOM     61  C   UNL A   1      45.139  25.606  32.272  1.00  0.00     0.031 A 
BRANCH  48  62
ATOM     62  C   UNL A   1      43.929  22.423  27.038  1.00  0.00    -0.014 A 
ATOM     63  C   UNL A   1      43.064  21.338  26.805  1.00  0.00     0.010 A 
ATOM     64  C   UNL A   1      45.049  22.495  26.182  1.00  0.00     0.010 A 
ATOM     65  C   UNL A   1      43.338  20.359  25.832  1.00  0.00     0.020 A 
ATOM     66  C   UNL A   1      45.370  21.502  25.248  1.00  0.00     0.020 A 
ATOM     67  C   UNL A   1      44.502  20.439  25.070  1.00  0.00     0.054 A 
BRANCH  67  68
ATOM     68  S   UNL A   1      44.835  19.193  23.799  1.00  0.00     0.124 S 
ATOM     69  O   UNL A   1      46.256  18.914  23.993  1.00  0.00    -0.237 OA
ATOM     70  O   UNL A   1      43.922  18.116  24.172  1.00  0.00    -0.237 OA
ATOM     71  O   UNL A   1      44.506  19.874  22.548  1.00  0.00    -0.744 OA
ENDBRANCH  67  68
ENDBRANCH  48  62
BRANCH  49  72
ATOM     72  C   UNL A   1      42.834  31.092  31.203  1.00  0.00    -0.014 A 
ATOM     73  C   UNL A   1      41.526  30.577  31.177  1.00  0.00     0.010 A 
ATOM     74  C   UNL A   1      43.059  31.969  32.244  1.00  0.00     0.010 A 
ATOM     75  C   UNL A   1      40.887  30.263  32.386  1.00  0.00     0.020 A 
ATOM     76  C   UNL A   1      42.338  31.727  33.425  1.00  0.00     0.020 A 
ATOM     77  C   UNL A   1      41.466  30.664  33.584  1.00  0.00     0.054 A 
BRANCH  77  78
ATOM     78  S   UNL A   1      41.318  29.371  35.223  1.00  0.00     0.124 S 
ATOM     79  O   UNL A   1      40.079  29.860  35.810  1.00  0.00    -0.237 OA
ATOM     80  O   UNL A   1      41.152  28.023  34.725  1.00  0.00    -0.237 OA
ATOM     81  O   UNL A   1      42.477  29.571  36.080  1.00  0.00    -0.744 OA
ENDBRANCH  77  78
ENDBRANCH  49  72
BRANCH  61  82
ATOM     82  C   UNL A   1      45.349  24.578  33.349  1.00  0.00    -0.014 A 
ATOM     83  C   UNL A   1      44.329  23.772  33.868  1.00  0.00     0.010 A 
ATOM     84  C   UNL A   1      46.620  24.470  33.961  1.00  0.00     0.010 A 
ATOM     85  C   UNL A   1      44.590  22.821  34.859  1.00  0.00     0.020 A 
ATOM     86  C   UNL A   1      46.891  23.547  34.966  1.00  0.00     0.020 A 
ATOM     87  C   UNL A   1      45.876  22.706  35.391  1.00  0.00     0.054 A 
BRANCH  87  88
ATOM     88  S   UNL A   1      46.184  21.479  36.675  1.00  0.00     0.124 S 
ATOM     89  O   UNL A   1      45.681  22.149  37.873  1.00  0.00    -0.237 OA
ATOM     90  O   UNL A   1      45.388  20.347  36.209  1.00  0.00    -0.237 OA
ATOM     91  O   UNL A   1      47.631  21.284  36.636  1.00  0.00    -0.744 OA
ENDBRANCH  87  88
ENDBRANCH  61  82
ENDBRANCH  35  36
ENDBRANCH  27  30
ENDBRANCH  25  26
ENDBRANCH   1  25
TORSDOF 16
ENDMDL
MODEL 2
REMARK VINA RESULT:     -11.4      5.258     12.195
REMARK SMILES COC(=O)c1cc(F)cc(-c2ccc(C(=O)NCCCNC(=O)c3ccc(-c4c5nc(c(-c6ccc(S(=O)(=O)[O-])cc6)c6ccc([nH]6)c(-c6ccc(S(=O)(=O)[O-])cc6)c6nc(c(-c7ccc(S(=O)(=O)[O-])cc7)c7ccc4[nH]7)C=C6)C=C5)cc3)cc2C)c1
REMARK SMILES IDX 19 1 18 2 17 3 15 4 16 5 14 7 11 8 12 9 85 10 13 11 84 12
REMARK SMILES IDX 86 13 10 14 5 15 6 16 87 17 7 18 8 19 9 20 3 21 4 22 2 23
REMARK SMILES IDX 1 24 20 25 21 26 22 27 23 29 24 30 25 31 83 32 26 33 82 34
REMARK SMILES IDX 27 35 28 36 29 37 76 38 30 39 81 40 75 41 77 42 31 43 80 44
REMARK SMILES IDX 74 45 73 46 32 48 62 49 43 50 61 51 44 52 47 53 60 54 78 55
REMARK SMILES IDX 45 56 46 57 59 59 79 60 48 61 33 62 34 63 42 64 35 65 41 66
REMARK SMILES IDX 36 67 37 68 38 69 39 70 40 71 63 72 64 73 72 74 65 75 71 76
REMARK SMILES IDX 66 77 67 78 68 79 69 80 70 81 49 82 50 83 58 84 51 85 57 86
REMARK SMILES IDX 52 87 53 88 54 89 55 90 56 91
REMARK H PARENT 17 6 21 28 77 47 47 58
REMARK Flexibility Score: inf
ROOT
ATOM      1  C   UNL A   1      37.555  23.399  26.029  1.00  0.00     0.042 C 
ENDROOT
BRANCH   1   2
ATOM      2  C   UNL A   1      37.638  22.089  25.050  1.00  0.00     0.118 C 
BRANCH   2   3
ATOM      3  N   UNL A   1      36.725  20.900  25.052  1.00  0.00    -0.352 N 
ATOM      4  C   UNL A   1      35.323  20.780  24.905  1.00  0.00     0.251 C 
ATOM      5  O   UNL A   1      34.747  19.695  24.853  1.00  0.00    -0.269 OA
ATOM      6  H   UNL A   1      37.188  20.040  25.180  1.00  0.00     0.163 HD
BRANCH   4   7
ATOM      7  C   UNL A   1      34.465  22.003  24.861  1.00  0.00     0.040 A 
ATOM      8  C   UNL A   1      33.493  24.649  25.015  1.00  0.00    -0.015 A 
ATOM      9  C   UNL A   1      34.353  24.199  23.995  1.00  0.00     0.010 A 
ATOM     10  C   UNL A   1      32.971  23.679  25.890  1.00  0.00    -0.042 A 
ATOM     11  C   UNL A   1      34.665  22.872  23.820  1.00  0.00     0.014 A 
ATOM     12  C   UNL A   1      33.526  22.365  25.853  1.00  0.00     0.018 A 
ATOM     13  C   UNL A   1      31.794  23.953  26.793  1.00  0.00     0.045 C 
BRANCH   8  14
ATOM     14  C   UNL A   1      33.185  26.093  24.973  1.00  0.00    -0.014 A 
ATOM     15  C   UNL A   1      32.027  27.846  23.704  1.00  0.00     0.063 A 
ATOM     16  C   UNL A   1      32.729  28.828  24.392  1.00  0.00     0.055 A 
ATOM     17  C   UNL A   1      32.218  26.510  24.039  1.00  0.00     0.024 A 
ATOM     18  C   UNL A   1      33.635  28.436  25.377  1.00  0.00     0.124 A 
ATOM     19  F   UNL A   1      34.305  29.383  26.050  1.00  0.00    -0.207 F 
ATOM     20  C   UNL A   1      33.894  27.088  25.655  1.00  0.00     0.048 A 
BRANCH  15  21
ATOM     21  C   UNL A   1      31.125  28.101  22.565  1.00  0.00     0.337 C 
ATOM     22  O   UNL A   1      30.757  27.215  21.791  1.00  0.00    -0.246 OA
BRANCH  21  23
ATOM     23  O   UNL A   1      30.896  29.423  22.419  1.00  0.00    -0.465 OA
ATOM     24  C   UNL A   1      29.507  29.752  22.490  1.00  0.00     0.282 C 
ENDBRANCH  21  23
ENDBRANCH  15  21
ENDBRANCH   8  14
ENDBRANCH   4   7
ENDBRANCH   2   3
ENDBRANCH   1   2
BRANCH   1  25
ATOM     25  C   UNL A   1      38.791  23.616  27.007  1.00  0.00     0.118 C 
BRANCH  25  26
ATOM     26  N   UNL A   1      39.735  24.900  27.365  1.00  0.00    -0.352 N 
ATOM     27  C   UNL A   1      40.010  26.044  28.287  1.00  0.00     0.251 C 
ATOM     28  H   UNL A   1      40.427  24.936  26.666  1.00  0.00     0.163 HD
ATOM     29  O   UNL A   1      41.239  26.144  28.501  1.00  0.00    -0.269 OA
BRANCH  27  30
ATOM     30  C   UNL A   1      39.174  27.134  29.180  1.00  0.00     0.039 A 
ATOM     31  C   UNL A   1      38.556  28.302  28.623  1.00  0.00     0.014 A 
ATOM     32  C   UNL A   1      39.016  27.131  30.545  1.00  0.00     0.014 A 
ATOM     33  C   UNL A   1      38.677  29.569  29.308  1.00  0.00     0.010 A 
ATOM     34  C   UNL A   1      39.094  28.366  31.242  1.00  0.00     0.010 A 
ATOM     35  C   UNL A   1      39.245  29.588  30.578  1.00  0.00    -0.014 A 
BRANCH  35  36
ATOM     36  C   UNL A   1      40.028  30.729  31.210  1.00  0.00     0.031 A 
ATOM     37  C   UNL A   1      41.098  30.389  32.129  1.00  0.00     0.074 A 
ATOM     38  C   UNL A   1      40.007  32.077  30.960  1.00  0.00     0.049 A 
ATOM     39  N   UNL A   1      41.168  30.743  33.369  1.00  0.00    -0.248 NA
ATOM     40  C   UNL A   1      42.209  29.579  31.657  1.00  0.00     0.031 C 
ATOM     41  C   UNL A   1      40.789  33.219  31.483  1.00  0.00     0.029 A 
ATOM     42  N   UNL A   1      39.184  32.767  30.094  1.00  0.00    -0.354 N 
ATOM     43  C   UNL A   1      42.476  30.489  33.719  1.00  0.00     0.074 A 
ATOM     44  C   UNL A   1      42.939  29.505  32.767  1.00  0.00     0.031 C 
ATOM     45  C   UNL A   1      40.108  34.371  31.254  1.00  0.00     0.029 A 
ATOM     46  C   UNL A   1      38.860  34.022  30.607  1.00  0.00     0.049 A 
ATOM     47  H   UNL A   1      38.866  32.420  29.230  1.00  0.00     0.167 HD
ATOM     48  C   UNL A   1      43.185  31.360  34.500  1.00  0.00     0.031 A 
ATOM     49  C   UNL A   1      37.567  34.228  31.014  1.00  0.00     0.031 A 
ATOM     50  C   UNL A   1      42.440  32.610  34.750  1.00  0.00     0.049 A 
ATOM     51  C   UNL A   1      37.484  34.246  32.517  1.00  0.00     0.074 A 
ATOM     52  C   UNL A   1      42.638  33.928  34.358  1.00  0.00     0.029 A 
ATOM     53  N   UNL A   1      41.131  32.560  35.214  1.00  0.00    -0.354 N 
ATOM     54  N   UNL A   1      38.531  34.183  33.284  1.00  0.00    -0.248 NA
ATOM     55  C   UNL A   1      36.241  34.254  33.284  1.00  0.00     0.031 C 
ATOM     56  C   UNL A   1      41.424  34.649  34.562  1.00  0.00     0.029 A 
ATOM     57  C   UNL A   1      40.497  33.789  35.121  1.00  0.00     0.049 A 
ATOM     58  H   UNL A   1      40.703  31.747  35.569  1.00  0.00     0.167 HD
ATOM     59  C   UNL A   1      38.162  34.060  34.586  1.00  0.00     0.074 A 
ATOM     60  C   UNL A   1      36.708  34.117  34.540  1.00  0.00     0.031 C 
ATOM     61  C   UNL A   1      39.105  33.907  35.561  1.00  0.00     0.031 A 
BRANCH  48  62
ATOM     62  C   UNL A   1      44.679  31.208  34.759  1.00  0.00    -0.014 A 
ATOM     63  C   UNL A   1      45.607  31.450  33.730  1.00  0.00     0.010 A 
ATOM     64  C   UNL A   1      45.239  30.870  36.010  1.00  0.00     0.010 A 
ATOM     65  C   UNL A   1      46.993  31.298  33.923  1.00  0.00     0.020 A 
ATOM     66  C   UNL A   1      46.609  30.658  36.207  1.00  0.00     0.020 A 
ATOM     67  C   UNL A   1      47.485  30.884  35.160  1.00  0.00     0.054 A 
BRANCH  67  68
ATOM     68  S   UNL A   1      49.269  30.719  35.411  1.00  0.00     0.124 S 
ATOM     69  O   UNL A   1      49.352  29.664  36.417  1.00  0.00    -0.237 OA
ATOM     70  O   UNL A   1      49.740  30.360  34.077  1.00  0.00    -0.237 OA
ATOM     71  O   UNL A   1      49.681  32.044  35.874  1.00  0.00    -0.744 OA
ENDBRANCH  67  68
ENDBRANCH  48  62
BRANCH  49  72
ATOM     72  C   UNL A   1      36.534  33.583  30.099  1.00  0.00    -0.014 A 
ATOM     73  C   UNL A   1      35.555  32.816  30.755  1.00  0.00     0.010 A 
ATOM     74  C   UNL A   1      36.022  34.390  29.102  1.00  0.00     0.010 A 
ATOM     75  C   UNL A   1      34.298  33.383  31.016  1.00  0.00     0.020 A 
ATOM     76  C   UNL A   1      34.719  34.872  29.303  1.00  0.00     0.020 A 
ATOM     77  C   UNL A   1      33.970  34.602  30.435  1.00  0.00     0.054 A 
BRANCH  77  78
ATOM     78  S   UNL A   1      32.836  35.950  31.566  1.00  0.00     0.124 S 
ATOM     79  O   UNL A   1      32.299  36.777  30.496  1.00  0.00    -0.237 OA
ATOM     80  O   UNL A   1      31.780  35.214  32.226  1.00  0.00    -0.237 OA
ATOM     81  O   UNL A   1      33.729  36.675  32.458  1.00  0.00    -0.744 OA
ENDBRANCH  77  78
ENDBRANCH  49  72
BRANCH  61  82
ATOM     82  C   UNL A   1      38.813  33.838  37.034  1.00  0.00    -0.014 A 
ATOM     83  C   UNL A   1      37.938  32.911  37.613  1.00  0.00     0.010 A 
ATOM     84  C   UNL A   1      39.363  34.818  37.893  1.00  0.00     0.010 A 
ATOM     85  C   UNL A   1      37.720  32.886  38.994  1.00  0.00     0.020 A 
ATOM     86  C   UNL A   1      39.135  34.824  39.266  1.00  0.00     0.020 A 
ATOM     87  C   UNL A   1      38.334  33.835  39.813  1.00  0.00     0.054 A 
BRANCH  87  88
ATOM     88  S   UNL A   1      38.027  33.787  41.588  1.00  0.00     0.124 S 
ATOM     89  O   UNL A   1      37.942  32.353  41.852  1.00  0.00    -0.237 OA
ATOM     90  O   UNL A   1      39.214  34.453  42.118  1.00  0.00    -0.237 OA
ATOM     91  O   UNL A   1      36.774  34.522  41.750  1.00  0.00    -0.744 OA
ENDBRANCH  87  88
ENDBRANCH  61  82
ENDBRANCH  35  36
ENDBRANCH  27  30
ENDBRANCH  25  26
ENDBRANCH   1  25
TORSDOF 16
ENDMDL
MODEL 3
REMARK VINA RESULT:     -11.4      6.091     11.941
REMARK SMILES COC(=O)c1cc(F)cc(-c2ccc(C(=O)NCCCNC(=O)c3ccc(-c4c5nc(c(-c6ccc(S(=O)(=O)[O-])cc6)c6ccc([nH]6)c(-c6ccc(S(=O)(=O)[O-])cc6)c6nc(c(-c7ccc(S(=O)(=O)[O-])cc7)c7ccc4[nH]7)C=C6)C=C5)cc3)cc2C)c1
REMARK SMILES IDX 19 1 18 2 17 3 15 4 16 5 14 7 11 8 12 9 85 10 13 11 84 12
REMARK SMILES IDX 86 13 10 14 5 15 6 16 87 17 7 18 8 19 9 20 3 21 4 22 2 23
REMARK SMILES IDX 1 24 20 25 21 26 22 27 23 29 24 30 25 31 83 32 26 33 82 34
REMARK SMILES IDX 27 35 28 36 29 37 76 38 30 39 81 40 75 41 77 42 31 43 80 44
REMARK SMILES IDX 74 45 73 46 32 48 62 49 43 50 61 51 44 52 47 53 60 54 78 55
REMARK SMILES IDX 45 56 46 57 59 59 79 60 48 61 33 62 34 63 42 64 35 65 41 66
REMARK SMILES IDX 36 67 37 68 38 69 39 70 40 71 63 72 64 73 72 74 65 75 71 76
REMARK SMILES IDX 66 77 67 78 68 79 69 80 70 81 49 82 50 83 58 84 51 85 57 86
REMARK SMILES IDX 52 87 53 88 54 89 55 90 56 91
REMARK H PARENT 17 6 21 28 77 47 47 58
REMARK Flexibility Score: inf
ROOT
ATOM      1  C   UNL A   1      34.473  31.027  27.630  1.00  0.00     0.042 C 
ENDROOT
BRANCH   1   2
ATOM      2  C   UNL A   1      34.055  29.685  26.791  1.00  0.00     0.118 C 
BRANCH   2   3
ATOM      3  N   UNL A   1      33.496  29.625  25.401  1.00  0.00    -0.352 N 
ATOM      4  C   UNL A   1      32.994  28.555  24.625  1.00  0.00     0.251 C 
ATOM      5  O   UNL A   1      32.495  28.712  23.512  1.00  0.00    -0.269 OA
ATOM      6  H   UNL A   1      33.473  30.496  24.942  1.00  0.00     0.163 HD
BRANCH   4   7
ATOM      7  C   UNL A   1      33.107  27.149  25.122  1.00  0.00     0.040 A 
ATOM      8  C   UNL A   1      33.231  24.336  25.315  1.00  0.00    -0.015 A 
ATOM      9  C   UNL A   1      34.279  25.123  24.798  1.00  0.00     0.010 A 
ATOM     10  C   UNL A   1      32.154  25.013  25.914  1.00  0.00    -0.042 A 
ATOM     11  C   UNL A   1      34.288  26.494  24.884  1.00  0.00     0.014 A 
ATOM     12  C   UNL A   1      32.064  26.427  25.742  1.00  0.00     0.018 A 
ATOM     13  C   UNL A   1      31.151  24.316  26.799  1.00  0.00     0.045 C 
BRANCH   8  14
ATOM     14  C   UNL A   1      33.453  22.878  25.231  1.00  0.00    -0.014 A 
ATOM     15  C   UNL A   1      35.171  21.124  25.177  1.00  0.00     0.063 A 
ATOM     16  C   UNL A   1      34.237  20.204  24.717  1.00  0.00     0.055 A 
ATOM     17  C   UNL A   1      34.760  22.419  25.480  1.00  0.00     0.024 A 
ATOM     18  C   UNL A   1      32.918  20.622  24.538  1.00  0.00     0.124 A 
ATOM     19  F   UNL A   1      32.013  19.732  24.105  1.00  0.00    -0.207 F 
ATOM     20  C   UNL A   1      32.522  21.947  24.760  1.00  0.00     0.048 A 
BRANCH  15  21
ATOM     21  C   UNL A   1      36.616  20.861  25.305  1.00  0.00     0.337 C 
ATOM     22  O   UNL A   1      37.136  19.797  24.965  1.00  0.00    -0.246 OA
BRANCH  21  23
ATOM     23  O   UNL A   1      37.231  21.866  25.965  1.00  0.00    -0.465 OA
ATOM     24  C   UNL A   1      38.620  21.964  25.646  1.00  0.00     0.282 C 
ENDBRANCH  21  23
ENDBRANCH  15  21
ENDBRANCH   8  14
ENDBRANCH   4   7
ENDBRANCH   2   3
ENDBRANCH   1   2
BRANCH   1  25
ATOM     25  C   UNL A   1      35.592  30.831  28.743  1.00  0.00     0.118 C 
BRANCH  25  26
ATOM     26  N   UNL A   1      36.439  29.542  29.279  1.00  0.00    -0.352 N 
ATOM     27  C   UNL A   1      37.710  28.758  29.225  1.00  0.00     0.251 C 
ATOM     28  H   UNL A   1      35.854  29.075  29.919  1.00  0.00     0.163 HD
ATOM     29  O   UNL A   1      38.049  28.400  30.375  1.00  0.00    -0.269 OA
BRANCH  27  30
ATOM     30  C   UNL A   1      38.842  28.321  28.123  1.00  0.00     0.039 A 
ATOM     31  C   UNL A   1      39.250  26.963  27.907  1.00  0.00     0.014 A 
ATOM     32  C   UNL A   1      39.589  29.162  27.334  1.00  0.00     0.014 A 
ATOM     33  C   UNL A   1      40.654  26.656  27.754  1.00  0.00     0.010 A 
ATOM     34  C   UNL A   1      40.963  28.866  27.136  1.00  0.00     0.010 A 
ATOM     35  C   UNL A   1      41.558  27.708  27.649  1.00  0.00    -0.014 A 
BRANCH  35  36
ATOM     36  C   UNL A   1      43.013  27.709  28.095  1.00  0.00     0.031 A 
ATOM     37  C   UNL A   1      43.731  28.969  28.062  1.00  0.00     0.074 A 
ATOM     38  C   UNL A   1      43.771  26.728  28.682  1.00  0.00     0.049 A 
ATOM     39  N   UNL A   1      44.797  29.211  27.373  1.00  0.00    -0.248 NA
ATOM     40  C   UNL A   1      43.245  30.085  28.855  1.00  0.00     0.031 C 
ATOM     41  C   UNL A   1      45.155  26.690  29.202  1.00  0.00     0.029 A 
ATOM     42  N   UNL A   1      43.410  25.424  28.953  1.00  0.00    -0.354 N 
ATOM     43  C   UNL A   1      45.288  30.380  27.912  1.00  0.00     0.074 A 
ATOM     44  C   UNL A   1      44.154  31.007  28.553  1.00  0.00     0.031 C 
ATOM     45  C   UNL A   1      45.570  25.400  29.279  1.00  0.00     0.029 A 
ATOM     46  C   UNL A   1      44.493  24.563  28.790  1.00  0.00     0.049 A 
ATOM     47  H   UNL A   1      42.508  25.139  29.224  1.00  0.00     0.167 HD
ATOM     48  C   UNL A   1      46.627  30.558  28.122  1.00  0.00     0.031 A 
ATOM     49  C   UNL A   1      44.462  23.696  27.728  1.00  0.00     0.031 A 
ATOM     50  C   UNL A   1      47.396  29.325  27.860  1.00  0.00     0.049 A 
ATOM     51  C   UNL A   1      45.414  24.145  26.653  1.00  0.00     0.074 A 
ATOM     52  C   UNL A   1      48.116  28.464  28.679  1.00  0.00     0.029 A 
ATOM     53  N   UNL A   1      47.221  28.634  26.668  1.00  0.00    -0.354 N 
ATOM     54  N   UNL A   1      46.218  25.156  26.796  1.00  0.00    -0.248 NA
ATOM     55  C   UNL A   1      45.496  23.565  25.315  1.00  0.00     0.031 C 
ATOM     56  C   UNL A   1      48.335  27.243  27.972  1.00  0.00     0.029 A 
ATOM     57  C   UNL A   1      47.792  27.372  26.707  1.00  0.00     0.049 A 
ATOM     58  H   UNL A   1      46.746  28.998  25.885  1.00  0.00     0.167 HD
ATOM     59  C   UNL A   1      46.847  25.435  25.625  1.00  0.00     0.074 A 
ATOM     60  C   UNL A   1      46.368  24.401  24.720  1.00  0.00     0.031 C 
ATOM     61  C   UNL A   1      47.688  26.507  25.529  1.00  0.00     0.031 A 
BRANCH  48  62
ATOM     62  C   UNL A   1      47.192  31.754  28.878  1.00  0.00    -0.014 A 
ATOM     63  C   UNL A   1      47.460  32.960  28.204  1.00  0.00     0.010 A 
ATOM     64  C   UNL A   1      47.442  31.773  30.267  1.00  0.00     0.010 A 
ATOM     65  C   UNL A   1      48.004  34.079  28.862  1.00  0.00     0.020 A 
ATOM     66  C   UNL A   1      48.035  32.855  30.929  1.00  0.00     0.020 A 
ATOM     67  C   UNL A   1      48.305  34.012  30.221  1.00  0.00     0.054 A 
BRANCH  67  68
ATOM     68  S   UNL A   1      48.975  35.464  31.068  1.00  0.00     0.124 S 
ATOM     69  O   UNL A   1      47.953  35.746  32.073  1.00  0.00    -0.237 OA
ATOM     70  O   UNL A   1      50.248  34.966  31.582  1.00  0.00    -0.237 OA
ATOM     71  O   UNL A   1      49.089  36.465  30.009  1.00  0.00    -0.744 OA
ENDBRANCH  67  68
ENDBRANCH  48  62
BRANCH  49  72
ATOM     72  C   UNL A   1      43.081  23.105  27.469  1.00  0.00    -0.014 A 
ATOM     73  C   UNL A   1      42.665  23.134  26.126  1.00  0.00     0.010 A 
ATOM     74  C   UNL A   1      42.807  21.910  28.103  1.00  0.00     0.010 A 
ATOM     75  C   UNL A   1      42.803  21.981  25.338  1.00  0.00     0.020 A 
ATOM     76  C   UNL A   1      42.834  20.760  27.298  1.00  0.00     0.020 A 
ATOM     77  C   UNL A   1      43.142  20.779  25.949  1.00  0.00     0.054 A 
BRANCH  77  78
ATOM     78  S   UNL A   1      44.422  19.485  24.914  1.00  0.00     0.124 S 
ATOM     79  O   UNL A   1      45.706  19.980  25.388  1.00  0.00    -0.237 OA
ATOM     80  O   UNL A   1      44.185  18.138  25.387  1.00  0.00    -0.237 OA
ATOM     81  O   UNL A   1      44.224  19.678  23.486  1.00  0.00    -0.744 OA
ENDBRANCH  77  78
ENDBRANCH  49  72
BRANCH  61  82
ATOM     82  C   UNL A   1      48.491  26.861  24.309  1.00  0.00    -0.014 A 
ATOM     83  C   UNL A   1      49.887  26.778  24.244  1.00  0.00     0.010 A 
ATOM     84  C   UNL A   1      47.832  27.409  23.184  1.00  0.00     0.010 A 
ATOM     85  C   UNL A   1      50.578  27.107  23.073  1.00  0.00     0.020 A 
ATOM     86  C   UNL A   1      48.507  27.765  22.021  1.00  0.00     0.020 A 
ATOM     87  C   UNL A   1      49.879  27.584  21.964  1.00  0.00     0.054 A 
BRANCH  87  88
ATOM     88  S   UNL A   1      50.795  28.011  20.471  1.00  0.00     0.124 S 
ATOM     89  O   UNL A   1      52.099  27.400  20.719  1.00  0.00    -0.237 OA
ATOM     90  O   UNL A   1      49.991  27.373  19.431  1.00  0.00    -0.237 OA
ATOM     91  O   UNL A   1      50.788  29.472  20.458  1.00  0.00    -0.744 OA
ENDBRANCH  87  88
ENDBRANCH  61  82
ENDBRANCH  35  36
ENDBRANCH  27  30
ENDBRANCH  25  26
ENDBRANCH   1  25
TORSDOF 16
ENDMDL
