MODEL 1
REMARK VINA RESULT:     -11.1      0.000      0.000
REMARK SMILES COC(=O)[C@H]1CCN(S(=O)(=O)N2CCC[C@H](C(=O)NCCCNC(=O)c3ccc(-c4c5nc(c(-c6ccc(S(=O)(=O)[O-])cc6)c6ccc([nH]6)c(-c6ccc(S(=O)(=O)[O-])cc6)c6nc(c(-c7ccc(S(=O)(=O)[O-])cc7)c7ccc4[nH]7)C=C6)C=C5)cc3)C2)C1
REMARK SMILES IDX 20 1 19 2 17 3 18 4 16 6 12 7 13 8 86 9 14 10 15 11 9 12
REMARK SMILES IDX 10 13 11 14 8 15 5 16 6 17 87 18 7 19 3 20 4 21 2 22 1 23
REMARK SMILES IDX 21 24 22 25 23 26 24 27 25 29 26 30 27 31 85 32 28 33 84 34
REMARK SMILES IDX 29 35 30 36 31 37 78 38 32 39 83 40 77 41 79 42 33 43 82 44
REMARK SMILES IDX 76 45 75 46 34 48 64 49 45 50 63 51 46 52 49 53 62 54 80 55
REMARK SMILES IDX 47 56 48 57 61 59 81 60 50 61 35 62 36 63 44 64 37 65 43 66
REMARK SMILES IDX 38 67 39 68 40 69 41 70 42 71 65 72 66 73 74 74 67 75 73 76
REMARK SMILES IDX 68 77 69 78 70 79 71 80 72 81 51 82 52 83 60 84 53 85 59 86
REMARK SMILES IDX 54 87 55 88 56 89 57 90 58 91
REMARK H PARENT 19 5 23 28 79 47 49 58
REMARK Flexibility Score: inf
ROOT
ATOM      1  C   UNL A   1      32.032  27.707  25.112  1.00  0.00     0.117 C 
ENDROOT
BRANCH   1   2
ATOM      2  N   UNL A   1      31.705  26.577  25.955  1.00  0.00    -0.356 N 
ATOM      3  C   UNL A   1      32.144  25.297  25.974  1.00  0.00     0.224 C 
ATOM      4  O   UNL A   1      31.692  24.586  26.882  1.00  0.00    -0.275 OA
ATOM      5  H   UNL A   1      31.036  26.778  26.648  1.00  0.00     0.163 HD
BRANCH   3   6
ATOM      6  C   UNL A   1      33.126  24.681  24.975  1.00  0.00     0.094 C 
ATOM      7  N   UNL A   1      33.518  22.260  25.367  1.00  0.00    -0.188 NA
ATOM      8  C   UNL A   1      34.978  22.407  25.474  1.00  0.00     0.103 C 
ATOM      9  C   UNL A   1      32.823  23.257  24.542  1.00  0.00     0.117 C 
ATOM     10  C   UNL A   1      35.342  23.810  25.955  1.00  0.00     0.018 C 
ATOM     11  C   UNL A   1      34.610  24.933  25.230  1.00  0.00     0.016 C 
BRANCH   7  12
ATOM     12  S   UNL A   1      32.853  20.737  25.560  1.00  0.00     0.282 S 
ATOM     13  O   UNL A   1      31.421  20.822  25.422  1.00  0.00    -0.195 OA
ATOM     14  O   UNL A   1      33.457  20.139  26.729  1.00  0.00    -0.195 OA
BRANCH  12  15
ATOM     15  N   UNL A   1      33.465  19.928  24.205  1.00  0.00    -0.188 NA
ATOM     16  C   UNL A   1      33.891  17.574  23.845  1.00  0.00     0.116 C 
ATOM     17  C   UNL A   1      32.435  17.883  23.560  1.00  0.00     0.033 C 
ATOM     18  C   UNL A   1      34.405  18.814  24.565  1.00  0.00     0.118 C 
ATOM     19  C   UNL A   1      32.474  19.365  23.257  1.00  0.00     0.104 C 
BRANCH  16  20
ATOM     20  C   UNL A   1      34.061  16.370  24.730  1.00  0.00     0.310 C 
ATOM     21  O   UNL A   1      34.948  15.537  24.617  1.00  0.00    -0.252 OA
BRANCH  20  22
ATOM     22  O   UNL A   1      33.054  16.321  25.645  1.00  0.00    -0.469 OA
ATOM     23  C   UNL A   1      32.411  15.050  25.732  1.00  0.00     0.282 C 
ENDBRANCH  20  22
ENDBRANCH  16  20
ENDBRANCH  12  15
ENDBRANCH   7  12
ENDBRANCH   3   6
ENDBRANCH   1   2
BRANCH   1  24
ATOM     24  C   UNL A   1      33.407  28.276  25.409  1.00  0.00     0.042 C 
BRANCH  24  25
ATOM     25  C   UNL A   1      33.673  28.416  26.894  1.00  0.00     0.118 C 
BRANCH  25  26
ATOM     26  N   UNL A   1      33.560  29.798  27.346  1.00  0.00    -0.352 N 
ATOM     27  C   UNL A   1      34.431  30.569  28.076  1.00  0.00     0.251 C 
ATOM     28  H   UNL A   1      32.726  30.251  27.086  1.00  0.00     0.163 HD
ATOM     29  O   UNL A   1      34.055  31.646  28.531  1.00  0.00    -0.269 OA
BRANCH  27  30
ATOM     30  C   UNL A   1      35.809  30.099  28.328  1.00  0.00     0.039 A 
ATOM     31  C   UNL A   1      36.754  30.177  27.303  1.00  0.00     0.014 A 
ATOM     32  C   UNL A   1      36.169  29.576  29.571  1.00  0.00     0.014 A 
ATOM     33  C   UNL A   1      38.072  29.789  27.549  1.00  0.00     0.010 A 
ATOM     34  C   UNL A   1      37.502  29.313  29.852  1.00  0.00     0.010 A 
ATOM     35  C   UNL A   1      38.465  29.392  28.837  1.00  0.00    -0.014 A 
BRANCH  35  36
ATOM     36  C   UNL A   1      39.870  29.025  29.145  1.00  0.00     0.031 A 
ATOM     37  C   UNL A   1      40.786  30.038  29.781  1.00  0.00     0.074 A 
ATOM     38  C   UNL A   1      40.332  27.808  28.798  1.00  0.00     0.049 A 
ATOM     39  N   UNL A   1      42.056  29.931  30.073  1.00  0.00    -0.248 NA
ATOM     40  C   UNL A   1      40.209  31.356  30.103  1.00  0.00     0.031 C 
ATOM     41  C   UNL A   1      39.552  26.760  28.134  1.00  0.00     0.029 A 
ATOM     42  N   UNL A   1      41.574  27.246  28.951  1.00  0.00    -0.354 N 
ATOM     43  C   UNL A   1      42.430  31.166  30.591  1.00  0.00     0.074 A 
ATOM     44  C   UNL A   1      41.273  32.027  30.512  1.00  0.00     0.031 C 
ATOM     45  C   UNL A   1      40.321  25.671  27.977  1.00  0.00     0.029 A 
ATOM     46  C   UNL A   1      41.660  25.959  28.478  1.00  0.00     0.049 A 
ATOM     47  H   UNL A   1      42.333  27.720  29.362  1.00  0.00     0.167 HD
ATOM     48  C   UNL A   1      43.622  31.542  31.110  1.00  0.00     0.031 A 
ATOM     49  C   UNL A   1      42.703  25.106  28.444  1.00  0.00     0.031 A 
ATOM     50  C   UNL A   1      44.764  30.673  31.197  1.00  0.00     0.049 A 
ATOM     51  C   UNL A   1      44.023  25.552  29.013  1.00  0.00     0.074 A 
ATOM     52  C   UNL A   1      46.002  30.932  31.756  1.00  0.00     0.029 A 
ATOM     53  N   UNL A   1      44.809  29.374  30.709  1.00  0.00    -0.354 N 
ATOM     54  N   UNL A   1      44.337  26.701  29.562  1.00  0.00    -0.248 NA
ATOM     55  C   UNL A   1      45.124  24.582  28.967  1.00  0.00     0.031 C 
ATOM     56  C   UNL A   1      46.817  29.816  31.547  1.00  0.00     0.029 A 
ATOM     57  C   UNL A   1      46.064  28.831  30.926  1.00  0.00     0.049 A 
ATOM     58  H   UNL A   1      44.059  28.908  30.273  1.00  0.00     0.167 HD
ATOM     59  C   UNL A   1      45.665  26.581  29.955  1.00  0.00     0.074 A 
ATOM     60  C   UNL A   1      46.087  25.242  29.596  1.00  0.00     0.031 C 
ATOM     61  C   UNL A   1      46.464  27.496  30.559  1.00  0.00     0.031 A 
BRANCH  48  62
ATOM     62  C   UNL A   1      43.750  32.955  31.618  1.00  0.00    -0.014 A 
ATOM     63  C   UNL A   1      43.492  33.274  32.965  1.00  0.00     0.010 A 
ATOM     64  C   UNL A   1      44.170  33.975  30.746  1.00  0.00     0.010 A 
ATOM     65  C   UNL A   1      43.610  34.590  33.418  1.00  0.00     0.020 A 
ATOM     66  C   UNL A   1      44.322  35.288  31.203  1.00  0.00     0.020 A 
ATOM     67  C   UNL A   1      44.025  35.589  32.534  1.00  0.00     0.054 A 
BRANCH  67  68
ATOM     68  S   UNL A   1      44.199  37.283  33.158  1.00  0.00     0.124 S 
ATOM     69  O   UNL A   1      44.210  38.060  31.920  1.00  0.00    -0.237 OA
ATOM     70  O   UNL A   1      43.006  37.441  33.987  1.00  0.00    -0.237 OA
ATOM     71  O   UNL A   1      45.464  37.258  33.888  1.00  0.00    -0.744 OA
ENDBRANCH  67  68
ENDBRANCH  48  62
BRANCH  49  72
ATOM     72  C   UNL A   1      42.535  23.744  27.863  1.00  0.00    -0.014 A 
ATOM     73  C   UNL A   1      42.914  23.480  26.535  1.00  0.00     0.010 A 
ATOM     74  C   UNL A   1      42.006  22.699  28.642  1.00  0.00     0.010 A 
ATOM     75  C   UNL A   1      42.746  22.202  25.990  1.00  0.00     0.020 A 
ATOM     76  C   UNL A   1      41.868  21.413  28.112  1.00  0.00     0.020 A 
ATOM     77  C   UNL A   1      42.228  21.176  26.785  1.00  0.00     0.054 A 
BRANCH  77  78
ATOM     78  S   UNL A   1      42.064  19.516  26.070  1.00  0.00     0.124 S 
ATOM     79  O   UNL A   1      42.617  18.674  27.124  1.00  0.00    -0.237 OA
ATOM     80  O   UNL A   1      40.623  19.406  25.860  1.00  0.00    -0.237 OA
ATOM     81  O   UNL A   1      42.859  19.591  24.846  1.00  0.00    -0.744 OA
ENDBRANCH  77  78
ENDBRANCH  49  72
BRANCH  61  82
ATOM     82  C   UNL A   1      47.867  27.070  30.905  1.00  0.00    -0.014 A 
ATOM     83  C   UNL A   1      48.124  26.199  31.979  1.00  0.00     0.010 A 
ATOM     84  C   UNL A   1      48.938  27.503  30.102  1.00  0.00     0.010 A 
ATOM     85  C   UNL A   1      49.432  25.799  32.265  1.00  0.00     0.020 A 
ATOM     86  C   UNL A   1      50.242  27.078  30.363  1.00  0.00     0.020 A 
ATOM     87  C   UNL A   1      50.482  26.239  31.453  1.00  0.00     0.054 A 
BRANCH  87  88
ATOM     88  S   UNL A   1      52.163  25.668  31.819  1.00  0.00     0.124 S 
ATOM     89  O   UNL A   1      51.940  24.267  32.165  1.00  0.00    -0.237 OA
ATOM     90  O   UNL A   1      52.860  25.900  30.557  1.00  0.00    -0.237 OA
ATOM     91  O   UNL A   1      52.588  26.522  32.926  1.00  0.00    -0.744 OA
ENDBRANCH  87  88
ENDBRANCH  61  82
ENDBRANCH  35  36
ENDBRANCH  27  30
ENDBRANCH  25  26
ENDBRANCH  24  25
ENDBRANCH   1  24
TORSDOF 17
ENDMDL
MODEL 2
REMARK VINA RESULT:     -11.0      1.307      2.230
REMARK SMILES COC(=O)[C@H]1CCN(S(=O)(=O)N2CCC[C@H](C(=O)NCCCNC(=O)c3ccc(-c4c5nc(c(-c6ccc(S(=O)(=O)[O-])cc6)c6ccc([nH]6)c(-c6ccc(S(=O)(=O)[O-])cc6)c6nc(c(-c7ccc(S(=O)(=O)[O-])cc7)c7ccc4[nH]7)C=C6)C=C5)cc3)C2)C1
REMARK SMILES IDX 20 1 19 2 17 3 18 4 16 6 12 7 13 8 86 9 14 10 15 11 9 12
REMARK SMILES IDX 10 13 11 14 8 15 5 16 6 17 87 18 7 19 3 20 4 21 2 22 1 23
REMARK SMILES IDX 21 24 22 25 23 26 24 27 25 29 26 30 27 31 85 32 28 33 84 34
REMARK SMILES IDX 29 35 30 36 31 37 78 38 32 39 83 40 77 41 79 42 33 43 82 44
REMARK SMILES IDX 76 45 75 46 34 48 64 49 45 50 63 51 46 52 49 53 62 54 80 55
REMARK SMILES IDX 47 56 48 57 61 59 81 60 50 61 35 62 36 63 44 64 37 65 43 66
REMARK SMILES IDX 38 67 39 68 40 69 41 70 42 71 65 72 66 73 74 74 67 75 73 76
REMARK SMILES IDX 68 77 69 78 70 79 71 80 72 81 51 82 52 83 60 84 53 85 59 86
REMARK SMILES IDX 54 87 55 88 56 89 57 90 58 91
REMARK H PARENT 19 5 23 28 79 47 49 58
REMARK Flexibility Score: inf
ROOT
ATOM      1  C   UNL A   1      32.988  26.047  25.580  1.00  0.00     0.117 C 
ENDROOT
BRANCH   1   2
ATOM      2  N   UNL A   1      31.680  25.848  26.164  1.00  0.00    -0.356 N 
ATOM      3  C   UNL A   1      30.480  25.528  25.625  1.00  0.00     0.224 C 
ATOM      4  O   UNL A   1      29.550  25.378  26.430  1.00  0.00    -0.275 OA
ATOM      5  H   UNL A   1      31.657  25.968  27.141  1.00  0.00     0.163 HD
BRANCH   3   6
ATOM      6  C   UNL A   1      30.197  25.352  24.132  1.00  0.00     0.094 C 
ATOM      7  N   UNL A   1      32.034  24.195  22.927  1.00  0.00    -0.188 NA
ATOM      8  C   UNL A   1      32.206  25.272  21.939  1.00  0.00     0.103 C 
ATOM      9  C   UNL A   1      30.695  24.058  23.513  1.00  0.00     0.117 C 
ATOM     10  C   UNL A   1      31.765  26.612  22.524  1.00  0.00     0.018 C 
ATOM     11  C   UNL A   1      30.422  26.573  23.243  1.00  0.00     0.016 C 
BRANCH   7  12
ATOM     12  S   UNL A   1      33.038  22.860  22.833  1.00  0.00     0.282 S 
ATOM     13  O   UNL A   1      34.345  23.277  22.390  1.00  0.00    -0.195 OA
ATOM     14  O   UNL A   1      32.316  21.814  22.145  1.00  0.00    -0.195 OA
BRANCH  12  15
ATOM     15  N   UNL A   1      33.154  22.409  24.460  1.00  0.00    -0.188 NA
ATOM     16  C   UNL A   1      33.314  20.217  25.472  1.00  0.00     0.116 C 
ATOM     17  C   UNL A   1      34.689  20.688  25.041  1.00  0.00     0.033 C 
ATOM     18  C   UNL A   1      32.354  21.179  24.784  1.00  0.00     0.118 C 
ATOM     19  C   UNL A   1      34.516  22.190  25.000  1.00  0.00     0.104 C 
BRANCH  16  20
ATOM     20  C   UNL A   1      33.022  18.810  25.029  1.00  0.00     0.310 C 
ATOM     21  O   UNL A   1      32.118  18.113  25.462  1.00  0.00    -0.252 OA
BRANCH  20  22
ATOM     22  O   UNL A   1      33.943  18.414  24.107  1.00  0.00    -0.469 OA
ATOM     23  C   UNL A   1      33.587  17.222  23.408  1.00  0.00     0.282 C 
ENDBRANCH  20  22
ENDBRANCH  16  20
ENDBRANCH  12  15
ENDBRANCH   7  12
ENDBRANCH   3   6
ENDBRANCH   1   2
BRANCH   1  24
ATOM     24  C   UNL A   1      33.386  27.511  25.530  1.00  0.00     0.042 C 
BRANCH  24  25
ATOM     25  C   UNL A   1      34.014  27.990  26.823  1.00  0.00     0.118 C 
BRANCH  25  26
ATOM     26  N   UNL A   1      33.686  29.382  27.111  1.00  0.00    -0.352 N 
ATOM     27  C   UNL A   1      34.388  30.334  27.809  1.00  0.00     0.251 C 
ATOM     28  H   UNL A   1      32.825  29.688  26.747  1.00  0.00     0.163 HD
ATOM     29  O   UNL A   1      33.840  31.389  28.116  1.00  0.00    -0.269 OA
BRANCH  27  30
ATOM     30  C   UNL A   1      35.790  30.086  28.203  1.00  0.00     0.039 A 
ATOM     31  C   UNL A   1      36.064  29.629  29.494  1.00  0.00     0.014 A 
ATOM     32  C   UNL A   1      36.835  30.308  27.305  1.00  0.00     0.014 A 
ATOM     33  C   UNL A   1      37.380  29.337  29.857  1.00  0.00     0.010 A 
ATOM     34  C   UNL A   1      38.121  29.897  27.623  1.00  0.00     0.010 A 
ATOM     35  C   UNL A   1      38.413  29.429  28.911  1.00  0.00    -0.014 A 
BRANCH  35  36
ATOM     36  C   UNL A   1      39.814  29.074  29.250  1.00  0.00     0.031 A 
ATOM     37  C   UNL A   1      40.700  30.087  29.927  1.00  0.00     0.074 A 
ATOM     38  C   UNL A   1      40.300  27.868  28.896  1.00  0.00     0.049 A 
ATOM     39  N   UNL A   1      41.963  29.990  30.251  1.00  0.00    -0.248 NA
ATOM     40  C   UNL A   1      40.098  31.392  30.254  1.00  0.00     0.031 C 
ATOM     41  C   UNL A   1      39.551  26.822  28.195  1.00  0.00     0.029 A 
ATOM     42  N   UNL A   1      41.545  27.319  29.074  1.00  0.00    -0.354 N 
ATOM     43  C   UNL A   1      42.308  31.221  30.799  1.00  0.00     0.074 A 
ATOM     44  C   UNL A   1      41.143  32.070  30.703  1.00  0.00     0.031 C 
ATOM     45  C   UNL A   1      40.337  25.745  28.041  1.00  0.00     0.029 A 
ATOM     46  C   UNL A   1      41.659  26.040  28.582  1.00  0.00     0.049 A 
ATOM     47  H   UNL A   1      42.286  27.795  29.513  1.00  0.00     0.167 HD
ATOM     48  C   UNL A   1      43.481  31.602  31.356  1.00  0.00     0.031 A 
ATOM     49  C   UNL A   1      42.712  25.201  28.563  1.00  0.00     0.031 A 
ATOM     50  C   UNL A   1      44.631  30.746  31.459  1.00  0.00     0.049 A 
ATOM     51  C   UNL A   1      44.011  25.653  29.174  1.00  0.00     0.074 A 
ATOM     52  C   UNL A   1      45.850  31.011  32.056  1.00  0.00     0.029 A 
ATOM     53  N   UNL A   1      44.705  29.456  30.953  1.00  0.00    -0.354 N 
ATOM     54  N   UNL A   1      44.297  26.797  29.750  1.00  0.00    -0.248 NA
ATOM     55  C   UNL A   1      45.126  24.697  29.143  1.00  0.00     0.031 C 
ATOM     56  C   UNL A   1      46.683  29.908  31.851  1.00  0.00     0.029 A 
ATOM     57  C   UNL A   1      45.960  28.924  31.194  1.00  0.00     0.049 A 
ATOM     58  H   UNL A   1      43.972  28.988  30.489  1.00  0.00     0.167 HD
ATOM     59  C   UNL A   1      45.615  26.686  30.176  1.00  0.00     0.074 A 
ATOM     60  C   UNL A   1      46.063  25.359  29.807  1.00  0.00     0.031 C 
ATOM     61  C   UNL A   1      46.386  27.600  30.817  1.00  0.00     0.031 A 
BRANCH  48  62
ATOM     62  C   UNL A   1      43.578  33.009  31.890  1.00  0.00    -0.014 A 
ATOM     63  C   UNL A   1      43.861  34.095  31.041  1.00  0.00     0.010 A 
ATOM     64  C   UNL A   1      43.346  33.255  33.255  1.00  0.00     0.010 A 
ATOM     65  C   UNL A   1      43.952  35.391  31.553  1.00  0.00     0.020 A 
ATOM     66  C   UNL A   1      43.403  34.555  33.766  1.00  0.00     0.020 A 
ATOM     67  C   UNL A   1      43.722  35.613  32.913  1.00  0.00     0.054 A 
BRANCH  67  68
ATOM     68  S   UNL A   1      43.817  37.311  33.543  1.00  0.00     0.124 S 
ATOM     69  O   UNL A   1      42.466  37.516  34.063  1.00  0.00    -0.237 OA
ATOM     70  O   UNL A   1      44.870  37.218  34.552  1.00  0.00    -0.237 OA
ATOM     71  O   UNL A   1      44.156  38.103  32.364  1.00  0.00    -0.744 OA
ENDBRANCH  67  68
ENDBRANCH  48  62
BRANCH  49  72
ATOM     72  C   UNL A   1      42.577  23.847  27.956  1.00  0.00    -0.014 A 
ATOM     73  C   UNL A   1      42.261  22.732  28.752  1.00  0.00     0.010 A 
ATOM     74  C   UNL A   1      42.750  23.669  26.571  1.00  0.00     0.010 A 
ATOM     75  C   UNL A   1      42.144  21.461  28.179  1.00  0.00     0.020 A 
ATOM     76  C   UNL A   1      42.600  22.407  25.990  1.00  0.00     0.020 A 
ATOM     77  C   UNL A   1      42.310  21.308  26.799  1.00  0.00     0.054 A 
BRANCH  77  78
ATOM     78  S   UNL A   1      42.106  19.658  26.073  1.00  0.00     0.124 S 
ATOM     79  O   UNL A   1      43.013  19.713  24.932  1.00  0.00    -0.237 OA
ATOM     80  O   UNL A   1      42.515  18.780  27.166  1.00  0.00    -0.237 OA
ATOM     81  O   UNL A   1      40.684  19.604  25.741  1.00  0.00    -0.744 OA
ENDBRANCH  77  78
ENDBRANCH  49  72
BRANCH  61  82
ATOM     82  C   UNL A   1      47.784  27.185  31.194  1.00  0.00    -0.014 A 
ATOM     83  C   UNL A   1      48.885  27.491  30.374  1.00  0.00     0.010 A 
ATOM     84  C   UNL A   1      48.003  26.529  32.419  1.00  0.00     0.010 A 
ATOM     85  C   UNL A   1      50.176  27.116  30.758  1.00  0.00     0.020 A 
ATOM     86  C   UNL A   1      49.294  26.184  32.823  1.00  0.00     0.020 A 
ATOM     87  C   UNL A   1      50.372  26.467  31.981  1.00  0.00     0.054 A 
BRANCH  87  88
ATOM     88  S   UNL A   1      52.061  26.033  32.475  1.00  0.00     0.124 S 
ATOM     89  O   UNL A   1      52.650  25.614  31.206  1.00  0.00    -0.237 OA
ATOM     90  O   UNL A   1      52.568  27.290  33.018  1.00  0.00    -0.237 OA
ATOM     91  O   UNL A   1      51.873  24.966  33.456  1.00  0.00    -0.744 OA
ENDBRANCH  87  88
ENDBRANCH  61  82
ENDBRANCH  35  36
ENDBRANCH  27  30
ENDBRANCH  25  26
ENDBRANCH  24  25
ENDBRANCH   1  24
TORSDOF 17
ENDMDL
MODEL 3
REMARK VINA RESULT:     -10.8      3.156      4.256
REMARK SMILES COC(=O)[C@H]1CCN(S(=O)(=O)N2CCC[C@H](C(=O)NCCCNC(=O)c3ccc(-c4c5nc(c(-c6ccc(S(=O)(=O)[O-])cc6)c6ccc([nH]6)c(-c6ccc(S(=O)(=O)[O-])cc6)c6nc(c(-c7ccc(S(=O)(=O)[O-])cc7)c7ccc4[nH]7)C=C6)C=C5)cc3)C2)C1
REMARK SMILES IDX 20 1 19 2 17 3 18 4 16 6 12 7 13 8 86 9 14 10 15 11 9 12
REMARK SMILES IDX 10 13 11 14 8 15 5 16 6 17 87 18 7 19 3 20 4 21 2 22 1 23
REMARK SMILES IDX 21 24 22 25 23 26 24 27 25 29 26 30 27 31 85 32 28 33 84 34
REMARK SMILES IDX 29 35 30 36 31 37 78 38 32 39 83 40 77 41 79 42 33 43 82 44
REMARK SMILES IDX 76 45 75 46 34 48 64 49 45 50 63 51 46 52 49 53 62 54 80 55
REMARK SMILES IDX 47 56 48 57 61 59 81 60 50 61 35 62 36 63 44 64 37 65 43 66
REMARK SMILES IDX 38 67 39 68 40 69 41 70 42 71 65 72 66 73 74 74 67 75 73 76
REMARK SMILES IDX 68 77 69 78 70 79 71 80 72 81 51 82 52 83 60 84 53 85 59 86
REMARK SMILES IDX 54 87 55 88 56 89 57 90 58 91
REMARK H PARENT 19 5 23 28 79 47 49 58
REMARK Flexibility Score: inf
ROOT
ATOM      1  C   UNL A   1      33.317  30.451  27.060  1.00  0.00     0.117 C 
ENDROOT
BRANCH   1   2
ATOM      2  N   UNL A   1      33.610  29.930  25.743  1.00  0.00    -0.356 N 
ATOM      3  C   UNL A   1      32.865  29.240  24.848  1.00  0.00     0.224 C 
ATOM      4  O   UNL A   1      33.415  28.990  23.767  1.00  0.00    -0.275 OA
ATOM      5  H   UNL A   1      34.528  30.113  25.438  1.00  0.00     0.163 HD
BRANCH   3   6
ATOM      6  C   UNL A   1      31.433  28.754  25.075  1.00  0.00     0.094 C 
ATOM      7  N   UNL A   1      31.231  26.278  25.041  1.00  0.00    -0.188 NA
ATOM      8  C   UNL A   1      30.203  26.272  23.988  1.00  0.00     0.103 C 
ATOM      9  C   UNL A   1      31.288  27.478  25.886  1.00  0.00     0.117 C 
ATOM     10  C   UNL A   1      30.331  27.512  23.107  1.00  0.00     0.018 C 
ATOM     11  C   UNL A   1      30.489  28.818  23.876  1.00  0.00     0.016 C 
BRANCH   7  12
ATOM     12  S   UNL A   1      31.761  24.812  25.648  1.00  0.00     0.282 S 
ATOM     13  O   UNL A   1      31.422  23.763  24.719  1.00  0.00    -0.195 OA
ATOM     14  O   UNL A   1      31.362  24.740  27.035  1.00  0.00    -0.195 OA
BRANCH  12  15
ATOM     15  N   UNL A   1      33.441  25.020  25.614  1.00  0.00    -0.188 NA
ATOM     16  C   UNL A   1      35.185  23.556  24.800  1.00  0.00     0.116 C 
ATOM     17  C   UNL A   1      34.614  24.364  23.652  1.00  0.00     0.033 C 
ATOM     18  C   UNL A   1      34.192  23.759  25.936  1.00  0.00     0.118 C 
ATOM     19  C   UNL A   1      34.024  25.561  24.365  1.00  0.00     0.104 C 
BRANCH  16  20
ATOM     20  C   UNL A   1      35.289  22.090  24.477  1.00  0.00     0.310 C 
ATOM     21  O   UNL A   1      34.375  21.286  24.573  1.00  0.00    -0.252 OA
BRANCH  20  22
ATOM     22  O   UNL A   1      36.563  21.786  24.107  1.00  0.00    -0.469 OA
ATOM     23  C   UNL A   1      37.394  21.360  25.187  1.00  0.00     0.282 C 
ENDBRANCH  20  22
ENDBRANCH  16  20
ENDBRANCH  12  15
ENDBRANCH   7  12
ENDBRANCH   3   6
ENDBRANCH   1   2
BRANCH   1  24
ATOM     24  C   UNL A   1      34.454  31.284  27.623  1.00  0.00     0.042 C 
BRANCH  24  25
ATOM     25  C   UNL A   1      35.562  30.437  28.214  1.00  0.00     0.118 C 
BRANCH  25  26
ATOM     26  N   UNL A   1      35.544  30.446  29.673  1.00  0.00    -0.352 N 
ATOM     27  C   UNL A   1      36.454  29.956  30.576  1.00  0.00     0.251 C 
ATOM     28  H   UNL A   1      34.752  30.872  30.073  1.00  0.00     0.163 HD
ATOM     29  O   UNL A   1      36.150  29.879  31.764  1.00  0.00    -0.269 OA
BRANCH  27  30
ATOM     30  C   UNL A   1      37.786  29.508  30.122  1.00  0.00     0.039 A 
ATOM     31  C   UNL A   1      38.177  29.758  28.804  1.00  0.00     0.014 A 
ATOM     32  C   UNL A   1      38.648  28.836  30.990  1.00  0.00     0.014 A 
ATOM     33  C   UNL A   1      39.455  29.389  28.383  1.00  0.00     0.010 A 
ATOM     34  C   UNL A   1      39.959  28.587  30.609  1.00  0.00     0.010 A 
ATOM     35  C   UNL A   1      40.371  28.838  29.294  1.00  0.00    -0.014 A 
BRANCH  35  36
ATOM     36  C   UNL A   1      41.755  28.485  28.890  1.00  0.00     0.031 A 
ATOM     37  C   UNL A   1      42.826  29.544  28.889  1.00  0.00     0.074 A 
ATOM     38  C   UNL A   1      42.029  27.234  28.471  1.00  0.00     0.049 A 
ATOM     39  N   UNL A   1      44.077  29.450  28.516  1.00  0.00    -0.248 NA
ATOM     40  C   UNL A   1      42.437  30.894  29.334  1.00  0.00     0.031 C 
ATOM     41  C   UNL A   1      41.062  26.136  28.384  1.00  0.00     0.029 A 
ATOM     42  N   UNL A   1      43.203  26.675  28.034  1.00  0.00    -0.354 N 
ATOM     43  C   UNL A   1      44.611  30.725  28.663  1.00  0.00     0.074 A 
ATOM     44  C   UNL A   1      43.537  31.589  29.094  1.00  0.00     0.031 C 
ATOM     45  C   UNL A   1      41.691  25.028  27.964  1.00  0.00     0.029 A 
ATOM     46  C   UNL A   1      43.090  25.346  27.701  1.00  0.00     0.049 A 
ATOM     47  H   UNL A   1      44.047  27.177  27.966  1.00  0.00     0.167 HD
ATOM     48  C   UNL A   1      45.889  31.135  28.481  1.00  0.00     0.031 A 
ATOM     49  C   UNL A   1      44.009  24.481  27.229  1.00  0.00     0.031 A 
ATOM     50  C   UNL A   1      46.954  30.264  28.064  1.00  0.00     0.049 A 
ATOM     51  C   UNL A   1      45.419  24.964  27.018  1.00  0.00     0.074 A 
ATOM     52  C   UNL A   1      48.295  30.562  27.904  1.00  0.00     0.029 A 
ATOM     53  N   UNL A   1      46.799  28.924  27.740  1.00  0.00    -0.354 N 
ATOM     54  N   UNL A   1      45.921  26.158  27.230  1.00  0.00    -0.248 NA
ATOM     55  C   UNL A   1      46.388  23.981  26.517  1.00  0.00     0.031 C 
ATOM     56  C   UNL A   1      48.939  29.420  27.419  1.00  0.00     0.029 A 
ATOM     57  C   UNL A   1      48.015  28.389  27.349  1.00  0.00     0.049 A 
ATOM     58  H   UNL A   1      45.950  28.427  27.781  1.00  0.00     0.167 HD
ATOM     59  C   UNL A   1      47.272  26.060  26.916  1.00  0.00     0.074 A 
ATOM     60  C   UNL A   1      47.509  24.688  26.518  1.00  0.00     0.031 C 
ATOM     61  C   UNL A   1      48.230  27.020  26.954  1.00  0.00     0.031 A 
BRANCH  48  62
ATOM     62  C   UNL A   1      46.198  32.590  28.726  1.00  0.00    -0.014 A 
ATOM     63  C   UNL A   1      46.534  33.059  30.010  1.00  0.00     0.010 A 
ATOM     64  C   UNL A   1      46.190  33.496  27.651  1.00  0.00     0.010 A 
ATOM     65  C   UNL A   1      46.813  34.412  30.221  1.00  0.00     0.020 A 
ATOM     66  C   UNL A   1      46.502  34.844  27.851  1.00  0.00     0.020 A 
ATOM     67  C   UNL A   1      46.796  35.296  29.140  1.00  0.00     0.054 A 
BRANCH  67  68
ATOM     68  S   UNL A   1      47.192  37.040  29.438  1.00  0.00     0.124 S 
ATOM     69  O   UNL A   1      46.778  37.663  28.183  1.00  0.00    -0.237 OA
ATOM     70  O   UNL A   1      46.366  37.360  30.600  1.00  0.00    -0.237 OA
ATOM     71  O   UNL A   1      48.632  37.034  29.684  1.00  0.00    -0.744 OA
ENDBRANCH  67  68
ENDBRANCH  48  62
BRANCH  49  72
ATOM     72  C   UNL A   1      43.626  23.072  26.935  1.00  0.00    -0.014 A 
ATOM     73  C   UNL A   1      43.941  22.485  25.697  1.00  0.00     0.010 A 
ATOM     74  C   UNL A   1      42.953  22.302  27.902  1.00  0.00     0.010 A 
ATOM     75  C   UNL A   1      43.572  21.165  25.422  1.00  0.00     0.020 A 
ATOM     76  C   UNL A   1      42.613  20.971  27.644  1.00  0.00     0.020 A 
ATOM     77  C   UNL A   1      42.913  20.415  26.401  1.00  0.00     0.054 A 
BRANCH  77  78
ATOM     78  S   UNL A   1      42.486  18.689  26.038  1.00  0.00     0.124 S 
ATOM     79  O   UNL A   1      41.080  18.795  25.662  1.00  0.00    -0.237 OA
ATOM     80  O   UNL A   1      43.408  18.357  24.955  1.00  0.00    -0.237 OA
ATOM     81  O   UNL A   1      42.747  18.000  27.300  1.00  0.00    -0.744 OA
ENDBRANCH  77  78
ENDBRANCH  49  72
BRANCH  61  82
ATOM     82  C   UNL A   1      49.634  26.612  26.591  1.00  0.00    -0.014 A 
ATOM     83  C   UNL A   1      50.517  26.088  27.552  1.00  0.00     0.010 A 
ATOM     84  C   UNL A   1      50.053  26.700  25.251  1.00  0.00     0.010 A 
ATOM     85  C   UNL A   1      51.806  25.695  27.184  1.00  0.00     0.020 A 
ATOM     86  C   UNL A   1      51.328  26.275  24.872  1.00  0.00     0.020 A 
ATOM     87  C   UNL A   1      52.202  25.788  25.846  1.00  0.00     0.054 A 
BRANCH  87  88
ATOM     88  S   UNL A   1      53.864  25.227  25.390  1.00  0.00     0.124 S 
ATOM     89  O   UNL A   1      53.585  23.959  24.722  1.00  0.00    -0.237 OA
ATOM     90  O   UNL A   1      54.336  26.303  24.522  1.00  0.00    -0.237 OA
ATOM     91  O   UNL A   1      54.558  25.117  26.671  1.00  0.00    -0.744 OA
ENDBRANCH  87  88
ENDBRANCH  61  82
ENDBRANCH  35  36
ENDBRANCH  27  30
ENDBRANCH  25  26
ENDBRANCH  24  25
ENDBRANCH   1  24
TORSDOF 17
ENDMDL
