MODEL 1
REMARK VINA RESULT:     -12.9      0.000      0.000
REMARK SMILES O=C(NCCCNC(=O)c1c(C(F)(F)F)nn(-c2ccccc2)c1C(F)(F)Cl)c1ccc(-c2c3nc(c(-c4ccc(S(=O)(=O)[O-])cc4)c4ccc([nH]4)c(-c4ccc(S(=O)(=O)[O-])cc4)c4nc(c(-c5ccc(S(=O)(=O)[O-])cc5)c5ccc2[nH]5)C=C4)C=C3)cc1
REMARK SMILES IDX 4 1 3 2 1 3 2 4 29 6 30 7 88 8 31 9 87 10 32 11 33 12 34 13
REMARK SMILES IDX 81 14 35 15 86 16 80 17 82 18 36 19 85 20 79 21 78 22 37 24
REMARK SMILES IDX 67 25 48 26 66 27 49 28 52 29 65 30 83 31 50 32 51 33 64 35
REMARK SMILES IDX 84 36 53 37 38 38 39 39 47 40 40 41 46 42 41 43 42 44 43 45
REMARK SMILES IDX 44 46 45 47 68 48 69 49 77 50 70 51 76 52 71 53 72 54 73 55
REMARK SMILES IDX 74 56 75 57 54 58 55 59 63 60 56 61 62 62 57 63 58 64 59 65
REMARK SMILES IDX 60 66 61 67 5 68 6 69 7 70 8 71 9 73 10 74 11 75 24 76 16 77
REMARK SMILES IDX 17 78 12 79 13 80 14 81 15 82 25 83 26 84 27 85 28 86 18 87
REMARK SMILES IDX 19 88 23 89 20 90 22 91 21 92
REMARK H PARENT 3 5 82 23 52 34 7 72
REMARK Flexibility Score: inf
ROOT
ATOM      1  C   UNL A   1      33.142  29.760  26.257  1.00  0.00     0.118 C 
ENDROOT
BRANCH   1   2
ATOM      2  N   UNL A   1      33.211  30.853  27.206  1.00  0.00    -0.352 N 
ATOM      3  O   UNL A   1      33.927  32.591  28.359  1.00  0.00    -0.269 OA
ATOM      4  C   UNL A   1      34.232  31.517  27.832  1.00  0.00     0.251 C 
ATOM      5  H   UNL A   1      32.323  31.198  27.456  1.00  0.00     0.163 HD
BRANCH   4   6
ATOM      6  C   UNL A   1      35.629  31.018  27.976  1.00  0.00     0.039 A 
ATOM      7  C   UNL A   1      36.045  29.701  27.783  1.00  0.00     0.014 A 
ATOM      8  C   UNL A   1      36.580  31.958  28.419  1.00  0.00     0.014 A 
ATOM      9  C   UNL A   1      37.338  29.307  28.116  1.00  0.00     0.010 A 
ATOM     10  C   UNL A   1      37.882  31.577  28.727  1.00  0.00     0.010 A 
ATOM     11  C   UNL A   1      38.249  30.238  28.616  1.00  0.00    -0.014 A 
BRANCH  11  12
ATOM     12  C   UNL A   1      39.610  29.784  28.906  1.00  0.00     0.031 A 
ATOM     13  C   UNL A   1      39.995  29.757  30.348  1.00  0.00     0.074 A 
ATOM     14  C   UNL A   1      40.427  29.251  27.975  1.00  0.00     0.049 A 
ATOM     15  N   UNL A   1      40.990  30.338  30.936  1.00  0.00    -0.248 NA
ATOM     16  C   UNL A   1      39.100  29.032  31.264  1.00  0.00     0.031 C 
ATOM     17  C   UNL A   1      40.094  28.903  26.592  1.00  0.00     0.029 A 
ATOM     18  N   UNL A   1      41.700  28.778  28.118  1.00  0.00    -0.354 N 
ATOM     19  C   UNL A   1      40.962  29.905  32.263  1.00  0.00     0.074 A 
ATOM     20  C   UNL A   1      39.711  29.209  32.434  1.00  0.00     0.031 C 
ATOM     21  C   UNL A   1      41.038  28.068  26.107  1.00  0.00     0.029 A 
ATOM     22  C   UNL A   1      42.098  27.931  27.092  1.00  0.00     0.049 A 
ATOM     23  H   UNL A   1      42.281  29.016  28.876  1.00  0.00     0.167 HD
ATOM     24  C   UNL A   1      42.046  29.969  33.086  1.00  0.00     0.031 A 
ATOM     25  C   UNL A   1      43.173  27.106  27.085  1.00  0.00     0.031 A 
ATOM     26  C   UNL A   1      43.052  30.872  32.601  1.00  0.00     0.049 A 
ATOM     27  C   UNL A   1      44.119  27.575  28.124  1.00  0.00     0.074 A 
ATOM     28  C   UNL A   1      43.104  32.222  32.319  1.00  0.00     0.029 A 
ATOM     29  N   UNL A   1      44.177  30.326  32.031  1.00  0.00    -0.354 N 
ATOM     30  N   UNL A   1      44.771  28.701  28.059  1.00  0.00    -0.248 NA
ATOM     31  C   UNL A   1      44.069  26.961  29.442  1.00  0.00     0.031 C 
ATOM     32  C   UNL A   1      43.991  32.335  31.208  1.00  0.00     0.029 A 
ATOM     33  C   UNL A   1      44.448  31.052  30.901  1.00  0.00     0.049 A 
ATOM     34  H   UNL A   1      44.690  29.558  32.371  1.00  0.00     0.167 HD
ATOM     35  C   UNL A   1      44.857  29.142  29.370  1.00  0.00     0.074 A 
ATOM     36  C   UNL A   1      44.517  27.978  30.182  1.00  0.00     0.031 C 
ATOM     37  C   UNL A   1      44.931  30.474  29.665  1.00  0.00     0.031 A 
BRANCH  24  38
ATOM     38  C   UNL A   1      42.357  28.924  34.137  1.00  0.00    -0.014 A 
ATOM     39  C   UNL A   1      42.711  27.621  33.723  1.00  0.00     0.010 A 
ATOM     40  C   UNL A   1      42.020  29.089  35.496  1.00  0.00     0.010 A 
ATOM     41  C   UNL A   1      42.624  26.529  34.598  1.00  0.00     0.020 A 
ATOM     42  C   UNL A   1      41.978  28.015  36.389  1.00  0.00     0.020 A 
ATOM     43  C   UNL A   1      42.231  26.733  35.920  1.00  0.00     0.054 A 
BRANCH  43  44
ATOM     44  S   UNL A   1      41.952  25.305  36.996  1.00  0.00     0.124 S 
ATOM     45  O   UNL A   1      41.675  24.252  36.025  1.00  0.00    -0.237 OA
ATOM     46  O   UNL A   1      43.223  25.196  37.707  1.00  0.00    -0.237 OA
ATOM     47  O   UNL A   1      40.816  25.717  37.820  1.00  0.00    -0.744 OA
ENDBRANCH  43  44
ENDBRANCH  24  38
BRANCH  25  48
ATOM     48  C   UNL A   1      43.277  25.766  26.454  1.00  0.00    -0.014 A 
ATOM     49  C   UNL A   1      44.067  25.557  25.309  1.00  0.00     0.010 A 
ATOM     50  C   UNL A   1      42.803  24.628  27.140  1.00  0.00     0.010 A 
ATOM     51  C   UNL A   1      44.409  24.258  24.896  1.00  0.00     0.020 A 
ATOM     52  C   UNL A   1      43.130  23.332  26.729  1.00  0.00     0.020 A 
ATOM     53  C   UNL A   1      43.952  23.153  25.621  1.00  0.00     0.054 A 
BRANCH  53  54
ATOM     54  S   UNL A   1      44.534  21.489  25.184  1.00  0.00     0.124 S 
ATOM     55  O   UNL A   1      43.584  20.633  25.887  1.00  0.00    -0.237 OA
ATOM     56  O   UNL A   1      44.432  21.487  23.728  1.00  0.00    -0.237 OA
ATOM     57  O   UNL A   1      45.900  21.455  25.706  1.00  0.00    -0.744 OA
ENDBRANCH  53  54
ENDBRANCH  25  48
BRANCH  37  58
ATOM     58  C   UNL A   1      45.250  31.444  28.553  1.00  0.00    -0.014 A 
ATOM     59  C   UNL A   1      44.264  32.046  27.748  1.00  0.00     0.010 A 
ATOM     60  C   UNL A   1      46.582  31.880  28.422  1.00  0.00     0.010 A 
ATOM     61  C   UNL A   1      44.606  33.042  26.821  1.00  0.00     0.020 A 
ATOM     62  C   UNL A   1      46.924  32.885  27.513  1.00  0.00     0.020 A 
ATOM     63  C   UNL A   1      45.935  33.457  26.712  1.00  0.00     0.054 A 
BRANCH  63  64
ATOM     64  S   UNL A   1      46.355  34.797  25.563  1.00  0.00     0.124 S 
ATOM     65  O   UNL A   1      46.015  35.992  26.330  1.00  0.00    -0.237 OA
ATOM     66  O   UNL A   1      47.781  34.586  25.324  1.00  0.00    -0.237 OA
ATOM     67  O   UNL A   1      45.500  34.542  24.403  1.00  0.00    -0.744 OA
ENDBRANCH  63  64
ENDBRANCH  37  58
ENDBRANCH  11  12
ENDBRANCH   4   6
ENDBRANCH   1   2
BRANCH   1  68
ATOM     68  C   UNL A   1      32.669  28.420  26.828  1.00  0.00     0.042 C 
BRANCH  68  69
ATOM     69  C   UNL A   1      32.481  27.302  25.809  1.00  0.00     0.118 C 
BRANCH  69  70
ATOM     70  N   UNL A   1      31.135  27.212  25.268  1.00  0.00    -0.352 N 
ATOM     71  C   UNL A   1      30.563  26.234  24.494  1.00  0.00     0.255 C 
ATOM     72  H   UNL A   1      30.544  27.966  25.490  1.00  0.00     0.163 HD
ATOM     73  O   UNL A   1      29.391  26.332  24.152  1.00  0.00    -0.269 OA
BRANCH  71  74
ATOM     74  C   UNL A   1      31.373  25.109  24.068  1.00  0.00     0.101 A 
ATOM     75  C   UNL A   1      32.163  25.062  22.888  1.00  0.00     0.180 A 
ATOM     76  C   UNL A   1      31.496  23.847  24.656  1.00  0.00     0.143 A 
ATOM     77  N   UNL A   1      32.885  23.931  22.858  1.00  0.00    -0.162 NA
ATOM     78  N   UNL A   1      32.462  23.193  23.912  1.00  0.00    -0.229 N 
BRANCH  75  79
ATOM     79  C   UNL A   1      32.262  26.107  21.801  1.00  0.00     0.436 C 
ATOM     80  F   UNL A   1      31.043  26.516  21.357  1.00  0.00    -0.164 F 
ATOM     81  F   UNL A   1      32.913  27.222  22.233  1.00  0.00    -0.164 F 
ATOM     82  F   UNL A   1      32.930  25.672  20.700  1.00  0.00    -0.164 F 
ENDBRANCH  75  79
BRANCH  76  83
ATOM     83  C   UNL A   1      30.921  23.291  25.913  1.00  0.00     0.365 C 
ATOM     84  F   UNL A   1      29.938  24.049  26.449  1.00  0.00    -0.181 F 
ATOM     85  F   UNL A   1      30.362  22.078  25.666  1.00  0.00    -0.181 F 
ATOM     86  Cl  UNL A   1      32.139  23.115  27.202  1.00  0.00    -0.040 Cl
ENDBRANCH  76  83
BRANCH  78  87
ATOM     87  C   UNL A   1      33.087  21.944  24.139  1.00  0.00     0.065 A 
ATOM     88  C   UNL A   1      34.360  21.925  24.720  1.00  0.00     0.028 A 
ATOM     89  C   UNL A   1      32.452  20.748  23.797  1.00  0.00     0.028 A 
ATOM     90  C   UNL A   1      34.940  20.704  25.065  1.00  0.00     0.002 A 
ATOM     91  C   UNL A   1      33.040  19.531  24.139  1.00  0.00     0.002 A 
ATOM     92  C   UNL A   1      34.272  19.510  24.792  1.00  0.00     0.000 A 
ENDBRANCH  78  87
ENDBRANCH  71  74
ENDBRANCH  69  70
ENDBRANCH  68  69
ENDBRANCH   1  68
TORSDOF 16
ENDMDL
MODEL 2
REMARK VINA RESULT:     -12.7      1.217      1.674
REMARK SMILES O=C(NCCCNC(=O)c1c(C(F)(F)F)nn(-c2ccccc2)c1C(F)(F)Cl)c1ccc(-c2c3nc(c(-c4ccc(S(=O)(=O)[O-])cc4)c4ccc([nH]4)c(-c4ccc(S(=O)(=O)[O-])cc4)c4nc(c(-c5ccc(S(=O)(=O)[O-])cc5)c5ccc2[nH]5)C=C4)C=C3)cc1
REMARK SMILES IDX 4 1 3 2 1 3 2 4 29 6 30 7 88 8 31 9 87 10 32 11 33 12 34 13
REMARK SMILES IDX 81 14 35 15 86 16 80 17 82 18 36 19 85 20 79 21 78 22 37 24
REMARK SMILES IDX 67 25 48 26 66 27 49 28 52 29 65 30 83 31 50 32 51 33 64 35
REMARK SMILES IDX 84 36 53 37 38 38 39 39 47 40 40 41 46 42 41 43 42 44 43 45
REMARK SMILES IDX 44 46 45 47 68 48 69 49 77 50 70 51 76 52 71 53 72 54 73 55
REMARK SMILES IDX 74 56 75 57 54 58 55 59 63 60 56 61 62 62 57 63 58 64 59 65
REMARK SMILES IDX 60 66 61 67 5 68 6 69 7 70 8 71 9 73 10 74 11 75 24 76 16 77
REMARK SMILES IDX 17 78 12 79 13 80 14 81 15 82 25 83 26 84 27 85 28 86 18 87
REMARK SMILES IDX 19 88 23 89 20 90 22 91 21 92
REMARK H PARENT 3 5 82 23 52 34 7 72
REMARK Flexibility Score: inf
ROOT
ATOM      1  C   UNL A   1      33.043  29.506  26.261  1.00  0.00     0.118 C 
ENDROOT
BRANCH   1   2
ATOM      2  N   UNL A   1      33.118  30.677  27.112  1.00  0.00    -0.352 N 
ATOM      3  O   UNL A   1      33.837  32.511  28.102  1.00  0.00    -0.269 OA
ATOM      4  C   UNL A   1      34.142  31.398  27.664  1.00  0.00     0.251 C 
ATOM      5  H   UNL A   1      32.231  31.036  27.345  1.00  0.00     0.163 HD
BRANCH   4   6
ATOM      6  C   UNL A   1      35.545  30.922  27.829  1.00  0.00     0.039 A 
ATOM      7  C   UNL A   1      35.995  29.623  27.592  1.00  0.00     0.014 A 
ATOM      8  C   UNL A   1      36.462  31.861  28.340  1.00  0.00     0.014 A 
ATOM      9  C   UNL A   1      37.286  29.242  27.947  1.00  0.00     0.010 A 
ATOM     10  C   UNL A   1      37.763  31.494  28.671  1.00  0.00     0.010 A 
ATOM     11  C   UNL A   1      38.162  30.168  28.514  1.00  0.00    -0.014 A 
BRANCH  11  12
ATOM     12  C   UNL A   1      39.523  29.729  28.825  1.00  0.00     0.031 A 
ATOM     13  C   UNL A   1      39.889  29.720  30.273  1.00  0.00     0.074 A 
ATOM     14  C   UNL A   1      40.357  29.196  27.910  1.00  0.00     0.049 A 
ATOM     15  N   UNL A   1      40.872  30.316  30.868  1.00  0.00    -0.248 NA
ATOM     16  C   UNL A   1      38.990  28.994  31.184  1.00  0.00     0.031 C 
ATOM     17  C   UNL A   1      40.044  28.832  26.526  1.00  0.00     0.029 A 
ATOM     18  N   UNL A   1      41.632  28.737  28.073  1.00  0.00    -0.354 N 
ATOM     19  C   UNL A   1      40.831  29.895  32.198  1.00  0.00     0.074 A 
ATOM     20  C   UNL A   1      39.584  29.189  32.360  1.00  0.00     0.031 C 
ATOM     21  C   UNL A   1      41.002  28.002  26.060  1.00  0.00     0.029 A 
ATOM     22  C   UNL A   1      42.051  27.884  27.060  1.00  0.00     0.049 A 
ATOM     23  H   UNL A   1      42.201  28.987  28.836  1.00  0.00     0.167 HD
ATOM     24  C   UNL A   1      41.904  29.976  33.034  1.00  0.00     0.031 A 
ATOM     25  C   UNL A   1      43.134  27.069  27.075  1.00  0.00     0.031 A 
ATOM     26  C   UNL A   1      42.907  30.884  32.553  1.00  0.00     0.049 A 
ATOM     27  C   UNL A   1      44.062  27.556  28.121  1.00  0.00     0.074 A 
ATOM     28  C   UNL A   1      42.950  32.232  32.259  1.00  0.00     0.029 A 
ATOM     29  N   UNL A   1      44.044  30.344  32.003  1.00  0.00    -0.354 N 
ATOM     30  N   UNL A   1      44.704  28.688  28.054  1.00  0.00    -0.248 NA
ATOM     31  C   UNL A   1      44.001  26.954  29.444  1.00  0.00     0.031 C 
ATOM     32  C   UNL A   1      43.850  32.343  31.159  1.00  0.00     0.029 A 
ATOM     33  C   UNL A   1      44.323  31.062  30.870  1.00  0.00     0.049 A 
ATOM     34  H   UNL A   1      44.560  29.583  32.356  1.00  0.00     0.167 HD
ATOM     35  C   UNL A   1      44.770  29.142  29.362  1.00  0.00     0.074 A 
ATOM     36  C   UNL A   1      44.430  27.982  30.180  1.00  0.00     0.031 C 
ATOM     37  C   UNL A   1      44.827  30.477  29.646  1.00  0.00     0.031 A 
BRANCH  24  38
ATOM     38  C   UNL A   1      42.211  28.944  34.098  1.00  0.00    -0.014 A 
ATOM     39  C   UNL A   1      42.666  27.668  33.702  1.00  0.00     0.010 A 
ATOM     40  C   UNL A   1      41.782  29.079  35.435  1.00  0.00     0.010 A 
ATOM     41  C   UNL A   1      42.591  26.565  34.567  1.00  0.00     0.020 A 
ATOM     42  C   UNL A   1      41.749  27.999  36.320  1.00  0.00     0.020 A 
ATOM     43  C   UNL A   1      42.106  26.737  35.863  1.00  0.00     0.054 A 
BRANCH  43  44
ATOM     44  S   UNL A   1      41.846  25.287  36.915  1.00  0.00     0.124 S 
ATOM     45  O   UNL A   1      41.516  24.263  35.930  1.00  0.00    -0.237 OA
ATOM     46  O   UNL A   1      43.142  25.143  37.573  1.00  0.00    -0.237 OA
ATOM     47  O   UNL A   1      40.749  25.695  37.791  1.00  0.00    -0.744 OA
ENDBRANCH  43  44
ENDBRANCH  24  38
BRANCH  25  48
ATOM     48  C   UNL A   1      43.259  25.725  26.458  1.00  0.00    -0.014 A 
ATOM     49  C   UNL A   1      44.038  25.519  25.305  1.00  0.00     0.010 A 
ATOM     50  C   UNL A   1      42.817  24.585  27.163  1.00  0.00     0.010 A 
ATOM     51  C   UNL A   1      44.402  24.223  24.902  1.00  0.00     0.020 A 
ATOM     52  C   UNL A   1      43.167  23.292  26.762  1.00  0.00     0.020 A 
ATOM     53  C   UNL A   1      43.978  23.117  25.645  1.00  0.00     0.054 A 
BRANCH  53  54
ATOM     54  S   UNL A   1      44.591  21.460  25.220  1.00  0.00     0.124 S 
ATOM     55  O   UNL A   1      43.651  20.592  25.922  1.00  0.00    -0.237 OA
ATOM     56  O   UNL A   1      44.496  21.450  23.763  1.00  0.00    -0.237 OA
ATOM     57  O   UNL A   1      45.954  21.452  25.749  1.00  0.00    -0.744 OA
ENDBRANCH  53  54
ENDBRANCH  25  48
BRANCH  37  58
ATOM     58  C   UNL A   1      45.151  31.440  28.528  1.00  0.00    -0.014 A 
ATOM     59  C   UNL A   1      44.196  31.891  27.596  1.00  0.00     0.010 A 
ATOM     60  C   UNL A   1      46.429  32.029  28.517  1.00  0.00     0.010 A 
ATOM     61  C   UNL A   1      44.519  32.888  26.664  1.00  0.00     0.020 A 
ATOM     62  C   UNL A   1      46.750  33.037  27.603  1.00  0.00     0.020 A 
ATOM     63  C   UNL A   1      45.794  33.457  26.676  1.00  0.00     0.054 A 
BRANCH  63  64
ATOM     64  S   UNL A   1      46.179  34.798  25.515  1.00  0.00     0.124 S 
ATOM     65  O   UNL A   1      45.280  34.518  24.400  1.00  0.00    -0.237 OA
ATOM     66  O   UNL A   1      45.867  35.998  26.290  1.00  0.00    -0.237 OA
ATOM     67  O   UNL A   1      47.600  34.612  25.227  1.00  0.00    -0.744 OA
ENDBRANCH  63  64
ENDBRANCH  37  58
ENDBRANCH  11  12
ENDBRANCH   4   6
ENDBRANCH   1   2
BRANCH   1  68
ATOM     68  C   UNL A   1      32.792  28.180  26.982  1.00  0.00     0.042 C 
BRANCH  68  69
ATOM     69  C   UNL A   1      33.188  26.927  26.211  1.00  0.00     0.118 C 
BRANCH  69  70
ATOM     70  N   UNL A   1      33.606  27.179  24.842  1.00  0.00    -0.352 N 
ATOM     71  C   UNL A   1      33.419  26.422  23.713  1.00  0.00     0.255 C 
ATOM     72  H   UNL A   1      34.099  28.019  24.703  1.00  0.00     0.163 HD
ATOM     73  O   UNL A   1      33.835  26.823  22.633  1.00  0.00    -0.269 OA
BRANCH  71  74
ATOM     74  C   UNL A   1      32.754  25.139  23.827  1.00  0.00     0.101 A 
ATOM     75  C   UNL A   1      31.349  24.933  23.798  1.00  0.00     0.180 A 
ATOM     76  C   UNL A   1      33.316  23.880  24.055  1.00  0.00     0.143 A 
ATOM     77  N   UNL A   1      31.072  23.619  23.799  1.00  0.00    -0.162 NA
ATOM     78  N   UNL A   1      32.258  22.990  23.977  1.00  0.00    -0.229 N 
BRANCH  75  79
ATOM     79  C   UNL A   1      30.263  25.982  23.734  1.00  0.00     0.436 C 
ATOM     80  F   UNL A   1      29.029  25.444  23.533  1.00  0.00    -0.164 F 
ATOM     81  F   UNL A   1      30.190  26.701  24.888  1.00  0.00    -0.164 F 
ATOM     82  F   UNL A   1      30.444  26.879  22.729  1.00  0.00    -0.164 F 
ENDBRANCH  75  79
BRANCH  76  83
ATOM     83  C   UNL A   1      34.737  23.447  24.169  1.00  0.00     0.365 C 
ATOM     84  F   UNL A   1      34.889  22.142  24.491  1.00  0.00    -0.181 F 
ATOM     85  F   UNL A   1      35.365  23.610  22.976  1.00  0.00    -0.181 F 
ATOM     86  Cl  UNL A   1      35.628  24.350  25.420  1.00  0.00    -0.040 Cl
ENDBRANCH  76  83
BRANCH  78  87
ATOM     87  C   UNL A   1      32.263  21.576  23.988  1.00  0.00     0.065 A 
ATOM     88  C   UNL A   1      32.188  20.894  22.767  1.00  0.00     0.028 A 
ATOM     89  C   UNL A   1      32.344  20.865  25.187  1.00  0.00     0.028 A 
ATOM     90  C   UNL A   1      32.315  19.505  22.747  1.00  0.00     0.002 A 
ATOM     91  C   UNL A   1      32.465  19.476  25.160  1.00  0.00     0.002 A 
ATOM     92  C   UNL A   1      32.473  18.800  23.940  1.00  0.00     0.000 A 
ENDBRANCH  78  87
ENDBRANCH  71  74
ENDBRANCH  69  70
ENDBRANCH  68  69
ENDBRANCH   1  68
TORSDOF 16
ENDMDL
MODEL 3
REMARK VINA RESULT:     -12.6      2.767      9.235
REMARK SMILES O=C(NCCCNC(=O)c1c(C(F)(F)F)nn(-c2ccccc2)c1C(F)(F)Cl)c1ccc(-c2c3nc(c(-c4ccc(S(=O)(=O)[O-])cc4)c4ccc([nH]4)c(-c4ccc(S(=O)(=O)[O-])cc4)c4nc(c(-c5ccc(S(=O)(=O)[O-])cc5)c5ccc2[nH]5)C=C4)C=C3)cc1
REMARK SMILES IDX 4 1 3 2 1 3 2 4 29 6 30 7 88 8 31 9 87 10 32 11 33 12 34 13
REMARK SMILES IDX 81 14 35 15 86 16 80 17 82 18 36 19 85 20 79 21 78 22 37 24
REMARK SMILES IDX 67 25 48 26 66 27 49 28 52 29 65 30 83 31 50 32 51 33 64 35
REMARK SMILES IDX 84 36 53 37 38 38 39 39 47 40 40 41 46 42 41 43 42 44 43 45
REMARK SMILES IDX 44 46 45 47 68 48 69 49 77 50 70 51 76 52 71 53 72 54 73 55
REMARK SMILES IDX 74 56 75 57 54 58 55 59 63 60 56 61 62 62 57 63 58 64 59 65
REMARK SMILES IDX 60 66 61 67 5 68 6 69 7 70 8 71 9 73 10 74 11 75 24 76 16 77
REMARK SMILES IDX 17 78 12 79 13 80 14 81 15 82 25 83 26 84 27 85 28 86 18 87
REMARK SMILES IDX 19 88 23 89 20 90 22 91 21 92
REMARK H PARENT 3 5 82 23 52 34 7 72
REMARK Flexibility Score: inf
ROOT
ATOM      1  C   UNL A   1      36.786  22.014  25.545  1.00  0.00     0.118 C 
ENDROOT
BRANCH   1   2
ATOM      2  N   UNL A   1      38.142  21.506  25.472  1.00  0.00    -0.352 N 
ATOM      3  O   UNL A   1      40.215  20.971  25.997  1.00  0.00    -0.269 OA
ATOM      4  C   UNL A   1      39.316  21.810  26.106  1.00  0.00     0.251 C 
ATOM      5  H   UNL A   1      38.240  20.775  24.820  1.00  0.00     0.163 HD
BRANCH   4   6
ATOM      6  C   UNL A   1      39.601  23.075  26.840  1.00  0.00     0.039 A 
ATOM      7  C   UNL A   1      38.870  24.259  26.732  1.00  0.00     0.014 A 
ATOM      8  C   UNL A   1      40.754  23.076  27.649  1.00  0.00     0.014 A 
ATOM      9  C   UNL A   1      39.326  25.433  27.327  1.00  0.00     0.010 A 
ATOM     10  C   UNL A   1      41.200  24.240  28.269  1.00  0.00     0.010 A 
ATOM     11  C   UNL A   1      40.507  25.431  28.071  1.00  0.00    -0.014 A 
BRANCH  11  12
ATOM     12  C   UNL A   1      40.917  26.680  28.713  1.00  0.00     0.031 A 
ATOM     13  C   UNL A   1      42.124  27.345  28.136  1.00  0.00     0.074 A 
ATOM     14  C   UNL A   1      40.179  27.309  29.650  1.00  0.00     0.049 A 
ATOM     15  N   UNL A   1      43.223  27.690  28.725  1.00  0.00    -0.248 NA
ATOM     16  C   UNL A   1      42.118  27.595  26.686  1.00  0.00     0.031 C 
ATOM     17  C   UNL A   1      38.824  26.969  30.092  1.00  0.00     0.029 A 
ATOM     18  N   UNL A   1      40.439  28.475  30.310  1.00  0.00    -0.354 N 
ATOM     19  C   UNL A   1      43.977  28.369  27.767  1.00  0.00     0.074 A 
ATOM     20  C   UNL A   1      43.306  28.169  26.507  1.00  0.00     0.031 C 
ATOM     21  C   UNL A   1      38.296  28.025  30.747  1.00  0.00     0.029 A 
ATOM     22  C   UNL A   1      39.315  29.054  30.884  1.00  0.00     0.049 A 
ATOM     23  H   UNL A   1      41.339  28.870  30.373  1.00  0.00     0.167 HD
ATOM     24  C   UNL A   1      44.994  29.218  28.090  1.00  0.00     0.031 A 
ATOM     25  C   UNL A   1      39.198  30.318  31.358  1.00  0.00     0.031 A 
ATOM     26  C   UNL A   1      45.463  29.026  29.434  1.00  0.00     0.049 A 
ATOM     27  C   UNL A   1      40.561  30.843  31.604  1.00  0.00     0.074 A 
ATOM     28  C   UNL A   1      46.025  27.980  30.136  1.00  0.00     0.029 A 
ATOM     29  N   UNL A   1      45.093  29.955  30.376  1.00  0.00    -0.354 N 
ATOM     30  N   UNL A   1      41.358  30.391  32.530  1.00  0.00    -0.248 NA
ATOM     31  C   UNL A   1      41.199  31.642  30.570  1.00  0.00     0.031 C 
ATOM     32  C   UNL A   1      45.537  28.122  31.468  1.00  0.00     0.029 A 
ATOM     33  C   UNL A   1      44.732  29.262  31.503  1.00  0.00     0.049 A 
ATOM     34  H   UNL A   1      45.087  30.933  30.263  1.00  0.00     0.167 HD
ATOM     35  C   UNL A   1      42.630  30.490  31.987  1.00  0.00     0.074 A 
ATOM     36  C   UNL A   1      42.480  31.373  30.836  1.00  0.00     0.031 C 
ATOM     37  C   UNL A   1      43.627  29.633  32.360  1.00  0.00     0.031 A 
BRANCH  24  38
ATOM     38  C   UNL A   1      45.305  30.479  27.312  1.00  0.00    -0.014 A 
ATOM     39  C   UNL A   1      46.654  30.842  27.109  1.00  0.00     0.010 A 
ATOM     40  C   UNL A   1      44.334  31.465  27.042  1.00  0.00     0.010 A 
ATOM     41  C   UNL A   1      47.012  32.153  26.762  1.00  0.00     0.020 A 
ATOM     42  C   UNL A   1      44.677  32.760  26.647  1.00  0.00     0.020 A 
ATOM     43  C   UNL A   1      46.017  33.110  26.560  1.00  0.00     0.054 A 
BRANCH  43  44
ATOM     44  S   UNL A   1      46.486  34.836  26.285  1.00  0.00     0.124 S 
ATOM     45  O   UNL A   1      47.524  35.025  27.293  1.00  0.00    -0.237 OA
ATOM     46  O   UNL A   1      46.943  34.818  24.898  1.00  0.00    -0.237 OA
ATOM     47  O   UNL A   1      45.242  35.568  26.518  1.00  0.00    -0.744 OA
ENDBRANCH  43  44
ENDBRANCH  24  38
BRANCH  25  48
ATOM     48  C   UNL A   1      38.000  31.193  31.306  1.00  0.00    -0.014 A 
ATOM     49  C   UNL A   1      36.848  30.899  32.058  1.00  0.00     0.010 A 
ATOM     50  C   UNL A   1      38.088  32.471  30.714  1.00  0.00     0.010 A 
ATOM     51  C   UNL A   1      35.846  31.865  32.250  1.00  0.00     0.020 A 
ATOM     52  C   UNL A   1      37.090  33.434  30.892  1.00  0.00     0.020 A 
ATOM     53  C   UNL A   1      35.982  33.134  31.679  1.00  0.00     0.054 A 
BRANCH  53  54
ATOM     54  S   UNL A   1      34.771  34.430  32.069  1.00  0.00     0.124 S 
ATOM     55  O   UNL A   1      33.769  33.699  32.837  1.00  0.00    -0.237 OA
ATOM     56  O   UNL A   1      35.567  35.394  32.822  1.00  0.00    -0.237 OA
ATOM     57  O   UNL A   1      34.326  34.892  30.754  1.00  0.00    -0.744 OA
ENDBRANCH  53  54
ENDBRANCH  25  48
BRANCH  37  58
ATOM     58  C   UNL A   1      43.432  28.795  33.602  1.00  0.00    -0.014 A 
ATOM     59  C   UNL A   1      43.648  29.283  34.904  1.00  0.00     0.010 A 
ATOM     60  C   UNL A   1      42.860  27.519  33.450  1.00  0.00     0.010 A 
ATOM     61  C   UNL A   1      43.321  28.506  36.025  1.00  0.00     0.020 A 
ATOM     62  C   UNL A   1      42.514  26.747  34.563  1.00  0.00     0.020 A 
ATOM     63  C   UNL A   1      42.752  27.243  35.846  1.00  0.00     0.054 A 
BRANCH  63  64
ATOM     64  S   UNL A   1      42.264  26.275  37.302  1.00  0.00     0.124 S 
ATOM     65  O   UNL A   1      43.285  26.637  38.280  1.00  0.00    -0.237 OA
ATOM     66  O   UNL A   1      40.918  26.769  37.584  1.00  0.00    -0.237 OA
ATOM     67  O   UNL A   1      42.319  24.891  36.834  1.00  0.00    -0.744 OA
ENDBRANCH  63  64
ENDBRANCH  37  58
ENDBRANCH  11  12
ENDBRANCH   4   6
ENDBRANCH   1   2
BRANCH   1  68
ATOM     68  C   UNL A   1      36.432  23.096  24.521  1.00  0.00     0.042 C 
BRANCH  68  69
ATOM     69  C   UNL A   1      34.956  23.468  24.443  1.00  0.00     0.118 C 
BRANCH  69  70
ATOM     70  N   UNL A   1      34.147  22.533  23.679  1.00  0.00    -0.352 N 
ATOM     71  C   UNL A   1      32.826  22.607  23.316  1.00  0.00     0.255 C 
ATOM     72  H   UNL A   1      34.617  21.723  23.377  1.00  0.00     0.163 HD
ATOM     73  O   UNL A   1      32.326  21.713  22.644  1.00  0.00    -0.269 OA
BRANCH  71  74
ATOM     74  C   UNL A   1      32.034  23.735  23.765  1.00  0.00     0.101 A 
ATOM     75  C   UNL A   1      31.279  23.787  24.967  1.00  0.00     0.180 A 
ATOM     76  C   UNL A   1      31.786  24.945  23.110  1.00  0.00     0.143 A 
ATOM     77  N   UNL A   1      30.770  25.017  25.143  1.00  0.00    -0.162 NA
ATOM     78  N   UNL A   1      31.059  25.703  24.011  1.00  0.00    -0.229 N 
BRANCH  75  79
ATOM     79  C   UNL A   1      31.066  22.679  25.973  1.00  0.00     0.436 C 
ATOM     80  F   UNL A   1      32.153  22.480  26.767  1.00  0.00    -0.164 F 
ATOM     81  F   UNL A   1      30.022  22.947  26.803  1.00  0.00    -0.164 F 
ATOM     82  F   UNL A   1      30.804  21.477  25.396  1.00  0.00    -0.164 F 
ENDBRANCH  75  79
BRANCH  76  83
ATOM     83  C   UNL A   1      32.301  25.486  21.822  1.00  0.00     0.365 C 
ATOM     84  F   UNL A   1      32.889  24.558  21.033  1.00  0.00    -0.181 F 
ATOM     85  F   UNL A   1      31.275  25.997  21.093  1.00  0.00    -0.181 F 
ATOM     86  Cl  UNL A   1      33.531  26.755  22.056  1.00  0.00    -0.040 Cl
ENDBRANCH  76  83
BRANCH  78  87
ATOM     87  C   UNL A   1      30.658  27.057  23.939  1.00  0.00     0.065 A 
ATOM     88  C   UNL A   1      31.423  28.022  24.605  1.00  0.00     0.028 A 
ATOM     89  C   UNL A   1      29.525  27.436  23.214  1.00  0.00     0.028 A 
ATOM     90  C   UNL A   1      31.117  29.374  24.444  1.00  0.00     0.002 A 
ATOM     91  C   UNL A   1      29.221  28.789  23.063  1.00  0.00     0.002 A 
ATOM     92  C   UNL A   1      30.029  29.756  23.658  1.00  0.00     0.000 A 
ENDBRANCH  78  87
ENDBRANCH  71  74
ENDBRANCH  69  70
ENDBRANCH  68  69
ENDBRANCH   1  68
TORSDOF 16
ENDMDL
