MODEL 1
REMARK VINA RESULT:     -13.9      0.000      0.000
REMARK SMILES Cc1ccc(NC(=O)C[C@H]2SC[C@H](C(=O)NCCCNC(=O)c3ccc(-c4c5nc(c(-c6ccc(S(=O)(=O)[O-])cc6)c6ccc([nH]6)c(-c6ccc(S(=O)(=O)[O-])cc6)c6nc(c(-c7ccc(S(=O)(=O)[O-])cc7)c7ccc4[nH]7)C=C6)C=C5)cc3)NC2=O)cc1
REMARK SMILES IDX 18 1 17 2 16 3 14 4 15 5 13 7 10 8 11 9 84 10 12 11 83 12
REMARK SMILES IDX 85 13 9 15 7 16 6 17 8 19 5 20 1 21 2 22 3 23 87 24 4 25
REMARK SMILES IDX 86 26 19 27 20 28 21 29 22 31 23 32 24 33 82 34 25 35 81 36
REMARK SMILES IDX 26 37 27 38 28 39 75 40 29 41 80 42 74 43 76 44 30 45 79 46
REMARK SMILES IDX 73 47 72 48 31 50 61 51 42 52 60 53 43 54 46 55 59 56 77 57
REMARK SMILES IDX 44 58 45 59 58 61 78 62 47 63 32 64 33 65 41 66 34 67 40 68
REMARK SMILES IDX 35 69 36 70 37 71 38 72 39 73 62 74 63 75 71 76 64 77 70 78
REMARK SMILES IDX 65 79 66 80 67 81 68 82 69 83 48 84 49 85 57 86 50 87 56 88
REMARK SMILES IDX 51 89 52 90 53 91 54 92 55 93
REMARK H PARENT 16 6 83 14 6 18 20 30 76 49 46 60
REMARK Flexibility Score: inf
ROOT
ATOM      1  C   UNL A   1      32.955  29.950  27.111  1.00  0.00     0.042 C 
ENDROOT
BRANCH   1   2
ATOM      2  C   UNL A   1      32.382  30.216  25.720  1.00  0.00     0.117 C 
BRANCH   2   3
ATOM      3  N   UNL A   1      33.276  29.772  24.657  1.00  0.00    -0.354 N 
ATOM      4  C   UNL A   1      33.249  28.667  23.859  1.00  0.00     0.243 C 
ATOM      5  O   UNL A   1      34.176  28.507  23.060  1.00  0.00    -0.273 OA
ATOM      6  H   UNL A   1      34.033  30.378  24.485  1.00  0.00     0.163 HD
BRANCH   4   7
ATOM      7  C   UNL A   1      32.141  27.601  23.960  1.00  0.00     0.181 C 
ATOM      8  C   UNL A   1      31.425  24.816  24.893  1.00  0.00     0.145 C 
ATOM      9  S   UNL A   1      31.109  25.160  23.109  1.00  0.00    -0.145 SA
ATOM     10  C   UNL A   1      31.156  26.095  25.699  1.00  0.00     0.234 C 
ATOM     11  C   UNL A   1      32.349  26.482  22.942  1.00  0.00     0.105 C 
ATOM     12  N   UNL A   1      31.901  27.196  25.347  1.00  0.00    -0.343 N 
ATOM     13  O   UNL A   1      30.405  26.177  26.665  1.00  0.00    -0.274 OA
ATOM     14  H   UNL A   1      32.294  27.742  26.066  1.00  0.00     0.164 HD
BRANCH   8  15
ATOM     15  C   UNL A   1      30.741  23.510  25.304  1.00  0.00     0.124 C 
BRANCH  15  16
ATOM     16  C   UNL A   1      30.942  22.996  26.713  1.00  0.00     0.226 C 
ATOM     17  N   UNL A   1      32.132  22.541  27.185  1.00  0.00    -0.326 N 
ATOM     18  H   UNL A   1      32.118  22.347  28.150  1.00  0.00     0.169 HD
ATOM     19  O   UNL A   1      29.980  22.979  27.491  1.00  0.00    -0.275 OA
BRANCH  17  20
ATOM     20  C   UNL A   1      33.372  22.289  26.588  1.00  0.00     0.041 A 
ATOM     21  C   UNL A   1      37.105  21.176  24.724  1.00  0.00     0.044 C 
ATOM     22  C   UNL A   1      35.794  21.574  25.342  1.00  0.00    -0.051 A 
ATOM     23  C   UNL A   1      35.695  22.753  26.090  1.00  0.00     0.005 A 
ATOM     24  C   UNL A   1      34.665  20.765  25.203  1.00  0.00     0.005 A 
ATOM     25  C   UNL A   1      34.488  23.113  26.704  1.00  0.00     0.026 A 
ATOM     26  C   UNL A   1      33.461  21.131  25.807  1.00  0.00     0.026 A 
ENDBRANCH  17  20
ENDBRANCH  15  16
ENDBRANCH   8  15
ENDBRANCH   4   7
ENDBRANCH   2   3
ENDBRANCH   1   2
BRANCH   1  27
ATOM     27  C   UNL A   1      34.469  29.780  27.126  1.00  0.00     0.118 C 
BRANCH  27  28
ATOM     28  N   UNL A   1      35.155  30.983  27.583  1.00  0.00    -0.352 N 
ATOM     29  C   UNL A   1      36.370  31.069  28.240  1.00  0.00     0.251 C 
ATOM     30  H   UNL A   1      34.698  31.837  27.403  1.00  0.00     0.163 HD
ATOM     31  O   UNL A   1      36.775  32.092  28.762  1.00  0.00    -0.269 OA
BRANCH  29  32
ATOM     32  C   UNL A   1      37.227  29.872  28.164  1.00  0.00     0.039 A 
ATOM     33  C   UNL A   1      37.339  29.104  29.328  1.00  0.00     0.014 A 
ATOM     34  C   UNL A   1      38.126  29.741  27.111  1.00  0.00     0.014 A 
ATOM     35  C   UNL A   1      38.474  28.323  29.517  1.00  0.00     0.010 A 
ATOM     36  C   UNL A   1      39.295  29.045  27.343  1.00  0.00     0.010 A 
ATOM     37  C   UNL A   1      39.489  28.378  28.563  1.00  0.00    -0.014 A 
BRANCH  37  38
ATOM     38  C   UNL A   1      40.818  27.818  28.775  1.00  0.00     0.031 A 
ATOM     39  C   UNL A   1      41.069  26.403  28.415  1.00  0.00     0.074 A 
ATOM     40  C   UNL A   1      41.826  28.605  29.215  1.00  0.00     0.049 A 
ATOM     41  N   UNL A   1      42.029  25.681  28.889  1.00  0.00    -0.248 NA
ATOM     42  C   UNL A   1      40.198  25.666  27.502  1.00  0.00     0.031 C 
ATOM     43  C   UNL A   1      43.251  28.281  29.212  1.00  0.00     0.029 A 
ATOM     44  N   UNL A   1      41.754  29.786  29.962  1.00  0.00    -0.354 N 
ATOM     45  C   UNL A   1      42.084  24.526  28.140  1.00  0.00     0.074 A 
ATOM     46  C   UNL A   1      40.882  24.530  27.342  1.00  0.00     0.031 C 
ATOM     47  C   UNL A   1      43.861  29.026  30.148  1.00  0.00     0.029 A 
ATOM     48  C   UNL A   1      42.820  29.731  30.876  1.00  0.00     0.049 A 
ATOM     49  H   UNL A   1      41.091  30.508  29.866  1.00  0.00     0.167 HD
ATOM     50  C   UNL A   1      43.208  23.755  28.161  1.00  0.00     0.031 A 
ATOM     51  C   UNL A   1      42.658  29.701  32.232  1.00  0.00     0.031 A 
ATOM     52  C   UNL A   1      44.181  24.253  29.126  1.00  0.00     0.049 A 
ATOM     53  C   UNL A   1      43.268  28.465  32.865  1.00  0.00     0.074 A 
ATOM     54  C   UNL A   1      45.303  25.056  29.000  1.00  0.00     0.029 A 
ATOM     55  N   UNL A   1      43.877  24.207  30.482  1.00  0.00    -0.354 N 
ATOM     56  N   UNL A   1      43.584  27.387  32.200  1.00  0.00    -0.248 NA
ATOM     57  C   UNL A   1      43.542  28.333  34.294  1.00  0.00     0.031 C 
ATOM     58  C   UNL A   1      45.606  25.583  30.284  1.00  0.00     0.029 A 
ATOM     59  C   UNL A   1      44.693  25.069  31.188  1.00  0.00     0.049 A 
ATOM     60  H   UNL A   1      43.179  23.639  30.882  1.00  0.00     0.167 HD
ATOM     61  C   UNL A   1      44.102  26.451  33.055  1.00  0.00     0.074 A 
ATOM     62  C   UNL A   1      44.056  27.091  34.357  1.00  0.00     0.031 C 
ATOM     63  C   UNL A   1      44.529  25.226  32.626  1.00  0.00     0.031 A 
BRANCH  50  64
ATOM     64  C   UNL A   1      43.522  22.741  27.084  1.00  0.00    -0.014 A 
ATOM     65  C   UNL A   1      42.769  21.550  27.011  1.00  0.00     0.010 A 
ATOM     66  C   UNL A   1      44.578  22.867  26.163  1.00  0.00     0.010 A 
ATOM     67  C   UNL A   1      43.114  20.504  26.140  1.00  0.00     0.020 A 
ATOM     68  C   UNL A   1      44.960  21.814  25.315  1.00  0.00     0.020 A 
ATOM     69  C   UNL A   1      44.229  20.631  25.317  1.00  0.00     0.054 A 
BRANCH  69  70
ATOM     70  S   UNL A   1      44.713  19.237  24.264  1.00  0.00     0.124 S 
ATOM     71  O   UNL A   1      43.790  18.186  24.687  1.00  0.00    -0.237 OA
ATOM     72  O   UNL A   1      44.494  19.767  22.922  1.00  0.00    -0.237 OA
ATOM     73  O   UNL A   1      46.112  19.004  24.619  1.00  0.00    -0.744 OA
ENDBRANCH  69  70
ENDBRANCH  50  64
BRANCH  51  74
ATOM     74  C   UNL A   1      41.451  30.418  32.729  1.00  0.00    -0.014 A 
ATOM     75  C   UNL A   1      40.280  29.653  32.922  1.00  0.00     0.010 A 
ATOM     76  C   UNL A   1      41.571  31.650  33.396  1.00  0.00     0.010 A 
ATOM     77  C   UNL A   1      39.344  30.014  33.895  1.00  0.00     0.020 A 
ATOM     78  C   UNL A   1      40.629  32.017  34.370  1.00  0.00     0.020 A 
ATOM     79  C   UNL A   1      39.564  31.158  34.662  1.00  0.00     0.054 A 
BRANCH  79  80
ATOM     80  S   UNL A   1      38.560  31.378  36.164  1.00  0.00     0.124 S 
ATOM     81  O   UNL A   1      37.405  32.118  35.667  1.00  0.00    -0.237 OA
ATOM     82  O   UNL A   1      38.289  29.995  36.562  1.00  0.00    -0.237 OA
ATOM     83  O   UNL A   1      39.448  32.115  37.056  1.00  0.00    -0.744 OA
ENDBRANCH  79  80
ENDBRANCH  51  74
BRANCH  63  84
ATOM     84  C   UNL A   1      44.918  24.073  33.518  1.00  0.00    -0.014 A 
ATOM     85  C   UNL A   1      44.049  23.028  33.870  1.00  0.00     0.010 A 
ATOM     86  C   UNL A   1      46.270  23.948  33.921  1.00  0.00     0.010 A 
ATOM     87  C   UNL A   1      44.489  21.948  34.647  1.00  0.00     0.020 A 
ATOM     88  C   UNL A   1      46.729  22.853  34.658  1.00  0.00     0.020 A 
ATOM     89  C   UNL A   1      45.826  21.869  35.042  1.00  0.00     0.054 A 
BRANCH  89  90
ATOM     90  S   UNL A   1      46.398  20.442  35.998  1.00  0.00     0.124 S 
ATOM     91  O   UNL A   1      45.984  19.327  35.150  1.00  0.00    -0.237 OA
ATOM     92  O   UNL A   1      47.840  20.660  36.084  1.00  0.00    -0.237 OA
ATOM     93  O   UNL A   1      45.680  20.569  37.263  1.00  0.00    -0.744 OA
ENDBRANCH  89  90
ENDBRANCH  63  84
ENDBRANCH  37  38
ENDBRANCH  29  32
ENDBRANCH  27  28
ENDBRANCH   1  27
TORSDOF 16
ENDMDL
MODEL 2
REMARK VINA RESULT:     -13.2      1.065      1.492
REMARK SMILES Cc1ccc(NC(=O)C[C@H]2SC[C@H](C(=O)NCCCNC(=O)c3ccc(-c4c5nc(c(-c6ccc(S(=O)(=O)[O-])cc6)c6ccc([nH]6)c(-c6ccc(S(=O)(=O)[O-])cc6)c6nc(c(-c7ccc(S(=O)(=O)[O-])cc7)c7ccc4[nH]7)C=C6)C=C5)cc3)NC2=O)cc1
REMARK SMILES IDX 18 1 17 2 16 3 14 4 15 5 13 7 10 8 11 9 84 10 12 11 83 12
REMARK SMILES IDX 85 13 9 15 7 16 6 17 8 19 5 20 1 21 2 22 3 23 87 24 4 25
REMARK SMILES IDX 86 26 19 27 20 28 21 29 22 31 23 32 24 33 82 34 25 35 81 36
REMARK SMILES IDX 26 37 27 38 28 39 75 40 29 41 80 42 74 43 76 44 30 45 79 46
REMARK SMILES IDX 73 47 72 48 31 50 61 51 42 52 60 53 43 54 46 55 59 56 77 57
REMARK SMILES IDX 44 58 45 59 58 61 78 62 47 63 32 64 33 65 41 66 34 67 40 68
REMARK SMILES IDX 35 69 36 70 37 71 38 72 39 73 62 74 63 75 71 76 64 77 70 78
REMARK SMILES IDX 65 79 66 80 67 81 68 82 69 83 48 84 49 85 57 86 50 87 56 88
REMARK SMILES IDX 51 89 52 90 53 91 54 92 55 93
REMARK H PARENT 16 6 83 14 6 18 20 30 76 49 46 60
REMARK Flexibility Score: inf
ROOT
ATOM      1  C   UNL A   1      33.198  29.853  26.696  1.00  0.00     0.042 C 
ENDROOT
BRANCH   1   2
ATOM      2  C   UNL A   1      33.075  29.517  25.211  1.00  0.00     0.117 C 
BRANCH   2   3
ATOM      3  N   UNL A   1      31.805  29.956  24.646  1.00  0.00    -0.354 N 
ATOM      4  C   UNL A   1      30.769  29.255  24.105  1.00  0.00     0.243 C 
ATOM      5  O   UNL A   1      29.816  29.891  23.644  1.00  0.00    -0.273 OA
ATOM      6  H   UNL A   1      31.672  30.932  24.657  1.00  0.00     0.163 HD
BRANCH   4   7
ATOM      7  C   UNL A   1      30.774  27.717  24.004  1.00  0.00     0.181 C 
ATOM      8  C   UNL A   1      32.069  25.152  24.944  1.00  0.00     0.145 C 
ATOM      9  S   UNL A   1      32.034  25.399  23.117  1.00  0.00    -0.145 SA
ATOM     10  C   UNL A   1      30.789  25.748  25.548  1.00  0.00     0.234 C 
ATOM     11  C   UNL A   1      31.949  27.217  23.167  1.00  0.00     0.105 C 
ATOM     12  N   UNL A   1      30.579  27.086  25.312  1.00  0.00    -0.343 N 
ATOM     13  O   UNL A   1      30.008  25.149  26.280  1.00  0.00    -0.274 OA
ATOM     14  H   UNL A   1      30.279  27.651  26.061  1.00  0.00     0.164 HD
BRANCH   8  15
ATOM     15  C   UNL A   1      32.452  23.707  25.270  1.00  0.00     0.124 C 
BRANCH  15  16
ATOM     16  C   UNL A   1      32.500  22.696  24.145  1.00  0.00     0.226 C 
ATOM     17  N   UNL A   1      33.574  21.903  23.892  1.00  0.00    -0.326 N 
ATOM     18  H   UNL A   1      33.402  21.227  23.197  1.00  0.00     0.169 HD
ATOM     19  O   UNL A   1      31.517  22.573  23.403  1.00  0.00    -0.275 OA
BRANCH  17  20
ATOM     20  C   UNL A   1      34.873  21.846  24.409  1.00  0.00     0.041 A 
ATOM     21  C   UNL A   1      38.950  21.963  25.828  1.00  0.00     0.044 C 
ATOM     22  C   UNL A   1      37.521  21.937  25.363  1.00  0.00    -0.051 A 
ATOM     23  C   UNL A   1      36.795  20.740  25.378  1.00  0.00     0.005 A 
ATOM     24  C   UNL A   1      36.904  23.095  24.888  1.00  0.00     0.005 A 
ATOM     25  C   UNL A   1      35.475  20.696  24.911  1.00  0.00     0.026 A 
ATOM     26  C   UNL A   1      35.585  23.051  24.432  1.00  0.00     0.026 A 
ENDBRANCH  17  20
ENDBRANCH  15  16
ENDBRANCH   8  15
ENDBRANCH   4   7
ENDBRANCH   2   3
ENDBRANCH   1   2
BRANCH   1  27
ATOM     27  C   UNL A   1      34.587  29.596  27.269  1.00  0.00     0.118 C 
BRANCH  27  28
ATOM     28  N   UNL A   1      35.266  30.830  27.647  1.00  0.00    -0.352 N 
ATOM     29  C   UNL A   1      36.511  30.967  28.233  1.00  0.00     0.251 C 
ATOM     30  H   UNL A   1      34.778  31.666  27.463  1.00  0.00     0.163 HD
ATOM     31  O   UNL A   1      36.917  32.017  28.697  1.00  0.00    -0.269 OA
BRANCH  29  32
ATOM     32  C   UNL A   1      37.393  29.788  28.152  1.00  0.00     0.039 A 
ATOM     33  C   UNL A   1      37.521  29.017  29.312  1.00  0.00     0.014 A 
ATOM     34  C   UNL A   1      38.295  29.680  27.098  1.00  0.00     0.014 A 
ATOM     35  C   UNL A   1      38.671  28.259  29.497  1.00  0.00     0.010 A 
ATOM     36  C   UNL A   1      39.477  29.008  27.327  1.00  0.00     0.010 A 
ATOM     37  C   UNL A   1      39.685  28.339  28.544  1.00  0.00    -0.014 A 
BRANCH  37  38
ATOM     38  C   UNL A   1      41.025  27.805  28.753  1.00  0.00     0.031 A 
ATOM     39  C   UNL A   1      41.310  26.402  28.373  1.00  0.00     0.074 A 
ATOM     40  C   UNL A   1      42.013  28.608  29.210  1.00  0.00     0.049 A 
ATOM     41  N   UNL A   1      42.283  25.695  28.841  1.00  0.00    -0.248 NA
ATOM     42  C   UNL A   1      40.458  25.660  27.445  1.00  0.00     0.031 C 
ATOM     43  C   UNL A   1      43.445  28.316  29.208  1.00  0.00     0.029 A 
ATOM     44  N   UNL A   1      41.913  29.775  29.974  1.00  0.00    -0.354 N 
ATOM     45  C   UNL A   1      42.367  24.552  28.075  1.00  0.00     0.074 A 
ATOM     46  C   UNL A   1      41.168  24.542  27.271  1.00  0.00     0.031 C 
ATOM     47  C   UNL A   1      44.035  29.060  30.159  1.00  0.00     0.029 A 
ATOM     48  C   UNL A   1      42.975  29.731  30.892  1.00  0.00     0.049 A 
ATOM     49  H   UNL A   1      41.234  30.484  29.886  1.00  0.00     0.167 HD
ATOM     50  C   UNL A   1      43.507  23.806  28.089  1.00  0.00     0.031 A 
ATOM     51  C   UNL A   1      42.808  29.676  32.246  1.00  0.00     0.031 A 
ATOM     52  C   UNL A   1      44.465  24.312  29.065  1.00  0.00     0.049 A 
ATOM     53  C   UNL A   1      43.443  28.444  32.864  1.00  0.00     0.074 A 
ATOM     54  C   UNL A   1      45.570  25.141  28.957  1.00  0.00     0.029 A 
ATOM     55  N   UNL A   1      44.156  24.238  30.419  1.00  0.00    -0.354 N 
ATOM     56  N   UNL A   1      43.785  27.384  32.184  1.00  0.00    -0.248 NA
ATOM     57  C   UNL A   1      43.714  28.297  34.292  1.00  0.00     0.031 C 
ATOM     58  C   UNL A   1      45.856  25.655  30.250  1.00  0.00     0.029 A 
ATOM     59  C   UNL A   1      44.950  25.107  31.142  1.00  0.00     0.049 A 
ATOM     60  H   UNL A   1      43.470  23.648  30.807  1.00  0.00     0.167 HD
ATOM     61  C   UNL A   1      44.321  26.447  33.027  1.00  0.00     0.074 A 
ATOM     62  C   UNL A   1      44.256  27.065  34.338  1.00  0.00     0.031 C 
ATOM     63  C   UNL A   1      44.776  25.238  32.582  1.00  0.00     0.031 A 
BRANCH  50  64
ATOM     64  C   UNL A   1      43.849  22.816  26.998  1.00  0.00    -0.014 A 
ATOM     65  C   UNL A   1      42.950  21.769  26.705  1.00  0.00     0.010 A 
ATOM     66  C   UNL A   1      45.056  22.821  26.275  1.00  0.00     0.010 A 
ATOM     67  C   UNL A   1      43.280  20.730  25.819  1.00  0.00     0.020 A 
ATOM     68  C   UNL A   1      45.417  21.768  25.418  1.00  0.00     0.020 A 
ATOM     69  C   UNL A   1      44.528  20.721  25.203  1.00  0.00     0.054 A 
BRANCH  69  70
ATOM     70  S   UNL A   1      44.973  19.327  24.133  1.00  0.00     0.124 S 
ATOM     71  O   UNL A   1      44.455  19.748  22.832  1.00  0.00    -0.237 OA
ATOM     72  O   UNL A   1      46.427  19.293  24.251  1.00  0.00    -0.237 OA
ATOM     73  O   UNL A   1      44.274  18.193  24.734  1.00  0.00    -0.744 OA
ENDBRANCH  69  70
ENDBRANCH  50  64
BRANCH  51  74
ATOM     74  C   UNL A   1      41.583  30.359  32.750  1.00  0.00    -0.014 A 
ATOM     75  C   UNL A   1      40.444  29.556  32.973  1.00  0.00     0.010 A 
ATOM     76  C   UNL A   1      41.669  31.606  33.393  1.00  0.00     0.010 A 
ATOM     77  C   UNL A   1      39.510  29.901  33.952  1.00  0.00     0.020 A 
ATOM     78  C   UNL A   1      40.728  31.956  34.375  1.00  0.00     0.020 A 
ATOM     79  C   UNL A   1      39.699  31.065  34.697  1.00  0.00     0.054 A 
BRANCH  79  80
ATOM     80  S   UNL A   1      38.709  31.276  36.210  1.00  0.00     0.124 S 
ATOM     81  O   UNL A   1      37.565  32.048  35.735  1.00  0.00    -0.237 OA
ATOM     82  O   UNL A   1      38.414  29.891  36.583  1.00  0.00    -0.237 OA
ATOM     83  O   UNL A   1      39.617  31.978  37.110  1.00  0.00    -0.744 OA
ENDBRANCH  79  80
ENDBRANCH  51  74
BRANCH  63  84
ATOM     84  C   UNL A   1      45.188  24.081  33.458  1.00  0.00    -0.014 A 
ATOM     85  C   UNL A   1      46.423  24.003  34.121  1.00  0.00     0.010 A 
ATOM     86  C   UNL A   1      44.236  23.073  33.750  1.00  0.00     0.010 A 
ATOM     87  C   UNL A   1      46.721  22.933  34.977  1.00  0.00     0.020 A 
ATOM     88  C   UNL A   1      44.508  22.027  34.636  1.00  0.00     0.020 A 
ATOM     89  C   UNL A   1      45.764  21.948  35.225  1.00  0.00     0.054 A 
BRANCH  89  90
ATOM     90  S   UNL A   1      46.139  20.601  36.375  1.00  0.00     0.124 S 
ATOM     91  O   UNL A   1      47.577  20.435  36.185  1.00  0.00    -0.237 OA
ATOM     92  O   UNL A   1      45.738  21.151  37.669  1.00  0.00    -0.237 OA
ATOM     93  O   UNL A   1      45.310  19.500  35.891  1.00  0.00    -0.744 OA
ENDBRANCH  89  90
ENDBRANCH  63  84
ENDBRANCH  37  38
ENDBRANCH  29  32
ENDBRANCH  27  28
ENDBRANCH   1  27
TORSDOF 16
ENDMDL
MODEL 3
REMARK VINA RESULT:     -13.2      1.263      1.700
REMARK SMILES Cc1ccc(NC(=O)C[C@H]2SC[C@H](C(=O)NCCCNC(=O)c3ccc(-c4c5nc(c(-c6ccc(S(=O)(=O)[O-])cc6)c6ccc([nH]6)c(-c6ccc(S(=O)(=O)[O-])cc6)c6nc(c(-c7ccc(S(=O)(=O)[O-])cc7)c7ccc4[nH]7)C=C6)C=C5)cc3)NC2=O)cc1
REMARK SMILES IDX 18 1 17 2 16 3 14 4 15 5 13 7 10 8 11 9 84 10 12 11 83 12
REMARK SMILES IDX 85 13 9 15 7 16 6 17 8 19 5 20 1 21 2 22 3 23 87 24 4 25
REMARK SMILES IDX 86 26 19 27 20 28 21 29 22 31 23 32 24 33 82 34 25 35 81 36
REMARK SMILES IDX 26 37 27 38 28 39 75 40 29 41 80 42 74 43 76 44 30 45 79 46
REMARK SMILES IDX 73 47 72 48 31 50 61 51 42 52 60 53 43 54 46 55 59 56 77 57
REMARK SMILES IDX 44 58 45 59 58 61 78 62 47 63 32 64 33 65 41 66 34 67 40 68
REMARK SMILES IDX 35 69 36 70 37 71 38 72 39 73 62 74 63 75 71 76 64 77 70 78
REMARK SMILES IDX 65 79 66 80 67 81 68 82 69 83 48 84 49 85 57 86 50 87 56 88
REMARK SMILES IDX 51 89 52 90 53 91 54 92 55 93
REMARK H PARENT 16 6 83 14 6 18 20 30 76 49 46 60
REMARK Flexibility Score: inf
ROOT
ATOM      1  C   UNL A   1      33.110  29.966  26.555  1.00  0.00     0.042 C 
ENDROOT
BRANCH   1   2
ATOM      2  C   UNL A   1      32.932  29.521  25.105  1.00  0.00     0.117 C 
BRANCH   2   3
ATOM      3  N   UNL A   1      31.590  29.788  24.603  1.00  0.00    -0.354 N 
ATOM      4  C   UNL A   1      30.717  29.009  23.904  1.00  0.00     0.243 C 
ATOM      5  O   UNL A   1      29.645  29.510  23.552  1.00  0.00    -0.273 OA
ATOM      6  H   UNL A   1      31.254  30.692  24.803  1.00  0.00     0.163 HD
BRANCH   4   7
ATOM      7  C   UNL A   1      31.045  27.558  23.500  1.00  0.00     0.181 C 
ATOM      8  C   UNL A   1      33.078  25.324  23.627  1.00  0.00     0.145 C 
ATOM      9  S   UNL A   1      32.539  25.809  21.931  1.00  0.00    -0.145 SA
ATOM     10  C   UNL A   1      31.886  25.465  24.584  1.00  0.00     0.234 C 
ATOM     11  C   UNL A   1      32.060  27.513  22.358  1.00  0.00     0.105 C 
ATOM     12  N   UNL A   1      31.326  26.719  24.667  1.00  0.00    -0.343 N 
ATOM     13  O   UNL A   1      31.465  24.583  25.325  1.00  0.00    -0.274 OA
ATOM     14  H   UNL A   1      31.101  27.071  25.559  1.00  0.00     0.164 HD
BRANCH   8  15
ATOM     15  C   UNL A   1      33.846  24.002  23.573  1.00  0.00     0.124 C 
BRANCH  15  16
ATOM     16  C   UNL A   1      34.695  23.605  24.762  1.00  0.00     0.226 C 
ATOM     17  N   UNL A   1      34.877  22.318  25.159  1.00  0.00    -0.326 N 
ATOM     18  H   UNL A   1      35.542  22.225  25.879  1.00  0.00     0.169 HD
ATOM     19  O   UNL A   1      35.258  24.487  25.422  1.00  0.00    -0.275 OA
BRANCH  17  20
ATOM     20  C   UNL A   1      34.318  21.098  24.761  1.00  0.00     0.041 A 
ATOM     21  C   UNL A   1      32.918  17.209  23.513  1.00  0.00     0.044 C 
ATOM     22  C   UNL A   1      33.399  18.554  23.980  1.00  0.00    -0.051 A 
ATOM     23  C   UNL A   1      32.589  19.685  23.828  1.00  0.00     0.005 A 
ATOM     24  C   UNL A   1      34.665  18.702  24.547  1.00  0.00     0.005 A 
ATOM     25  C   UNL A   1      33.043  20.950  24.224  1.00  0.00     0.026 A 
ATOM     26  C   UNL A   1      35.112  19.961  24.950  1.00  0.00     0.026 A 
ENDBRANCH  17  20
ENDBRANCH  15  16
ENDBRANCH   8  15
ENDBRANCH   4   7
ENDBRANCH   2   3
ENDBRANCH   1   2
BRANCH   1  27
ATOM     27  C   UNL A   1      34.496  29.678  27.119  1.00  0.00     0.118 C 
BRANCH  27  28
ATOM     28  N   UNL A   1      35.201  30.896  27.500  1.00  0.00    -0.352 N 
ATOM     29  C   UNL A   1      36.444  31.003  28.099  1.00  0.00     0.251 C 
ATOM     30  H   UNL A   1      34.737  31.743  27.309  1.00  0.00     0.163 HD
ATOM     31  O   UNL A   1      36.872  32.045  28.565  1.00  0.00    -0.269 OA
BRANCH  29  32
ATOM     32  C   UNL A   1      37.296  29.803  28.029  1.00  0.00     0.039 A 
ATOM     33  C   UNL A   1      37.366  29.013  29.182  1.00  0.00     0.014 A 
ATOM     34  C   UNL A   1      38.230  29.685  27.004  1.00  0.00     0.014 A 
ATOM     35  C   UNL A   1      38.490  28.223  29.394  1.00  0.00     0.010 A 
ATOM     36  C   UNL A   1      39.386  28.978  27.262  1.00  0.00     0.010 A 
ATOM     37  C   UNL A   1      39.536  28.289  28.475  1.00  0.00    -0.014 A 
BRANCH  37  38
ATOM     38  C   UNL A   1      40.854  27.716  28.721  1.00  0.00     0.031 A 
ATOM     39  C   UNL A   1      41.105  26.302  28.356  1.00  0.00     0.074 A 
ATOM     40  C   UNL A   1      41.854  28.492  29.198  1.00  0.00     0.049 A 
ATOM     41  N   UNL A   1      42.045  25.570  28.852  1.00  0.00    -0.248 NA
ATOM     42  C   UNL A   1      40.255  25.580  27.412  1.00  0.00     0.031 C 
ATOM     43  C   UNL A   1      43.276  28.158  29.233  1.00  0.00     0.029 A 
ATOM     44  N   UNL A   1      41.770  29.667  29.952  1.00  0.00    -0.354 N 
ATOM     45  C   UNL A   1      42.114  24.420  28.095  1.00  0.00     0.074 A 
ATOM     46  C   UNL A   1      40.935  24.440  27.262  1.00  0.00     0.031 C 
ATOM     47  C   UNL A   1      43.865  28.890  30.193  1.00  0.00     0.029 A 
ATOM     48  C   UNL A   1      42.808  29.597  30.896  1.00  0.00     0.049 A 
ATOM     49  H   UNL A   1      41.115  30.395  29.843  1.00  0.00     0.167 HD
ATOM     50  C   UNL A   1      43.231  23.640  28.142  1.00  0.00     0.031 A 
ATOM     51  C   UNL A   1      42.606  29.556  32.246  1.00  0.00     0.031 A 
ATOM     52  C   UNL A   1      44.179  24.124  29.139  1.00  0.00     0.049 A 
ATOM     53  C   UNL A   1      43.189  28.310  32.886  1.00  0.00     0.074 A 
ATOM     54  C   UNL A   1      45.311  24.919  29.053  1.00  0.00     0.029 A 
ATOM     55  N   UNL A   1      43.835  24.068  30.485  1.00  0.00    -0.354 N 
ATOM     56  N   UNL A   1      43.516  27.236  32.222  1.00  0.00    -0.248 NA
ATOM     57  C   UNL A   1      43.420  28.164  34.322  1.00  0.00     0.031 C 
ATOM     58  C   UNL A   1      45.580  25.433  30.349  1.00  0.00     0.029 A 
ATOM     59  C   UNL A   1      44.637  24.918  31.222  1.00  0.00     0.049 A 
ATOM     60  H   UNL A   1      43.122  23.502  30.859  1.00  0.00     0.167 HD
ATOM     61  C   UNL A   1      44.002  26.288  33.083  1.00  0.00     0.074 A 
ATOM     62  C   UNL A   1      43.924  26.918  34.389  1.00  0.00     0.031 C 
ATOM     63  C   UNL A   1      44.432  25.064  32.656  1.00  0.00     0.031 A 
BRANCH  50  64
ATOM     64  C   UNL A   1      43.569  22.633  27.066  1.00  0.00    -0.014 A 
ATOM     65  C   UNL A   1      42.743  21.504  26.888  1.00  0.00     0.010 A 
ATOM     66  C   UNL A   1      44.711  22.705  26.247  1.00  0.00     0.010 A 
ATOM     67  C   UNL A   1      43.090  20.457  26.019  1.00  0.00     0.020 A 
ATOM     68  C   UNL A   1      45.092  21.647  25.404  1.00  0.00     0.020 A 
ATOM     69  C   UNL A   1      44.282  20.522  25.303  1.00  0.00     0.054 A 
BRANCH  69  70
ATOM     70  S   UNL A   1      44.759  19.123  24.254  1.00  0.00     0.124 S 
ATOM     71  O   UNL A   1      43.854  18.067  24.704  1.00  0.00    -0.237 OA
ATOM     72  O   UNL A   1      44.509  19.638  22.912  1.00  0.00    -0.237 OA
ATOM     73  O   UNL A   1      46.167  18.907  24.584  1.00  0.00    -0.744 OA
ENDBRANCH  69  70
ENDBRANCH  50  64
BRANCH  51  74
ATOM     74  C   UNL A   1      41.391  30.278  32.715  1.00  0.00    -0.014 A 
ATOM     75  C   UNL A   1      40.300  29.493  33.145  1.00  0.00     0.010 A 
ATOM     76  C   UNL A   1      41.469  31.616  33.139  1.00  0.00     0.010 A 
ATOM     77  C   UNL A   1      39.417  29.968  34.117  1.00  0.00     0.020 A 
ATOM     78  C   UNL A   1      40.580  32.098  34.113  1.00  0.00     0.020 A 
ATOM     79  C   UNL A   1      39.608  31.245  34.647  1.00  0.00     0.054 A 
BRANCH  79  80
ATOM     80  S   UNL A   1      38.710  31.675  36.170  1.00  0.00     0.124 S 
ATOM     81  O   UNL A   1      37.956  32.859  35.769  1.00  0.00    -0.237 OA
ATOM     82  O   UNL A   1      37.905  30.475  36.406  1.00  0.00    -0.237 OA
ATOM     83  O   UNL A   1      39.778  31.903  37.137  1.00  0.00    -0.744 OA
ENDBRANCH  79  80
ENDBRANCH  51  74
BRANCH  63  84
ATOM     84  C   UNL A   1      44.787  23.900  33.549  1.00  0.00    -0.014 A 
ATOM     85  C   UNL A   1      43.909  22.847  33.846  1.00  0.00     0.010 A 
ATOM     86  C   UNL A   1      46.120  23.777  34.011  1.00  0.00     0.010 A 
ATOM     87  C   UNL A   1      44.319  21.758  34.628  1.00  0.00     0.020 A 
ATOM     88  C   UNL A   1      46.551  22.674  34.753  1.00  0.00     0.020 A 
ATOM     89  C   UNL A   1      45.637  21.680  35.082  1.00  0.00     0.054 A 
BRANCH  89  90
ATOM     90  S   UNL A   1      46.173  20.243  36.044  1.00  0.00     0.124 S 
ATOM     91  O   UNL A   1      47.595  20.178  35.719  1.00  0.00    -0.237 OA
ATOM     92  O   UNL A   1      45.862  20.631  37.418  1.00  0.00    -0.237 OA
ATOM     93  O   UNL A   1      45.357  19.154  35.513  1.00  0.00    -0.744 OA
ENDBRANCH  89  90
ENDBRANCH  63  84
ENDBRANCH  37  38
ENDBRANCH  29  32
ENDBRANCH  27  28
ENDBRANCH   1  27
TORSDOF 16
ENDMDL
