MODEL 1
REMARK VINA RESULT:      -9.2      0.000      0.000
REMARK SMILES COCCCC(=O)N1CCCC[C@@H]1CCC(=O)NCCCNC(=O)c1ccc(-c2c3nc(c(-c4ccc(S(=O)(=O)[O-])cc4)c4ccc([nH]4)c(-c4ccc(S(=O)(=O)[O-])cc4)c4nc(c(-c5ccc(S(=O)(=O)[O-])cc5)c5ccc2[nH]5)C=C4)C=C3)cc1
REMARK SMILES IDX 16 1 17 2 18 3 15 5 14 6 13 7 8 8 9 9 10 10 12 11 11 12 6 13
REMARK SMILES IDX 7 14 5 15 4 16 3 17 2 18 1 19 19 20 20 21 21 22 22 23 23 24
REMARK SMILES IDX 24 26 25 27 26 28 84 29 27 30 83 31 28 32 29 33 30 34 77 35
REMARK SMILES IDX 31 36 82 37 76 38 78 39 32 40 81 41 75 42 74 43 33 45 63 46
REMARK SMILES IDX 44 47 62 48 45 49 48 50 61 51 79 52 46 53 47 54 60 56 80 57
REMARK SMILES IDX 49 58 34 59 35 60 43 61 36 62 42 63 37 64 38 65 39 66 40 67
REMARK SMILES IDX 41 68 64 69 65 70 73 71 66 72 72 73 67 74 68 75 69 76 70 77
REMARK SMILES IDX 71 78 50 79 51 80 59 81 52 82 58 83 53 84 54 85 55 86 56 87
REMARK SMILES IDX 57 88
REMARK H PARENT 18 4 22 25 78 44 48 55
REMARK Flexibility Score: inf
ROOT
ATOM      1  C   UNL A   1      31.299  25.941  25.768  1.00  0.00     0.220 C 
ATOM      2  O   UNL A   1      30.313  25.945  26.509  1.00  0.00    -0.275 OA
ATOM      3  N   UNL A   1      31.675  27.123  25.206  1.00  0.00    -0.356 N 
ATOM      4  H   UNL A   1      31.138  27.898  25.489  1.00  0.00     0.163 HD
ENDROOT
BRANCH   1   5
ATOM      5  C   UNL A   1      32.049  24.648  25.490  1.00  0.00     0.102 C 
BRANCH   5   6
ATOM      6  C   UNL A   1      31.419  23.433  26.184  1.00  0.00     0.035 C 
BRANCH   6   7
ATOM      7  C   UNL A   1      31.750  22.113  25.467  1.00  0.00     0.085 C 
ATOM      8  N   UNL A   1      32.744  21.254  26.103  1.00  0.00    -0.340 N 
ATOM      9  C   UNL A   1      32.940  19.943  25.479  1.00  0.00     0.120 C 
ATOM     10  C   UNL A   1      33.176  20.071  23.964  1.00  0.00     0.022 C 
ATOM     11  C   UNL A   1      32.048  22.320  23.983  1.00  0.00     0.025 C 
ATOM     12  C   UNL A   1      32.142  20.966  23.281  1.00  0.00     0.004 C 
BRANCH   8  13
ATOM     13  C   UNL A   1      33.757  21.789  26.878  1.00  0.00     0.222 C 
ATOM     14  O   UNL A   1      33.606  22.084  28.061  1.00  0.00    -0.275 OA
BRANCH  13  15
ATOM     15  C   UNL A   1      35.128  21.764  26.216  1.00  0.00     0.102 C 
BRANCH  15  16
ATOM     16  C   UNL A   1      35.681  23.190  26.061  1.00  0.00     0.038 C 
BRANCH  16  17
ATOM     17  C   UNL A   1      35.330  23.895  24.745  1.00  0.00     0.160 C 
BRANCH  17  18
ATOM     18  O   UNL A   1      35.470  23.024  23.627  1.00  0.00    -0.385 OA
ATOM     19  C   UNL A   1      36.809  22.671  23.322  1.00  0.00     0.194 C 
ENDBRANCH  17  18
ENDBRANCH  16  17
ENDBRANCH  15  16
ENDBRANCH  13  15
ENDBRANCH   8  13
ENDBRANCH   6   7
ENDBRANCH   5   6
ENDBRANCH   1   5
BRANCH   3  20
ATOM     20  C   UNL A   1      32.736  27.441  24.259  1.00  0.00     0.117 C 
BRANCH  20  21
ATOM     21  C   UNL A   1      33.381  28.793  24.585  1.00  0.00     0.042 C 
BRANCH  21  22
ATOM     22  C   UNL A   1      34.201  28.805  25.867  1.00  0.00     0.118 C 
BRANCH  22  23
ATOM     23  N   UNL A   1      33.881  29.960  26.693  1.00  0.00    -0.352 N 
ATOM     24  C   UNL A   1      34.511  30.505  27.786  1.00  0.00     0.251 C 
ATOM     25  H   UNL A   1      33.064  30.437  26.420  1.00  0.00     0.163 HD
ATOM     26  O   UNL A   1      33.883  31.318  28.464  1.00  0.00    -0.269 OA
BRANCH  24  27
ATOM     27  C   UNL A   1      35.901  30.150  28.176  1.00  0.00     0.039 A 
ATOM     28  C   UNL A   1      36.899  30.190  27.193  1.00  0.00     0.014 A 
ATOM     29  C   UNL A   1      36.230  29.682  29.450  1.00  0.00     0.014 A 
ATOM     30  C   UNL A   1      38.212  29.801  27.494  1.00  0.00     0.010 A 
ATOM     31  C   UNL A   1      37.555  29.379  29.774  1.00  0.00     0.010 A 
ATOM     32  C   UNL A   1      38.560  29.414  28.796  1.00  0.00    -0.014 A 
BRANCH  32  33
ATOM     33  C   UNL A   1      39.949  29.004  29.145  1.00  0.00     0.031 A 
ATOM     34  C   UNL A   1      40.888  29.983  29.808  1.00  0.00     0.074 A 
ATOM     35  C   UNL A   1      40.394  27.774  28.817  1.00  0.00     0.049 A 
ATOM     36  N   UNL A   1      42.157  29.845  30.098  1.00  0.00    -0.248 NA
ATOM     37  C   UNL A   1      40.333  31.299  30.167  1.00  0.00     0.031 C 
ATOM     38  C   UNL A   1      39.606  26.736  28.149  1.00  0.00     0.029 A 
ATOM     39  N   UNL A   1      41.625  27.190  28.994  1.00  0.00    -0.354 N 
ATOM     40  C   UNL A   1      42.559  31.061  30.641  1.00  0.00     0.074 A 
ATOM     41  C   UNL A   1      41.409  31.939  30.604  1.00  0.00     0.031 C 
ATOM     42  C   UNL A   1      40.364  25.638  27.992  1.00  0.00     0.029 A 
ATOM     43  C   UNL A   1      41.702  25.905  28.510  1.00  0.00     0.049 A 
ATOM     44  H   UNL A   1      42.381  27.648  29.427  1.00  0.00     0.167 HD
ATOM     45  C   UNL A   1      43.768  31.415  31.141  1.00  0.00     0.031 A 
ATOM     46  C   UNL A   1      42.734  25.039  28.475  1.00  0.00     0.031 A 
ATOM     47  C   UNL A   1      44.903  30.534  31.214  1.00  0.00     0.049 A 
ATOM     48  C   UNL A   1      44.064  25.448  29.049  1.00  0.00     0.074 A 
ATOM     49  C   UNL A   1      46.152  30.783  31.759  1.00  0.00     0.029 A 
ATOM     50  N   UNL A   1      44.928  29.234  30.735  1.00  0.00    -0.354 N 
ATOM     51  N   UNL A   1      44.406  26.589  29.598  1.00  0.00    -0.248 NA
ATOM     52  C   UNL A   1      45.141  24.450  29.007  1.00  0.00     0.031 C 
ATOM     53  C   UNL A   1      46.944  29.645  31.574  1.00  0.00     0.029 A 
ATOM     54  C   UNL A   1      46.174  28.672  30.958  1.00  0.00     0.049 A 
ATOM     55  H   UNL A   1      44.173  28.777  30.300  1.00  0.00     0.167 HD
ATOM     56  C   UNL A   1      45.731  26.435  29.990  1.00  0.00     0.074 A 
ATOM     57  C   UNL A   1      46.123  25.089  29.629  1.00  0.00     0.031 C 
ATOM     58  C   UNL A   1      46.549  27.329  30.598  1.00  0.00     0.031 A 
BRANCH  45  59
ATOM     59  C   UNL A   1      43.928  32.823  31.654  1.00  0.00    -0.014 A 
ATOM     60  C   UNL A   1      44.300  33.873  30.795  1.00  0.00     0.010 A 
ATOM     61  C   UNL A   1      43.657  33.109  33.005  1.00  0.00     0.010 A 
ATOM     62  C   UNL A   1      44.438  35.173  31.286  1.00  0.00     0.020 A 
ATOM     63  C   UNL A   1      43.768  34.415  33.494  1.00  0.00     0.020 A 
ATOM     64  C   UNL A   1      44.176  35.436  32.633  1.00  0.00     0.054 A 
BRANCH  64  65
ATOM     65  S   UNL A   1      44.340  37.137  33.241  1.00  0.00     0.124 S 
ATOM     66  O   UNL A   1      42.977  37.424  33.692  1.00  0.00    -0.237 OA
ATOM     67  O   UNL A   1      45.333  37.000  34.309  1.00  0.00    -0.237 OA
ATOM     68  O   UNL A   1      44.782  37.885  32.075  1.00  0.00    -0.744 OA
ENDBRANCH  64  65
ENDBRANCH  45  59
BRANCH  46  69
ATOM     69  C   UNL A   1      42.549  23.686  27.883  1.00  0.00    -0.014 A 
ATOM     70  C   UNL A   1      42.874  23.447  26.537  1.00  0.00     0.010 A 
ATOM     71  C   UNL A   1      42.054  22.627  28.667  1.00  0.00     0.010 A 
ATOM     72  C   UNL A   1      42.688  22.179  25.978  1.00  0.00     0.020 A 
ATOM     73  C   UNL A   1      41.891  21.352  28.118  1.00  0.00     0.020 A 
ATOM     74  C   UNL A   1      42.199  21.139  26.772  1.00  0.00     0.054 A 
BRANCH  74  75
ATOM     75  S   UNL A   1      42.013  19.488  26.041  1.00  0.00     0.124 S 
ATOM     76  O   UNL A   1      42.517  18.627  27.106  1.00  0.00    -0.237 OA
ATOM     77  O   UNL A   1      40.576  19.414  25.791  1.00  0.00    -0.237 OA
ATOM     78  O   UNL A   1      42.842  19.555  24.839  1.00  0.00    -0.744 OA
ENDBRANCH  74  75
ENDBRANCH  46  69
BRANCH  58  79
ATOM     79  C   UNL A   1      47.940  26.873  30.945  1.00  0.00    -0.014 A 
ATOM     80  C   UNL A   1      49.029  27.150  30.101  1.00  0.00     0.010 A 
ATOM     81  C   UNL A   1      48.167  26.204  32.162  1.00  0.00     0.010 A 
ATOM     82  C   UNL A   1      50.318  26.741  30.454  1.00  0.00     0.020 A 
ATOM     83  C   UNL A   1      49.457  25.816  32.531  1.00  0.00     0.020 A 
ATOM     84  C   UNL A   1      50.523  26.075  31.668  1.00  0.00     0.054 A 
BRANCH  84  85
ATOM     85  S   UNL A   1      52.210  25.594  32.127  1.00  0.00     0.124 S 
ATOM     86  O   UNL A   1      52.539  26.581  33.153  1.00  0.00    -0.237 OA
ATOM     87  O   UNL A   1      52.037  24.225  32.606  1.00  0.00    -0.237 OA
ATOM     88  O   UNL A   1      52.958  25.721  30.878  1.00  0.00    -0.744 OA
ENDBRANCH  84  85
ENDBRANCH  58  79
ENDBRANCH  32  33
ENDBRANCH  24  27
ENDBRANCH  22  23
ENDBRANCH  21  22
ENDBRANCH  20  21
ENDBRANCH   3  20
TORSDOF 20
ENDMDL
MODEL 2
REMARK VINA RESULT:      -8.9      2.692      8.521
REMARK SMILES COCCCC(=O)N1CCCC[C@@H]1CCC(=O)NCCCNC(=O)c1ccc(-c2c3nc(c(-c4ccc(S(=O)(=O)[O-])cc4)c4ccc([nH]4)c(-c4ccc(S(=O)(=O)[O-])cc4)c4nc(c(-c5ccc(S(=O)(=O)[O-])cc5)c5ccc2[nH]5)C=C4)C=C3)cc1
REMARK SMILES IDX 16 1 17 2 18 3 15 5 14 6 13 7 8 8 9 9 10 10 12 11 11 12 6 13
REMARK SMILES IDX 7 14 5 15 4 16 3 17 2 18 1 19 19 20 20 21 21 22 22 23 23 24
REMARK SMILES IDX 24 26 25 27 26 28 84 29 27 30 83 31 28 32 29 33 30 34 77 35
REMARK SMILES IDX 31 36 82 37 76 38 78 39 32 40 81 41 75 42 74 43 33 45 63 46
REMARK SMILES IDX 44 47 62 48 45 49 48 50 61 51 79 52 46 53 47 54 60 56 80 57
REMARK SMILES IDX 49 58 34 59 35 60 43 61 36 62 42 63 37 64 38 65 39 66 40 67
REMARK SMILES IDX 41 68 64 69 65 70 73 71 66 72 72 73 67 74 68 75 69 76 70 77
REMARK SMILES IDX 71 78 50 79 51 80 59 81 52 82 58 83 53 84 54 85 55 86 56 87
REMARK SMILES IDX 57 88
REMARK H PARENT 18 4 22 25 78 44 48 55
REMARK Flexibility Score: inf
ROOT
ATOM      1  C   UNL A   1      30.984  25.643  25.917  1.00  0.00     0.220 C 
ATOM      2  O   UNL A   1      29.903  25.713  26.506  1.00  0.00    -0.275 OA
ATOM      3  N   UNL A   1      31.616  26.810  25.610  1.00  0.00    -0.356 N 
ATOM      4  H   UNL A   1      31.159  27.618  25.938  1.00  0.00     0.163 HD
ENDROOT
BRANCH   1   5
ATOM      5  C   UNL A   1      31.571  24.292  25.541  1.00  0.00     0.102 C 
BRANCH   5   6
ATOM      6  C   UNL A   1      32.708  23.856  26.475  1.00  0.00     0.035 C 
BRANCH   6   7
ATOM      7  C   UNL A   1      33.194  22.428  26.178  1.00  0.00     0.085 C 
ATOM      8  N   UNL A   1      34.550  22.294  25.653  1.00  0.00    -0.340 N 
ATOM      9  C   UNL A   1      35.040  20.921  25.509  1.00  0.00     0.120 C 
ATOM     10  C   UNL A   1      34.038  20.043  24.742  1.00  0.00     0.022 C 
ATOM     11  C   UNL A   1      32.186  21.634  25.348  1.00  0.00     0.025 C 
ATOM     12  C   UNL A   1      32.612  20.168  25.281  1.00  0.00     0.004 C 
BRANCH   8  13
ATOM     13  C   UNL A   1      35.120  23.297  24.889  1.00  0.00     0.222 C 
ATOM     14  O   UNL A   1      35.958  24.077  25.333  1.00  0.00    -0.275 OA
BRANCH  13  15
ATOM     15  C   UNL A   1      34.803  23.204  23.402  1.00  0.00     0.102 C 
BRANCH  15  16
ATOM     16  C   UNL A   1      33.938  24.395  22.959  1.00  0.00     0.038 C 
BRANCH  16  17
ATOM     17  C   UNL A   1      33.254  24.243  21.595  1.00  0.00     0.160 C 
BRANCH  17  18
ATOM     18  O   UNL A   1      33.263  25.464  20.863  1.00  0.00    -0.385 OA
ATOM     19  C   UNL A   1      32.456  25.455  19.696  1.00  0.00     0.194 C 
ENDBRANCH  17  18
ENDBRANCH  16  17
ENDBRANCH  15  16
ENDBRANCH  13  15
ENDBRANCH   8  13
ENDBRANCH   6   7
ENDBRANCH   5   6
ENDBRANCH   1   5
BRANCH   3  20
ATOM     20  C   UNL A   1      32.851  27.071  24.882  1.00  0.00     0.117 C 
BRANCH  20  21
ATOM     21  C   UNL A   1      33.266  28.541  25.005  1.00  0.00     0.042 C 
BRANCH  21  22
ATOM     22  C   UNL A   1      33.900  28.906  26.340  1.00  0.00     0.118 C 
BRANCH  22  23
ATOM     23  N   UNL A   1      33.656  30.298  26.683  1.00  0.00    -0.352 N 
ATOM     24  C   UNL A   1      34.272  31.142  27.577  1.00  0.00     0.251 C 
ATOM     25  H   UNL A   1      32.914  30.712  26.185  1.00  0.00     0.163 HD
ATOM     26  O   UNL A   1      33.695  32.188  27.869  1.00  0.00    -0.269 OA
BRANCH  24  27
ATOM     27  C   UNL A   1      35.588  30.837  28.197  1.00  0.00     0.039 A 
ATOM     28  C   UNL A   1      35.680  29.735  29.058  1.00  0.00     0.014 A 
ATOM     29  C   UNL A   1      36.705  31.661  28.037  1.00  0.00     0.014 A 
ATOM     30  C   UNL A   1      36.881  29.445  29.718  1.00  0.00     0.010 A 
ATOM     31  C   UNL A   1      37.926  31.321  28.626  1.00  0.00     0.010 A 
ATOM     32  C   UNL A   1      38.026  30.222  29.490  1.00  0.00    -0.014 A 
BRANCH  32  33
ATOM     33  C   UNL A   1      39.318  29.930  30.173  1.00  0.00     0.031 A 
ATOM     34  C   UNL A   1      40.202  28.810  29.681  1.00  0.00     0.074 A 
ATOM     35  C   UNL A   1      39.676  30.628  31.270  1.00  0.00     0.049 A 
ATOM     36  N   UNL A   1      41.311  28.342  30.200  1.00  0.00    -0.248 NA
ATOM     37  C   UNL A   1      39.772  28.106  28.462  1.00  0.00     0.031 C 
ATOM     38  C   UNL A   1      38.905  31.718  31.873  1.00  0.00     0.029 A 
ATOM     39  N   UNL A   1      40.779  30.517  32.081  1.00  0.00    -0.354 N 
ATOM     40  C   UNL A   1      41.688  27.274  29.393  1.00  0.00     0.074 A 
ATOM     41  C   UNL A   1      40.671  27.137  28.373  1.00  0.00     0.031 C 
ATOM     42  C   UNL A   1      39.568  32.188  32.942  1.00  0.00     0.029 A 
ATOM     43  C   UNL A   1      40.788  31.410  33.128  1.00  0.00     0.049 A 
ATOM     44  H   UNL A   1      41.497  29.861  31.928  1.00  0.00     0.167 HD
ATOM     45  C   UNL A   1      42.788  26.487  29.479  1.00  0.00     0.031 A 
ATOM     46  C   UNL A   1      41.671  31.580  34.131  1.00  0.00     0.031 A 
ATOM     47  C   UNL A   1      43.820  26.643  30.470  1.00  0.00     0.049 A 
ATOM     48  C   UNL A   1      42.893  30.704  34.198  1.00  0.00     0.074 A 
ATOM     49  C   UNL A   1      45.002  25.933  30.600  1.00  0.00     0.029 A 
ATOM     50  N   UNL A   1      43.800  27.576  31.493  1.00  0.00    -0.354 N 
ATOM     51  N   UNL A   1      43.251  29.730  33.397  1.00  0.00    -0.248 NA
ATOM     52  C   UNL A   1      43.833  30.957  35.299  1.00  0.00     0.031 C 
ATOM     53  C   UNL A   1      45.678  26.411  31.727  1.00  0.00     0.029 A 
ATOM     54  C   UNL A   1      44.941  27.452  32.269  1.00  0.00     0.049 A 
ATOM     55  H   UNL A   1      43.081  28.231  31.648  1.00  0.00     0.167 HD
ATOM     56  C   UNL A   1      44.471  29.272  33.883  1.00  0.00     0.074 A 
ATOM     57  C   UNL A   1      44.795  30.084  35.037  1.00  0.00     0.031 C 
ATOM     58  C   UNL A   1      45.253  28.270  33.412  1.00  0.00     0.031 A 
BRANCH  45  59
ATOM     59  C   UNL A   1      42.936  25.378  28.469  1.00  0.00    -0.014 A 
ATOM     60  C   UNL A   1      43.513  25.615  27.209  1.00  0.00     0.010 A 
ATOM     61  C   UNL A   1      42.534  24.071  28.802  1.00  0.00     0.010 A 
ATOM     62  C   UNL A   1      43.650  24.575  26.286  1.00  0.00     0.020 A 
ATOM     63  C   UNL A   1      42.694  23.022  27.891  1.00  0.00     0.020 A 
ATOM     64  C   UNL A   1      43.235  23.286  26.630  1.00  0.00     0.054 A 
BRANCH  64  65
ATOM     65  S   UNL A   1      43.443  21.947  25.424  1.00  0.00     0.124 S 
ATOM     66  O   UNL A   1      42.270  21.115  25.697  1.00  0.00    -0.237 OA
ATOM     67  O   UNL A   1      43.415  22.662  24.146  1.00  0.00    -0.237 OA
ATOM     68  O   UNL A   1      44.723  21.355  25.776  1.00  0.00    -0.744 OA
ENDBRANCH  64  65
ENDBRANCH  45  59
BRANCH  46  69
ATOM     69  C   UNL A   1      41.441  32.637  35.153  1.00  0.00    -0.014 A 
ATOM     70  C   UNL A   1      40.701  32.355  36.315  1.00  0.00     0.010 A 
ATOM     71  C   UNL A   1      41.966  33.930  34.973  1.00  0.00     0.010 A 
ATOM     72  C   UNL A   1      40.473  33.351  37.269  1.00  0.00     0.020 A 
ATOM     73  C   UNL A   1      41.762  34.921  35.938  1.00  0.00     0.020 A 
ATOM     74  C   UNL A   1      41.006  34.628  37.075  1.00  0.00     0.054 A 
BRANCH  74  75
ATOM     75  S   UNL A   1      40.742  35.892  38.349  1.00  0.00     0.124 S 
ATOM     76  O   UNL A   1      42.025  36.588  38.355  1.00  0.00    -0.237 OA
ATOM     77  O   UNL A   1      39.612  36.648  37.814  1.00  0.00    -0.237 OA
ATOM     78  O   UNL A   1      40.444  35.109  39.547  1.00  0.00    -0.744 OA
ENDBRANCH  74  75
ENDBRANCH  46  69
BRANCH  58  79
ATOM     79  C   UNL A   1      46.555  28.015  34.121  1.00  0.00    -0.014 A 
ATOM     80  C   UNL A   1      46.676  26.990  35.076  1.00  0.00     0.010 A 
ATOM     81  C   UNL A   1      47.689  28.777  33.785  1.00  0.00     0.010 A 
ATOM     82  C   UNL A   1      47.901  26.752  35.704  1.00  0.00     0.020 A 
ATOM     83  C   UNL A   1      48.922  28.526  34.392  1.00  0.00     0.020 A 
ATOM     84  C   UNL A   1      49.016  27.523  35.359  1.00  0.00     0.054 A 
BRANCH  84  85
ATOM     85  S   UNL A   1      50.607  27.165  36.153  1.00  0.00     0.124 S 
ATOM     86  O   UNL A   1      50.354  27.566  37.534  1.00  0.00    -0.237 OA
ATOM     87  O   UNL A   1      50.761  25.728  35.935  1.00  0.00    -0.237 OA
ATOM     88  O   UNL A   1      51.554  28.004  35.424  1.00  0.00    -0.744 OA
ENDBRANCH  84  85
ENDBRANCH  58  79
ENDBRANCH  32  33
ENDBRANCH  24  27
ENDBRANCH  22  23
ENDBRANCH  21  22
ENDBRANCH  20  21
ENDBRANCH   3  20
TORSDOF 20
ENDMDL
MODEL 3
REMARK VINA RESULT:      -8.8      4.124     10.706
REMARK SMILES COCCCC(=O)N1CCCC[C@@H]1CCC(=O)NCCCNC(=O)c1ccc(-c2c3nc(c(-c4ccc(S(=O)(=O)[O-])cc4)c4ccc([nH]4)c(-c4ccc(S(=O)(=O)[O-])cc4)c4nc(c(-c5ccc(S(=O)(=O)[O-])cc5)c5ccc2[nH]5)C=C4)C=C3)cc1
REMARK SMILES IDX 16 1 17 2 18 3 15 5 14 6 13 7 8 8 9 9 10 10 12 11 11 12 6 13
REMARK SMILES IDX 7 14 5 15 4 16 3 17 2 18 1 19 19 20 20 21 21 22 22 23 23 24
REMARK SMILES IDX 24 26 25 27 26 28 84 29 27 30 83 31 28 32 29 33 30 34 77 35
REMARK SMILES IDX 31 36 82 37 76 38 78 39 32 40 81 41 75 42 74 43 33 45 63 46
REMARK SMILES IDX 44 47 62 48 45 49 48 50 61 51 79 52 46 53 47 54 60 56 80 57
REMARK SMILES IDX 49 58 34 59 35 60 43 61 36 62 42 63 37 64 38 65 39 66 40 67
REMARK SMILES IDX 41 68 64 69 65 70 73 71 66 72 72 73 67 74 68 75 69 76 70 77
REMARK SMILES IDX 71 78 50 79 51 80 59 81 52 82 58 83 53 84 54 85 55 86 56 87
REMARK SMILES IDX 57 88
REMARK H PARENT 18 4 22 25 78 44 48 55
REMARK Flexibility Score: inf
ROOT
ATOM      1  C   UNL A   1      45.279  22.931  24.734  1.00  0.00     0.220 C 
ATOM      2  O   UNL A   1      45.846  23.205  23.674  1.00  0.00    -0.275 OA
ATOM      3  N   UNL A   1      44.198  22.104  24.681  1.00  0.00    -0.356 N 
ATOM      4  H   UNL A   1      43.995  21.758  23.782  1.00  0.00     0.163 HD
ENDROOT
BRANCH   1   5
ATOM      5  C   UNL A   1      45.775  23.516  26.047  1.00  0.00     0.102 C 
BRANCH   5   6
ATOM      6  C   UNL A   1      46.903  24.539  25.854  1.00  0.00     0.035 C 
BRANCH   6   7
ATOM      7  C   UNL A   1      46.412  25.988  26.015  1.00  0.00     0.085 C 
ATOM      8  N   UNL A   1      46.915  26.961  25.049  1.00  0.00    -0.340 N 
ATOM      9  C   UNL A   1      46.328  28.300  25.136  1.00  0.00     0.120 C 
ATOM     10  C   UNL A   1      46.374  28.842  26.574  1.00  0.00     0.022 C 
ATOM     11  C   UNL A   1      46.556  26.492  27.451  1.00  0.00     0.025 C 
ATOM     12  C   UNL A   1      45.849  27.837  27.600  1.00  0.00     0.004 C 
BRANCH   8  13
ATOM     13  C   UNL A   1      48.160  26.807  24.465  1.00  0.00     0.222 C 
ATOM     14  O   UNL A   1      48.313  26.650  23.257  1.00  0.00    -0.275 OA
BRANCH  13  15
ATOM     15  C   UNL A   1      49.327  27.082  25.404  1.00  0.00     0.102 C 
BRANCH  15  16
ATOM     16  C   UNL A   1      50.393  25.981  25.279  1.00  0.00     0.038 C 
BRANCH  16  17
ATOM     17  C   UNL A   1      51.056  25.551  26.593  1.00  0.00     0.160 C 
BRANCH  17  18
ATOM     18  O   UNL A   1      50.286  24.566  27.273  1.00  0.00    -0.385 OA
ATOM     19  C   UNL A   1      49.793  24.977  28.538  1.00  0.00     0.194 C 
ENDBRANCH  17  18
ENDBRANCH  16  17
ENDBRANCH  15  16
ENDBRANCH  13  15
ENDBRANCH   8  13
ENDBRANCH   6   7
ENDBRANCH   5   6
ENDBRANCH   1   5
BRANCH   3  20
ATOM     20  C   UNL A   1      43.290  21.642  25.723  1.00  0.00     0.117 C 
BRANCH  20  21
ATOM     21  C   UNL A   1      42.106  22.601  25.890  1.00  0.00     0.042 C 
BRANCH  21  22
ATOM     22  C   UNL A   1      40.858  21.962  26.482  1.00  0.00     0.118 C 
BRANCH  22  23
ATOM     23  N   UNL A   1      39.653  22.421  25.809  1.00  0.00    -0.352 N 
ATOM     24  C   UNL A   1      38.830  23.498  26.039  1.00  0.00     0.251 C 
ATOM     25  H   UNL A   1      39.376  21.858  25.049  1.00  0.00     0.163 HD
ATOM     26  O   UNL A   1      37.727  23.503  25.495  1.00  0.00    -0.269 OA
BRANCH  24  27
ATOM     27  C   UNL A   1      39.218  24.636  26.914  1.00  0.00     0.039 A 
ATOM     28  C   UNL A   1      40.047  25.633  26.380  1.00  0.00     0.014 A 
ATOM     29  C   UNL A   1      38.875  24.698  28.266  1.00  0.00     0.014 A 
ATOM     30  C   UNL A   1      40.493  26.692  27.182  1.00  0.00     0.010 A 
ATOM     31  C   UNL A   1      39.248  25.799  29.042  1.00  0.00     0.010 A 
ATOM     32  C   UNL A   1      40.079  26.800  28.517  1.00  0.00    -0.014 A 
BRANCH  32  33
ATOM     33  C   UNL A   1      40.532  27.919  29.389  1.00  0.00     0.031 A 
ATOM     34  C   UNL A   1      39.654  29.131  29.590  1.00  0.00     0.074 A 
ATOM     35  C   UNL A   1      41.755  27.883  29.957  1.00  0.00     0.049 A 
ATOM     36  N   UNL A   1      39.914  30.244  30.230  1.00  0.00    -0.248 NA
ATOM     37  C   UNL A   1      38.319  29.098  28.970  1.00  0.00     0.031 C 
ATOM     38  C   UNL A   1      42.720  26.789  29.825  1.00  0.00     0.029 A 
ATOM     39  N   UNL A   1      42.400  28.797  30.753  1.00  0.00    -0.354 N 
ATOM     40  C   UNL A   1      38.794  31.052  30.060  1.00  0.00     0.074 A 
ATOM     41  C   UNL A   1      37.867  30.317  29.226  1.00  0.00     0.031 C 
ATOM     42  C   UNL A   1      43.823  27.085  30.532  1.00  0.00     0.029 A 
ATOM     43  C   UNL A   1      43.663  28.405  31.134  1.00  0.00     0.049 A 
ATOM     44  H   UNL A   1      41.998  29.653  31.026  1.00  0.00     0.167 HD
ATOM     45  C   UNL A   1      38.547  32.285  30.564  1.00  0.00     0.031 A 
ATOM     46  C   UNL A   1      44.594  29.038  31.874  1.00  0.00     0.031 A 
ATOM     47  C   UNL A   1      39.449  33.004  31.425  1.00  0.00     0.049 A 
ATOM     48  C   UNL A   1      44.292  30.401  32.436  1.00  0.00     0.074 A 
ATOM     49  C   UNL A   1      39.261  34.233  32.035  1.00  0.00     0.029 A 
ATOM     50  N   UNL A   1      40.705  32.558  31.804  1.00  0.00    -0.354 N 
ATOM     51  N   UNL A   1      43.208  31.125  32.300  1.00  0.00    -0.248 NA
ATOM     52  C   UNL A   1      45.337  31.026  33.259  1.00  0.00     0.031 C 
ATOM     53  C   UNL A   1      40.420  34.547  32.752  1.00  0.00     0.029 A 
ATOM     54  C   UNL A   1      41.310  33.492  32.628  1.00  0.00     0.049 A 
ATOM     55  H   UNL A   1      41.108  31.703  31.529  1.00  0.00     0.167 HD
ATOM     56  C   UNL A   1      43.430  32.280  33.041  1.00  0.00     0.074 A 
ATOM     57  C   UNL A   1      44.744  32.152  33.635  1.00  0.00     0.031 C 
ATOM     58  C   UNL A   1      42.617  33.350  33.216  1.00  0.00     0.031 A 
BRANCH  45  59
ATOM     59  C   UNL A   1      37.241  32.942  30.199  1.00  0.00    -0.014 A 
ATOM     60  C   UNL A   1      36.184  33.023  31.122  1.00  0.00     0.010 A 
ATOM     61  C   UNL A   1      37.085  33.529  28.929  1.00  0.00     0.010 A 
ATOM     62  C   UNL A   1      34.982  33.641  30.770  1.00  0.00     0.020 A 
ATOM     63  C   UNL A   1      35.893  34.173  28.582  1.00  0.00     0.020 A 
ATOM     64  C   UNL A   1      34.841  34.208  29.501  1.00  0.00     0.054 A 
BRANCH  64  65
ATOM     65  S   UNL A   1      33.279  35.026  29.074  1.00  0.00     0.124 S 
ATOM     66  O   UNL A   1      32.764  34.151  28.020  1.00  0.00    -0.237 OA
ATOM     67  O   UNL A   1      32.539  34.981  30.338  1.00  0.00    -0.237 OA
ATOM     68  O   UNL A   1      33.686  36.353  28.641  1.00  0.00    -0.744 OA
ENDBRANCH  64  65
ENDBRANCH  45  59
BRANCH  46  69
ATOM     69  C   UNL A   1      45.903  28.381  32.142  1.00  0.00    -0.014 A 
ATOM     70  C   UNL A   1      46.142  27.745  33.372  1.00  0.00     0.010 A 
ATOM     71  C   UNL A   1      46.915  28.384  31.164  1.00  0.00     0.010 A 
ATOM     72  C   UNL A   1      47.376  27.139  33.628  1.00  0.00     0.020 A 
ATOM     73  C   UNL A   1      48.140  27.757  31.407  1.00  0.00     0.020 A 
ATOM     74  C   UNL A   1      48.367  27.149  32.643  1.00  0.00     0.054 A 
BRANCH  74  75
ATOM     75  S   UNL A   1      49.943  26.313  32.977  1.00  0.00     0.124 S 
ATOM     76  O   UNL A   1      49.762  25.864  34.353  1.00  0.00    -0.237 OA
ATOM     77  O   UNL A   1      49.963  25.261  31.963  1.00  0.00    -0.237 OA
ATOM     78  O   UNL A   1      50.934  27.369  32.783  1.00  0.00    -0.744 OA
ENDBRANCH  74  75
ENDBRANCH  46  69
BRANCH  58  79
ATOM     79  C   UNL A   1      43.105  34.454  34.114  1.00  0.00    -0.014 A 
ATOM     80  C   UNL A   1      43.803  35.558  33.595  1.00  0.00     0.010 A 
ATOM     81  C   UNL A   1      42.812  34.410  35.489  1.00  0.00     0.010 A 
ATOM     82  C   UNL A   1      44.225  36.587  34.442  1.00  0.00     0.020 A 
ATOM     83  C   UNL A   1      43.211  35.448  36.335  1.00  0.00     0.020 A 
ATOM     84  C   UNL A   1      43.927  36.524  35.808  1.00  0.00     0.054 A 
BRANCH  84  85
ATOM     85  S   UNL A   1      44.444  37.892  36.880  1.00  0.00     0.124 S 
ATOM     86  O   UNL A   1      43.456  37.828  37.953  1.00  0.00    -0.237 OA
ATOM     87  O   UNL A   1      45.805  37.512  37.255  1.00  0.00    -0.237 OA
ATOM     88  O   UNL A   1      44.349  39.065  36.013  1.00  0.00    -0.744 OA
ENDBRANCH  84  85
ENDBRANCH  58  79
ENDBRANCH  32  33
ENDBRANCH  24  27
ENDBRANCH  22  23
ENDBRANCH  21  22
ENDBRANCH  20  21
ENDBRANCH   3  20
TORSDOF 20
ENDMDL
