MODEL 1
REMARK VINA RESULT:     -11.7      0.000      0.000
REMARK SMILES O=C(NCCCNC(=O)[C@H]1CC(=O)N(Cc2ccc3cc[nH]c3c2)C1)c1ccc(-c2c3nc(c(-c4ccc(S(=O)(=O)[O-])cc4)c4ccc([nH]4)c(-c4ccc(S(=O)(=O)[O-])cc4)c4nc(c(-c5ccc(S(=O)(=O)[O-])cc5)c5ccc2[nH]5)C=C4)C=C3)cc1
REMARK SMILES IDX 4 1 3 2 1 3 2 4 26 6 27 7 85 8 28 9 84 10 29 11 30 12 31 13
REMARK SMILES IDX 78 14 32 15 83 16 77 17 79 18 33 19 82 20 76 21 75 22 34 24
REMARK SMILES IDX 64 25 45 26 63 27 46 28 49 29 62 30 80 31 47 32 48 33 61 35
REMARK SMILES IDX 81 36 50 37 35 38 36 39 44 40 37 41 43 42 38 43 39 44 40 45
REMARK SMILES IDX 41 46 42 47 65 48 66 49 74 50 67 51 73 52 68 53 69 54 70 55
REMARK SMILES IDX 71 56 72 57 51 58 52 59 60 60 53 61 59 62 54 63 55 64 56 65
REMARK SMILES IDX 57 66 58 67 5 68 6 69 7 70 8 71 9 73 10 74 11 75 25 76 12 77
REMARK SMILES IDX 14 78 13 79 15 80 16 81 17 82 24 83 18 84 23 85 19 86 22 87
REMARK SMILES IDX 20 88 21 89
REMARK H PARENT 3 5 79 23 49 34 7 72 22 90
REMARK Flexibility Score: inf
ROOT
ATOM      1  C   UNL A   1      43.487  24.339  26.694  1.00  0.00     0.118 C 
ENDROOT
BRANCH   1   2
ATOM      2  N   UNL A   1      42.370  24.679  25.825  1.00  0.00    -0.352 N 
ATOM      3  O   UNL A   1      40.349  25.498  25.261  1.00  0.00    -0.269 OA
ATOM      4  C   UNL A   1      41.275  25.477  26.067  1.00  0.00     0.251 C 
ATOM      5  H   UNL A   1      42.402  24.277  24.927  1.00  0.00     0.163 HD
BRANCH   4   6
ATOM      6  C   UNL A   1      41.202  26.283  27.306  1.00  0.00     0.039 A 
ATOM      7  C   UNL A   1      40.406  25.875  28.376  1.00  0.00     0.014 A 
ATOM      8  C   UNL A   1      41.942  27.465  27.398  1.00  0.00     0.014 A 
ATOM      9  C   UNL A   1      40.202  26.732  29.451  1.00  0.00     0.010 A 
ATOM     10  C   UNL A   1      41.819  28.276  28.531  1.00  0.00     0.010 A 
ATOM     11  C   UNL A   1      40.910  27.941  29.547  1.00  0.00    -0.014 A 
BRANCH  11  12
ATOM     12  C   UNL A   1      40.694  28.815  30.731  1.00  0.00     0.031 A 
ATOM     13  C   UNL A   1      41.583  28.716  31.945  1.00  0.00     0.074 A 
ATOM     14  C   UNL A   1      39.715  29.740  30.688  1.00  0.00     0.049 A 
ATOM     15  N   UNL A   1      41.572  29.446  33.033  1.00  0.00    -0.248 NA
ATOM     16  C   UNL A   1      42.609  27.661  31.946  1.00  0.00     0.031 C 
ATOM     17  C   UNL A   1      38.785  29.932  29.570  1.00  0.00     0.029 A 
ATOM     18  N   UNL A   1      39.354  30.713  31.586  1.00  0.00    -0.354 N 
ATOM     19  C   UNL A   1      42.566  28.927  33.854  1.00  0.00     0.074 A 
ATOM     20  C   UNL A   1      43.143  27.800  33.152  1.00  0.00     0.031 C 
ATOM     21  C   UNL A   1      38.008  30.995  29.821  1.00  0.00     0.029 A 
ATOM     22  C   UNL A   1      38.332  31.519  31.142  1.00  0.00     0.049 A 
ATOM     23  H   UNL A   1      39.785  30.822  32.463  1.00  0.00     0.167 HD
ATOM     24  C   UNL A   1      42.966  29.350  35.079  1.00  0.00     0.031 A 
ATOM     25  C   UNL A   1      37.715  32.559  31.732  1.00  0.00     0.031 A 
ATOM     26  C   UNL A   1      42.390  30.474  35.772  1.00  0.00     0.049 A 
ATOM     27  C   UNL A   1      38.162  32.993  33.097  1.00  0.00     0.074 A 
ATOM     28  C   UNL A   1      42.751  31.005  36.999  1.00  0.00     0.029 A 
ATOM     29  N   UNL A   1      41.329  31.238  35.305  1.00  0.00    -0.354 N 
ATOM     30  N   UNL A   1      39.131  32.511  33.840  1.00  0.00    -0.248 NA
ATOM     31  C   UNL A   1      37.438  34.117  33.702  1.00  0.00     0.031 C 
ATOM     32  C   UNL A   1      41.870  32.049  37.302  1.00  0.00     0.029 A 
ATOM     33  C   UNL A   1      41.007  32.217  36.232  1.00  0.00     0.049 A 
ATOM     34  H   UNL A   1      40.873  31.104  34.444  1.00  0.00     0.167 HD
ATOM     35  C   UNL A   1      39.153  33.295  34.986  1.00  0.00     0.074 A 
ATOM     36  C   UNL A   1      38.112  34.291  34.831  1.00  0.00     0.031 C 
ATOM     37  C   UNL A   1      39.965  33.202  36.068  1.00  0.00     0.031 A 
BRANCH  24  38
ATOM     38  C   UNL A   1      44.058  28.571  35.770  1.00  0.00    -0.014 A 
ATOM     39  C   UNL A   1      43.788  27.373  36.457  1.00  0.00     0.010 A 
ATOM     40  C   UNL A   1      45.389  29.023  35.690  1.00  0.00     0.010 A 
ATOM     41  C   UNL A   1      44.819  26.668  37.086  1.00  0.00     0.020 A 
ATOM     42  C   UNL A   1      46.427  28.306  36.292  1.00  0.00     0.020 A 
ATOM     43  C   UNL A   1      46.132  27.142  37.002  1.00  0.00     0.054 A 
BRANCH  43  44
ATOM     44  S   UNL A   1      47.452  26.199  37.815  1.00  0.00     0.124 S 
ATOM     45  O   UNL A   1      46.898  24.847  37.818  1.00  0.00    -0.237 OA
ATOM     46  O   UNL A   1      48.591  26.408  36.924  1.00  0.00    -0.237 OA
ATOM     47  O   UNL A   1      47.570  26.826  39.129  1.00  0.00    -0.744 OA
ENDBRANCH  43  44
ENDBRANCH  24  38
BRANCH  25  48
ATOM     48  C   UNL A   1      36.608  33.260  31.025  1.00  0.00    -0.014 A 
ATOM     49  C   UNL A   1      36.839  33.918  29.803  1.00  0.00     0.010 A 
ATOM     50  C   UNL A   1      35.308  33.260  31.565  1.00  0.00     0.010 A 
ATOM     51  C   UNL A   1      35.796  34.578  29.147  1.00  0.00     0.020 A 
ATOM     52  C   UNL A   1      34.257  33.889  30.895  1.00  0.00     0.020 A 
ATOM     53  C   UNL A   1      34.511  34.557  29.696  1.00  0.00     0.054 A 
BRANCH  53  54
ATOM     54  S   UNL A   1      33.164  35.381  28.804  1.00  0.00     0.124 S 
ATOM     55  O   UNL A   1      33.881  36.407  28.054  1.00  0.00    -0.237 OA
ATOM     56  O   UNL A   1      32.601  34.292  28.009  1.00  0.00    -0.237 OA
ATOM     57  O   UNL A   1      32.298  35.875  29.871  1.00  0.00    -0.744 OA
ENDBRANCH  53  54
ENDBRANCH  25  48
BRANCH  37  58
ATOM     58  C   UNL A   1      39.796  34.238  37.148  1.00  0.00    -0.014 A 
ATOM     59  C   UNL A   1      39.028  33.985  38.299  1.00  0.00     0.010 A 
ATOM     60  C   UNL A   1      40.443  35.480  37.017  1.00  0.00     0.010 A 
ATOM     61  C   UNL A   1      38.871  34.973  39.274  1.00  0.00     0.020 A 
ATOM     62  C   UNL A   1      40.316  36.459  38.005  1.00  0.00     0.020 A 
ATOM     63  C   UNL A   1      39.514  36.206  39.119  1.00  0.00     0.054 A 
BRANCH  63  64
ATOM     64  S   UNL A   1      39.311  37.466  40.407  1.00  0.00     0.124 S 
ATOM     65  O   UNL A   1      38.619  36.722  41.455  1.00  0.00    -0.237 OA
ATOM     66  O   UNL A   1      40.690  37.842  40.707  1.00  0.00    -0.237 OA
ATOM     67  O   UNL A   1      38.518  38.504  39.752  1.00  0.00    -0.744 OA
ENDBRANCH  63  64
ENDBRANCH  37  58
ENDBRANCH  11  12
ENDBRANCH   4   6
ENDBRANCH   1   2
BRANCH   1  68
ATOM     68  C   UNL A   1      44.838  24.456  25.996  1.00  0.00     0.042 C 
BRANCH  68  69
ATOM     69  C   UNL A   1      44.915  23.678  24.688  1.00  0.00     0.117 C 
BRANCH  69  70
ATOM     70  N   UNL A   1      45.864  22.580  24.792  1.00  0.00    -0.356 N 
ATOM     71  C   UNL A   1      45.692  21.244  24.954  1.00  0.00     0.225 C 
ATOM     72  H   UNL A   1      46.807  22.858  24.733  1.00  0.00     0.163 HD
ATOM     73  O   UNL A   1      46.711  20.562  25.102  1.00  0.00    -0.275 OA
BRANCH  71  74
ATOM     74  C   UNL A   1      44.346  20.564  24.852  1.00  0.00     0.107 C 
ATOM     75  C   UNL A   1      44.294  19.041  24.853  1.00  0.00     0.115 C 
ATOM     76  C   UNL A   1      43.459  21.011  25.995  1.00  0.00     0.133 C 
ATOM     77  C   UNL A   1      43.062  18.721  25.669  1.00  0.00     0.223 C 
ATOM     78  N   UNL A   1      42.625  19.877  26.283  1.00  0.00    -0.338 N 
ATOM     79  O   UNL A   1      42.552  17.615  25.758  1.00  0.00    -0.275 OA
BRANCH  78  80
ATOM     80  C   UNL A   1      41.443  19.965  27.128  1.00  0.00     0.155 C 
BRANCH  80  81
ATOM     81  C   UNL A   1      40.205  20.446  26.399  1.00  0.00    -0.026 A 
ATOM     82  C   UNL A   1      39.379  19.541  25.714  1.00  0.00     0.006 A 
ATOM     83  C   UNL A   1      39.868  21.810  26.417  1.00  0.00     0.032 A 
ATOM     84  C   UNL A   1      38.253  19.968  25.001  1.00  0.00     0.010 A 
ATOM     85  C   UNL A   1      38.714  22.216  25.732  1.00  0.00     0.046 A 
ATOM     86  C   UNL A   1      37.912  21.331  25.013  1.00  0.00    -0.001 A 
ATOM     87  N   UNL A   1      38.146  23.465  25.608  1.00  0.00    -0.361 N 
ATOM     88  C   UNL A   1      36.865  22.091  24.426  1.00  0.00     0.028 A 
ATOM     89  C   UNL A   1      37.027  23.400  24.819  1.00  0.00     0.083 A 
ATOM     90  H   UNL A   1      38.494  24.286  26.025  1.00  0.00     0.166 HD
ENDBRANCH  80  81
ENDBRANCH  78  80
ENDBRANCH  71  74
ENDBRANCH  69  70
ENDBRANCH  68  69
ENDBRANCH   1  68
TORSDOF 15
ENDMDL
MODEL 2
REMARK VINA RESULT:     -11.7      2.465      4.528
REMARK SMILES O=C(NCCCNC(=O)[C@H]1CC(=O)N(Cc2ccc3cc[nH]c3c2)C1)c1ccc(-c2c3nc(c(-c4ccc(S(=O)(=O)[O-])cc4)c4ccc([nH]4)c(-c4ccc(S(=O)(=O)[O-])cc4)c4nc(c(-c5ccc(S(=O)(=O)[O-])cc5)c5ccc2[nH]5)C=C4)C=C3)cc1
REMARK SMILES IDX 4 1 3 2 1 3 2 4 26 6 27 7 85 8 28 9 84 10 29 11 30 12 31 13
REMARK SMILES IDX 78 14 32 15 83 16 77 17 79 18 33 19 82 20 76 21 75 22 34 24
REMARK SMILES IDX 64 25 45 26 63 27 46 28 49 29 62 30 80 31 47 32 48 33 61 35
REMARK SMILES IDX 81 36 50 37 35 38 36 39 44 40 37 41 43 42 38 43 39 44 40 45
REMARK SMILES IDX 41 46 42 47 65 48 66 49 74 50 67 51 73 52 68 53 69 54 70 55
REMARK SMILES IDX 71 56 72 57 51 58 52 59 60 60 53 61 59 62 54 63 55 64 56 65
REMARK SMILES IDX 57 66 58 67 5 68 6 69 7 70 8 71 9 73 10 74 11 75 25 76 12 77
REMARK SMILES IDX 14 78 13 79 15 80 16 81 17 82 24 83 18 84 23 85 19 86 22 87
REMARK SMILES IDX 20 88 21 89
REMARK H PARENT 3 5 79 23 49 34 7 72 22 90
REMARK Flexibility Score: inf
ROOT
ATOM      1  C   UNL A   1      40.436  23.174  27.017  1.00  0.00     0.118 C 
ENDROOT
BRANCH   1   2
ATOM      2  N   UNL A   1      41.119  23.964  26.003  1.00  0.00    -0.352 N 
ATOM      3  O   UNL A   1      41.909  25.815  24.994  1.00  0.00    -0.269 OA
ATOM      4  C   UNL A   1      41.497  25.287  26.022  1.00  0.00     0.251 C 
ATOM      5  H   UNL A   1      41.346  23.478  25.178  1.00  0.00     0.163 HD
BRANCH   4   6
ATOM      6  C   UNL A   1      41.379  26.075  27.269  1.00  0.00     0.039 A 
ATOM      7  C   UNL A   1      40.308  25.876  28.140  1.00  0.00     0.014 A 
ATOM      8  C   UNL A   1      42.356  27.028  27.572  1.00  0.00     0.014 A 
ATOM      9  C   UNL A   1      40.112  26.749  29.204  1.00  0.00     0.010 A 
ATOM     10  C   UNL A   1      42.213  27.836  28.705  1.00  0.00     0.010 A 
ATOM     11  C   UNL A   1      41.064  27.736  29.505  1.00  0.00    -0.014 A 
BRANCH  11  12
ATOM     12  C   UNL A   1      40.839  28.627  30.675  1.00  0.00     0.031 A 
ATOM     13  C   UNL A   1      41.727  28.558  31.891  1.00  0.00     0.074 A 
ATOM     14  C   UNL A   1      39.849  29.541  30.616  1.00  0.00     0.049 A 
ATOM     15  N   UNL A   1      41.708  29.306  32.966  1.00  0.00    -0.248 NA
ATOM     16  C   UNL A   1      42.764  27.514  31.909  1.00  0.00     0.031 C 
ATOM     17  C   UNL A   1      38.918  29.705  29.495  1.00  0.00     0.029 A 
ATOM     18  N   UNL A   1      39.478  30.524  31.498  1.00  0.00    -0.354 N 
ATOM     19  C   UNL A   1      42.708  28.810  33.796  1.00  0.00     0.074 A 
ATOM     20  C   UNL A   1      43.297  27.678  33.113  1.00  0.00     0.031 C 
ATOM     21  C   UNL A   1      38.129  30.763  29.728  1.00  0.00     0.029 A 
ATOM     22  C   UNL A   1      38.448  31.312  31.040  1.00  0.00     0.049 A 
ATOM     23  H   UNL A   1      39.908  30.653  32.373  1.00  0.00     0.167 HD
ATOM     24  C   UNL A   1      43.103  29.258  35.013  1.00  0.00     0.031 A 
ATOM     25  C   UNL A   1      37.819  32.355  31.612  1.00  0.00     0.031 A 
ATOM     26  C   UNL A   1      42.514  30.388  35.688  1.00  0.00     0.049 A 
ATOM     27  C   UNL A   1      38.262  32.817  32.971  1.00  0.00     0.074 A 
ATOM     28  C   UNL A   1      42.869  30.942  36.906  1.00  0.00     0.029 A 
ATOM     29  N   UNL A   1      41.446  31.132  35.208  1.00  0.00    -0.354 N 
ATOM     30  N   UNL A   1      39.235  32.357  33.721  1.00  0.00    -0.248 NA
ATOM     31  C   UNL A   1      37.525  33.943  33.557  1.00  0.00     0.031 C 
ATOM     32  C   UNL A   1      41.977  31.982  37.191  1.00  0.00     0.029 A 
ATOM     33  C   UNL A   1      41.113  32.123  36.118  1.00  0.00     0.049 A 
ATOM     34  H   UNL A   1      40.992  30.979  34.349  1.00  0.00     0.167 HD
ATOM     35  C   UNL A   1      39.249  33.161  34.855  1.00  0.00     0.074 A 
ATOM     36  C   UNL A   1      38.197  34.142  34.683  1.00  0.00     0.031 C 
ATOM     37  C   UNL A   1      40.061  33.094  35.938  1.00  0.00     0.031 A 
BRANCH  24  38
ATOM     38  C   UNL A   1      44.203  28.502  35.718  1.00  0.00    -0.014 A 
ATOM     39  C   UNL A   1      45.556  28.853  35.560  1.00  0.00     0.010 A 
ATOM     40  C   UNL A   1      43.871  27.451  36.594  1.00  0.00     0.010 A 
ATOM     41  C   UNL A   1      46.557  28.139  36.227  1.00  0.00     0.020 A 
ATOM     42  C   UNL A   1      44.865  26.754  37.286  1.00  0.00     0.020 A 
ATOM     43  C   UNL A   1      46.204  27.091  37.084  1.00  0.00     0.054 A 
BRANCH  43  44
ATOM     44  S   UNL A   1      47.521  26.192  37.949  1.00  0.00     0.124 S 
ATOM     45  O   UNL A   1      47.267  24.814  37.537  1.00  0.00    -0.237 OA
ATOM     46  O   UNL A   1      48.734  26.796  37.402  1.00  0.00    -0.237 OA
ATOM     47  O   UNL A   1      47.268  26.476  39.360  1.00  0.00    -0.744 OA
ENDBRANCH  43  44
ENDBRANCH  24  38
BRANCH  25  48
ATOM     48  C   UNL A   1      36.705  33.034  30.894  1.00  0.00    -0.014 A 
ATOM     49  C   UNL A   1      35.366  32.753  31.218  1.00  0.00     0.010 A 
ATOM     50  C   UNL A   1      36.981  33.981  29.890  1.00  0.00     0.010 A 
ATOM     51  C   UNL A   1      34.325  33.390  30.537  1.00  0.00     0.020 A 
ATOM     52  C   UNL A   1      35.944  34.644  29.231  1.00  0.00     0.020 A 
ATOM     53  C   UNL A   1      34.621  34.335  29.550  1.00  0.00     0.054 A 
BRANCH  53  54
ATOM     54  S   UNL A   1      33.255  35.183  28.712  1.00  0.00     0.124 S 
ATOM     55  O   UNL A   1      33.961  36.175  27.908  1.00  0.00    -0.237 OA
ATOM     56  O   UNL A   1      32.620  34.098  27.968  1.00  0.00    -0.237 OA
ATOM     57  O   UNL A   1      32.459  35.720  29.814  1.00  0.00    -0.744 OA
ENDBRANCH  53  54
ENDBRANCH  25  48
BRANCH  37  58
ATOM     58  C   UNL A   1      39.881  34.146  37.001  1.00  0.00    -0.014 A 
ATOM     59  C   UNL A   1      40.447  35.427  36.874  1.00  0.00     0.010 A 
ATOM     60  C   UNL A   1      39.105  33.850  38.137  1.00  0.00     0.010 A 
ATOM     61  C   UNL A   1      40.282  36.375  37.887  1.00  0.00     0.020 A 
ATOM     62  C   UNL A   1      38.910  34.806  39.135  1.00  0.00     0.020 A 
ATOM     63  C   UNL A   1      39.516  36.057  39.013  1.00  0.00     0.054 A 
BRANCH  63  64
ATOM     64  S   UNL A   1      39.299  37.311  40.306  1.00  0.00     0.124 S 
ATOM     65  O   UNL A   1      40.679  37.686  40.600  1.00  0.00    -0.237 OA
ATOM     66  O   UNL A   1      38.499  38.330  39.631  1.00  0.00    -0.237 OA
ATOM     67  O   UNL A   1      38.608  36.591  41.373  1.00  0.00    -0.744 OA
ENDBRANCH  63  64
ENDBRANCH  37  58
ENDBRANCH  11  12
ENDBRANCH   4   6
ENDBRANCH   1   2
BRANCH   1  68
ATOM     68  C   UNL A   1      39.330  22.296  26.440  1.00  0.00     0.042 C 
BRANCH  68  69
ATOM     69  C   UNL A   1      38.038  23.053  26.160  1.00  0.00     0.117 C 
BRANCH  69  70
ATOM     70  N   UNL A   1      37.795  23.156  24.728  1.00  0.00    -0.356 N 
ATOM     71  C   UNL A   1      36.650  23.216  24.005  1.00  0.00     0.225 C 
ATOM     72  H   UNL A   1      38.615  23.188  24.185  1.00  0.00     0.163 HD
ATOM     73  O   UNL A   1      36.763  23.207  22.775  1.00  0.00    -0.275 OA
BRANCH  71  74
ATOM     74  C   UNL A   1      35.285  23.402  24.628  1.00  0.00     0.107 C 
ATOM     75  C   UNL A   1      34.400  24.537  24.127  1.00  0.00     0.115 C 
ATOM     76  C   UNL A   1      34.470  22.136  24.461  1.00  0.00     0.133 C 
ATOM     77  C   UNL A   1      33.010  23.944  24.134  1.00  0.00     0.223 C 
ATOM     78  N   UNL A   1      33.110  22.583  24.341  1.00  0.00    -0.338 N 
ATOM     79  O   UNL A   1      31.979  24.580  23.981  1.00  0.00    -0.275 OA
BRANCH  78  80
ATOM     80  C   UNL A   1      31.973  21.679  24.441  1.00  0.00     0.155 C 
BRANCH  80  81
ATOM     81  C   UNL A   1      32.335  20.219  24.264  1.00  0.00    -0.026 A 
ATOM     82  C   UNL A   1      32.285  19.617  22.997  1.00  0.00     0.006 A 
ATOM     83  C   UNL A   1      32.740  19.459  25.375  1.00  0.00     0.032 A 
ATOM     84  C   UNL A   1      32.576  18.259  22.817  1.00  0.00     0.010 A 
ATOM     85  C   UNL A   1      33.068  18.111  25.170  1.00  0.00     0.046 A 
ATOM     86  C   UNL A   1      32.980  17.493  23.924  1.00  0.00    -0.001 A 
ATOM     87  N   UNL A   1      33.512  17.159  26.061  1.00  0.00    -0.361 N 
ATOM     88  C   UNL A   1      33.349  16.133  24.100  1.00  0.00     0.028 A 
ATOM     89  C   UNL A   1      33.684  15.958  25.423  1.00  0.00     0.083 A 
ATOM     90  H   UNL A   1      33.679  17.317  27.018  1.00  0.00     0.166 HD
ENDBRANCH  80  81
ENDBRANCH  78  80
ENDBRANCH  71  74
ENDBRANCH  69  70
ENDBRANCH  68  69
ENDBRANCH   1  68
TORSDOF 15
ENDMDL
MODEL 3
REMARK VINA RESULT:     -11.6      6.303      9.447
REMARK SMILES O=C(NCCCNC(=O)[C@H]1CC(=O)N(Cc2ccc3cc[nH]c3c2)C1)c1ccc(-c2c3nc(c(-c4ccc(S(=O)(=O)[O-])cc4)c4ccc([nH]4)c(-c4ccc(S(=O)(=O)[O-])cc4)c4nc(c(-c5ccc(S(=O)(=O)[O-])cc5)c5ccc2[nH]5)C=C4)C=C3)cc1
REMARK SMILES IDX 4 1 3 2 1 3 2 4 26 6 27 7 85 8 28 9 84 10 29 11 30 12 31 13
REMARK SMILES IDX 78 14 32 15 83 16 77 17 79 18 33 19 82 20 76 21 75 22 34 24
REMARK SMILES IDX 64 25 45 26 63 27 46 28 49 29 62 30 80 31 47 32 48 33 61 35
REMARK SMILES IDX 81 36 50 37 35 38 36 39 44 40 37 41 43 42 38 43 39 44 40 45
REMARK SMILES IDX 41 46 42 47 65 48 66 49 74 50 67 51 73 52 68 53 69 54 70 55
REMARK SMILES IDX 71 56 72 57 51 58 52 59 60 60 53 61 59 62 54 63 55 64 56 65
REMARK SMILES IDX 57 66 58 67 5 68 6 69 7 70 8 71 9 73 10 74 11 75 25 76 12 77
REMARK SMILES IDX 14 78 13 79 15 80 16 81 17 82 24 83 18 84 23 85 19 86 22 87
REMARK SMILES IDX 20 88 21 89
REMARK H PARENT 3 5 79 23 49 34 7 72 22 90
REMARK Flexibility Score: inf
ROOT
ATOM      1  C   UNL A   1      39.516  20.203  25.986  1.00  0.00     0.118 C 
ENDROOT
BRANCH   1   2
ATOM      2  N   UNL A   1      40.527  19.156  26.034  1.00  0.00    -0.352 N 
ATOM      3  O   UNL A   1      42.590  18.255  25.986  1.00  0.00    -0.269 OA
ATOM      4  C   UNL A   1      41.895  19.255  26.138  1.00  0.00     0.251 C 
ATOM      5  H   UNL A   1      40.179  18.236  25.985  1.00  0.00     0.163 HD
BRANCH   4   6
ATOM      6  C   UNL A   1      42.527  20.567  26.404  1.00  0.00     0.039 A 
ATOM      7  C   UNL A   1      42.608  21.069  27.704  1.00  0.00     0.014 A 
ATOM      8  C   UNL A   1      43.045  21.307  25.338  1.00  0.00     0.014 A 
ATOM      9  C   UNL A   1      43.030  22.377  27.913  1.00  0.00     0.010 A 
ATOM     10  C   UNL A   1      43.571  22.583  25.566  1.00  0.00     0.010 A 
ATOM     11  C   UNL A   1      43.523  23.150  26.849  1.00  0.00    -0.014 A 
BRANCH  11  12
ATOM     12  C   UNL A   1      44.002  24.532  27.119  1.00  0.00     0.031 A 
ATOM     13  C   UNL A   1      45.441  24.917  26.890  1.00  0.00     0.074 A 
ATOM     14  C   UNL A   1      43.114  25.460  27.529  1.00  0.00     0.049 A 
ATOM     15  N   UNL A   1      46.006  26.092  27.013  1.00  0.00    -0.248 NA
ATOM     16  C   UNL A   1      46.368  23.850  26.479  1.00  0.00     0.031 C 
ATOM     17  C   UNL A   1      41.693  25.209  27.791  1.00  0.00     0.029 A 
ATOM     18  N   UNL A   1      43.261  26.803  27.769  1.00  0.00    -0.354 N 
ATOM     19  C   UNL A   1      47.353  25.903  26.720  1.00  0.00     0.074 A 
ATOM     20  C   UNL A   1      47.527  24.494  26.441  1.00  0.00     0.031 C 
ATOM     21  C   UNL A   1      41.089  26.368  28.090  1.00  0.00     0.029 A 
ATOM     22  C   UNL A   1      42.086  27.431  28.110  1.00  0.00     0.049 A 
ATOM     23  H   UNL A   1      44.124  27.270  27.703  1.00  0.00     0.167 HD
ATOM     24  C   UNL A   1      48.352  26.818  26.683  1.00  0.00     0.031 A 
ATOM     25  C   UNL A   1      41.836  28.718  28.416  1.00  0.00     0.031 A 
ATOM     26  C   UNL A   1      48.173  28.222  26.960  1.00  0.00     0.049 A 
ATOM     27  C   UNL A   1      42.965  29.706  28.389  1.00  0.00     0.074 A 
ATOM     28  C   UNL A   1      49.115  29.235  26.911  1.00  0.00     0.029 A 
ATOM     29  N   UNL A   1      46.975  28.810  27.342  1.00  0.00    -0.354 N 
ATOM     30  N   UNL A   1      44.223  29.512  28.071  1.00  0.00    -0.248 NA
ATOM     31  C   UNL A   1      42.638  31.090  28.754  1.00  0.00     0.031 C 
ATOM     32  C   UNL A   1      48.503  30.424  27.323  1.00  0.00     0.029 A 
ATOM     33  C   UNL A   1      47.162  30.166  27.558  1.00  0.00     0.049 A 
ATOM     34  H   UNL A   1      46.120  28.334  27.445  1.00  0.00     0.167 HD
ATOM     35  C   UNL A   1      44.832  30.758  28.167  1.00  0.00     0.074 A 
ATOM     36  C   UNL A   1      43.801  31.698  28.557  1.00  0.00     0.031 C 
ATOM     37  C   UNL A   1      46.128  31.093  27.948  1.00  0.00     0.031 A 
BRANCH  24  38
ATOM     38  C   UNL A   1      49.744  26.328  26.367  1.00  0.00    -0.014 A 
ATOM     39  C   UNL A   1      50.249  26.340  25.054  1.00  0.00     0.010 A 
ATOM     40  C   UNL A   1      50.580  25.891  27.413  1.00  0.00     0.010 A 
ATOM     41  C   UNL A   1      51.544  25.884  24.788  1.00  0.00     0.020 A 
ATOM     42  C   UNL A   1      51.885  25.462  27.156  1.00  0.00     0.020 A 
ATOM     43  C   UNL A   1      52.353  25.444  25.842  1.00  0.00     0.054 A 
BRANCH  43  44
ATOM     44  S   UNL A   1      54.034  24.872  25.470  1.00  0.00     0.124 S 
ATOM     45  O   UNL A   1      54.678  24.958  26.779  1.00  0.00    -0.237 OA
ATOM     46  O   UNL A   1      53.809  23.518  24.970  1.00  0.00    -0.237 OA
ATOM     47  O   UNL A   1      54.515  25.829  24.476  1.00  0.00    -0.744 OA
ENDBRANCH  43  44
ENDBRANCH  24  38
BRANCH  25  48
ATOM     48  C   UNL A   1      40.452  29.139  28.770  1.00  0.00    -0.014 A 
ATOM     49  C   UNL A   1      40.075  29.306  30.115  1.00  0.00     0.010 A 
ATOM     50  C   UNL A   1      39.506  29.393  27.759  1.00  0.00     0.010 A 
ATOM     51  C   UNL A   1      38.774  29.697  30.440  1.00  0.00     0.020 A 
ATOM     52  C   UNL A   1      38.216  29.817  28.080  1.00  0.00     0.020 A 
ATOM     53  C   UNL A   1      37.853  29.953  29.420  1.00  0.00     0.054 A 
BRANCH  53  54
ATOM     54  S   UNL A   1      36.184  30.505  29.866  1.00  0.00     0.124 S 
ATOM     55  O   UNL A   1      35.372  29.895  28.817  1.00  0.00    -0.237 OA
ATOM     56  O   UNL A   1      36.014  29.946  31.205  1.00  0.00    -0.237 OA
ATOM     57  O   UNL A   1      36.280  31.962  29.815  1.00  0.00    -0.744 OA
ENDBRANCH  53  54
ENDBRANCH  25  48
BRANCH  37  58
ATOM     58  C   UNL A   1      46.493  32.549  28.073  1.00  0.00    -0.014 A 
ATOM     59  C   UNL A   1      46.913  33.102  29.296  1.00  0.00     0.010 A 
ATOM     60  C   UNL A   1      46.440  33.371  26.933  1.00  0.00     0.010 A 
ATOM     61  C   UNL A   1      47.224  34.461  29.387  1.00  0.00     0.020 A 
ATOM     62  C   UNL A   1      46.783  34.722  27.011  1.00  0.00     0.020 A 
ATOM     63  C   UNL A   1      47.154  35.264  28.243  1.00  0.00     0.054 A 
BRANCH  63  64
ATOM     64  S   UNL A   1      47.582  37.021  28.381  1.00  0.00     0.124 S 
ATOM     65  O   UNL A   1      47.815  37.166  29.814  1.00  0.00    -0.237 OA
ATOM     66  O   UNL A   1      48.769  37.128  27.535  1.00  0.00    -0.237 OA
ATOM     67  O   UNL A   1      46.397  37.706  27.870  1.00  0.00    -0.744 OA
ENDBRANCH  63  64
ENDBRANCH  37  58
ENDBRANCH  11  12
ENDBRANCH   4   6
ENDBRANCH   1   2
BRANCH   1  68
ATOM     68  C   UNL A   1      38.307  19.821  25.139  1.00  0.00     0.042 C 
BRANCH  68  69
ATOM     69  C   UNL A   1      37.451  21.013  24.730  1.00  0.00     0.117 C 
BRANCH  69  70
ATOM     70  N   UNL A   1      37.769  22.182  25.536  1.00  0.00    -0.356 N 
ATOM     71  C   UNL A   1      37.185  23.403  25.633  1.00  0.00     0.225 C 
ATOM     72  H   UNL A   1      38.552  22.065  26.120  1.00  0.00     0.163 HD
ATOM     73  O   UNL A   1      37.746  24.236  26.351  1.00  0.00    -0.275 OA
BRANCH  71  74
ATOM     74  C   UNL A   1      35.852  23.737  25.003  1.00  0.00     0.107 C 
ATOM     75  C   UNL A   1      35.746  23.758  23.484  1.00  0.00     0.115 C 
ATOM     76  C   UNL A   1      34.802  22.754  25.479  1.00  0.00     0.133 C 
ATOM     77  C   UNL A   1      34.384  23.164  23.206  1.00  0.00     0.223 C 
ATOM     78  N   UNL A   1      33.891  22.621  24.376  1.00  0.00    -0.338 N 
ATOM     79  O   UNL A   1      33.827  23.172  22.120  1.00  0.00    -0.275 OA
BRANCH  78  80
ATOM     80  C   UNL A   1      32.588  21.986  24.504  1.00  0.00     0.155 C 
BRANCH  80  81
ATOM     81  C   UNL A   1      32.627  20.478  24.378  1.00  0.00    -0.026 A 
ATOM     82  C   UNL A   1      32.448  19.858  23.131  1.00  0.00     0.006 A 
ATOM     83  C   UNL A   1      32.859  19.686  25.515  1.00  0.00     0.032 A 
ATOM     84  C   UNL A   1      32.440  18.465  22.997  1.00  0.00     0.010 A 
ATOM     85  C   UNL A   1      32.889  18.292  25.357  1.00  0.00     0.046 A 
ATOM     86  C   UNL A   1      32.669  17.667  24.131  1.00  0.00    -0.001 A 
ATOM     87  N   UNL A   1      33.117  17.297  26.282  1.00  0.00    -0.361 N 
ATOM     88  C   UNL A   1      32.737  16.265  24.354  1.00  0.00     0.028 A 
ATOM     89  C   UNL A   1      33.027  16.067  25.684  1.00  0.00     0.083 A 
ATOM     90  H   UNL A   1      33.315  17.448  27.234  1.00  0.00     0.166 HD
ENDBRANCH  80  81
ENDBRANCH  78  80
ENDBRANCH  71  74
ENDBRANCH  69  70
ENDBRANCH  68  69
ENDBRANCH   1  68
TORSDOF 15
ENDMDL
