MODEL 1
REMARK VINA RESULT:     -11.7      0.000      0.000
REMARK SMILES COc1ccc(F)cc1-c1ccc(C[C@]2(C(=O)NCCCNC(=O)c3ccc(-c4c5nc(c(-c6ccc(S(=O)(=O)[O-])cc6)c6ccc([nH]6)c(-c6ccc(S(=O)(=O)[O-])cc6)c6nc(c(-c7ccc(S(=O)(=O)[O-])cc7)c7ccc4[nH]7)C=C6)C=C5)cc3)CCCO2)cc1
REMARK SMILES IDX 19 1 18 2 16 3 17 4 15 6 85 7 88 8 86 9 87 10 14 11 13 12
REMARK SMILES IDX 10 13 11 14 90 15 12 16 89 17 9 18 3 19 4 20 5 21 8 22 6 23
REMARK SMILES IDX 7 24 2 25 1 26 20 27 21 28 22 29 23 30 24 32 25 33 26 34
REMARK SMILES IDX 84 35 27 36 83 37 28 38 29 39 30 40 77 41 31 42 82 43 76 44
REMARK SMILES IDX 78 45 32 46 81 47 75 48 74 49 33 51 63 52 44 53 62 54 45 55
REMARK SMILES IDX 48 56 61 57 79 58 46 59 47 60 60 62 80 63 49 64 34 65 35 66
REMARK SMILES IDX 43 67 36 68 42 69 37 70 38 71 39 72 40 73 41 74 64 75 65 76
REMARK SMILES IDX 73 77 66 78 72 79 67 80 68 81 69 82 70 83 71 84 50 85 51 86
REMARK SMILES IDX 59 87 52 88 58 89 53 90 54 91 55 92 56 93 57 94
REMARK H PARENT 18 5 22 31 78 50 48 61
REMARK Flexibility Score: inf
ROOT
ATOM      1  C   UNL A   1      36.755  20.801  25.078  1.00  0.00     0.117 C 
ENDROOT
BRANCH   1   2
ATOM      2  N   UNL A   1      35.669  19.839  25.078  1.00  0.00    -0.354 N 
ATOM      3  C   UNL A   1      34.322  19.998  24.913  1.00  0.00     0.252 C 
ATOM      4  O   UNL A   1      33.652  18.959  24.939  1.00  0.00    -0.272 OA
ATOM      5  H   UNL A   1      35.953  18.907  25.220  1.00  0.00     0.163 HD
BRANCH   3   6
ATOM      6  C   UNL A   1      33.654  21.401  24.764  1.00  0.00     0.150 C 
ATOM      7  C   UNL A   1      34.293  22.171  23.603  1.00  0.00     0.048 C 
ATOM      8  O   UNL A   1      32.252  21.268  24.468  1.00  0.00    -0.365 OA
ATOM      9  C   UNL A   1      33.158  22.503  22.663  1.00  0.00     0.032 C 
ATOM     10  C   UNL A   1      31.904  22.216  23.453  1.00  0.00     0.162 C 
BRANCH   6  11
ATOM     11  C   UNL A   1      33.820  22.138  26.130  1.00  0.00     0.081 C 
BRANCH  11  12
ATOM     12  C   UNL A   1      33.512  23.624  26.152  1.00  0.00    -0.045 A 
ATOM     13  C   UNL A   1      32.872  26.380  26.095  1.00  0.00    -0.015 A 
ATOM     14  C   UNL A   1      34.140  25.929  25.707  1.00  0.00     0.009 A 
ATOM     15  C   UNL A   1      31.936  25.437  26.540  1.00  0.00     0.009 A 
ATOM     16  C   UNL A   1      34.463  24.571  25.755  1.00  0.00     0.004 A 
ATOM     17  C   UNL A   1      32.250  24.074  26.562  1.00  0.00     0.004 A 
BRANCH  13  18
ATOM     18  C   UNL A   1      32.536  27.806  26.009  1.00  0.00     0.027 A 
ATOM     19  C   UNL A   1      31.756  28.336  24.963  1.00  0.00     0.126 A 
ATOM     20  C   UNL A   1      31.410  29.694  24.940  1.00  0.00     0.050 A 
ATOM     21  C   UNL A   1      31.873  30.546  25.940  1.00  0.00     0.043 A 
ATOM     22  C   UNL A   1      32.994  28.683  27.007  1.00  0.00     0.051 A 
ATOM     23  C   UNL A   1      32.664  30.034  26.961  1.00  0.00     0.124 A 
ATOM     24  F   UNL A   1      33.104  30.853  27.924  1.00  0.00    -0.207 F 
BRANCH  19  25
ATOM     25  O   UNL A   1      31.251  27.480  24.015  1.00  0.00    -0.496 OA
ATOM     26  C   UNL A   1      29.918  27.823  23.644  1.00  0.00     0.278 C 
ENDBRANCH  19  25
ENDBRANCH  13  18
ENDBRANCH  11  12
ENDBRANCH   6  11
ENDBRANCH   3   6
ENDBRANCH   1   2
BRANCH   1  27
ATOM     27  C   UNL A   1      38.120  20.143  24.898  1.00  0.00     0.042 C 
BRANCH  27  28
ATOM     28  C   UNL A   1      39.135  20.529  25.966  1.00  0.00     0.118 C 
BRANCH  28  29
ATOM     29  N   UNL A   1      40.240  19.586  26.031  1.00  0.00    -0.352 N 
ATOM     30  C   UNL A   1      41.592  19.816  26.069  1.00  0.00     0.251 C 
ATOM     31  H   UNL A   1      39.977  18.637  26.050  1.00  0.00     0.163 HD
ATOM     32  O   UNL A   1      42.363  18.880  25.874  1.00  0.00    -0.269 OA
BRANCH  30  33
ATOM     33  C   UNL A   1      42.128  21.172  26.333  1.00  0.00     0.039 A 
ATOM     34  C   UNL A   1      42.443  21.529  27.648  1.00  0.00     0.014 A 
ATOM     35  C   UNL A   1      42.263  22.114  25.308  1.00  0.00     0.014 A 
ATOM     36  C   UNL A   1      42.922  22.811  27.929  1.00  0.00     0.010 A 
ATOM     37  C   UNL A   1      42.815  23.365  25.577  1.00  0.00     0.010 A 
ATOM     38  C   UNL A   1      43.130  23.735  26.892  1.00  0.00    -0.014 A 
BRANCH  38  39
ATOM     39  C   UNL A   1      43.628  25.106  27.169  1.00  0.00     0.031 A 
ATOM     40  C   UNL A   1      45.071  25.449  26.903  1.00  0.00     0.074 A 
ATOM     41  C   UNL A   1      42.804  26.026  27.707  1.00  0.00     0.049 A 
ATOM     42  N   UNL A   1      45.712  26.565  27.138  1.00  0.00    -0.248 NA
ATOM     43  C   UNL A   1      45.910  24.388  26.320  1.00  0.00     0.031 C 
ATOM     44  C   UNL A   1      41.396  25.810  28.042  1.00  0.00     0.029 A 
ATOM     45  N   UNL A   1      43.036  27.330  28.070  1.00  0.00    -0.354 N 
ATOM     46  C   UNL A   1      47.029  26.333  26.757  1.00  0.00     0.074 A 
ATOM     47  C   UNL A   1      47.106  24.957  26.320  1.00  0.00     0.031 C 
ATOM     48  C   UNL A   1      40.881  26.949  28.538  1.00  0.00     0.029 A 
ATOM     49  C   UNL A   1      41.931  27.963  28.588  1.00  0.00     0.049 A 
ATOM     50  H   UNL A   1      43.911  27.770  27.968  1.00  0.00     0.167 HD
ATOM     51  C   UNL A   1      48.078  27.191  26.752  1.00  0.00     0.031 A 
ATOM     52  C   UNL A   1      41.779  29.217  29.056  1.00  0.00     0.031 A 
ATOM     53  C   UNL A   1      47.995  28.566  27.167  1.00  0.00     0.049 A 
ATOM     54  C   UNL A   1      42.953  30.157  29.029  1.00  0.00     0.074 A 
ATOM     55  C   UNL A   1      48.986  29.532  27.151  1.00  0.00     0.029 A 
ATOM     56  N   UNL A   1      46.851  29.172  27.666  1.00  0.00    -0.354 N 
ATOM     57  N   UNL A   1      44.178  29.932  28.620  1.00  0.00    -0.248 NA
ATOM     58  C   UNL A   1      42.718  31.523  29.517  1.00  0.00     0.031 C 
ATOM     59  C   UNL A   1      48.450  30.714  27.677  1.00  0.00     0.029 A 
ATOM     60  C   UNL A   1      47.115  30.496  27.974  1.00  0.00     0.049 A 
ATOM     61  H   UNL A   1      45.981  28.726  27.783  1.00  0.00     0.167 HD
ATOM     62  C   UNL A   1      44.855  31.136  28.774  1.00  0.00     0.074 A 
ATOM     63  C   UNL A   1      43.900  32.088  29.305  1.00  0.00     0.031 C 
ATOM     64  C   UNL A   1      46.151  31.428  28.500  1.00  0.00     0.031 A 
BRANCH  51  65
ATOM     65  C   UNL A   1      49.407  26.657  26.286  1.00  0.00    -0.014 A 
ATOM     66  C   UNL A   1      50.146  25.760  27.078  1.00  0.00     0.010 A 
ATOM     67  C   UNL A   1      49.918  27.044  25.034  1.00  0.00     0.010 A 
ATOM     68  C   UNL A   1      51.395  25.300  26.650  1.00  0.00     0.020 A 
ATOM     69  C   UNL A   1      51.153  26.565  24.589  1.00  0.00     0.020 A 
ATOM     70  C   UNL A   1      51.893  25.712  25.411  1.00  0.00     0.054 A 
BRANCH  70  71
ATOM     71  S   UNL A   1      53.516  25.099  24.877  1.00  0.00     0.124 S 
ATOM     72  O   UNL A   1      53.478  23.712  25.334  1.00  0.00    -0.237 OA
ATOM     73  O   UNL A   1      53.470  25.284  23.429  1.00  0.00    -0.237 OA
ATOM     74  O   UNL A   1      54.460  25.962  25.581  1.00  0.00    -0.744 OA
ENDBRANCH  70  71
ENDBRANCH  51  65
BRANCH  52  75
ATOM     75  C   UNL A   1      40.453  29.663  29.559  1.00  0.00    -0.014 A 
ATOM     76  C   UNL A   1      40.204  29.730  30.941  1.00  0.00     0.010 A 
ATOM     77  C   UNL A   1      39.441  30.048  28.661  1.00  0.00     0.010 A 
ATOM     78  C   UNL A   1      38.962  30.163  31.418  1.00  0.00     0.020 A 
ATOM     79  C   UNL A   1      38.206  30.504  29.134  1.00  0.00     0.020 A 
ATOM     80  C   UNL A   1      37.971  30.548  30.510  1.00  0.00     0.054 A 
BRANCH  80  81
ATOM     81  S   UNL A   1      36.389  31.166  31.150  1.00  0.00     0.124 S 
ATOM     82  O   UNL A   1      35.652  31.439  29.921  1.00  0.00    -0.237 OA
ATOM     83  O   UNL A   1      35.906  30.037  31.942  1.00  0.00    -0.237 OA
ATOM     84  O   UNL A   1      36.773  32.342  31.928  1.00  0.00    -0.744 OA
ENDBRANCH  80  81
ENDBRANCH  52  75
BRANCH  64  85
ATOM     85  C   UNL A   1      46.604  32.843  28.736  1.00  0.00    -0.014 A 
ATOM     86  C   UNL A   1      47.168  33.232  29.963  1.00  0.00     0.010 A 
ATOM     87  C   UNL A   1      46.513  33.782  27.691  1.00  0.00     0.010 A 
ATOM     88  C   UNL A   1      47.606  34.546  30.152  1.00  0.00     0.020 A 
ATOM     89  C   UNL A   1      46.972  35.089  27.868  1.00  0.00     0.020 A 
ATOM     90  C   UNL A   1      47.504  35.466  29.104  1.00  0.00     0.054 A 
BRANCH  90  91
ATOM     91  S   UNL A   1      48.120  37.153  29.358  1.00  0.00     0.124 S 
ATOM     92  O   UNL A   1      48.605  37.096  30.734  1.00  0.00    -0.237 OA
ATOM     93  O   UNL A   1      49.153  37.276  28.332  1.00  0.00    -0.237 OA
ATOM     94  O   UNL A   1      46.940  37.988  29.146  1.00  0.00    -0.744 OA
ENDBRANCH  90  91
ENDBRANCH  64  85
ENDBRANCH  38  39
ENDBRANCH  30  33
ENDBRANCH  28  29
ENDBRANCH  27  28
ENDBRANCH   1  27
TORSDOF 17
ENDMDL
MODEL 2
REMARK VINA RESULT:     -11.7      1.259      2.075
REMARK SMILES COc1ccc(F)cc1-c1ccc(C[C@]2(C(=O)NCCCNC(=O)c3ccc(-c4c5nc(c(-c6ccc(S(=O)(=O)[O-])cc6)c6ccc([nH]6)c(-c6ccc(S(=O)(=O)[O-])cc6)c6nc(c(-c7ccc(S(=O)(=O)[O-])cc7)c7ccc4[nH]7)C=C6)C=C5)cc3)CCCO2)cc1
REMARK SMILES IDX 19 1 18 2 16 3 17 4 15 6 85 7 88 8 86 9 87 10 14 11 13 12
REMARK SMILES IDX 10 13 11 14 90 15 12 16 89 17 9 18 3 19 4 20 5 21 8 22 6 23
REMARK SMILES IDX 7 24 2 25 1 26 20 27 21 28 22 29 23 30 24 32 25 33 26 34
REMARK SMILES IDX 84 35 27 36 83 37 28 38 29 39 30 40 77 41 31 42 82 43 76 44
REMARK SMILES IDX 78 45 32 46 81 47 75 48 74 49 33 51 63 52 44 53 62 54 45 55
REMARK SMILES IDX 48 56 61 57 79 58 46 59 47 60 60 62 80 63 49 64 34 65 35 66
REMARK SMILES IDX 43 67 36 68 42 69 37 70 38 71 39 72 40 73 41 74 64 75 65 76
REMARK SMILES IDX 73 77 66 78 72 79 67 80 68 81 69 82 70 83 71 84 50 85 51 86
REMARK SMILES IDX 59 87 52 88 58 89 53 90 54 91 55 92 56 93 57 94
REMARK H PARENT 18 5 22 31 78 50 48 61
REMARK Flexibility Score: inf
ROOT
ATOM      1  C   UNL A   1      36.896  20.667  24.989  1.00  0.00     0.117 C 
ENDROOT
BRANCH   1   2
ATOM      2  N   UNL A   1      35.658  19.910  24.991  1.00  0.00    -0.354 N 
ATOM      3  C   UNL A   1      34.354  20.313  25.031  1.00  0.00     0.252 C 
ATOM      4  O   UNL A   1      33.511  19.409  24.994  1.00  0.00    -0.272 OA
ATOM      5  H   UNL A   1      35.780  18.933  24.957  1.00  0.00     0.163 HD
BRANCH   3   6
ATOM      6  C   UNL A   1      33.942  21.812  25.179  1.00  0.00     0.150 C 
ATOM      7  C   UNL A   1      34.589  22.418  26.429  1.00  0.00     0.048 C 
ATOM      8  O   UNL A   1      34.397  22.578  24.048  1.00  0.00    -0.365 OA
ATOM      9  C   UNL A   1      35.394  23.598  25.938  1.00  0.00     0.032 C 
ATOM     10  C   UNL A   1      34.928  23.822  24.519  1.00  0.00     0.162 C 
BRANCH   6  11
ATOM     11  C   UNL A   1      32.382  21.859  25.233  1.00  0.00     0.081 C 
BRANCH  11  12
ATOM     12  C   UNL A   1      31.721  23.181  24.891  1.00  0.00    -0.045 A 
ATOM     13  C   UNL A   1      30.589  25.681  24.199  1.00  0.00    -0.015 A 
ATOM     14  C   UNL A   1      30.993  25.414  25.514  1.00  0.00     0.009 A 
ATOM     15  C   UNL A   1      30.732  24.670  23.239  1.00  0.00     0.009 A 
ATOM     16  C   UNL A   1      31.533  24.173  25.860  1.00  0.00     0.004 A 
ATOM     17  C   UNL A   1      31.298  23.436  23.580  1.00  0.00     0.004 A 
BRANCH  13  18
ATOM     18  C   UNL A   1      30.054  27.000  23.843  1.00  0.00     0.027 A 
ATOM     19  C   UNL A   1      30.868  28.145  23.750  1.00  0.00     0.126 A 
ATOM     20  C   UNL A   1      30.333  29.379  23.357  1.00  0.00     0.050 A 
ATOM     21  C   UNL A   1      28.971  29.492  23.090  1.00  0.00     0.043 A 
ATOM     22  C   UNL A   1      28.682  27.137  23.571  1.00  0.00     0.051 A 
ATOM     23  C   UNL A   1      28.157  28.372  23.204  1.00  0.00     0.124 A 
ATOM     24  F   UNL A   1      26.849  28.481  22.943  1.00  0.00    -0.207 F 
BRANCH  19  25
ATOM     25  O   UNL A   1      32.220  28.014  23.954  1.00  0.00    -0.496 OA
ATOM     26  C   UNL A   1      32.791  29.195  24.512  1.00  0.00     0.278 C 
ENDBRANCH  19  25
ENDBRANCH  13  18
ENDBRANCH  11  12
ENDBRANCH   6  11
ENDBRANCH   3   6
ENDBRANCH   1   2
BRANCH   1  27
ATOM     27  C   UNL A   1      38.125  19.778  25.164  1.00  0.00     0.042 C 
BRANCH  27  28
ATOM     28  C   UNL A   1      39.328  20.503  25.753  1.00  0.00     0.118 C 
BRANCH  28  29
ATOM     29  N   UNL A   1      40.392  19.581  26.116  1.00  0.00    -0.352 N 
ATOM     30  C   UNL A   1      41.708  19.828  26.415  1.00  0.00     0.251 C 
ATOM     31  H   UNL A   1      40.127  18.633  26.154  1.00  0.00     0.163 HD
ATOM     32  O   UNL A   1      42.499  18.890  26.456  1.00  0.00    -0.269 OA
BRANCH  30  33
ATOM     33  C   UNL A   1      42.184  21.207  26.679  1.00  0.00     0.039 A 
ATOM     34  C   UNL A   1      42.392  22.067  25.596  1.00  0.00     0.014 A 
ATOM     35  C   UNL A   1      42.487  21.637  27.975  1.00  0.00     0.014 A 
ATOM     36  C   UNL A   1      42.869  23.363  25.815  1.00  0.00     0.010 A 
ATOM     37  C   UNL A   1      42.887  22.953  28.198  1.00  0.00     0.010 A 
ATOM     38  C   UNL A   1      43.103  23.823  27.120  1.00  0.00    -0.014 A 
BRANCH  38  39
ATOM     39  C   UNL A   1      43.619  25.192  27.376  1.00  0.00     0.031 A 
ATOM     40  C   UNL A   1      45.067  25.512  27.105  1.00  0.00     0.074 A 
ATOM     41  C   UNL A   1      42.807  26.131  27.900  1.00  0.00     0.049 A 
ATOM     42  N   UNL A   1      45.722  26.623  27.322  1.00  0.00    -0.248 NA
ATOM     43  C   UNL A   1      45.891  24.431  26.537  1.00  0.00     0.031 C 
ATOM     44  C   UNL A   1      41.396  25.938  28.239  1.00  0.00     0.029 A 
ATOM     45  N   UNL A   1      43.056  27.437  28.243  1.00  0.00    -0.354 N 
ATOM     46  C   UNL A   1      47.036  26.368  26.944  1.00  0.00     0.074 A 
ATOM     47  C   UNL A   1      47.095  24.984  26.528  1.00  0.00     0.031 C 
ATOM     48  C   UNL A   1      40.897  27.090  28.717  1.00  0.00     0.029 A 
ATOM     49  C   UNL A   1      41.960  28.091  28.752  1.00  0.00     0.049 A 
ATOM     50  H   UNL A   1      43.936  27.864  28.134  1.00  0.00     0.167 HD
ATOM     51  C   UNL A   1      48.096  27.213  26.926  1.00  0.00     0.031 A 
ATOM     52  C   UNL A   1      41.824  29.355  29.200  1.00  0.00     0.031 A 
ATOM     53  C   UNL A   1      48.030  28.595  27.319  1.00  0.00     0.049 A 
ATOM     54  C   UNL A   1      43.010  30.279  29.159  1.00  0.00     0.074 A 
ATOM     55  C   UNL A   1      49.033  29.548  27.289  1.00  0.00     0.029 A 
ATOM     56  N   UNL A   1      46.895  29.223  27.810  1.00  0.00    -0.354 N 
ATOM     57  N   UNL A   1      44.232  30.032  28.753  1.00  0.00    -0.248 NA
ATOM     58  C   UNL A   1      42.793  31.655  29.625  1.00  0.00     0.031 C 
ATOM     59  C   UNL A   1      48.514  30.744  27.796  1.00  0.00     0.029 A 
ATOM     60  C   UNL A   1      47.176  30.548  28.097  1.00  0.00     0.049 A 
ATOM     61  H   UNL A   1      46.019  28.790  27.934  1.00  0.00     0.167 HD
ATOM     62  C   UNL A   1      44.925  31.229  28.888  1.00  0.00     0.074 A 
ATOM     63  C   UNL A   1      43.982  32.202  29.405  1.00  0.00     0.031 C 
ATOM     64  C   UNL A   1      46.224  31.500  28.610  1.00  0.00     0.031 A 
BRANCH  51  65
ATOM     65  C   UNL A   1      49.418  26.654  26.468  1.00  0.00    -0.014 A 
ATOM     66  C   UNL A   1      50.266  25.974  27.360  1.00  0.00     0.010 A 
ATOM     67  C   UNL A   1      49.810  26.797  25.125  1.00  0.00     0.010 A 
ATOM     68  C   UNL A   1      51.506  25.493  26.931  1.00  0.00     0.020 A 
ATOM     69  C   UNL A   1      51.037  26.292  24.684  1.00  0.00     0.020 A 
ATOM     70  C   UNL A   1      51.886  25.663  25.596  1.00  0.00     0.054 A 
BRANCH  70  71
ATOM     71  S   UNL A   1      53.500  25.026  25.063  1.00  0.00     0.124 S 
ATOM     72  O   UNL A   1      53.559  25.481  23.676  1.00  0.00    -0.237 OA
ATOM     73  O   UNL A   1      54.426  25.687  25.979  1.00  0.00    -0.237 OA
ATOM     74  O   UNL A   1      53.378  23.582  25.241  1.00  0.00    -0.744 OA
ENDBRANCH  70  71
ENDBRANCH  51  65
BRANCH  52  75
ATOM     75  C   UNL A   1      40.504  29.826  29.697  1.00  0.00    -0.014 A 
ATOM     76  C   UNL A   1      39.525  30.277  28.795  1.00  0.00     0.010 A 
ATOM     77  C   UNL A   1      40.209  29.801  31.072  1.00  0.00     0.010 A 
ATOM     78  C   UNL A   1      38.278  30.708  29.259  1.00  0.00     0.020 A 
ATOM     79  C   UNL A   1      38.954  30.208  31.538  1.00  0.00     0.020 A 
ATOM     80  C   UNL A   1      38.001  30.669  30.628  1.00  0.00     0.054 A 
BRANCH  80  81
ATOM     81  S   UNL A   1      36.354  31.172  31.203  1.00  0.00     0.124 S 
ATOM     82  O   UNL A   1      35.975  30.049  32.054  1.00  0.00    -0.237 OA
ATOM     83  O   UNL A   1      36.631  32.428  31.896  1.00  0.00    -0.237 OA
ATOM     84  O   UNL A   1      35.590  31.310  29.966  1.00  0.00    -0.744 OA
ENDBRANCH  80  81
ENDBRANCH  52  75
BRANCH  64  85
ATOM     85  C   UNL A   1      46.695  32.913  28.823  1.00  0.00    -0.014 A 
ATOM     86  C   UNL A   1      47.276  33.310  30.039  1.00  0.00     0.010 A 
ATOM     87  C   UNL A   1      46.604  33.840  27.768  1.00  0.00     0.010 A 
ATOM     88  C   UNL A   1      47.731  34.621  30.208  1.00  0.00     0.020 A 
ATOM     89  C   UNL A   1      47.079  35.144  27.925  1.00  0.00     0.020 A 
ATOM     90  C   UNL A   1      47.628  35.529  29.151  1.00  0.00     0.054 A 
BRANCH  90  91
ATOM     91  S   UNL A   1      48.266  37.213  29.377  1.00  0.00     0.124 S 
ATOM     92  O   UNL A   1      49.686  36.970  29.613  1.00  0.00    -0.237 OA
ATOM     93  O   UNL A   1      47.942  37.854  28.105  1.00  0.00    -0.237 OA
ATOM     94  O   UNL A   1      47.519  37.714  30.528  1.00  0.00    -0.744 OA
ENDBRANCH  90  91
ENDBRANCH  64  85
ENDBRANCH  38  39
ENDBRANCH  30  33
ENDBRANCH  28  29
ENDBRANCH  27  28
ENDBRANCH   1  27
TORSDOF 17
ENDMDL
MODEL 3
REMARK VINA RESULT:     -11.5      1.383      8.269
REMARK SMILES COc1ccc(F)cc1-c1ccc(C[C@]2(C(=O)NCCCNC(=O)c3ccc(-c4c5nc(c(-c6ccc(S(=O)(=O)[O-])cc6)c6ccc([nH]6)c(-c6ccc(S(=O)(=O)[O-])cc6)c6nc(c(-c7ccc(S(=O)(=O)[O-])cc7)c7ccc4[nH]7)C=C6)C=C5)cc3)CCCO2)cc1
REMARK SMILES IDX 19 1 18 2 16 3 17 4 15 6 85 7 88 8 86 9 87 10 14 11 13 12
REMARK SMILES IDX 10 13 11 14 90 15 12 16 89 17 9 18 3 19 4 20 5 21 8 22 6 23
REMARK SMILES IDX 7 24 2 25 1 26 20 27 21 28 22 29 23 30 24 32 25 33 26 34
REMARK SMILES IDX 84 35 27 36 83 37 28 38 29 39 30 40 77 41 31 42 82 43 76 44
REMARK SMILES IDX 78 45 32 46 81 47 75 48 74 49 33 51 63 52 44 53 62 54 45 55
REMARK SMILES IDX 48 56 61 57 79 58 46 59 47 60 60 62 80 63 49 64 34 65 35 66
REMARK SMILES IDX 43 67 36 68 42 69 37 70 38 71 39 72 40 73 41 74 64 75 65 76
REMARK SMILES IDX 73 77 66 78 72 79 67 80 68 81 69 82 70 83 71 84 50 85 51 86
REMARK SMILES IDX 59 87 52 88 58 89 53 90 54 91 55 92 56 93 57 94
REMARK H PARENT 18 5 22 31 78 50 48 61
REMARK Flexibility Score: inf
ROOT
ATOM      1  C   UNL A   1      36.758  21.303  25.027  1.00  0.00     0.117 C 
ENDROOT
BRANCH   1   2
ATOM      2  N   UNL A   1      35.833  21.179  26.139  1.00  0.00    -0.354 N 
ATOM      3  C   UNL A   1      34.553  21.627  26.302  1.00  0.00     0.252 C 
ATOM      4  O   UNL A   1      34.014  21.332  27.375  1.00  0.00    -0.272 OA
ATOM      5  H   UNL A   1      36.191  20.683  26.910  1.00  0.00     0.163 HD
BRANCH   3   6
ATOM      6  C   UNL A   1      33.830  22.511  25.237  1.00  0.00     0.150 C 
ATOM      7  C   UNL A   1      34.468  23.903  25.183  1.00  0.00     0.048 C 
ATOM      8  O   UNL A   1      33.956  21.932  23.925  1.00  0.00    -0.365 OA
ATOM      9  C   UNL A   1      34.916  24.089  23.752  1.00  0.00     0.032 C 
ATOM     10  C   UNL A   1      34.241  22.976  22.987  1.00  0.00     0.162 C 
BRANCH   6  11
ATOM     11  C   UNL A   1      32.319  22.563  25.629  1.00  0.00     0.081 C 
BRANCH  11  12
ATOM     12  C   UNL A   1      31.539  23.792  25.201  1.00  0.00    -0.045 A 
ATOM     13  C   UNL A   1      30.178  26.118  24.337  1.00  0.00    -0.015 A 
ATOM     14  C   UNL A   1      30.693  26.027  25.637  1.00  0.00     0.009 A 
ATOM     15  C   UNL A   1      30.328  25.018  23.483  1.00  0.00     0.009 A 
ATOM     16  C   UNL A   1      31.346  24.871  26.070  1.00  0.00     0.004 A 
ATOM     17  C   UNL A   1      31.007  23.870  23.907  1.00  0.00     0.004 A 
BRANCH  13  18
ATOM     18  C   UNL A   1      29.522  27.351  23.886  1.00  0.00     0.027 A 
ATOM     19  C   UNL A   1      30.236  28.540  23.643  1.00  0.00     0.126 A 
ATOM     20  C   UNL A   1      29.586  29.685  23.163  1.00  0.00     0.050 A 
ATOM     21  C   UNL A   1      28.208  29.665  22.956  1.00  0.00     0.043 A 
ATOM     22  C   UNL A   1      28.133  27.354  23.673  1.00  0.00     0.051 A 
ATOM     23  C   UNL A   1      27.494  28.503  23.218  1.00  0.00     0.124 A 
ATOM     24  F   UNL A   1      26.171  28.485  23.015  1.00  0.00    -0.207 F 
BRANCH  19  25
ATOM     25  O   UNL A   1      31.601  28.533  23.789  1.00  0.00    -0.496 OA
ATOM     26  C   UNL A   1      32.032  29.426  24.814  1.00  0.00     0.278 C 
ENDBRANCH  19  25
ENDBRANCH  13  18
ENDBRANCH  11  12
ENDBRANCH   6  11
ENDBRANCH   3   6
ENDBRANCH   1   2
BRANCH   1  27
ATOM     27  C   UNL A   1      37.890  20.281  25.092  1.00  0.00     0.042 C 
BRANCH  27  28
ATOM     28  C   UNL A   1      39.004  20.659  26.060  1.00  0.00     0.118 C 
BRANCH  28  29
ATOM     29  N   UNL A   1      40.078  19.679  26.060  1.00  0.00    -0.352 N 
ATOM     30  C   UNL A   1      41.437  19.862  26.093  1.00  0.00     0.251 C 
ATOM     31  H   UNL A   1      39.784  18.739  26.033  1.00  0.00     0.163 HD
ATOM     32  O   UNL A   1      42.175  18.914  25.839  1.00  0.00    -0.269 OA
BRANCH  30  33
ATOM     33  C   UNL A   1      42.021  21.184  26.421  1.00  0.00     0.039 A 
ATOM     34  C   UNL A   1      42.170  22.128  25.400  1.00  0.00     0.014 A 
ATOM     35  C   UNL A   1      42.480  21.478  27.709  1.00  0.00     0.014 A 
ATOM     36  C   UNL A   1      42.745  23.371  25.676  1.00  0.00     0.010 A 
ATOM     37  C   UNL A   1      42.981  22.746  28.000  1.00  0.00     0.010 A 
ATOM     38  C   UNL A   1      43.139  23.698  26.984  1.00  0.00    -0.014 A 
BRANCH  38  39
ATOM     39  C   UNL A   1      43.761  25.009  27.298  1.00  0.00     0.031 A 
ATOM     40  C   UNL A   1      42.929  26.109  27.905  1.00  0.00     0.074 A 
ATOM     41  C   UNL A   1      45.054  25.231  26.991  1.00  0.00     0.049 A 
ATOM     42  N   UNL A   1      43.269  27.340  28.191  1.00  0.00    -0.248 NA
ATOM     43  C   UNL A   1      41.524  25.790  28.206  1.00  0.00     0.031 C 
ATOM     44  C   UNL A   1      45.957  24.260  26.371  1.00  0.00     0.029 A 
ATOM     45  N   UNL A   1      45.832  26.350  27.157  1.00  0.00    -0.354 N 
ATOM     46  C   UNL A   1      42.117  27.947  28.679  1.00  0.00     0.074 A 
ATOM     47  C   UNL A   1      41.059  26.965  28.607  1.00  0.00     0.031 C 
ATOM     48  C   UNL A   1      47.173  24.816  26.231  1.00  0.00     0.029 A 
ATOM     49  C   UNL A   1      47.126  26.192  26.719  1.00  0.00     0.049 A 
ATOM     50  H   UNL A   1      45.496  27.187  27.553  1.00  0.00     0.167 HD
ATOM     51  C   UNL A   1      41.957  29.203  29.162  1.00  0.00     0.031 A 
ATOM     52  C   UNL A   1      48.158  27.057  26.708  1.00  0.00     0.031 A 
ATOM     53  C   UNL A   1      43.016  30.172  29.254  1.00  0.00     0.049 A 
ATOM     54  C   UNL A   1      47.961  28.442  27.261  1.00  0.00     0.074 A 
ATOM     55  C   UNL A   1      42.969  31.453  29.776  1.00  0.00     0.029 A 
ATOM     56  N   UNL A   1      44.316  29.964  28.818  1.00  0.00    -0.354 N 
ATOM     57  N   UNL A   1      46.876  28.981  27.763  1.00  0.00    -0.248 NA
ATOM     58  C   UNL A   1      49.132  29.329  27.257  1.00  0.00     0.031 C 
ATOM     59  C   UNL A   1      44.233  32.033  29.621  1.00  0.00     0.029 A 
ATOM     60  C   UNL A   1      45.078  31.097  29.047  1.00  0.00     0.049 A 
ATOM     61  H   UNL A   1      44.648  29.132  28.407  1.00  0.00     0.167 HD
ATOM     62  C   UNL A   1      47.240  30.262  28.160  1.00  0.00     0.074 A 
ATOM     63  C   UNL A   1      48.648  30.413  27.849  1.00  0.00     0.031 C 
ATOM     64  C   UNL A   1      46.477  31.228  28.732  1.00  0.00     0.031 A 
BRANCH  51  65
ATOM     65  C   UNL A   1      40.577  29.596  29.624  1.00  0.00    -0.014 A 
ATOM     66  C   UNL A   1      39.605  30.037  28.709  1.00  0.00     0.010 A 
ATOM     67  C   UNL A   1      40.243  29.506  30.988  1.00  0.00     0.010 A 
ATOM     68  C   UNL A   1      38.341  30.434  29.156  1.00  0.00     0.020 A 
ATOM     69  C   UNL A   1      38.971  29.874  31.435  1.00  0.00     0.020 A 
ATOM     70  C   UNL A   1      38.035  30.356  30.517  1.00  0.00     0.054 A 
BRANCH  70  71
ATOM     71  S   UNL A   1      36.386  30.873  31.071  1.00  0.00     0.124 S 
ATOM     72  O   UNL A   1      36.172  30.006  32.227  1.00  0.00    -0.237 OA
ATOM     73  O   UNL A   1      36.577  32.289  31.375  1.00  0.00    -0.237 OA
ATOM     74  O   UNL A   1      35.532  30.597  29.919  1.00  0.00    -0.744 OA
ENDBRANCH  70  71
ENDBRANCH  51  65
BRANCH  52  75
ATOM     75  C   UNL A   1      49.480  26.625  26.181  1.00  0.00    -0.014 A 
ATOM     76  C   UNL A   1      49.899  27.023  24.900  1.00  0.00     0.010 A 
ATOM     77  C   UNL A   1      50.338  25.834  26.967  1.00  0.00     0.010 A 
ATOM     78  C   UNL A   1      51.147  26.629  24.407  1.00  0.00     0.020 A 
ATOM     79  C   UNL A   1      51.597  25.458  26.488  1.00  0.00     0.020 A 
ATOM     80  C   UNL A   1      51.989  25.850  25.206  1.00  0.00     0.054 A 
BRANCH  80  81
ATOM     81  S   UNL A   1      53.630  25.403  24.573  1.00  0.00     0.124 S 
ATOM     82  O   UNL A   1      54.494  26.342  25.281  1.00  0.00    -0.237 OA
ATOM     83  O   UNL A   1      53.753  24.003  24.972  1.00  0.00    -0.237 OA
ATOM     84  O   UNL A   1      53.510  25.622  23.133  1.00  0.00    -0.744 OA
ENDBRANCH  80  81
ENDBRANCH  52  75
BRANCH  64  85
ATOM     85  C   UNL A   1      47.157  32.520  29.092  1.00  0.00    -0.014 A 
ATOM     86  C   UNL A   1      47.835  32.672  30.313  1.00  0.00     0.010 A 
ATOM     87  C   UNL A   1      47.162  33.580  28.165  1.00  0.00     0.010 A 
ATOM     88  C   UNL A   1      48.482  33.873  30.616  1.00  0.00     0.020 A 
ATOM     89  C   UNL A   1      47.828  34.773  28.455  1.00  0.00     0.020 A 
ATOM     90  C   UNL A   1      48.473  34.916  29.686  1.00  0.00     0.054 A 
BRANCH  90  91
ATOM     91  S   UNL A   1      49.357  36.450  30.082  1.00  0.00     0.124 S 
ATOM     92  O   UNL A   1      48.715  37.410  29.188  1.00  0.00    -0.237 OA
ATOM     93  O   UNL A   1      49.071  36.629  31.504  1.00  0.00    -0.237 OA
ATOM     94  O   UNL A   1      50.749  36.138  29.767  1.00  0.00    -0.744 OA
ENDBRANCH  90  91
ENDBRANCH  64  85
ENDBRANCH  38  39
ENDBRANCH  30  33
ENDBRANCH  28  29
ENDBRANCH  27  28
ENDBRANCH   1  27
TORSDOF 17
ENDMDL
