MODEL 1
REMARK VINA RESULT:     -12.2      0.000      0.000
REMARK SMILES Cc1nsc(Nc2ccccc2C(C)C)c1C(=O)NCCCNC(=O)c1ccc(-c2c3nc(c(-c4ccc(S(=O)(=O)[O-])cc4)c4ccc([nH]4)c(-c4ccc(S(=O)(=O)[O-])cc4)c4nc(c(-c5ccc(S(=O)(=O)[O-])cc5)c5ccc2[nH]5)C=C4)C=C3)cc1
REMARK SMILES IDX 21 1 20 2 19 3 17 4 18 5 16 7 1 8 2 9 3 10 4 11 5 12 6 13
REMARK SMILES IDX 7 15 8 16 12 17 9 18 11 19 10 20 13 21 14 22 15 23 22 24
REMARK SMILES IDX 23 25 24 26 25 28 26 29 27 30 85 31 28 32 84 33 29 34 30 35
REMARK SMILES IDX 31 36 78 37 32 38 83 39 77 40 79 41 33 42 82 43 76 44 75 45
REMARK SMILES IDX 34 47 64 48 45 49 63 50 46 51 49 52 62 53 80 54 47 55 48 56
REMARK SMILES IDX 61 58 81 59 50 60 35 61 36 62 44 63 37 64 43 65 38 66 39 67
REMARK SMILES IDX 40 68 41 69 42 70 65 71 66 72 74 73 67 74 73 75 68 76 69 77
REMARK SMILES IDX 70 78 71 79 72 80 51 81 52 82 60 83 53 84 59 85 54 86 55 87
REMARK SMILES IDX 56 88 57 89 58 90
REMARK H PARENT 19 6 6 14 23 27 79 46 49 57
REMARK Flexibility Score: inf
ROOT
ATOM      1  C   UNL A   1      32.676  28.894  27.098  1.00  0.00     0.042 C 
ENDROOT
BRANCH   1   2
ATOM      2  C   UNL A   1      32.514  27.513  26.464  1.00  0.00     0.118 C 
BRANCH   2   3
ATOM      3  N   UNL A   1      31.326  27.365  25.658  1.00  0.00    -0.352 N 
ATOM      4  C   UNL A   1      31.025  26.846  24.430  1.00  0.00     0.256 C 
ATOM      5  O   UNL A   1      29.805  26.708  24.262  1.00  0.00    -0.269 OA
ATOM      6  H   UNL A   1      30.530  27.730  26.108  1.00  0.00     0.163 HD
BRANCH   4   7
ATOM      7  C   UNL A   1      31.965  26.534  23.337  1.00  0.00     0.097 A 
ATOM      8  C   UNL A   1      33.900  28.386  23.188  1.00  0.00     0.069 C 
ATOM      9  C   UNL A   1      33.123  27.200  22.746  1.00  0.00     0.066 A 
ATOM     10  N   UNL A   1      33.626  26.650  21.638  1.00  0.00    -0.195 NA
ATOM     11  S   UNL A   1      32.828  25.266  21.300  1.00  0.00    -0.018 S 
ATOM     12  C   UNL A   1      31.837  25.283  22.698  1.00  0.00     0.127 A 
BRANCH  12  13
ATOM     13  N   UNL A   1      31.037  24.236  23.057  1.00  0.00    -0.345 N 
ATOM     14  H   UNL A   1      30.063  24.371  22.997  1.00  0.00     0.167 HD
BRANCH  13  15
ATOM     15  C   UNL A   1      31.485  22.977  23.508  1.00  0.00     0.043 A 
ATOM     16  C   UNL A   1      31.775  22.012  22.529  1.00  0.00     0.026 A 
ATOM     17  C   UNL A   1      31.578  22.626  24.877  1.00  0.00    -0.022 A 
ATOM     18  C   UNL A   1      32.250  20.749  22.878  1.00  0.00     0.002 A 
ATOM     19  C   UNL A   1      32.072  21.346  25.207  1.00  0.00     0.006 A 
ATOM     20  C   UNL A   1      32.415  20.423  24.218  1.00  0.00     0.000 A 
BRANCH  17  21
ATOM     21  C   UNL A   1      31.136  23.561  26.000  1.00  0.00     0.015 C 
ATOM     22  C   UNL A   1      29.988  22.957  26.819  1.00  0.00     0.012 C 
ATOM     23  C   UNL A   1      32.297  23.940  26.924  1.00  0.00     0.012 C 
ENDBRANCH  17  21
ENDBRANCH  13  15
ENDBRANCH  12  13
ENDBRANCH   4   7
ENDBRANCH   2   3
ENDBRANCH   1   2
BRANCH   1  24
ATOM     24  C   UNL A   1      34.094  29.425  26.933  1.00  0.00     0.118 C 
BRANCH  24  25
ATOM     25  N   UNL A   1      34.150  30.891  27.025  1.00  0.00    -0.352 N 
ATOM     26  C   UNL A   1      34.926  31.677  27.855  1.00  0.00     0.251 C 
ATOM     27  H   UNL A   1      33.553  31.380  26.413  1.00  0.00     0.163 HD
ATOM     28  O   UNL A   1      34.667  32.864  28.021  1.00  0.00    -0.269 OA
BRANCH  26  29
ATOM     29  C   UNL A   1      36.052  31.041  28.554  1.00  0.00     0.039 A 
ATOM     30  C   UNL A   1      36.021  29.688  28.887  1.00  0.00     0.014 A 
ATOM     31  C   UNL A   1      37.207  31.796  28.725  1.00  0.00     0.014 A 
ATOM     32  C   UNL A   1      37.212  29.068  29.260  1.00  0.00     0.010 A 
ATOM     33  C   UNL A   1      38.403  31.146  28.916  1.00  0.00     0.010 A 
ATOM     34  C   UNL A   1      38.422  29.788  29.216  1.00  0.00    -0.014 A 
BRANCH  34  35
ATOM     35  C   UNL A   1      39.702  29.095  29.372  1.00  0.00     0.031 A 
ATOM     36  C   UNL A   1      40.132  28.835  30.776  1.00  0.00     0.074 A 
ATOM     37  C   UNL A   1      40.430  28.572  28.361  1.00  0.00     0.049 A 
ATOM     38  N   UNL A   1      41.041  29.474  31.435  1.00  0.00    -0.248 NA
ATOM     39  C   UNL A   1      39.395  27.850  31.581  1.00  0.00     0.031 C 
ATOM     40  C   UNL A   1      40.105  28.464  26.933  1.00  0.00     0.029 A 
ATOM     41  N   UNL A   1      41.628  27.930  28.435  1.00  0.00    -0.354 N 
ATOM     42  C   UNL A   1      41.151  28.839  32.667  1.00  0.00     0.074 A 
ATOM     43  C   UNL A   1      40.010  27.961  32.763  1.00  0.00     0.031 C 
ATOM     44  C   UNL A   1      40.952  27.600  26.333  1.00  0.00     0.029 A 
ATOM     45  C   UNL A   1      41.999  27.264  27.276  1.00  0.00     0.049 A 
ATOM     46  H   UNL A   1      42.185  27.936  29.246  1.00  0.00     0.167 HD
ATOM     47  C   UNL A   1      42.289  28.926  33.415  1.00  0.00     0.031 A 
ATOM     48  C   UNL A   1      43.108  26.512  27.086  1.00  0.00     0.031 A 
ATOM     49  C   UNL A   1      43.176  29.950  32.918  1.00  0.00     0.049 A 
ATOM     50  C   UNL A   1      44.110  26.969  28.077  1.00  0.00     0.074 A 
ATOM     51  C   UNL A   1      43.075  31.311  32.709  1.00  0.00     0.029 A 
ATOM     52  N   UNL A   1      44.249  29.536  32.162  1.00  0.00    -0.354 N 
ATOM     53  N   UNL A   1      44.650  28.156  28.043  1.00  0.00    -0.248 NA
ATOM     54  C   UNL A   1      44.194  26.282  29.352  1.00  0.00     0.031 C 
ATOM     55  C   UNL A   1      43.753  31.544  31.474  1.00  0.00     0.029 A 
ATOM     56  C   UNL A   1      44.288  30.328  31.042  1.00  0.00     0.049 A 
ATOM     57  H   UNL A   1      44.874  28.807  32.384  1.00  0.00     0.167 HD
ATOM     58  C   UNL A   1      44.739  28.542  29.371  1.00  0.00     0.074 A 
ATOM     59  C   UNL A   1      44.551  27.307  30.132  1.00  0.00     0.031 C 
ATOM     60  C   UNL A   1      44.688  29.860  29.731  1.00  0.00     0.031 A 
BRANCH  47  61
ATOM     61  C   UNL A   1      42.777  27.843  34.346  1.00  0.00    -0.014 A 
ATOM     62  C   UNL A   1      43.080  28.178  35.683  1.00  0.00     0.010 A 
ATOM     63  C   UNL A   1      43.210  26.582  33.891  1.00  0.00     0.010 A 
ATOM     64  C   UNL A   1      43.847  27.329  36.493  1.00  0.00     0.020 A 
ATOM     65  C   UNL A   1      43.937  25.708  34.704  1.00  0.00     0.020 A 
ATOM     66  C   UNL A   1      44.284  26.104  35.988  1.00  0.00     0.054 A 
BRANCH  66  67
ATOM     67  S   UNL A   1      45.373  25.067  36.996  1.00  0.00     0.124 S 
ATOM     68  O   UNL A   1      44.547  24.824  38.175  1.00  0.00    -0.237 OA
ATOM     69  O   UNL A   1      45.592  23.914  36.126  1.00  0.00    -0.237 OA
ATOM     70  O   UNL A   1      46.544  25.911  37.211  1.00  0.00    -0.744 OA
ENDBRANCH  66  67
ENDBRANCH  47  61
BRANCH  48  71
ATOM     71  C   UNL A   1      43.255  25.266  26.301  1.00  0.00    -0.014 A 
ATOM     72  C   UNL A   1      44.284  25.143  25.349  1.00  0.00     0.010 A 
ATOM     73  C   UNL A   1      42.591  24.093  26.713  1.00  0.00     0.010 A 
ATOM     74  C   UNL A   1      44.700  23.881  24.900  1.00  0.00     0.020 A 
ATOM     75  C   UNL A   1      42.996  22.832  26.262  1.00  0.00     0.020 A 
ATOM     76  C   UNL A   1      44.073  22.730  25.384  1.00  0.00     0.054 A 
BRANCH  76  77
ATOM     77  S   UNL A   1      44.770  21.101  24.979  1.00  0.00     0.124 S 
ATOM     78  O   UNL A   1      46.121  21.198  25.523  1.00  0.00    -0.237 OA
ATOM     79  O   UNL A   1      43.870  20.189  25.680  1.00  0.00    -0.237 OA
ATOM     80  O   UNL A   1      44.690  21.046  23.521  1.00  0.00    -0.744 OA
ENDBRANCH  76  77
ENDBRANCH  48  71
BRANCH  60  81
ATOM     81  C   UNL A   1      44.829  30.908  28.645  1.00  0.00    -0.014 A 
ATOM     82  C   UNL A   1      43.801  31.253  27.744  1.00  0.00     0.010 A 
ATOM     83  C   UNL A   1      46.019  31.656  28.610  1.00  0.00     0.010 A 
ATOM     84  C   UNL A   1      43.980  32.282  26.806  1.00  0.00     0.020 A 
ATOM     85  C   UNL A   1      46.196  32.696  27.694  1.00  0.00     0.020 A 
ATOM     86  C   UNL A   1      45.183  32.995  26.784  1.00  0.00     0.054 A 
BRANCH  86  87
ATOM     87  S   UNL A   1      45.406  34.332  25.579  1.00  0.00     0.124 S 
ATOM     88  O   UNL A   1      44.869  35.491  26.286  1.00  0.00    -0.237 OA
ATOM     89  O   UNL A   1      46.852  34.341  25.364  1.00  0.00    -0.237 OA
ATOM     90  O   UNL A   1      44.622  33.896  24.424  1.00  0.00    -0.744 OA
ENDBRANCH  86  87
ENDBRANCH  60  81
ENDBRANCH  34  35
ENDBRANCH  26  29
ENDBRANCH  24  25
ENDBRANCH   1  24
TORSDOF 16
ENDMDL
MODEL 2
REMARK VINA RESULT:     -12.2      2.996      9.433
REMARK SMILES Cc1nsc(Nc2ccccc2C(C)C)c1C(=O)NCCCNC(=O)c1ccc(-c2c3nc(c(-c4ccc(S(=O)(=O)[O-])cc4)c4ccc([nH]4)c(-c4ccc(S(=O)(=O)[O-])cc4)c4nc(c(-c5ccc(S(=O)(=O)[O-])cc5)c5ccc2[nH]5)C=C4)C=C3)cc1
REMARK SMILES IDX 21 1 20 2 19 3 17 4 18 5 16 7 1 8 2 9 3 10 4 11 5 12 6 13
REMARK SMILES IDX 7 15 8 16 12 17 9 18 11 19 10 20 13 21 14 22 15 23 22 24
REMARK SMILES IDX 23 25 24 26 25 28 26 29 27 30 85 31 28 32 84 33 29 34 30 35
REMARK SMILES IDX 31 36 78 37 32 38 83 39 77 40 79 41 33 42 82 43 76 44 75 45
REMARK SMILES IDX 34 47 64 48 45 49 63 50 46 51 49 52 62 53 80 54 47 55 48 56
REMARK SMILES IDX 61 58 81 59 50 60 35 61 36 62 44 63 37 64 43 65 38 66 39 67
REMARK SMILES IDX 40 68 41 69 42 70 65 71 66 72 74 73 67 74 73 75 68 76 69 77
REMARK SMILES IDX 70 78 71 79 72 80 51 81 52 82 60 83 53 84 59 85 54 86 55 87
REMARK SMILES IDX 56 88 57 89 58 90
REMARK H PARENT 19 6 6 14 23 27 79 46 49 57
REMARK Flexibility Score: inf
ROOT
ATOM      1  C   UNL A   1      37.691  21.993  24.697  1.00  0.00     0.042 C 
ENDROOT
BRANCH   1   2
ATOM      2  C   UNL A   1      36.182  22.083  24.926  1.00  0.00     0.118 C 
BRANCH   2   3
ATOM      3  N   UNL A   1      35.433  22.536  23.779  1.00  0.00    -0.352 N 
ATOM      4  C   UNL A   1      34.182  23.039  23.552  1.00  0.00     0.256 C 
ATOM      5  O   UNL A   1      34.070  23.535  22.423  1.00  0.00    -0.269 OA
ATOM      6  H   UNL A   1      35.956  22.466  22.948  1.00  0.00     0.163 HD
BRANCH   4   7
ATOM      7  C   UNL A   1      33.015  22.971  24.453  1.00  0.00     0.097 A 
ATOM      8  C   UNL A   1      32.653  20.470  25.354  1.00  0.00     0.069 C 
ATOM      9  C   UNL A   1      32.308  21.901  25.152  1.00  0.00     0.066 A 
ATOM     10  N   UNL A   1      31.171  22.239  25.765  1.00  0.00    -0.195 NA
ATOM     11  S   UNL A   1      30.936  23.850  25.640  1.00  0.00    -0.018 S 
ATOM     12  C   UNL A   1      32.418  24.187  24.846  1.00  0.00     0.127 A 
BRANCH  12  13
ATOM     13  N   UNL A   1      32.871  25.455  24.620  1.00  0.00    -0.345 N 
ATOM     14  H   UNL A   1      33.835  25.617  24.737  1.00  0.00     0.167 HD
BRANCH  13  15
ATOM     15  C   UNL A   1      32.077  26.554  24.232  1.00  0.00     0.043 A 
ATOM     16  C   UNL A   1      31.502  26.509  22.951  1.00  0.00     0.026 A 
ATOM     17  C   UNL A   1      31.902  27.710  25.031  1.00  0.00    -0.022 A 
ATOM     18  C   UNL A   1      30.680  27.537  22.492  1.00  0.00     0.002 A 
ATOM     19  C   UNL A   1      31.057  28.733  24.551  1.00  0.00     0.006 A 
ATOM     20  C   UNL A   1      30.443  28.641  23.301  1.00  0.00     0.000 A 
BRANCH  17  21
ATOM     21  C   UNL A   1      32.614  27.906  26.367  1.00  0.00     0.015 C 
ATOM     22  C   UNL A   1      33.662  29.024  26.291  1.00  0.00     0.012 C 
ATOM     23  C   UNL A   1      31.632  28.184  27.509  1.00  0.00     0.012 C 
ENDBRANCH  17  21
ENDBRANCH  13  15
ENDBRANCH  12  13
ENDBRANCH   4   7
ENDBRANCH   2   3
ENDBRANCH   1   2
BRANCH   1  24
ATOM     24  C   UNL A   1      38.444  21.764  26.001  1.00  0.00     0.118 C 
BRANCH  24  25
ATOM     25  N   UNL A   1      39.872  21.501  25.775  1.00  0.00    -0.352 N 
ATOM     26  C   UNL A   1      40.958  22.295  26.091  1.00  0.00     0.251 C 
ATOM     27  H   UNL A   1      40.085  20.644  25.340  1.00  0.00     0.163 HD
ATOM     28  O   UNL A   1      42.059  22.080  25.596  1.00  0.00    -0.269 OA
BRANCH  26  29
ATOM     29  C   UNL A   1      40.748  23.419  27.014  1.00  0.00     0.039 A 
ATOM     30  C   UNL A   1      41.588  23.619  28.108  1.00  0.00     0.014 A 
ATOM     31  C   UNL A   1      39.786  24.361  26.666  1.00  0.00     0.014 A 
ATOM     32  C   UNL A   1      41.544  24.849  28.763  1.00  0.00     0.010 A 
ATOM     33  C   UNL A   1      39.873  25.626  27.195  1.00  0.00     0.010 A 
ATOM     34  C   UNL A   1      40.725  25.880  28.266  1.00  0.00    -0.014 A 
BRANCH  34  35
ATOM     35  C   UNL A   1      40.845  27.241  28.793  1.00  0.00     0.031 A 
ATOM     36  C   UNL A   1      41.920  28.078  28.189  1.00  0.00     0.074 A 
ATOM     37  C   UNL A   1      39.986  27.814  29.665  1.00  0.00     0.049 A 
ATOM     38  N   UNL A   1      43.058  28.376  28.723  1.00  0.00    -0.248 NA
ATOM     39  C   UNL A   1      41.781  28.529  26.797  1.00  0.00     0.031 C 
ATOM     40  C   UNL A   1      38.720  27.302  30.203  1.00  0.00     0.029 A 
ATOM     41  N   UNL A   1      40.046  29.063  30.201  1.00  0.00    -0.354 N 
ATOM     42  C   UNL A   1      43.697  29.232  27.834  1.00  0.00     0.074 A 
ATOM     43  C   UNL A   1      42.944  29.159  26.605  1.00  0.00     0.031 C 
ATOM     44  C   UNL A   1      38.027  28.307  30.783  1.00  0.00     0.029 A 
ATOM     45  C   UNL A   1      38.887  29.471  30.846  1.00  0.00     0.049 A 
ATOM     46  H   UNL A   1      40.847  29.633  30.136  1.00  0.00     0.167 HD
ATOM     47  C   UNL A   1      44.666  30.098  28.249  1.00  0.00     0.031 A 
ATOM     48  C   UNL A   1      38.654  30.672  31.424  1.00  0.00     0.031 A 
ATOM     49  C   UNL A   1      45.111  29.797  29.589  1.00  0.00     0.049 A 
ATOM     50  C   UNL A   1      39.976  31.249  31.760  1.00  0.00     0.074 A 
ATOM     51  C   UNL A   1      45.673  28.696  30.205  1.00  0.00     0.029 A 
ATOM     52  N   UNL A   1      44.616  30.581  30.605  1.00  0.00    -0.354 N 
ATOM     53  N   UNL A   1      40.769  30.733  32.657  1.00  0.00    -0.248 NA
ATOM     54  C   UNL A   1      40.613  32.138  30.805  1.00  0.00     0.031 C 
ATOM     55  C   UNL A   1      45.044  28.634  31.486  1.00  0.00     0.029 A 
ATOM     56  C   UNL A   1      44.195  29.737  31.602  1.00  0.00     0.049 A 
ATOM     57  H   UNL A   1      44.570  31.565  30.616  1.00  0.00     0.167 HD
ATOM     58  C   UNL A   1      42.041  30.865  32.125  1.00  0.00     0.074 A 
ATOM     59  C   UNL A   1      41.893  31.837  31.042  1.00  0.00     0.031 C 
ATOM     60  C   UNL A   1      43.036  29.980  32.436  1.00  0.00     0.031 A 
BRANCH  47  61
ATOM     61  C   UNL A   1      44.936  31.440  27.611  1.00  0.00    -0.014 A 
ATOM     62  C   UNL A   1      46.171  31.649  26.961  1.00  0.00     0.010 A 
ATOM     63  C   UNL A   1      44.146  32.579  27.863  1.00  0.00     0.010 A 
ATOM     64  C   UNL A   1      46.625  32.940  26.656  1.00  0.00     0.020 A 
ATOM     65  C   UNL A   1      44.569  33.866  27.522  1.00  0.00     0.020 A 
ATOM     66  C   UNL A   1      45.824  34.042  26.955  1.00  0.00     0.054 A 
BRANCH  66  67
ATOM     67  S   UNL A   1      46.465  35.710  26.668  1.00  0.00     0.124 S 
ATOM     68  O   UNL A   1      47.331  35.502  25.511  1.00  0.00    -0.237 OA
ATOM     69  O   UNL A   1      45.243  36.471  26.418  1.00  0.00    -0.237 OA
ATOM     70  O   UNL A   1      47.150  36.031  27.917  1.00  0.00    -0.744 OA
ENDBRANCH  66  67
ENDBRANCH  47  61
BRANCH  48  71
ATOM     71  C   UNL A   1      37.398  31.454  31.454  1.00  0.00    -0.014 A 
ATOM     72  C   UNL A   1      36.533  31.368  32.560  1.00  0.00     0.010 A 
ATOM     73  C   UNL A   1      37.211  32.519  30.549  1.00  0.00     0.010 A 
ATOM     74  C   UNL A   1      35.579  32.366  32.807  1.00  0.00     0.020 A 
ATOM     75  C   UNL A   1      36.256  33.514  30.785  1.00  0.00     0.020 A 
ATOM     76  C   UNL A   1      35.468  33.451  31.933  1.00  0.00     0.054 A 
BRANCH  76  77
ATOM     77  S   UNL A   1      34.399  34.850  32.384  1.00  0.00     0.124 S 
ATOM     78  O   UNL A   1      34.069  35.421  31.083  1.00  0.00    -0.237 OA
ATOM     79  O   UNL A   1      33.298  34.193  33.084  1.00  0.00    -0.237 OA
ATOM     80  O   UNL A   1      35.258  35.680  33.228  1.00  0.00    -0.744 OA
ENDBRANCH  76  77
ENDBRANCH  48  71
BRANCH  60  81
ATOM     81  C   UNL A   1      42.814  29.026  33.593  1.00  0.00    -0.014 A 
ATOM     82  C   UNL A   1      43.390  29.186  34.869  1.00  0.00     0.010 A 
ATOM     83  C   UNL A   1      41.888  27.984  33.409  1.00  0.00     0.010 A 
ATOM     84  C   UNL A   1      43.085  28.300  35.914  1.00  0.00     0.020 A 
ATOM     85  C   UNL A   1      41.563  27.111  34.451  1.00  0.00     0.020 A 
ATOM     86  C   UNL A   1      42.175  27.261  35.695  1.00  0.00     0.054 A 
BRANCH  86  87
ATOM     87  S   UNL A   1      41.774  26.125  37.051  1.00  0.00     0.124 S 
ATOM     88  O   UNL A   1      40.456  26.589  37.477  1.00  0.00    -0.237 OA
ATOM     89  O   UNL A   1      41.799  24.816  36.400  1.00  0.00    -0.237 OA
ATOM     90  O   UNL A   1      42.848  26.344  38.020  1.00  0.00    -0.744 OA
ENDBRANCH  86  87
ENDBRANCH  60  81
ENDBRANCH  34  35
ENDBRANCH  26  29
ENDBRANCH  24  25
ENDBRANCH   1  24
TORSDOF 16
ENDMDL
MODEL 3
REMARK VINA RESULT:     -12.0      1.251      1.805
REMARK SMILES Cc1nsc(Nc2ccccc2C(C)C)c1C(=O)NCCCNC(=O)c1ccc(-c2c3nc(c(-c4ccc(S(=O)(=O)[O-])cc4)c4ccc([nH]4)c(-c4ccc(S(=O)(=O)[O-])cc4)c4nc(c(-c5ccc(S(=O)(=O)[O-])cc5)c5ccc2[nH]5)C=C4)C=C3)cc1
REMARK SMILES IDX 21 1 20 2 19 3 17 4 18 5 16 7 1 8 2 9 3 10 4 11 5 12 6 13
REMARK SMILES IDX 7 15 8 16 12 17 9 18 11 19 10 20 13 21 14 22 15 23 22 24
REMARK SMILES IDX 23 25 24 26 25 28 26 29 27 30 85 31 28 32 84 33 29 34 30 35
REMARK SMILES IDX 31 36 78 37 32 38 83 39 77 40 79 41 33 42 82 43 76 44 75 45
REMARK SMILES IDX 34 47 64 48 45 49 63 50 46 51 49 52 62 53 80 54 47 55 48 56
REMARK SMILES IDX 61 58 81 59 50 60 35 61 36 62 44 63 37 64 43 65 38 66 39 67
REMARK SMILES IDX 40 68 41 69 42 70 65 71 66 72 74 73 67 74 73 75 68 76 69 77
REMARK SMILES IDX 70 78 71 79 72 80 51 81 52 82 60 83 53 84 59 85 54 86 55 87
REMARK SMILES IDX 56 88 57 89 58 90
REMARK H PARENT 19 6 6 14 23 27 79 46 49 57
REMARK Flexibility Score: inf
ROOT
ATOM      1  C   UNL A   1      33.328  29.589  26.375  1.00  0.00     0.042 C 
ENDROOT
BRANCH   1   2
ATOM      2  C   UNL A   1      31.826  29.452  26.123  1.00  0.00     0.118 C 
BRANCH   2   3
ATOM      3  N   UNL A   1      31.297  28.136  26.383  1.00  0.00    -0.352 N 
ATOM      4  C   UNL A   1      31.179  26.964  25.689  1.00  0.00     0.256 C 
ATOM      5  O   UNL A   1      30.884  26.009  26.420  1.00  0.00    -0.269 OA
ATOM      6  H   UNL A   1      30.928  28.062  27.293  1.00  0.00     0.163 HD
BRANCH   4   7
ATOM      7  C   UNL A   1      31.290  26.776  24.229  1.00  0.00     0.097 A 
ATOM      8  C   UNL A   1      29.928  28.679  22.918  1.00  0.00     0.069 C 
ATOM      9  C   UNL A   1      30.714  27.426  23.055  1.00  0.00     0.066 A 
ATOM     10  N   UNL A   1      30.949  26.845  21.876  1.00  0.00    -0.195 NA
ATOM     11  S   UNL A   1      31.948  25.569  22.081  1.00  0.00    -0.018 S 
ATOM     12  C   UNL A   1      32.200  25.806  23.760  1.00  0.00     0.127 A 
BRANCH  12  13
ATOM     13  N   UNL A   1      33.123  25.103  24.481  1.00  0.00    -0.345 N 
ATOM     14  H   UNL A   1      33.802  25.622  24.971  1.00  0.00     0.167 HD
BRANCH  13  15
ATOM     15  C   UNL A   1      33.187  23.699  24.585  1.00  0.00     0.043 A 
ATOM     16  C   UNL A   1      32.001  23.026  24.922  1.00  0.00     0.026 A 
ATOM     17  C   UNL A   1      34.388  22.960  24.445  1.00  0.00    -0.022 A 
ATOM     18  C   UNL A   1      31.963  21.636  25.021  1.00  0.00     0.002 A 
ATOM     19  C   UNL A   1      34.322  21.554  24.537  1.00  0.00     0.006 A 
ATOM     20  C   UNL A   1      33.120  20.899  24.810  1.00  0.00     0.000 A 
BRANCH  17  21
ATOM     21  C   UNL A   1      35.745  23.625  24.232  1.00  0.00     0.015 C 
ATOM     22  C   UNL A   1      36.494  23.820  25.557  1.00  0.00     0.012 C 
ATOM     23  C   UNL A   1      36.620  22.847  23.245  1.00  0.00     0.012 C 
ENDBRANCH  17  21
ENDBRANCH  13  15
ENDBRANCH  12  13
ENDBRANCH   4   7
ENDBRANCH   2   3
ENDBRANCH   1   2
BRANCH   1  24
ATOM     24  C   UNL A   1      33.616  30.420  27.618  1.00  0.00     0.118 C 
BRANCH  24  25
ATOM     25  N   UNL A   1      34.204  31.726  27.285  1.00  0.00    -0.352 N 
ATOM     26  C   UNL A   1      35.401  32.270  27.712  1.00  0.00     0.251 C 
ATOM     27  H   UNL A   1      33.674  32.290  26.676  1.00  0.00     0.163 HD
ATOM     28  O   UNL A   1      35.628  33.467  27.582  1.00  0.00    -0.269 OA
BRANCH  26  29
ATOM     29  C   UNL A   1      36.377  31.376  28.351  1.00  0.00     0.039 A 
ATOM     30  C   UNL A   1      36.427  30.020  28.034  1.00  0.00     0.014 A 
ATOM     31  C   UNL A   1      37.348  31.961  29.156  1.00  0.00     0.014 A 
ATOM     32  C   UNL A   1      37.548  29.288  28.421  1.00  0.00     0.010 A 
ATOM     33  C   UNL A   1      38.525  31.285  29.375  1.00  0.00     0.010 A 
ATOM     34  C   UNL A   1      38.631  29.938  29.042  1.00  0.00    -0.014 A 
BRANCH  34  35
ATOM     35  C   UNL A   1      39.902  29.239  29.237  1.00  0.00     0.031 A 
ATOM     36  C   UNL A   1      40.246  28.899  30.648  1.00  0.00     0.074 A 
ATOM     37  C   UNL A   1      40.693  28.775  28.244  1.00  0.00     0.049 A 
ATOM     38  N   UNL A   1      41.110  29.500  31.397  1.00  0.00    -0.248 NA
ATOM     39  C   UNL A   1      39.466  27.869  31.348  1.00  0.00     0.031 C 
ATOM     40  C   UNL A   1      40.457  28.749  26.796  1.00  0.00     0.029 A 
ATOM     41  N   UNL A   1      41.887  28.131  28.356  1.00  0.00    -0.354 N 
ATOM     42  C   UNL A   1      41.147  28.796  32.596  1.00  0.00     0.074 A 
ATOM     43  C   UNL A   1      40.006  27.913  32.570  1.00  0.00     0.031 C 
ATOM     44  C   UNL A   1      41.343  27.922  26.200  1.00  0.00     0.029 A 
ATOM     45  C   UNL A   1      42.332  27.534  27.185  1.00  0.00     0.049 A 
ATOM     46  H   UNL A   1      42.394  28.092  29.199  1.00  0.00     0.167 HD
ATOM     47  C   UNL A   1      42.236  28.841  33.415  1.00  0.00     0.031 A 
ATOM     48  C   UNL A   1      43.454  26.795  27.021  1.00  0.00     0.031 A 
ATOM     49  C   UNL A   1      43.148  29.893  33.033  1.00  0.00     0.049 A 
ATOM     50  C   UNL A   1      44.391  27.195  28.096  1.00  0.00     0.074 A 
ATOM     51  C   UNL A   1      43.053  31.264  32.897  1.00  0.00     0.029 A 
ATOM     52  N   UNL A   1      44.267  29.524  32.323  1.00  0.00    -0.354 N 
ATOM     53  N   UNL A   1      44.927  28.382  28.164  1.00  0.00    -0.248 NA
ATOM     54  C   UNL A   1      44.400  26.436  29.334  1.00  0.00     0.031 C 
ATOM     55  C   UNL A   1      43.805  31.567  31.722  1.00  0.00     0.029 A 
ATOM     56  C   UNL A   1      44.371  30.379  31.255  1.00  0.00     0.049 A 
ATOM     57  H   UNL A   1      44.880  28.784  32.540  1.00  0.00     0.167 HD
ATOM     58  C   UNL A   1      44.932  28.692  29.515  1.00  0.00     0.074 A 
ATOM     59  C   UNL A   1      44.703  27.415  30.191  1.00  0.00     0.031 C 
ATOM     60  C   UNL A   1      44.853  29.988  29.946  1.00  0.00     0.031 A 
BRANCH  47  61
ATOM     61  C   UNL A   1      42.671  27.707  34.312  1.00  0.00    -0.014 A 
ATOM     62  C   UNL A   1      42.811  27.946  35.695  1.00  0.00     0.010 A 
ATOM     63  C   UNL A   1      43.211  26.504  33.814  1.00  0.00     0.010 A 
ATOM     64  C   UNL A   1      43.525  27.065  36.520  1.00  0.00     0.020 A 
ATOM     65  C   UNL A   1      43.885  25.597  34.636  1.00  0.00     0.020 A 
ATOM     66  C   UNL A   1      44.071  25.903  35.977  1.00  0.00     0.054 A 
BRANCH  66  67
ATOM     67  S   UNL A   1      45.092  24.832  37.019  1.00  0.00     0.124 S 
ATOM     68  O   UNL A   1      44.864  23.522  36.416  1.00  0.00    -0.237 OA
ATOM     69  O   UNL A   1      46.427  25.394  36.827  1.00  0.00    -0.237 OA
ATOM     70  O   UNL A   1      44.529  25.017  38.354  1.00  0.00    -0.744 OA
ENDBRANCH  66  67
ENDBRANCH  47  61
BRANCH  48  71
ATOM     71  C   UNL A   1      43.655  25.596  26.178  1.00  0.00    -0.014 A 
ATOM     72  C   UNL A   1      44.923  25.311  25.639  1.00  0.00     0.010 A 
ATOM     73  C   UNL A   1      42.686  24.573  26.166  1.00  0.00     0.010 A 
ATOM     74  C   UNL A   1      45.242  24.017  25.198  1.00  0.00     0.020 A 
ATOM     75  C   UNL A   1      42.995  23.283  25.720  1.00  0.00     0.020 A 
ATOM     76  C   UNL A   1      44.284  23.003  25.270  1.00  0.00     0.054 A 
BRANCH  76  77
ATOM     77  S   UNL A   1      44.776  21.289  24.920  1.00  0.00     0.124 S 
ATOM     78  O   UNL A   1      44.678  21.230  23.465  1.00  0.00    -0.237 OA
ATOM     79  O   UNL A   1      46.130  21.231  25.466  1.00  0.00    -0.237 OA
ATOM     80  O   UNL A   1      43.785  20.493  25.642  1.00  0.00    -0.744 OA
ENDBRANCH  76  77
ENDBRANCH  48  71
BRANCH  60  81
ATOM     81  C   UNL A   1      45.056  31.096  28.932  1.00  0.00    -0.014 A 
ATOM     82  C   UNL A   1      46.315  31.621  28.579  1.00  0.00     0.010 A 
ATOM     83  C   UNL A   1      43.928  31.545  28.223  1.00  0.00     0.010 A 
ATOM     84  C   UNL A   1      46.433  32.601  27.580  1.00  0.00     0.020 A 
ATOM     85  C   UNL A   1      44.040  32.504  27.213  1.00  0.00     0.020 A 
ATOM     86  C   UNL A   1      45.290  33.041  26.907  1.00  0.00     0.054 A 
BRANCH  86  87
ATOM     87  S   UNL A   1      45.447  34.299  25.608  1.00  0.00     0.124 S 
ATOM     88  O   UNL A   1      44.721  33.698  24.493  1.00  0.00    -0.237 OA
ATOM     89  O   UNL A   1      44.816  35.472  26.211  1.00  0.00    -0.237 OA
ATOM     90  O   UNL A   1      46.892  34.419  25.411  1.00  0.00    -0.744 OA
ENDBRANCH  86  87
ENDBRANCH  60  81
ENDBRANCH  34  35
ENDBRANCH  26  29
ENDBRANCH  24  25
ENDBRANCH   1  24
TORSDOF 16
ENDMDL
