MODEL 1
REMARK VINA RESULT:     -10.9      0.000      0.000
REMARK SMILES CCOc1c(F)cccc1C(=O)NCCCNC(=O)c1ccc(-c2c3nc(c(-c4ccc(S(=O)(=O)[O-])cc4)c4ccc([nH]4)c(-c4ccc(S(=O)(=O)[O-])cc4)c4nc(c(-c5ccc(S(=O)(=O)[O-])cc5)c5ccc2[nH]5)C=C4)C=C3)cc1
REMARK SMILES IDX 15 1 14 2 13 3 11 4 12 5 10 7 4 8 5 9 6 10 7 11 9 12 8 13
REMARK SMILES IDX 3 14 2 15 1 16 16 17 17 18 18 19 19 21 20 22 21 23 79 24
REMARK SMILES IDX 22 25 78 26 23 27 24 28 25 29 72 30 26 31 77 32 71 33 73 34
REMARK SMILES IDX 27 35 76 36 70 37 69 38 28 40 58 41 39 42 57 43 40 44 43 45
REMARK SMILES IDX 56 46 74 47 41 48 42 49 55 51 75 52 44 53 29 54 30 55 38 56
REMARK SMILES IDX 31 57 37 58 32 59 33 60 34 61 35 62 36 63 59 64 60 65 68 66
REMARK SMILES IDX 61 67 67 68 62 69 63 70 64 71 65 72 66 73 45 74 46 75 54 76
REMARK SMILES IDX 47 77 53 78 48 79 49 80 50 81 51 82 52 83
REMARK H PARENT 13 6 17 20 73 39 43 50
REMARK Flexibility Score: inf
ROOT
ATOM      1  C   UNL A   1      37.843  23.906  26.050  1.00  0.00     0.042 C 
ENDROOT
BRANCH   1   2
ATOM      2  C   UNL A   1      37.274  22.569  25.574  1.00  0.00     0.118 C 
BRANCH   2   3
ATOM      3  N   UNL A   1      36.216  22.121  26.454  1.00  0.00    -0.352 N 
ATOM      4  C   UNL A   1      34.910  21.751  26.335  1.00  0.00     0.255 C 
ATOM      5  O   UNL A   1      34.383  21.497  27.429  1.00  0.00    -0.269 OA
ATOM      6  H   UNL A   1      36.522  22.070  27.389  1.00  0.00     0.163 HD
BRANCH   4   7
ATOM      7  C   UNL A   1      34.068  21.574  25.101  1.00  0.00     0.084 A 
ATOM      8  C   UNL A   1      33.494  20.429  24.530  1.00  0.00     0.167 A 
ATOM      9  C   UNL A   1      32.636  20.568  23.418  1.00  0.00     0.165 A 
ATOM     10  F   UNL A   1      31.960  19.509  22.949  1.00  0.00    -0.203 F 
ATOM     11  C   UNL A   1      32.418  21.786  22.786  1.00  0.00     0.043 A 
ATOM     12  C   UNL A   1      33.828  22.807  24.427  1.00  0.00     0.018 A 
ATOM     13  C   UNL A   1      33.034  22.915  23.282  1.00  0.00     0.004 A 
BRANCH   8  14
ATOM     14  O   UNL A   1      33.642  19.170  25.037  1.00  0.00    -0.490 OA
BRANCH  14  15
ATOM     15  C   UNL A   1      34.665  18.399  24.383  1.00  0.00     0.226 C 
ATOM     16  C   UNL A   1      34.161  17.063  23.869  1.00  0.00     0.049 C 
ENDBRANCH  14  15
ENDBRANCH   8  14
ENDBRANCH   4   7
ENDBRANCH   2   3
ENDBRANCH   1   2
BRANCH   1  17
ATOM     17  C   UNL A   1      39.141  23.761  26.842  1.00  0.00     0.118 C 
BRANCH  17  18
ATOM     18  N   UNL A   1      40.289  24.200  26.057  1.00  0.00    -0.352 N 
ATOM     19  C   UNL A   1      40.975  25.388  26.073  1.00  0.00     0.251 C 
ATOM     20  H   UNL A   1      40.627  23.537  25.412  1.00  0.00     0.163 HD
ATOM     21  O   UNL A   1      41.686  25.678  25.114  1.00  0.00    -0.269 OA
BRANCH  19  22
ATOM     22  C   UNL A   1      40.881  26.316  27.225  1.00  0.00     0.039 A 
ATOM     23  C   UNL A   1      39.976  26.030  28.253  1.00  0.00     0.014 A 
ATOM     24  C   UNL A   1      41.609  27.508  27.257  1.00  0.00     0.014 A 
ATOM     25  C   UNL A   1      39.833  26.915  29.326  1.00  0.00     0.010 A 
ATOM     26  C   UNL A   1      41.524  28.350  28.364  1.00  0.00     0.010 A 
ATOM     27  C   UNL A   1      40.623  28.073  29.403  1.00  0.00    -0.014 A 
BRANCH  27  28
ATOM     28  C   UNL A   1      40.508  29.021  30.541  1.00  0.00     0.031 A 
ATOM     29  C   UNL A   1      41.392  28.859  31.751  1.00  0.00     0.074 A 
ATOM     30  C   UNL A   1      39.563  29.982  30.519  1.00  0.00     0.049 A 
ATOM     31  N   UNL A   1      41.374  29.518  32.881  1.00  0.00    -0.248 NA
ATOM     32  C   UNL A   1      42.409  27.797  31.694  1.00  0.00     0.031 C 
ATOM     33  C   UNL A   1      38.620  30.219  29.423  1.00  0.00     0.029 A 
ATOM     34  N   UNL A   1      39.231  30.931  31.453  1.00  0.00    -0.354 N 
ATOM     35  C   UNL A   1      42.351  28.932  33.679  1.00  0.00     0.074 A 
ATOM     36  C   UNL A   1      42.914  27.837  32.918  1.00  0.00     0.031 C 
ATOM     37  C   UNL A   1      37.833  31.261  29.737  1.00  0.00     0.029 A 
ATOM     38  C   UNL A   1      38.184  31.738  31.072  1.00  0.00     0.049 A 
ATOM     39  H   UNL A   1      39.697  31.026  32.314  1.00  0.00     0.167 HD
ATOM     40  C   UNL A   1      42.757  29.282  34.923  1.00  0.00     0.031 A 
ATOM     41  C   UNL A   1      37.570  32.744  31.724  1.00  0.00     0.031 A 
ATOM     42  C   UNL A   1      42.213  30.388  35.665  1.00  0.00     0.049 A 
ATOM     43  C   UNL A   1      38.046  33.125  33.098  1.00  0.00     0.074 A 
ATOM     44  C   UNL A   1      42.598  30.865  36.906  1.00  0.00     0.029 A 
ATOM     45  N   UNL A   1      41.173  31.196  35.230  1.00  0.00    -0.354 N 
ATOM     46  N   UNL A   1      39.007  32.590  33.812  1.00  0.00    -0.248 NA
ATOM     47  C   UNL A   1      37.362  34.250  33.749  1.00  0.00     0.031 C 
ATOM     48  C   UNL A   1      41.761  31.936  37.240  1.00  0.00     0.029 A 
ATOM     49  C   UNL A   1      40.890  32.157  36.185  1.00  0.00     0.049 A 
ATOM     50  H   UNL A   1      40.705  31.100  34.369  1.00  0.00     0.167 HD
ATOM     51  C   UNL A   1      39.058  33.328  34.989  1.00  0.00     0.074 A 
ATOM     52  C   UNL A   1      38.043  34.356  34.882  1.00  0.00     0.031 C 
ATOM     53  C   UNL A   1      39.873  33.171  36.062  1.00  0.00     0.031 A 
BRANCH  40  54
ATOM     54  C   UNL A   1      43.841  28.452  35.560  1.00  0.00    -0.014 A 
ATOM     55  C   UNL A   1      45.200  28.768  35.379  1.00  0.00     0.010 A 
ATOM     56  C   UNL A   1      43.498  27.358  36.376  1.00  0.00     0.010 A 
ATOM     57  C   UNL A   1      46.195  27.977  35.958  1.00  0.00     0.020 A 
ATOM     58  C   UNL A   1      44.490  26.580  36.981  1.00  0.00     0.020 A 
ATOM     59  C   UNL A   1      45.834  26.884  36.750  1.00  0.00     0.054 A 
BRANCH  59  60
ATOM     60  S   UNL A   1      47.146  25.879  37.500  1.00  0.00     0.124 S 
ATOM     61  O   UNL A   1      47.980  26.899  38.131  1.00  0.00    -0.237 OA
ATOM     62  O   UNL A   1      46.408  25.017  38.418  1.00  0.00    -0.237 OA
ATOM     63  O   UNL A   1      47.754  25.196  36.360  1.00  0.00    -0.744 OA
ENDBRANCH  59  60
ENDBRANCH  40  54
BRANCH  41  64
ATOM     64  C   UNL A   1      36.448  33.472  31.072  1.00  0.00    -0.014 A 
ATOM     65  C   UNL A   1      36.653  34.156  29.861  1.00  0.00     0.010 A 
ATOM     66  C   UNL A   1      35.164  33.467  31.646  1.00  0.00     0.010 A 
ATOM     67  C   UNL A   1      35.598  34.831  29.241  1.00  0.00     0.020 A 
ATOM     68  C   UNL A   1      34.100  34.119  31.016  1.00  0.00     0.020 A 
ATOM     69  C   UNL A   1      34.327  34.806  29.821  1.00  0.00     0.054 A 
BRANCH  69  70
ATOM     70  S   UNL A   1      32.958  35.638  28.968  1.00  0.00     0.124 S 
ATOM     71  O   UNL A   1      32.363  34.542  28.210  1.00  0.00    -0.237 OA
ATOM     72  O   UNL A   1      32.157  36.148  30.079  1.00  0.00    -0.237 OA
ATOM     73  O   UNL A   1      33.626  36.664  28.171  1.00  0.00    -0.744 OA
ENDBRANCH  69  70
ENDBRANCH  41  64
BRANCH  53  74
ATOM     74  C   UNL A   1      39.718  34.148  37.194  1.00  0.00    -0.014 A 
ATOM     75  C   UNL A   1      38.983  33.815  38.346  1.00  0.00     0.010 A 
ATOM     76  C   UNL A   1      40.363  35.396  37.127  1.00  0.00     0.010 A 
ATOM     77  C   UNL A   1      38.871  34.727  39.398  1.00  0.00     0.020 A 
ATOM     78  C   UNL A   1      40.275  36.300  38.188  1.00  0.00     0.020 A 
ATOM     79  C   UNL A   1      39.517  35.964  39.312  1.00  0.00     0.054 A 
BRANCH  79  80
ATOM     80  S   UNL A   1      39.395  37.113  40.711  1.00  0.00     0.124 S 
ATOM     81  O   UNL A   1      38.386  38.059  40.239  1.00  0.00    -0.237 OA
ATOM     82  O   UNL A   1      38.976  36.243  41.806  1.00  0.00    -0.237 OA
ATOM     83  O   UNL A   1      40.747  37.653  40.834  1.00  0.00    -0.744 OA
ENDBRANCH  79  80
ENDBRANCH  53  74
ENDBRANCH  27  28
ENDBRANCH  19  22
ENDBRANCH  17  18
ENDBRANCH   1  17
TORSDOF 15
ENDMDL
MODEL 2
REMARK VINA RESULT:     -10.7      4.119      5.919
REMARK SMILES CCOc1c(F)cccc1C(=O)NCCCNC(=O)c1ccc(-c2c3nc(c(-c4ccc(S(=O)(=O)[O-])cc4)c4ccc([nH]4)c(-c4ccc(S(=O)(=O)[O-])cc4)c4nc(c(-c5ccc(S(=O)(=O)[O-])cc5)c5ccc2[nH]5)C=C4)C=C3)cc1
REMARK SMILES IDX 15 1 14 2 13 3 11 4 12 5 10 7 4 8 5 9 6 10 7 11 9 12 8 13
REMARK SMILES IDX 3 14 2 15 1 16 16 17 17 18 18 19 19 21 20 22 21 23 79 24
REMARK SMILES IDX 22 25 78 26 23 27 24 28 25 29 72 30 26 31 77 32 71 33 73 34
REMARK SMILES IDX 27 35 76 36 70 37 69 38 28 40 58 41 39 42 57 43 40 44 43 45
REMARK SMILES IDX 56 46 74 47 41 48 42 49 55 51 75 52 44 53 29 54 30 55 38 56
REMARK SMILES IDX 31 57 37 58 32 59 33 60 34 61 35 62 36 63 59 64 60 65 68 66
REMARK SMILES IDX 61 67 67 68 62 69 63 70 64 71 65 72 66 73 45 74 46 75 54 76
REMARK SMILES IDX 47 77 53 78 48 79 49 80 50 81 51 82 52 83
REMARK H PARENT 13 6 17 20 73 39 43 50
REMARK Flexibility Score: inf
ROOT
ATOM      1  C   UNL A   1      40.779  20.560  26.956  1.00  0.00     0.042 C 
ENDROOT
BRANCH   1   2
ATOM      2  C   UNL A   1      42.175  20.180  27.450  1.00  0.00     0.118 C 
BRANCH   2   3
ATOM      3  N   UNL A   1      42.698  21.196  28.337  1.00  0.00    -0.352 N 
ATOM      4  C   UNL A   1      43.411  22.352  28.218  1.00  0.00     0.255 C 
ATOM      5  O   UNL A   1      43.680  22.862  29.317  1.00  0.00    -0.269 OA
ATOM      6  H   UNL A   1      42.480  21.001  29.277  1.00  0.00     0.163 HD
BRANCH   4   7
ATOM      7  C   UNL A   1      43.859  23.085  26.984  1.00  0.00     0.084 A 
ATOM      8  C   UNL A   1      44.343  22.615  25.754  1.00  0.00     0.167 A 
ATOM      9  C   UNL A   1      44.578  23.533  24.708  1.00  0.00     0.165 A 
ATOM     10  F   UNL A   1      44.896  23.094  23.481  1.00  0.00    -0.203 F 
ATOM     11  C   UNL A   1      44.459  24.907  24.875  1.00  0.00     0.043 A 
ATOM     12  C   UNL A   1      43.752  24.499  27.124  1.00  0.00     0.018 A 
ATOM     13  C   UNL A   1      44.060  25.398  26.100  1.00  0.00     0.004 A 
BRANCH   8  14
ATOM     14  O   UNL A   1      44.525  21.293  25.462  1.00  0.00    -0.490 OA
BRANCH  14  15
ATOM     15  C   UNL A   1      45.905  20.902  25.388  1.00  0.00     0.226 C 
ATOM     16  C   UNL A   1      46.087  19.406  25.200  1.00  0.00     0.049 C 
ENDBRANCH  14  15
ENDBRANCH   8  14
ENDBRANCH   4   7
ENDBRANCH   2   3
ENDBRANCH   1   2
BRANCH   1  17
ATOM     17  C   UNL A   1      40.762  21.846  26.131  1.00  0.00     0.118 C 
BRANCH  17  18
ATOM     18  N   UNL A   1      39.409  22.178  25.701  1.00  0.00    -0.352 N 
ATOM     19  C   UNL A   1      38.564  23.176  26.116  1.00  0.00     0.251 C 
ATOM     20  H   UNL A   1      39.043  21.593  24.999  1.00  0.00     0.163 HD
ATOM     21  O   UNL A   1      37.363  23.078  25.874  1.00  0.00    -0.269 OA
BRANCH  19  22
ATOM     22  C   UNL A   1      39.073  24.366  26.838  1.00  0.00     0.039 A 
ATOM     23  C   UNL A   1      38.690  24.567  28.169  1.00  0.00     0.014 A 
ATOM     24  C   UNL A   1      39.849  25.329  26.190  1.00  0.00     0.014 A 
ATOM     25  C   UNL A   1      39.118  25.707  28.856  1.00  0.00     0.010 A 
ATOM     26  C   UNL A   1      40.340  26.425  26.898  1.00  0.00     0.010 A 
ATOM     27  C   UNL A   1      39.966  26.636  28.233  1.00  0.00    -0.014 A 
BRANCH  27  28
ATOM     28  C   UNL A   1      40.454  27.846  28.944  1.00  0.00     0.031 A 
ATOM     29  C   UNL A   1      41.822  27.850  29.578  1.00  0.00     0.074 A 
ATOM     30  C   UNL A   1      39.642  28.913  29.083  1.00  0.00     0.049 A 
ATOM     31  N   UNL A   1      42.384  28.766  30.324  1.00  0.00    -0.248 NA
ATOM     32  C   UNL A   1      42.654  26.654  29.370  1.00  0.00     0.031 C 
ATOM     33  C   UNL A   1      38.282  29.020  28.550  1.00  0.00     0.029 A 
ATOM     34  N   UNL A   1      39.839  30.109  29.728  1.00  0.00    -0.354 N 
ATOM     35  C   UNL A   1      43.618  28.247  30.699  1.00  0.00     0.074 A 
ATOM     36  C   UNL A   1      43.704  26.918  30.133  1.00  0.00     0.031 C 
ATOM     37  C   UNL A   1      37.777  30.222  28.868  1.00  0.00     0.029 A 
ATOM     38  C   UNL A   1      38.757  30.955  29.664  1.00  0.00     0.049 A 
ATOM     39  H   UNL A   1      40.676  30.339  30.193  1.00  0.00     0.167 HD
ATOM     40  C   UNL A   1      44.598  28.826  31.432  1.00  0.00     0.031 A 
ATOM     41  C   UNL A   1      38.571  32.180  30.192  1.00  0.00     0.031 A 
ATOM     42  C   UNL A   1      44.519  30.158  31.970  1.00  0.00     0.049 A 
ATOM     43  C   UNL A   1      39.677  32.811  30.990  1.00  0.00     0.074 A 
ATOM     44  C   UNL A   1      45.481  30.862  32.673  1.00  0.00     0.029 A 
ATOM     45  N   UNL A   1      43.415  30.991  31.859  1.00  0.00    -0.354 N 
ATOM     46  N   UNL A   1      40.857  32.322  31.289  1.00  0.00    -0.248 NA
ATOM     47  C   UNL A   1      39.431  34.162  31.513  1.00  0.00     0.031 C 
ATOM     48  C   UNL A   1      44.944  32.106  33.023  1.00  0.00     0.029 A 
ATOM     49  C   UNL A   1      43.666  32.195  32.494  1.00  0.00     0.049 A 
ATOM     50  H   UNL A   1      42.578  30.760  31.396  1.00  0.00     0.167 HD
ATOM     51  C   UNL A   1      41.503  33.314  32.017  1.00  0.00     0.074 A 
ATOM     52  C   UNL A   1      40.590  34.435  32.099  1.00  0.00     0.031 C 
ATOM     53  C   UNL A   1      42.742  33.299  32.568  1.00  0.00     0.031 A 
BRANCH  40  54
ATOM     54  C   UNL A   1      45.840  28.016  31.698  1.00  0.00    -0.014 A 
ATOM     55  C   UNL A   1      46.972  28.127  30.868  1.00  0.00     0.010 A 
ATOM     56  C   UNL A   1      45.890  27.154  32.808  1.00  0.00     0.010 A 
ATOM     57  C   UNL A   1      48.109  27.353  31.113  1.00  0.00     0.020 A 
ATOM     58  C   UNL A   1      47.037  26.398  33.074  1.00  0.00     0.020 A 
ATOM     59  C   UNL A   1      48.132  26.489  32.212  1.00  0.00     0.054 A 
BRANCH  59  60
ATOM     60  S   UNL A   1      49.626  25.504  32.514  1.00  0.00     0.124 S 
ATOM     61  O   UNL A   1      49.900  24.961  31.185  1.00  0.00    -0.237 OA
ATOM     62  O   UNL A   1      50.578  26.502  32.993  1.00  0.00    -0.237 OA
ATOM     63  O   UNL A   1      49.200  24.524  33.510  1.00  0.00    -0.744 OA
ENDBRANCH  59  60
ENDBRANCH  40  54
BRANCH  41  64
ATOM     64  C   UNL A   1      37.286  32.896  29.963  1.00  0.00    -0.014 A 
ATOM     65  C   UNL A   1      37.063  33.588  28.760  1.00  0.00     0.010 A 
ATOM     66  C   UNL A   1      36.271  32.871  30.936  1.00  0.00     0.010 A 
ATOM     67  C   UNL A   1      35.854  34.252  28.538  1.00  0.00     0.020 A 
ATOM     68  C   UNL A   1      35.050  33.512  30.708  1.00  0.00     0.020 A 
ATOM     69  C   UNL A   1      34.853  34.208  29.512  1.00  0.00     0.054 A 
BRANCH  69  70
ATOM     70  S   UNL A   1      33.267  35.025  29.178  1.00  0.00     0.124 S 
ATOM     71  O   UNL A   1      33.695  36.347  28.733  1.00  0.00    -0.237 OA
ATOM     72  O   UNL A   1      32.681  34.169  28.149  1.00  0.00    -0.237 OA
ATOM     73  O   UNL A   1      32.586  34.987  30.471  1.00  0.00    -0.744 OA
ENDBRANCH  69  70
ENDBRANCH  41  64
BRANCH  53  74
ATOM     74  C   UNL A   1      43.193  34.542  33.284  1.00  0.00    -0.014 A 
ATOM     75  C   UNL A   1      43.732  35.633  32.579  1.00  0.00     0.010 A 
ATOM     76  C   UNL A   1      43.025  34.639  34.678  1.00  0.00     0.010 A 
ATOM     77  C   UNL A   1      44.122  36.788  33.260  1.00  0.00     0.020 A 
ATOM     78  C   UNL A   1      43.391  35.803  35.358  1.00  0.00     0.020 A 
ATOM     79  C   UNL A   1      43.950  36.866  34.645  1.00  0.00     0.054 A 
BRANCH  79  80
ATOM     80  S   UNL A   1      44.423  38.394  35.501  1.00  0.00     0.124 S 
ATOM     81  O   UNL A   1      43.833  38.197  36.822  1.00  0.00    -0.237 OA
ATOM     82  O   UNL A   1      45.883  38.352  35.452  1.00  0.00    -0.237 OA
ATOM     83  O   UNL A   1      43.809  39.446  34.693  1.00  0.00    -0.744 OA
ENDBRANCH  79  80
ENDBRANCH  53  74
ENDBRANCH  27  28
ENDBRANCH  19  22
ENDBRANCH  17  18
ENDBRANCH   1  17
TORSDOF 15
ENDMDL
MODEL 3
REMARK VINA RESULT:     -10.7      3.931      5.084
REMARK SMILES CCOc1c(F)cccc1C(=O)NCCCNC(=O)c1ccc(-c2c3nc(c(-c4ccc(S(=O)(=O)[O-])cc4)c4ccc([nH]4)c(-c4ccc(S(=O)(=O)[O-])cc4)c4nc(c(-c5ccc(S(=O)(=O)[O-])cc5)c5ccc2[nH]5)C=C4)C=C3)cc1
REMARK SMILES IDX 15 1 14 2 13 3 11 4 12 5 10 7 4 8 5 9 6 10 7 11 9 12 8 13
REMARK SMILES IDX 3 14 2 15 1 16 16 17 17 18 18 19 19 21 20 22 21 23 79 24
REMARK SMILES IDX 22 25 78 26 23 27 24 28 25 29 72 30 26 31 77 32 71 33 73 34
REMARK SMILES IDX 27 35 76 36 70 37 69 38 28 40 58 41 39 42 57 43 40 44 43 45
REMARK SMILES IDX 56 46 74 47 41 48 42 49 55 51 75 52 44 53 29 54 30 55 38 56
REMARK SMILES IDX 31 57 37 58 32 59 33 60 34 61 35 62 36 63 59 64 60 65 68 66
REMARK SMILES IDX 61 67 67 68 62 69 63 70 64 71 65 72 66 73 45 74 46 75 54 76
REMARK SMILES IDX 47 77 53 78 48 79 49 80 50 81 51 82 52 83
REMARK H PARENT 13 6 17 20 73 39 43 50
REMARK Flexibility Score: inf
ROOT
ATOM      1  C   UNL A   1      35.335  23.738  25.982  1.00  0.00     0.042 C 
ENDROOT
BRANCH   1   2
ATOM      2  C   UNL A   1      34.224  24.626  25.420  1.00  0.00     0.118 C 
BRANCH   2   3
ATOM      3  N   UNL A   1      32.998  24.443  26.166  1.00  0.00    -0.352 N 
ATOM      4  C   UNL A   1      31.762  25.016  26.209  1.00  0.00     0.255 C 
ATOM      5  O   UNL A   1      31.040  24.531  27.094  1.00  0.00    -0.269 OA
ATOM      6  H   UNL A   1      33.077  23.708  26.816  1.00  0.00     0.163 HD
BRANCH   4   7
ATOM      7  C   UNL A   1      31.164  26.084  25.333  1.00  0.00     0.084 A 
ATOM      8  C   UNL A   1      31.680  27.311  24.890  1.00  0.00     0.167 A 
ATOM      9  C   UNL A   1      30.940  28.075  23.962  1.00  0.00     0.165 A 
ATOM     10  F   UNL A   1      31.477  29.174  23.411  1.00  0.00    -0.203 F 
ATOM     11  C   UNL A   1      29.662  27.721  23.548  1.00  0.00     0.043 A 
ATOM     12  C   UNL A   1      29.850  25.752  24.893  1.00  0.00     0.018 A 
ATOM     13  C   UNL A   1      29.102  26.557  24.031  1.00  0.00     0.004 A 
BRANCH   8  14
ATOM     14  O   UNL A   1      32.912  27.788  25.234  1.00  0.00    -0.490 OA
BRANCH  14  15
ATOM     15  C   UNL A   1      32.924  28.524  26.468  1.00  0.00     0.226 C 
ATOM     16  C   UNL A   1      34.326  28.802  26.978  1.00  0.00     0.049 C 
ENDBRANCH  14  15
ENDBRANCH   8  14
ENDBRANCH   4   7
ENDBRANCH   2   3
ENDBRANCH   1   2
BRANCH   1  17
ATOM     17  C   UNL A   1      36.645  23.848  25.204  1.00  0.00     0.118 C 
BRANCH  17  18
ATOM     18  N   UNL A   1      37.597  22.828  25.626  1.00  0.00    -0.352 N 
ATOM     19  C   UNL A   1      38.838  22.951  26.199  1.00  0.00     0.251 C 
ATOM     20  H   UNL A   1      37.301  21.900  25.478  1.00  0.00     0.163 HD
ATOM     21  O   UNL A   1      39.606  21.993  26.167  1.00  0.00    -0.269 OA
BRANCH  19  22
ATOM     22  C   UNL A   1      39.260  24.210  26.858  1.00  0.00     0.039 A 
ATOM     23  C   UNL A   1      40.057  25.114  26.146  1.00  0.00     0.014 A 
ATOM     24  C   UNL A   1      38.954  24.465  28.196  1.00  0.00     0.014 A 
ATOM     25  C   UNL A   1      40.509  26.284  26.762  1.00  0.00     0.010 A 
ATOM     26  C   UNL A   1      39.338  25.668  28.785  1.00  0.00     0.010 A 
ATOM     27  C   UNL A   1      40.134  26.584  28.081  1.00  0.00    -0.014 A 
BRANCH  27  28
ATOM     28  C   UNL A   1      40.581  27.830  28.755  1.00  0.00     0.031 A 
ATOM     29  C   UNL A   1      41.955  27.905  29.371  1.00  0.00     0.074 A 
ATOM     30  C   UNL A   1      39.729  28.867  28.878  1.00  0.00     0.049 A 
ATOM     31  N   UNL A   1      42.489  28.862  30.086  1.00  0.00    -0.248 NA
ATOM     32  C   UNL A   1      42.833  26.738  29.182  1.00  0.00     0.031 C 
ATOM     33  C   UNL A   1      38.360  28.906  28.360  1.00  0.00     0.029 A 
ATOM     34  N   UNL A   1      39.885  30.086  29.490  1.00  0.00    -0.354 N 
ATOM     35  C   UNL A   1      43.747  28.401  30.458  1.00  0.00     0.074 A 
ATOM     36  C   UNL A   1      43.880  27.063  29.924  1.00  0.00     0.031 C 
ATOM     37  C   UNL A   1      37.810  30.095  28.654  1.00  0.00     0.029 A 
ATOM     38  C   UNL A   1      38.770  30.886  29.419  1.00  0.00     0.049 A 
ATOM     39  H   UNL A   1      40.718  30.361  29.938  1.00  0.00     0.167 HD
ATOM     40  C   UNL A   1      44.712  29.038  31.164  1.00  0.00     0.031 A 
ATOM     41  C   UNL A   1      38.541  32.116  29.918  1.00  0.00     0.031 A 
ATOM     42  C   UNL A   1      44.586  30.379  31.669  1.00  0.00     0.049 A 
ATOM     43  C   UNL A   1      39.630  32.811  30.685  1.00  0.00     0.074 A 
ATOM     44  C   UNL A   1      45.528  31.139  32.342  1.00  0.00     0.029 A 
ATOM     45  N   UNL A   1      43.449  31.165  31.551  1.00  0.00    -0.354 N 
ATOM     46  N   UNL A   1      40.832  32.377  30.981  1.00  0.00    -0.248 NA
ATOM     47  C   UNL A   1      39.337  34.164  31.178  1.00  0.00     0.031 C 
ATOM     48  C   UNL A   1      44.945  32.369  32.667  1.00  0.00     0.029 A 
ATOM     49  C   UNL A   1      43.658  32.393  32.153  1.00  0.00     0.049 A 
ATOM     50  H   UNL A   1      42.616  30.889  31.105  1.00  0.00     0.167 HD
ATOM     51  C   UNL A   1      41.447  33.412  31.676  1.00  0.00     0.074 A 
ATOM     52  C   UNL A   1      40.490  34.498  31.741  1.00  0.00     0.031 C 
ATOM     53  C   UNL A   1      42.692  33.461  32.210  1.00  0.00     0.031 A 
BRANCH  40  54
ATOM     54  C   UNL A   1      45.989  28.285  31.433  1.00  0.00    -0.014 A 
ATOM     55  C   UNL A   1      46.136  27.491  32.585  1.00  0.00     0.010 A 
ATOM     56  C   UNL A   1      47.048  28.349  30.509  1.00  0.00     0.010 A 
ATOM     57  C   UNL A   1      47.335  26.817  32.833  1.00  0.00     0.020 A 
ATOM     58  C   UNL A   1      48.239  27.653  30.738  1.00  0.00     0.020 A 
ATOM     59  C   UNL A   1      48.381  26.907  31.911  1.00  0.00     0.054 A 
BRANCH  59  60
ATOM     60  S   UNL A   1      49.923  26.013  32.252  1.00  0.00     0.124 S 
ATOM     61  O   UNL A   1      50.450  25.802  30.906  1.00  0.00    -0.237 OA
ATOM     62  O   UNL A   1      50.669  26.959  33.077  1.00  0.00    -0.237 OA
ATOM     63  O   UNL A   1      49.477  24.805  32.943  1.00  0.00    -0.744 OA
ENDBRANCH  59  60
ENDBRANCH  40  54
BRANCH  41  64
ATOM     64  C   UNL A   1      37.226  32.775  29.688  1.00  0.00    -0.014 A 
ATOM     65  C   UNL A   1      36.349  33.004  30.762  1.00  0.00     0.010 A 
ATOM     66  C   UNL A   1      36.853  33.196  28.398  1.00  0.00     0.010 A 
ATOM     67  C   UNL A   1      35.118  33.632  30.551  1.00  0.00     0.020 A 
ATOM     68  C   UNL A   1      35.635  33.847  28.187  1.00  0.00     0.020 A 
ATOM     69  C   UNL A   1      34.770  34.052  29.265  1.00  0.00     0.054 A 
BRANCH  69  70
ATOM     70  S   UNL A   1      33.194  34.920  29.022  1.00  0.00     0.124 S 
ATOM     71  O   UNL A   1      33.640  36.245  28.603  1.00  0.00    -0.237 OA
ATOM     72  O   UNL A   1      32.545  34.114  27.991  1.00  0.00    -0.237 OA
ATOM     73  O   UNL A   1      32.564  34.856  30.339  1.00  0.00    -0.744 OA
ENDBRANCH  69  70
ENDBRANCH  41  64
BRANCH  53  74
ATOM     74  C   UNL A   1      43.101  34.739  32.890  1.00  0.00    -0.014 A 
ATOM     75  C   UNL A   1      43.037  34.870  34.288  1.00  0.00     0.010 A 
ATOM     76  C   UNL A   1      43.607  35.803  32.121  1.00  0.00     0.010 A 
ATOM     77  C   UNL A   1      43.445  36.057  34.904  1.00  0.00     0.020 A 
ATOM     78  C   UNL A   1      44.040  36.981  32.735  1.00  0.00     0.020 A 
ATOM     79  C   UNL A   1      43.943  37.105  34.123  1.00  0.00     0.054 A 
BRANCH  79  80
ATOM     80  S   UNL A   1      44.508  38.618  34.948  1.00  0.00     0.124 S 
ATOM     81  O   UNL A   1      43.947  38.460  36.288  1.00  0.00    -0.237 OA
ATOM     82  O   UNL A   1      45.962  38.509  34.859  1.00  0.00    -0.237 OA
ATOM     83  O   UNL A   1      43.920  39.689  34.147  1.00  0.00    -0.744 OA
ENDBRANCH  79  80
ENDBRANCH  53  74
ENDBRANCH  27  28
ENDBRANCH  19  22
ENDBRANCH  17  18
ENDBRANCH   1  17
TORSDOF 15
ENDMDL
