MODEL 1
REMARK VINA RESULT:     -11.8      0.000      0.000
REMARK SMILES O=C(C[C@@H](C(=O)N(c1ccccc1)c1ccccc1)[NH+]1CCOCC1)NCCCNC(=O)c1ccc(-c2c3nc(c(-c4ccc(S(=O)(=O)[O-])cc4)c4ccc([nH]4)c(-c4ccc(S(=O)(=O)[O-])cc4)c4nc(c(-c5ccc(S(=O)(=O)[O-])cc5)c5ccc2[nH]5)C=C4)C=C3)cc1
REMARK SMILES IDX 28 1 27 2 26 3 1 4 2 5 3 7 4 8 5 9 6 10 7 11 8 12 9 13 13 14
REMARK SMILES IDX 10 15 12 16 11 17 14 18 15 19 19 20 16 21 18 22 17 23 20 24
REMARK SMILES IDX 21 25 25 26 22 28 24 29 23 30 29 31 30 32 31 33 32 35 33 36
REMARK SMILES IDX 34 37 92 38 35 39 91 40 36 41 37 42 38 43 85 44 39 45 90 46
REMARK SMILES IDX 84 47 86 48 40 49 89 50 83 51 82 52 41 54 71 55 52 56 70 57
REMARK SMILES IDX 53 58 56 59 69 60 87 61 54 62 55 63 68 65 88 66 57 67 42 68
REMARK SMILES IDX 43 69 51 70 44 71 50 72 45 73 46 74 47 75 48 76 49 77 72 78
REMARK SMILES IDX 73 79 81 80 74 81 80 82 75 83 76 84 77 85 78 86 79 87 58 88
REMARK SMILES IDX 59 89 67 90 60 91 66 92 61 93 62 94 63 95 64 96 65 97
REMARK H PARENT 26 6 20 27 30 34 86 53 56 64
REMARK Flexibility Score: inf
ROOT
ATOM      1  C   UNL A   1      32.639  28.236  27.621  1.00  0.00     0.042 C 
ENDROOT
BRANCH   1   2
ATOM      2  C   UNL A   1      31.360  27.727  26.970  1.00  0.00     0.117 C 
BRANCH   2   3
ATOM      3  N   UNL A   1      31.519  26.632  26.020  1.00  0.00    -0.356 N 
ATOM      4  O   UNL A   1      29.520  25.625  26.554  1.00  0.00    -0.275 OA
ATOM      5  C   UNL A   1      30.501  25.717  25.819  1.00  0.00     0.226 C 
ATOM      6  H   UNL A   1      32.360  26.541  25.518  1.00  0.00     0.163 HD
BRANCH   5   7
ATOM      7  C   UNL A   1      30.587  24.901  24.541  1.00  0.00     0.175 C 
BRANCH   7   8
ATOM      8  C   UNL A   1      32.040  24.421  24.306  1.00  0.00     0.284 C 
BRANCH   8   9
ATOM      9  C   UNL A   1      32.055  22.911  24.587  1.00  0.00     0.290 C 
ATOM     10  O   UNL A   1      30.965  22.411  24.934  1.00  0.00    -0.267 OA
ATOM     11  N   UNL A   1      33.197  22.097  24.502  1.00  0.00    -0.276 N 
BRANCH  11  12
ATOM     12  C   UNL A   1      34.594  22.399  24.815  1.00  0.00     0.049 A 
ATOM     13  C   UNL A   1      34.909  23.423  25.742  1.00  0.00     0.027 A 
ATOM     14  C   UNL A   1      35.706  21.846  24.164  1.00  0.00     0.027 A 
ATOM     15  C   UNL A   1      36.209  23.933  25.906  1.00  0.00     0.002 A 
ATOM     16  C   UNL A   1      37.012  22.345  24.326  1.00  0.00     0.002 A 
ATOM     17  C   UNL A   1      37.261  23.406  25.177  1.00  0.00     0.000 A 
ENDBRANCH  11  12
BRANCH  11  18
ATOM     18  C   UNL A   1      32.874  20.695  24.488  1.00  0.00     0.049 A 
ATOM     19  C   UNL A   1      32.511  20.078  23.284  1.00  0.00     0.027 A 
ATOM     20  C   UNL A   1      33.061  19.916  25.633  1.00  0.00     0.027 A 
ATOM     21  C   UNL A   1      32.316  18.701  23.220  1.00  0.00     0.002 A 
ATOM     22  C   UNL A   1      32.878  18.531  25.564  1.00  0.00     0.002 A 
ATOM     23  C   UNL A   1      32.503  17.927  24.361  1.00  0.00     0.000 A 
ENDBRANCH  11  18
ENDBRANCH   8   9
BRANCH   8  24
ATOM     24  N   UNL A   1      32.458  24.821  22.916  1.00  0.00    -0.320 N 
ATOM     25  C   UNL A   1      33.744  25.528  22.743  1.00  0.00     0.291 C 
ATOM     26  C   UNL A   1      31.414  25.559  22.176  1.00  0.00     0.291 C 
ATOM     27  H   UNL A   1      32.607  23.893  22.520  1.00  0.00     0.348 HD
ATOM     28  C   UNL A   1      33.683  27.053  22.983  1.00  0.00     0.221 C 
ATOM     29  C   UNL A   1      31.370  27.055  22.508  1.00  0.00     0.221 C 
ATOM     30  O   UNL A   1      32.630  27.673  22.228  1.00  0.00    -0.370 OA
ENDBRANCH   8  24
ENDBRANCH   7   8
ENDBRANCH   5   7
ENDBRANCH   2   3
ENDBRANCH   1   2
BRANCH   1  31
ATOM     31  C   UNL A   1      33.322  29.388  26.892  1.00  0.00     0.118 C 
BRANCH  31  32
ATOM     32  N   UNL A   1      33.437  30.625  27.658  1.00  0.00    -0.352 N 
ATOM     33  C   UNL A   1      34.511  31.110  28.374  1.00  0.00     0.251 C 
ATOM     34  H   UNL A   1      32.633  31.194  27.663  1.00  0.00     0.163 HD
ATOM     35  O   UNL A   1      34.413  32.191  28.952  1.00  0.00    -0.269 OA
BRANCH  33  36
ATOM     36  C   UNL A   1      35.753  30.309  28.514  1.00  0.00     0.039 A 
ATOM     37  C   UNL A   1      36.628  30.249  27.423  1.00  0.00     0.014 A 
ATOM     38  C   UNL A   1      36.104  29.684  29.711  1.00  0.00     0.014 A 
ATOM     39  C   UNL A   1      37.903  29.698  27.582  1.00  0.00     0.010 A 
ATOM     40  C   UNL A   1      37.404  29.220  29.897  1.00  0.00     0.010 A 
ATOM     41  C   UNL A   1      38.329  29.259  28.845  1.00  0.00    -0.014 A 
BRANCH  41  42
ATOM     42  C   UNL A   1      39.757  28.941  29.108  1.00  0.00     0.031 A 
ATOM     43  C   UNL A   1      40.690  29.974  29.674  1.00  0.00     0.074 A 
ATOM     44  C   UNL A   1      40.230  27.734  28.735  1.00  0.00     0.049 A 
ATOM     45  N   UNL A   1      41.969  29.874  29.928  1.00  0.00    -0.248 NA
ATOM     46  C   UNL A   1      40.122  31.300  29.965  1.00  0.00     0.031 C 
ATOM     47  C   UNL A   1      39.443  26.674  28.095  1.00  0.00     0.029 A 
ATOM     48  N   UNL A   1      41.488  27.191  28.832  1.00  0.00    -0.354 N 
ATOM     49  C   UNL A   1      42.363  31.123  30.393  1.00  0.00     0.074 A 
ATOM     50  C   UNL A   1      41.197  31.979  30.339  1.00  0.00     0.031 C 
ATOM     51  C   UNL A   1      40.223  25.601  27.895  1.00  0.00     0.029 A 
ATOM     52  C   UNL A   1      41.573  25.903  28.357  1.00  0.00     0.049 A 
ATOM     53  H   UNL A   1      42.256  27.679  29.207  1.00  0.00     0.167 HD
ATOM     54  C   UNL A   1      43.579  31.515  30.844  1.00  0.00     0.031 A 
ATOM     55  C   UNL A   1      42.617  25.054  28.302  1.00  0.00     0.031 A 
ATOM     56  C   UNL A   1      44.732  30.657  30.903  1.00  0.00     0.049 A 
ATOM     57  C   UNL A   1      43.946  25.501  28.843  1.00  0.00     0.074 A 
ATOM     58  C   UNL A   1      45.993  30.940  31.400  1.00  0.00     0.029 A 
ATOM     59  N   UNL A   1      44.766  29.346  30.453  1.00  0.00    -0.354 N 
ATOM     60  N   UNL A   1      44.275  26.661  29.358  1.00  0.00    -0.248 NA
ATOM     61  C   UNL A   1      45.038  24.519  28.811  1.00  0.00     0.031 C 
ATOM     62  C   UNL A   1      46.800  29.812  31.215  1.00  0.00     0.029 A 
ATOM     63  C   UNL A   1      46.028  28.810  30.648  1.00  0.00     0.049 A 
ATOM     64  H   UNL A   1      44.004  28.866  30.053  1.00  0.00     0.167 HD
ATOM     65  C   UNL A   1      45.606  26.541  29.736  1.00  0.00     0.074 A 
ATOM     66  C   UNL A   1      46.016  25.190  29.403  1.00  0.00     0.031 C 
ATOM     67  C   UNL A   1      46.416  27.464  30.311  1.00  0.00     0.031 A 
BRANCH  54  68
ATOM     68  C   UNL A   1      43.715  32.939  31.316  1.00  0.00    -0.014 A 
ATOM     69  C   UNL A   1      43.487  33.279  32.663  1.00  0.00     0.010 A 
ATOM     70  C   UNL A   1      44.097  33.947  30.412  1.00  0.00     0.010 A 
ATOM     71  C   UNL A   1      43.589  34.606  33.086  1.00  0.00     0.020 A 
ATOM     72  C   UNL A   1      44.226  35.273  30.838  1.00  0.00     0.020 A 
ATOM     73  C   UNL A   1      43.950  35.597  32.168  1.00  0.00     0.054 A 
BRANCH  73  74
ATOM     74  S   UNL A   1      44.080  37.311  32.746  1.00  0.00     0.124 S 
ATOM     75  O   UNL A   1      45.451  37.355  33.249  1.00  0.00    -0.237 OA
ATOM     76  O   UNL A   1      43.832  38.081  31.530  1.00  0.00    -0.237 OA
ATOM     77  O   UNL A   1      43.039  37.412  33.767  1.00  0.00    -0.744 OA
ENDBRANCH  73  74
ENDBRANCH  54  68
BRANCH  55  78
ATOM     78  C   UNL A   1      42.432  23.683  27.754  1.00  0.00    -0.014 A 
ATOM     79  C   UNL A   1      42.595  23.442  26.378  1.00  0.00     0.010 A 
ATOM     80  C   UNL A   1      42.119  22.607  28.605  1.00  0.00     0.010 A 
ATOM     81  C   UNL A   1      42.430  22.155  25.859  1.00  0.00     0.020 A 
ATOM     82  C   UNL A   1      41.978  21.314  28.092  1.00  0.00     0.020 A 
ATOM     83  C   UNL A   1      42.122  21.098  26.721  1.00  0.00     0.054 A 
BRANCH  83  84
ATOM     84  S   UNL A   1      41.966  19.426  26.034  1.00  0.00     0.124 S 
ATOM     85  O   UNL A   1      42.904  19.469  24.916  1.00  0.00    -0.237 OA
ATOM     86  O   UNL A   1      42.359  18.581  27.158  1.00  0.00    -0.237 OA
ATOM     87  O   UNL A   1      40.555  19.340  25.665  1.00  0.00    -0.744 OA
ENDBRANCH  83  84
ENDBRANCH  55  78
BRANCH  67  88
ATOM     88  C   UNL A   1      47.817  27.034  30.648  1.00  0.00    -0.014 A 
ATOM     89  C   UNL A   1      48.885  27.273  29.766  1.00  0.00     0.010 A 
ATOM     90  C   UNL A   1      48.074  26.426  31.891  1.00  0.00     0.010 A 
ATOM     91  C   UNL A   1      50.182  26.882  30.108  1.00  0.00     0.020 A 
ATOM     92  C   UNL A   1      49.373  26.057  32.246  1.00  0.00     0.020 A 
ATOM     93  C   UNL A   1      50.417  26.276  31.345  1.00  0.00     0.054 A 
BRANCH  93  94
ATOM     94  S   UNL A   1      52.117  25.818  31.787  1.00  0.00     0.124 S 
ATOM     95  O   UNL A   1      52.411  26.756  32.866  1.00  0.00    -0.237 OA
ATOM     96  O   UNL A   1      51.980  24.421  32.187  1.00  0.00    -0.237 OA
ATOM     97  O   UNL A   1      52.865  26.035  30.550  1.00  0.00    -0.744 OA
ENDBRANCH  93  94
ENDBRANCH  67  88
ENDBRANCH  41  42
ENDBRANCH  33  36
ENDBRANCH  31  32
ENDBRANCH   1  31
TORSDOF 18
ENDMDL
MODEL 2
REMARK VINA RESULT:     -11.6      0.925      2.594
REMARK SMILES O=C(C[C@@H](C(=O)N(c1ccccc1)c1ccccc1)[NH+]1CCOCC1)NCCCNC(=O)c1ccc(-c2c3nc(c(-c4ccc(S(=O)(=O)[O-])cc4)c4ccc([nH]4)c(-c4ccc(S(=O)(=O)[O-])cc4)c4nc(c(-c5ccc(S(=O)(=O)[O-])cc5)c5ccc2[nH]5)C=C4)C=C3)cc1
REMARK SMILES IDX 28 1 27 2 26 3 1 4 2 5 3 7 4 8 5 9 6 10 7 11 8 12 9 13 13 14
REMARK SMILES IDX 10 15 12 16 11 17 14 18 15 19 19 20 16 21 18 22 17 23 20 24
REMARK SMILES IDX 21 25 25 26 22 28 24 29 23 30 29 31 30 32 31 33 32 35 33 36
REMARK SMILES IDX 34 37 92 38 35 39 91 40 36 41 37 42 38 43 85 44 39 45 90 46
REMARK SMILES IDX 84 47 86 48 40 49 89 50 83 51 82 52 41 54 71 55 52 56 70 57
REMARK SMILES IDX 53 58 56 59 69 60 87 61 54 62 55 63 68 65 88 66 57 67 42 68
REMARK SMILES IDX 43 69 51 70 44 71 50 72 45 73 46 74 47 75 48 76 49 77 72 78
REMARK SMILES IDX 73 79 81 80 74 81 80 82 75 83 76 84 77 85 78 86 79 87 58 88
REMARK SMILES IDX 59 89 67 90 60 91 66 92 61 93 62 94 63 95 64 96 65 97
REMARK H PARENT 26 6 20 27 30 34 86 53 56 64
REMARK Flexibility Score: inf
ROOT
ATOM      1  C   UNL A   1      33.758  29.363  25.413  1.00  0.00     0.042 C 
ENDROOT
BRANCH   1   2
ATOM      2  C   UNL A   1      32.709  28.934  24.396  1.00  0.00     0.117 C 
BRANCH   2   3
ATOM      3  N   UNL A   1      32.666  27.510  24.086  1.00  0.00    -0.356 N 
ATOM      4  O   UNL A   1      30.379  27.437  23.838  1.00  0.00    -0.275 OA
ATOM      5  C   UNL A   1      31.479  26.902  23.717  1.00  0.00     0.226 C 
ATOM      6  H   UNL A   1      33.490  26.975  24.139  1.00  0.00     0.163 HD
BRANCH   5   7
ATOM      7  C   UNL A   1      31.612  25.561  23.015  1.00  0.00     0.175 C 
BRANCH   7   8
ATOM      8  C   UNL A   1      31.753  24.421  24.054  1.00  0.00     0.284 C 
BRANCH   8   9
ATOM      9  C   UNL A   1      33.240  24.040  24.088  1.00  0.00     0.290 C 
ATOM     10  O   UNL A   1      34.031  24.887  23.624  1.00  0.00    -0.267 OA
ATOM     11  N   UNL A   1      33.738  22.818  24.573  1.00  0.00    -0.276 N 
BRANCH  11  12
ATOM     12  C   UNL A   1      33.161  21.475  24.509  1.00  0.00     0.049 A 
ATOM     13  C   UNL A   1      33.301  20.589  25.607  1.00  0.00     0.027 A 
ATOM     14  C   UNL A   1      32.573  20.900  23.374  1.00  0.00     0.027 A 
ATOM     15  C   UNL A   1      32.995  19.220  25.528  1.00  0.00     0.002 A 
ATOM     16  C   UNL A   1      32.257  19.531  23.287  1.00  0.00     0.002 A 
ATOM     17  C   UNL A   1      32.492  18.684  24.354  1.00  0.00     0.000 A 
ENDBRANCH  11  12
BRANCH  11  18
ATOM     18  C   UNL A   1      35.158  22.852  24.796  1.00  0.00     0.049 A 
ATOM     19  C   UNL A   1      35.673  23.560  25.890  1.00  0.00     0.027 A 
ATOM     20  C   UNL A   1      36.014  22.066  24.019  1.00  0.00     0.027 A 
ATOM     21  C   UNL A   1      37.029  23.505  26.199  1.00  0.00     0.002 A 
ATOM     22  C   UNL A   1      37.374  22.001  24.340  1.00  0.00     0.002 A 
ATOM     23  C   UNL A   1      37.879  22.722  25.425  1.00  0.00     0.000 A 
ENDBRANCH  11  18
ENDBRANCH   8   9
BRANCH   8  24
ATOM     24  N   UNL A   1      31.179  24.893  25.363  1.00  0.00    -0.320 N 
ATOM     25  C   UNL A   1      32.077  24.986  26.533  1.00  0.00     0.291 C 
ATOM     26  C   UNL A   1      29.956  24.169  25.766  1.00  0.00     0.291 C 
ATOM     27  H   UNL A   1      30.970  25.859  25.108  1.00  0.00     0.348 HD
ATOM     28  C   UNL A   1      32.287  23.659  27.295  1.00  0.00     0.221 C 
ATOM     29  C   UNL A   1      30.239  22.832  26.462  1.00  0.00     0.221 C 
ATOM     30  O   UNL A   1      31.041  23.030  27.631  1.00  0.00    -0.370 OA
ENDBRANCH   8  24
ENDBRANCH   7   8
ENDBRANCH   5   7
ENDBRANCH   2   3
ENDBRANCH   1   2
BRANCH   1  31
ATOM     31  C   UNL A   1      33.325  29.266  26.871  1.00  0.00     0.118 C 
BRANCH  31  32
ATOM     32  N   UNL A   1      33.432  30.505  27.634  1.00  0.00    -0.352 N 
ATOM     33  C   UNL A   1      34.506  31.003  28.342  1.00  0.00     0.251 C 
ATOM     34  H   UNL A   1      32.622  31.065  27.644  1.00  0.00     0.163 HD
ATOM     35  O   UNL A   1      34.399  32.083  28.920  1.00  0.00    -0.269 OA
BRANCH  33  36
ATOM     36  C   UNL A   1      35.758  30.216  28.474  1.00  0.00     0.039 A 
ATOM     37  C   UNL A   1      36.656  30.217  27.401  1.00  0.00     0.014 A 
ATOM     38  C   UNL A   1      36.093  29.545  29.651  1.00  0.00     0.014 A 
ATOM     39  C   UNL A   1      37.936  29.680  27.564  1.00  0.00     0.010 A 
ATOM     40  C   UNL A   1      37.397  29.094  29.845  1.00  0.00     0.010 A 
ATOM     41  C   UNL A   1      38.343  29.192  28.816  1.00  0.00    -0.014 A 
BRANCH  41  42
ATOM     42  C   UNL A   1      39.770  28.886  29.096  1.00  0.00     0.031 A 
ATOM     43  C   UNL A   1      40.686  29.923  29.682  1.00  0.00     0.074 A 
ATOM     44  C   UNL A   1      40.259  27.686  28.721  1.00  0.00     0.049 A 
ATOM     45  N   UNL A   1      41.962  29.833  29.952  1.00  0.00    -0.248 NA
ATOM     46  C   UNL A   1      40.101  31.242  29.973  1.00  0.00     0.031 C 
ATOM     47  C   UNL A   1      39.490  26.623  28.063  1.00  0.00     0.029 A 
ATOM     48  N   UNL A   1      41.520  27.154  28.831  1.00  0.00    -0.354 N 
ATOM     49  C   UNL A   1      42.338  31.082  30.431  1.00  0.00     0.074 A 
ATOM     50  C   UNL A   1      41.166  31.928  30.366  1.00  0.00     0.031 C 
ATOM     51  C   UNL A   1      40.283  25.558  27.867  1.00  0.00     0.029 A 
ATOM     52  C   UNL A   1      41.623  25.870  28.349  1.00  0.00     0.049 A 
ATOM     53  H   UNL A   1      42.279  27.646  29.220  1.00  0.00     0.167 HD
ATOM     54  C   UNL A   1      43.545  31.482  30.901  1.00  0.00     0.031 A 
ATOM     55  C   UNL A   1      42.676  25.031  28.302  1.00  0.00     0.031 A 
ATOM     56  C   UNL A   1      44.705  30.634  30.970  1.00  0.00     0.049 A 
ATOM     57  C   UNL A   1      43.994  25.485  28.864  1.00  0.00     0.074 A 
ATOM     58  C   UNL A   1      45.956  30.926  31.485  1.00  0.00     0.029 A 
ATOM     59  N   UNL A   1      44.756  29.326  30.511  1.00  0.00    -0.354 N 
ATOM     60  N   UNL A   1      44.305  26.645  29.391  1.00  0.00    -0.248 NA
ATOM     61  C   UNL A   1      45.094  24.514  28.840  1.00  0.00     0.031 C 
ATOM     62  C   UNL A   1      46.775  29.806  31.303  1.00  0.00     0.029 A 
ATOM     63  C   UNL A   1      46.020  28.801  30.719  1.00  0.00     0.049 A 
ATOM     64  H   UNL A   1      44.004  28.843  30.098  1.00  0.00     0.167 HD
ATOM     65  C   UNL A   1      45.632  26.534  29.787  1.00  0.00     0.074 A 
ATOM     66  C   UNL A   1      46.058  25.190  29.450  1.00  0.00     0.031 C 
ATOM     67  C   UNL A   1      46.426  27.461  30.379  1.00  0.00     0.031 A 
BRANCH  54  68
ATOM     68  C   UNL A   1      43.661  32.904  31.384  1.00  0.00    -0.014 A 
ATOM     69  C   UNL A   1      44.041  33.937  30.505  1.00  0.00     0.010 A 
ATOM     70  C   UNL A   1      43.368  33.220  32.722  1.00  0.00     0.010 A 
ATOM     71  C   UNL A   1      44.173  35.248  30.967  1.00  0.00     0.020 A 
ATOM     72  C   UNL A   1      43.473  34.537  33.182  1.00  0.00     0.020 A 
ATOM     73  C   UNL A   1      43.896  35.539  32.306  1.00  0.00     0.054 A 
BRANCH  73  74
ATOM     74  S   UNL A   1      44.071  37.251  32.878  1.00  0.00     0.124 S 
ATOM     75  O   UNL A   1      42.970  37.362  33.832  1.00  0.00    -0.237 OA
ATOM     76  O   UNL A   1      45.410  37.261  33.461  1.00  0.00    -0.237 OA
ATOM     77  O   UNL A   1      43.920  38.041  31.657  1.00  0.00    -0.744 OA
ENDBRANCH  73  74
ENDBRANCH  54  68
BRANCH  55  78
ATOM     78  C   UNL A   1      42.511  23.662  27.743  1.00  0.00    -0.014 A 
ATOM     79  C   UNL A   1      42.931  23.378  26.431  1.00  0.00     0.010 A 
ATOM     80  C   UNL A   1      41.960  22.630  28.523  1.00  0.00     0.010 A 
ATOM     81  C   UNL A   1      42.785  22.092  25.903  1.00  0.00     0.020 A 
ATOM     82  C   UNL A   1      41.836  21.336  28.006  1.00  0.00     0.020 A 
ATOM     83  C   UNL A   1      42.238  21.079  26.695  1.00  0.00     0.054 A 
BRANCH  83  84
ATOM     84  S   UNL A   1      42.108  19.404  26.008  1.00  0.00     0.124 S 
ATOM     85  O   UNL A   1      42.927  19.506  24.804  1.00  0.00    -0.237 OA
ATOM     86  O   UNL A   1      42.657  18.577  27.078  1.00  0.00    -0.237 OA
ATOM     87  O   UNL A   1      40.674  19.241  25.779  1.00  0.00    -0.744 OA
ENDBRANCH  83  84
ENDBRANCH  55  78
BRANCH  67  88
ATOM     88  C   UNL A   1      47.825  27.041  30.732  1.00  0.00    -0.014 A 
ATOM     89  C   UNL A   1      48.916  27.382  29.914  1.00  0.00     0.010 A 
ATOM     90  C   UNL A   1      48.056  26.338  31.929  1.00  0.00     0.010 A 
ATOM     91  C   UNL A   1      50.212  26.998  30.270  1.00  0.00     0.020 A 
ATOM     92  C   UNL A   1      49.352  25.975  32.301  1.00  0.00     0.020 A 
ATOM     93  C   UNL A   1      50.421  26.296  31.461  1.00  0.00     0.054 A 
BRANCH  93  94
ATOM     94  S   UNL A   1      52.116  25.848  31.927  1.00  0.00     0.124 S 
ATOM     95  O   UNL A   1      51.922  24.548  32.563  1.00  0.00    -0.237 OA
ATOM     96  O   UNL A   1      52.808  25.823  30.642  1.00  0.00    -0.237 OA
ATOM     97  O   UNL A   1      52.523  26.927  32.825  1.00  0.00    -0.744 OA
ENDBRANCH  93  94
ENDBRANCH  67  88
ENDBRANCH  41  42
ENDBRANCH  33  36
ENDBRANCH  31  32
ENDBRANCH   1  31
TORSDOF 18
ENDMDL
MODEL 3
REMARK VINA RESULT:     -11.4      2.613      9.347
REMARK SMILES O=C(C[C@@H](C(=O)N(c1ccccc1)c1ccccc1)[NH+]1CCOCC1)NCCCNC(=O)c1ccc(-c2c3nc(c(-c4ccc(S(=O)(=O)[O-])cc4)c4ccc([nH]4)c(-c4ccc(S(=O)(=O)[O-])cc4)c4nc(c(-c5ccc(S(=O)(=O)[O-])cc5)c5ccc2[nH]5)C=C4)C=C3)cc1
REMARK SMILES IDX 28 1 27 2 26 3 1 4 2 5 3 7 4 8 5 9 6 10 7 11 8 12 9 13 13 14
REMARK SMILES IDX 10 15 12 16 11 17 14 18 15 19 19 20 16 21 18 22 17 23 20 24
REMARK SMILES IDX 21 25 25 26 22 28 24 29 23 30 29 31 30 32 31 33 32 35 33 36
REMARK SMILES IDX 34 37 92 38 35 39 91 40 36 41 37 42 38 43 85 44 39 45 90 46
REMARK SMILES IDX 84 47 86 48 40 49 89 50 83 51 82 52 41 54 71 55 52 56 70 57
REMARK SMILES IDX 53 58 56 59 69 60 87 61 54 62 55 63 68 65 88 66 57 67 42 68
REMARK SMILES IDX 43 69 51 70 44 71 50 72 45 73 46 74 47 75 48 76 49 77 72 78
REMARK SMILES IDX 73 79 81 80 74 81 80 82 75 83 76 84 77 85 78 86 79 87 58 88
REMARK SMILES IDX 59 89 67 90 60 91 66 92 61 93 62 94 63 95 64 96 65 97
REMARK H PARENT 26 6 20 27 30 34 86 53 56 64
REMARK Flexibility Score: inf
ROOT
ATOM      1  C   UNL A   1      36.370  22.244  24.397  1.00  0.00     0.042 C 
ENDROOT
BRANCH   1   2
ATOM      2  C   UNL A   1      35.807  23.078  23.254  1.00  0.00     0.117 C 
BRANCH   2   3
ATOM      3  N   UNL A   1      34.480  23.644  23.468  1.00  0.00    -0.356 N 
ATOM      4  O   UNL A   1      33.744  23.219  21.330  1.00  0.00    -0.275 OA
ATOM      5  C   UNL A   1      33.508  23.558  22.487  1.00  0.00     0.226 C 
ATOM      6  H   UNL A   1      34.274  24.092  24.319  1.00  0.00     0.163 HD
BRANCH   5   7
ATOM      7  C   UNL A   1      32.079  23.780  22.951  1.00  0.00     0.175 C 
BRANCH   7   8
ATOM      8  C   UNL A   1      32.027  24.900  24.020  1.00  0.00     0.284 C 
BRANCH   8   9
ATOM      9  C   UNL A   1      31.339  26.104  23.360  1.00  0.00     0.290 C 
ATOM     10  O   UNL A   1      30.983  25.947  22.175  1.00  0.00    -0.267 OA
ATOM     11  N   UNL A   1      31.121  27.341  23.993  1.00  0.00    -0.276 N 
BRANCH  11  12
ATOM     12  C   UNL A   1      31.941  28.055  24.971  1.00  0.00     0.049 A 
ATOM     13  C   UNL A   1      33.327  27.774  25.077  1.00  0.00     0.027 A 
ATOM     14  C   UNL A   1      31.453  28.933  25.949  1.00  0.00     0.027 A 
ATOM     15  C   UNL A   1      34.119  28.232  26.144  1.00  0.00     0.002 A 
ATOM     16  C   UNL A   1      32.240  29.402  27.017  1.00  0.00     0.002 A 
ATOM     17  C   UNL A   1      33.567  29.031  27.130  1.00  0.00     0.000 A 
ENDBRANCH  11  12
BRANCH  11  18
ATOM     18  C   UNL A   1      30.180  28.164  23.282  1.00  0.00     0.049 A 
ATOM     19  C   UNL A   1      28.805  27.962  23.464  1.00  0.00     0.027 A 
ATOM     20  C   UNL A   1      30.623  29.254  22.528  1.00  0.00     0.027 A 
ATOM     21  C   UNL A   1      27.877  28.824  22.887  1.00  0.00     0.002 A 
ATOM     22  C   UNL A   1      29.688  30.126  21.961  1.00  0.00     0.002 A 
ATOM     23  C   UNL A   1      28.319  29.909  22.137  1.00  0.00     0.000 A 
ENDBRANCH  11  18
ENDBRANCH   8   9
BRANCH   8  24
ATOM     24  N   UNL A   1      31.342  24.359  25.247  1.00  0.00    -0.320 N 
ATOM     25  C   UNL A   1      32.003  24.533  26.557  1.00  0.00     0.291 C 
ATOM     26  C   UNL A   1      30.924  22.949  25.116  1.00  0.00     0.291 C 
ATOM     27  H   UNL A   1      30.536  24.984  25.268  1.00  0.00     0.348 HD
ATOM     28  C   UNL A   1      33.073  23.468  26.889  1.00  0.00     0.221 C 
ATOM     29  C   UNL A   1      32.050  21.948  25.400  1.00  0.00     0.221 C 
ATOM     30  O   UNL A   1      32.571  22.133  26.720  1.00  0.00    -0.370 OA
ENDBRANCH   8  24
ENDBRANCH   7   8
ENDBRANCH   5   7
ENDBRANCH   2   3
ENDBRANCH   1   2
BRANCH   1  31
ATOM     31  C   UNL A   1      37.312  22.986  25.337  1.00  0.00     0.118 C 
BRANCH  31  32
ATOM     32  N   UNL A   1      38.609  22.351  25.544  1.00  0.00    -0.352 N 
ATOM     33  C   UNL A   1      39.715  22.826  26.218  1.00  0.00     0.251 C 
ATOM     34  H   UNL A   1      38.708  21.455  25.147  1.00  0.00     0.163 HD
ATOM     35  O   UNL A   1      40.724  22.127  26.290  1.00  0.00    -0.269 OA
BRANCH  33  36
ATOM     36  C   UNL A   1      39.723  24.195  26.792  1.00  0.00     0.039 A 
ATOM     37  C   UNL A   1      39.138  24.390  28.047  1.00  0.00     0.014 A 
ATOM     38  C   UNL A   1      40.355  25.264  26.155  1.00  0.00     0.014 A 
ATOM     39  C   UNL A   1      39.319  25.602  28.719  1.00  0.00     0.010 A 
ATOM     40  C   UNL A   1      40.615  26.437  26.860  1.00  0.00     0.010 A 
ATOM     41  C   UNL A   1      40.132  26.603  28.164  1.00  0.00    -0.014 A 
BRANCH  41  42
ATOM     42  C   UNL A   1      40.575  27.770  28.970  1.00  0.00     0.031 A 
ATOM     43  C   UNL A   1      41.898  27.765  29.683  1.00  0.00     0.074 A 
ATOM     44  C   UNL A   1      39.722  28.803  29.136  1.00  0.00     0.049 A 
ATOM     45  N   UNL A   1      42.418  28.683  30.456  1.00  0.00    -0.248 NA
ATOM     46  C   UNL A   1      42.731  26.561  29.534  1.00  0.00     0.031 C 
ATOM     47  C   UNL A   1      38.372  28.889  28.565  1.00  0.00     0.029 A 
ATOM     48  N   UNL A   1      39.854  29.976  29.835  1.00  0.00    -0.354 N 
ATOM     49  C   UNL A   1      43.630  28.166  30.898  1.00  0.00     0.074 A 
ATOM     50  C   UNL A   1      43.744  26.832  30.347  1.00  0.00     0.031 C 
ATOM     51  C   UNL A   1      37.822  30.065  28.903  1.00  0.00     0.029 A 
ATOM     52  C   UNL A   1      38.758  30.803  29.743  1.00  0.00     0.049 A 
ATOM     53  H   UNL A   1      40.659  30.205  30.354  1.00  0.00     0.167 HD
ATOM     54  C   UNL A   1      44.571  28.755  31.674  1.00  0.00     0.031 A 
ATOM     55  C   UNL A   1      38.530  32.021  30.269  1.00  0.00     0.031 A 
ATOM     56  C   UNL A   1      44.455  30.084  32.213  1.00  0.00     0.049 A 
ATOM     57  C   UNL A   1      39.605  32.669  31.097  1.00  0.00     0.074 A 
ATOM     58  C   UNL A   1      45.379  30.795  32.960  1.00  0.00     0.029 A 
ATOM     59  N   UNL A   1      43.347  30.905  32.060  1.00  0.00    -0.354 N 
ATOM     60  N   UNL A   1      40.781  32.195  31.432  1.00  0.00    -0.248 NA
ATOM     61  C   UNL A   1      39.329  34.020  31.601  1.00  0.00     0.031 C 
ATOM     62  C   UNL A   1      44.814  32.031  33.291  1.00  0.00     0.029 A 
ATOM     63  C   UNL A   1      43.558  32.109  32.709  1.00  0.00     0.049 A 
ATOM     64  H   UNL A   1      42.531  30.666  31.564  1.00  0.00     0.167 HD
ATOM     65  C   UNL A   1      41.397  33.201  32.165  1.00  0.00     0.074 A 
ATOM     66  C   UNL A   1      40.469  34.314  32.211  1.00  0.00     0.031 C 
ATOM     67  C   UNL A   1      42.623  33.206  32.744  1.00  0.00     0.031 A 
BRANCH  54  68
ATOM     68  C   UNL A   1      45.813  27.959  31.978  1.00  0.00    -0.014 A 
ATOM     69  C   UNL A   1      46.948  28.048  31.150  1.00  0.00     0.010 A 
ATOM     70  C   UNL A   1      45.859  27.132  33.115  1.00  0.00     0.010 A 
ATOM     71  C   UNL A   1      48.086  27.286  31.424  1.00  0.00     0.020 A 
ATOM     72  C   UNL A   1      47.007  26.389  33.407  1.00  0.00     0.020 A 
ATOM     73  C   UNL A   1      48.106  26.454  32.548  1.00  0.00     0.054 A 
BRANCH  73  74
ATOM     74  S   UNL A   1      49.599  25.480  32.883  1.00  0.00     0.124 S 
ATOM     75  O   UNL A   1      49.949  25.001  31.547  1.00  0.00    -0.237 OA
ATOM     76  O   UNL A   1      50.508  26.470  33.453  1.00  0.00    -0.237 OA
ATOM     77  O   UNL A   1      49.139  24.451  33.813  1.00  0.00    -0.744 OA
ENDBRANCH  73  74
ENDBRANCH  54  68
BRANCH  55  78
ATOM     78  C   UNL A   1      37.248  32.723  29.991  1.00  0.00    -0.014 A 
ATOM     79  C   UNL A   1      37.160  33.644  28.932  1.00  0.00     0.010 A 
ATOM     80  C   UNL A   1      36.103  32.457  30.763  1.00  0.00     0.010 A 
ATOM     81  C   UNL A   1      35.957  34.301  28.661  1.00  0.00     0.020 A 
ATOM     82  C   UNL A   1      34.891  33.094  30.479  1.00  0.00     0.020 A 
ATOM     83  C   UNL A   1      34.828  34.021  29.438  1.00  0.00     0.054 A 
BRANCH  83  84
ATOM     84  S   UNL A   1      33.262  34.845  29.035  1.00  0.00     0.124 S 
ATOM     85  O   UNL A   1      33.717  36.155  28.582  1.00  0.00    -0.237 OA
ATOM     86  O   UNL A   1      32.703  33.977  28.003  1.00  0.00    -0.237 OA
ATOM     87  O   UNL A   1      32.538  34.836  30.304  1.00  0.00    -0.744 OA
ENDBRANCH  83  84
ENDBRANCH  55  78
BRANCH  67  88
ATOM     88  C   UNL A   1      43.045  34.464  33.449  1.00  0.00    -0.014 A 
ATOM     89  C   UNL A   1      42.864  34.619  34.834  1.00  0.00     0.010 A 
ATOM     90  C   UNL A   1      43.678  35.487  32.720  1.00  0.00     0.010 A 
ATOM     91  C   UNL A   1      43.281  35.789  35.473  1.00  0.00     0.020 A 
ATOM     92  C   UNL A   1      44.119  36.648  33.359  1.00  0.00     0.020 A 
ATOM     93  C   UNL A   1      43.904  36.797  34.731  1.00  0.00     0.054 A 
BRANCH  93  94
ATOM     94  S   UNL A   1      44.479  38.289  35.589  1.00  0.00     0.124 S 
ATOM     95  O   UNL A   1      43.938  39.350  34.745  1.00  0.00    -0.237 OA
ATOM     96  O   UNL A   1      43.865  38.158  36.908  1.00  0.00    -0.237 OA
ATOM     97  O   UNL A   1      45.935  38.158  35.571  1.00  0.00    -0.744 OA
ENDBRANCH  93  94
ENDBRANCH  67  88
ENDBRANCH  41  42
ENDBRANCH  33  36
ENDBRANCH  31  32
ENDBRANCH   1  31
TORSDOF 18
ENDMDL
