MODEL 1
REMARK VINA RESULT:     -11.6      0.000      0.000
REMARK SMILES Nc1nc(N2CCOC[C@H]2C(=O)NCCCNC(=O)c2ccc(-c3c4nc(c(-c5ccc(S(=O)(=O)[O-])cc5)c5ccc([nH]5)c(-c5ccc(S(=O)(=O)[O-])cc5)c5nc(c(-c6ccc(S(=O)(=O)[O-])cc6)c6ccc3[nH]6)C=C5)C=C4)cc2)ccc1[N+](=O)[O-]
REMARK SMILES IDX 15 1 14 2 13 3 11 4 12 5 10 7 5 8 6 9 7 10 9 11 8 12 4 13
REMARK SMILES IDX 2 14 3 15 82 16 81 17 80 18 1 19 83 22 84 23 85 24 16 25
REMARK SMILES IDX 17 26 18 27 19 29 20 30 21 31 79 32 22 33 78 34 23 35 24 36
REMARK SMILES IDX 25 37 72 38 26 39 77 40 71 41 73 42 27 43 76 44 70 45 69 46
REMARK SMILES IDX 28 48 58 49 39 50 57 51 40 52 43 53 56 54 74 55 41 56 42 57
REMARK SMILES IDX 55 59 75 60 44 61 29 62 30 63 38 64 31 65 37 66 32 67 33 68
REMARK SMILES IDX 34 69 35 70 36 71 59 72 60 73 68 74 61 75 67 76 62 77 63 78
REMARK SMILES IDX 64 79 65 80 66 81 45 82 46 83 54 84 47 85 53 86 48 87 49 88
REMARK SMILES IDX 50 89 51 90 52 91
REMARK H PARENT 13 6 1 20 1 21 17 28 73 47 43 58
REMARK Flexibility Score: inf
ROOT
ATOM      1  C   UNL A   1      32.750  28.065  26.510  1.00  0.00     0.042 C 
ENDROOT
BRANCH   1   2
ATOM      2  C   UNL A   1      32.974  26.606  26.129  1.00  0.00     0.117 C 
BRANCH   2   3
ATOM      3  N   UNL A   1      31.960  25.738  26.691  1.00  0.00    -0.354 N 
ATOM      4  C   UNL A   1      31.050  24.895  26.129  1.00  0.00     0.245 C 
ATOM      5  O   UNL A   1      30.366  24.259  26.945  1.00  0.00    -0.273 OA
ATOM      6  H   UNL A   1      31.922  25.761  27.675  1.00  0.00     0.163 HD
BRANCH   4   7
ATOM      7  C   UNL A   1      30.891  24.622  24.613  1.00  0.00     0.199 C 
ATOM      8  N   UNL A   1      31.362  25.681  23.688  1.00  0.00    -0.340 N 
ATOM      9  C   UNL A   1      32.706  25.565  23.137  1.00  0.00     0.147 C 
ATOM     10  C   UNL A   1      32.958  24.141  22.642  1.00  0.00     0.181 C 
ATOM     11  C   UNL A   1      31.387  23.226  24.172  1.00  0.00     0.195 C 
ATOM     12  O   UNL A   1      32.735  23.174  23.675  1.00  0.00    -0.377 OA
BRANCH   8  13
ATOM     13  C   UNL A   1      30.522  26.724  23.360  1.00  0.00     0.132 A 
ATOM     14  C   UNL A   1      30.213  28.804  22.308  1.00  0.00     0.204 A 
ATOM     15  N   UNL A   1      31.027  27.791  22.703  1.00  0.00    -0.207 NA
ATOM     16  C   UNL A   1      28.855  28.802  22.608  1.00  0.00     0.311 A 
ATOM     17  C   UNL A   1      28.330  27.744  23.345  1.00  0.00     0.093 A 
ATOM     18  C   UNL A   1      29.176  26.706  23.722  1.00  0.00     0.054 A 
BRANCH  14  19
ATOM     19  N   UNL A   1      30.876  29.845  21.688  1.00  0.00    -0.378 N 
ATOM     20  H   UNL A   1      30.472  30.743  21.666  1.00  0.00     0.158 HD
ATOM     21  H   UNL A   1      31.753  29.690  21.268  1.00  0.00     0.158 HD
ENDBRANCH  14  19
BRANCH  16  22
ATOM     22  N   UNL A   1      27.958  29.860  22.158  1.00  0.00     0.066 N 
ATOM     23  O   UNL A   1      27.111  30.269  22.968  1.00  0.00    -0.258 OA
ATOM     24  O   UNL A   1      28.062  30.274  20.994  1.00  0.00    -0.258 OA
ENDBRANCH  16  22
ENDBRANCH   8  13
ENDBRANCH   4   7
ENDBRANCH   2   3
ENDBRANCH   1   2
BRANCH   1  25
ATOM     25  C   UNL A   1      33.941  28.963  26.212  1.00  0.00     0.118 C 
BRANCH  25  26
ATOM     26  N   UNL A   1      33.687  30.348  26.583  1.00  0.00    -0.352 N 
ATOM     27  C   UNL A   1      34.307  31.164  27.499  1.00  0.00     0.251 C 
ATOM     28  H   UNL A   1      32.945  30.773  26.095  1.00  0.00     0.163 HD
ATOM     29  O   UNL A   1      33.778  32.236  27.783  1.00  0.00    -0.269 OA
BRANCH  27  30
ATOM     30  C   UNL A   1      35.580  30.774  28.155  1.00  0.00     0.039 A 
ATOM     31  C   UNL A   1      35.571  29.690  29.040  1.00  0.00     0.014 A 
ATOM     32  C   UNL A   1      36.765  31.488  27.962  1.00  0.00     0.014 A 
ATOM     33  C   UNL A   1      36.745  29.309  29.694  1.00  0.00     0.010 A 
ATOM     34  C   UNL A   1      37.957  31.044  28.532  1.00  0.00     0.010 A 
ATOM     35  C   UNL A   1      37.957  29.969  29.429  1.00  0.00    -0.014 A 
BRANCH  35  36
ATOM     36  C   UNL A   1      39.212  29.564  30.114  1.00  0.00     0.031 A 
ATOM     37  C   UNL A   1      39.640  30.244  31.390  1.00  0.00     0.074 A 
ATOM     38  C   UNL A   1      39.986  28.602  29.572  1.00  0.00     0.049 A 
ATOM     39  N   UNL A   1      40.686  30.007  32.141  1.00  0.00    -0.248 NA
ATOM     40  C   UNL A   1      38.804  31.358  31.870  1.00  0.00     0.031 C 
ATOM     41  C   UNL A   1      39.721  27.914  28.306  1.00  0.00     0.029 A 
ATOM     42  N   UNL A   1      41.150  28.030  30.021  1.00  0.00    -0.354 N 
ATOM     43  C   UNL A   1      40.643  30.950  33.163  1.00  0.00     0.074 A 
ATOM     44  C   UNL A   1      39.502  31.800  32.905  1.00  0.00     0.031 C 
ATOM     45  C   UNL A   1      40.668  26.985  28.102  1.00  0.00     0.029 A 
ATOM     46  C   UNL A   1      41.621  27.028  29.207  1.00  0.00     0.049 A 
ATOM     47  H   UNL A   1      41.603  28.310  30.849  1.00  0.00     0.167 HD
ATOM     48  C   UNL A   1      41.462  31.085  34.233  1.00  0.00     0.031 A 
ATOM     49  C   UNL A   1      42.692  26.222  29.339  1.00  0.00     0.031 A 
ATOM     50  C   UNL A   1      42.580  30.220  34.502  1.00  0.00     0.049 A 
ATOM     51  C   UNL A   1      43.553  26.347  30.566  1.00  0.00     0.074 A 
ATOM     52  C   UNL A   1      43.431  30.225  35.593  1.00  0.00     0.029 A 
ATOM     53  N   UNL A   1      43.000  29.192  33.672  1.00  0.00    -0.354 N 
ATOM     54  N   UNL A   1      43.448  27.194  31.562  1.00  0.00    -0.248 NA
ATOM     55  C   UNL A   1      44.660  25.392  30.697  1.00  0.00     0.031 C 
ATOM     56  C   UNL A   1      44.391  29.225  35.403  1.00  0.00     0.029 A 
ATOM     57  C   UNL A   1      44.105  28.564  34.219  1.00  0.00     0.049 A 
ATOM     58  H   UNL A   1      42.575  28.946  32.818  1.00  0.00     0.167 HD
ATOM     59  C   UNL A   1      44.461  26.858  32.452  1.00  0.00     0.074 A 
ATOM     60  C   UNL A   1      45.154  25.719  31.884  1.00  0.00     0.031 C 
ATOM     61  C   UNL A   1      44.787  27.436  33.634  1.00  0.00     0.031 A 
BRANCH  48  62
ATOM     62  C   UNL A   1      41.172  32.210  35.194  1.00  0.00    -0.014 A 
ATOM     63  C   UNL A   1      41.769  33.475  35.036  1.00  0.00     0.010 A 
ATOM     64  C   UNL A   1      40.273  32.008  36.256  1.00  0.00     0.010 A 
ATOM     65  C   UNL A   1      41.509  34.500  35.949  1.00  0.00     0.020 A 
ATOM     66  C   UNL A   1      39.987  33.041  37.155  1.00  0.00     0.020 A 
ATOM     67  C   UNL A   1      40.624  34.275  37.007  1.00  0.00     0.054 A 
BRANCH  67  68
ATOM     68  S   UNL A   1      40.295  35.627  38.171  1.00  0.00     0.124 S 
ATOM     69  O   UNL A   1      39.175  35.094  38.942  1.00  0.00    -0.237 OA
ATOM     70  O   UNL A   1      41.558  35.743  38.896  1.00  0.00    -0.237 OA
ATOM     71  O   UNL A   1      39.972  36.758  37.304  1.00  0.00    -0.744 OA
ENDBRANCH  67  68
ENDBRANCH  48  62
BRANCH  49  72
ATOM     72  C   UNL A   1      42.976  25.192  28.302  1.00  0.00    -0.014 A 
ATOM     73  C   UNL A   1      43.843  25.475  27.232  1.00  0.00     0.010 A 
ATOM     74  C   UNL A   1      42.407  23.909  28.401  1.00  0.00     0.010 A 
ATOM     75  C   UNL A   1      44.125  24.499  26.271  1.00  0.00     0.020 A 
ATOM     76  C   UNL A   1      42.707  22.924  27.456  1.00  0.00     0.020 A 
ATOM     77  C   UNL A   1      43.557  23.228  26.392  1.00  0.00     0.054 A 
BRANCH  77  78
ATOM     78  S   UNL A   1      43.991  21.955  25.173  1.00  0.00     0.124 S 
ATOM     79  O   UNL A   1      43.802  22.664  23.912  1.00  0.00    -0.237 OA
ATOM     80  O   UNL A   1      45.374  21.640  25.522  1.00  0.00    -0.237 OA
ATOM     81  O   UNL A   1      43.031  20.885  25.442  1.00  0.00    -0.744 OA
ENDBRANCH  77  78
ENDBRANCH  49  72
BRANCH  61  82
ATOM     82  C   UNL A   1      45.927  26.827  34.405  1.00  0.00    -0.014 A 
ATOM     83  C   UNL A   1      47.250  27.266  34.222  1.00  0.00     0.010 A 
ATOM     84  C   UNL A   1      45.663  25.814  35.346  1.00  0.00     0.010 A 
ATOM     85  C   UNL A   1      48.295  26.669  34.929  1.00  0.00     0.020 A 
ATOM     86  C   UNL A   1      46.702  25.234  36.076  1.00  0.00     0.020 A 
ATOM     87  C   UNL A   1      48.015  25.652  35.847  1.00  0.00     0.054 A 
BRANCH  87  88
ATOM     88  S   UNL A   1      49.386  24.897  36.763  1.00  0.00     0.124 S 
ATOM     89  O   UNL A   1      49.135  25.363  38.124  1.00  0.00    -0.237 OA
ATOM     90  O   UNL A   1      49.177  23.469  36.539  1.00  0.00    -0.237 OA
ATOM     91  O   UNL A   1      50.576  25.453  36.122  1.00  0.00    -0.744 OA
ENDBRANCH  87  88
ENDBRANCH  61  82
ENDBRANCH  35  36
ENDBRANCH  27  30
ENDBRANCH  25  26
ENDBRANCH   1  25
TORSDOF 16
ENDMDL
MODEL 2
REMARK VINA RESULT:     -11.5      4.282     10.048
REMARK SMILES Nc1nc(N2CCOC[C@H]2C(=O)NCCCNC(=O)c2ccc(-c3c4nc(c(-c5ccc(S(=O)(=O)[O-])cc5)c5ccc([nH]5)c(-c5ccc(S(=O)(=O)[O-])cc5)c5nc(c(-c6ccc(S(=O)(=O)[O-])cc6)c6ccc3[nH]6)C=C5)C=C4)cc2)ccc1[N+](=O)[O-]
REMARK SMILES IDX 15 1 14 2 13 3 11 4 12 5 10 7 5 8 6 9 7 10 9 11 8 12 4 13
REMARK SMILES IDX 2 14 3 15 82 16 81 17 80 18 1 19 83 22 84 23 85 24 16 25
REMARK SMILES IDX 17 26 18 27 19 29 20 30 21 31 79 32 22 33 78 34 23 35 24 36
REMARK SMILES IDX 25 37 72 38 26 39 77 40 71 41 73 42 27 43 76 44 70 45 69 46
REMARK SMILES IDX 28 48 58 49 39 50 57 51 40 52 43 53 56 54 74 55 41 56 42 57
REMARK SMILES IDX 55 59 75 60 44 61 29 62 30 63 38 64 31 65 37 66 32 67 33 68
REMARK SMILES IDX 34 69 35 70 36 71 59 72 60 73 68 74 61 75 67 76 62 77 63 78
REMARK SMILES IDX 64 79 65 80 66 81 45 82 46 83 54 84 47 85 53 86 48 87 49 88
REMARK SMILES IDX 50 89 51 90 52 91
REMARK H PARENT 13 6 1 20 1 21 17 28 73 47 43 58
REMARK Flexibility Score: inf
ROOT
ATOM      1  C   UNL A   1      36.173  23.924  24.506  1.00  0.00     0.042 C 
ENDROOT
BRANCH   1   2
ATOM      2  C   UNL A   1      34.680  24.114  24.266  1.00  0.00     0.117 C 
BRANCH   2   3
ATOM      3  N   UNL A   1      34.315  23.852  22.890  1.00  0.00    -0.354 N 
ATOM      4  C   UNL A   1      33.252  23.220  22.321  1.00  0.00     0.245 C 
ATOM      5  O   UNL A   1      33.248  23.235  21.080  1.00  0.00    -0.273 OA
ATOM      6  H   UNL A   1      34.964  24.200  22.236  1.00  0.00     0.163 HD
BRANCH   4   7
ATOM      7  C   UNL A   1      32.057  22.599  23.086  1.00  0.00     0.199 C 
ATOM      8  N   UNL A   1      32.376  21.802  24.294  1.00  0.00    -0.340 N 
ATOM      9  C   UNL A   1      32.316  22.465  25.591  1.00  0.00     0.147 C 
ATOM     10  C   UNL A   1      31.038  23.295  25.706  1.00  0.00     0.181 C 
ATOM     11  C   UNL A   1      30.901  23.590  23.352  1.00  0.00     0.195 C 
ATOM     12  O   UNL A   1      30.922  24.239  24.635  1.00  0.00    -0.377 OA
BRANCH   8  13
ATOM     13  C   UNL A   1      32.698  20.467  24.167  1.00  0.00     0.132 A 
ATOM     14  C   UNL A   1      32.469  18.447  22.986  1.00  0.00     0.204 A 
ATOM     15  N   UNL A   1      32.124  19.746  23.179  1.00  0.00    -0.207 NA
ATOM     16  C   UNL A   1      33.377  17.807  23.821  1.00  0.00     0.311 A 
ATOM     17  C   UNL A   1      33.926  18.514  24.888  1.00  0.00     0.093 A 
ATOM     18  C   UNL A   1      33.575  19.849  25.056  1.00  0.00     0.054 A 
BRANCH  14  19
ATOM     19  N   UNL A   1      31.769  17.827  21.969  1.00  0.00    -0.378 N 
ATOM     20  H   UNL A   1      32.223  17.181  21.381  1.00  0.00     0.158 HD
ATOM     21  H   UNL A   1      30.816  18.031  21.833  1.00  0.00     0.158 HD
ENDBRANCH  14  19
BRANCH  16  22
ATOM     22  N   UNL A   1      33.790  16.424  23.606  1.00  0.00     0.066 N 
ATOM     23  O   UNL A   1      34.393  16.168  22.551  1.00  0.00    -0.258 OA
ATOM     24  O   UNL A   1      33.496  15.575  24.460  1.00  0.00    -0.258 OA
ENDBRANCH  16  22
ENDBRANCH   8  13
ENDBRANCH   4   7
ENDBRANCH   2   3
ENDBRANCH   1   2
BRANCH   1  25
ATOM     25  C   UNL A   1      36.517  23.542  25.938  1.00  0.00     0.118 C 
BRANCH  25  26
ATOM     26  N   UNL A   1      37.664  22.647  26.002  1.00  0.00    -0.352 N 
ATOM     27  C   UNL A   1      38.967  22.878  26.374  1.00  0.00     0.251 C 
ATOM     28  H   UNL A   1      37.475  21.718  25.736  1.00  0.00     0.163 HD
ATOM     29  O   UNL A   1      39.805  22.008  26.149  1.00  0.00    -0.269 OA
BRANCH  27  30
ATOM     30  C   UNL A   1      39.380  24.148  27.022  1.00  0.00     0.039 A 
ATOM     31  C   UNL A   1      40.081  25.089  26.260  1.00  0.00     0.014 A 
ATOM     32  C   UNL A   1      39.145  24.404  28.375  1.00  0.00     0.014 A 
ATOM     33  C   UNL A   1      40.507  26.286  26.842  1.00  0.00     0.010 A 
ATOM     34  C   UNL A   1      39.477  25.640  28.927  1.00  0.00     0.010 A 
ATOM     35  C   UNL A   1      40.189  26.583  28.177  1.00  0.00    -0.014 A 
BRANCH  35  36
ATOM     36  C   UNL A   1      40.631  27.858  28.802  1.00  0.00     0.031 A 
ATOM     37  C   UNL A   1      42.044  28.013  29.304  1.00  0.00     0.074 A 
ATOM     38  C   UNL A   1      39.751  28.869  28.945  1.00  0.00     0.049 A 
ATOM     39  N   UNL A   1      42.616  29.057  29.849  1.00  0.00    -0.248 NA
ATOM     40  C   UNL A   1      42.922  26.834  29.212  1.00  0.00     0.031 C 
ATOM     41  C   UNL A   1      38.337  28.823  28.564  1.00  0.00     0.029 A 
ATOM     42  N   UNL A   1      39.917  30.138  29.441  1.00  0.00    -0.354 N 
ATOM     43  C   UNL A   1      43.905  28.654  30.182  1.00  0.00     0.074 A 
ATOM     44  C   UNL A   1      44.015  27.256  29.831  1.00  0.00     0.031 C 
ATOM     45  C   UNL A   1      37.777  30.020  28.800  1.00  0.00     0.029 A 
ATOM     46  C   UNL A   1      38.782  30.910  29.373  1.00  0.00     0.049 A 
ATOM     47  H   UNL A   1      40.769  30.464  29.811  1.00  0.00     0.167 HD
ATOM     48  C   UNL A   1      44.917  29.385  30.710  1.00  0.00     0.031 A 
ATOM     49  C   UNL A   1      38.574  32.195  29.717  1.00  0.00     0.031 A 
ATOM     50  C   UNL A   1      44.814  30.783  31.032  1.00  0.00     0.049 A 
ATOM     51  C   UNL A   1      39.727  33.005  30.243  1.00  0.00     0.074 A 
ATOM     52  C   UNL A   1      45.798  31.634  31.504  1.00  0.00     0.029 A 
ATOM     53  N   UNL A   1      43.657  31.537  30.910  1.00  0.00    -0.354 N 
ATOM     54  N   UNL A   1      40.961  32.627  30.475  1.00  0.00    -0.248 NA
ATOM     55  C   UNL A   1      39.464  34.421  30.529  1.00  0.00     0.031 C 
ATOM     56  C   UNL A   1      45.225  32.894  31.706  1.00  0.00     0.029 A 
ATOM     57  C   UNL A   1      43.898  32.841  31.310  1.00  0.00     0.049 A 
ATOM     58  H   UNL A   1      42.792  31.196  30.588  1.00  0.00     0.167 HD
ATOM     59  C   UNL A   1      41.630  33.765  30.911  1.00  0.00     0.074 A 
ATOM     60  C   UNL A   1      40.666  34.847  30.892  1.00  0.00     0.031 C 
ATOM     61  C   UNL A   1      42.924  33.903  31.291  1.00  0.00     0.031 A 
BRANCH  48  62
ATOM     62  C   UNL A   1      46.224  28.679  30.966  1.00  0.00    -0.014 A 
ATOM     63  C   UNL A   1      46.492  28.069  32.206  1.00  0.00     0.010 A 
ATOM     64  C   UNL A   1      47.190  28.603  29.947  1.00  0.00     0.010 A 
ATOM     65  C   UNL A   1      47.718  27.441  32.438  1.00  0.00     0.020 A 
ATOM     66  C   UNL A   1      48.407  27.949  30.164  1.00  0.00     0.020 A 
ATOM     67  C   UNL A   1      48.671  27.390  31.416  1.00  0.00     0.054 A 
BRANCH  67  68
ATOM     68  S   UNL A   1      50.250  26.557  31.739  1.00  0.00     0.124 S 
ATOM     69  O   UNL A   1      49.986  25.210  31.239  1.00  0.00    -0.237 OA
ATOM     70  O   UNL A   1      51.196  27.344  30.954  1.00  0.00    -0.237 OA
ATOM     71  O   UNL A   1      50.407  26.663  33.188  1.00  0.00    -0.744 OA
ENDBRANCH  67  68
ENDBRANCH  48  62
BRANCH  49  72
ATOM     72  C   UNL A   1      37.229  32.804  29.526  1.00  0.00    -0.014 A 
ATOM     73  C   UNL A   1      36.359  32.974  30.617  1.00  0.00     0.010 A 
ATOM     74  C   UNL A   1      36.827  33.251  28.254  1.00  0.00     0.010 A 
ATOM     75  C   UNL A   1      35.105  33.566  30.439  1.00  0.00     0.020 A 
ATOM     76  C   UNL A   1      35.585  33.867  28.077  1.00  0.00     0.020 A 
ATOM     77  C   UNL A   1      34.727  34.012  29.169  1.00  0.00     0.054 A 
BRANCH  77  78
ATOM     78  S   UNL A   1      33.125  34.841  28.972  1.00  0.00     0.124 S 
ATOM     79  O   UNL A   1      33.523  36.167  28.510  1.00  0.00    -0.237 OA
ATOM     80  O   UNL A   1      32.452  34.000  27.986  1.00  0.00    -0.237 OA
ATOM     81  O   UNL A   1      32.550  34.791  30.316  1.00  0.00    -0.744 OA
ENDBRANCH  77  78
ENDBRANCH  49  72
BRANCH  61  82
ATOM     82  C   UNL A   1      43.378  35.281  31.688  1.00  0.00    -0.014 A 
ATOM     83  C   UNL A   1      43.293  35.723  33.020  1.00  0.00     0.010 A 
ATOM     84  C   UNL A   1      43.924  36.137  30.713  1.00  0.00     0.010 A 
ATOM     85  C   UNL A   1      43.698  37.015  33.361  1.00  0.00     0.020 A 
ATOM     86  C   UNL A   1      44.356  37.420  31.056  1.00  0.00     0.020 A 
ATOM     87  C   UNL A   1      44.221  37.858  32.374  1.00  0.00     0.054 A 
BRANCH  87  88
ATOM     88  S   UNL A   1      44.750  39.529  32.841  1.00  0.00     0.124 S 
ATOM     89  O   UNL A   1      45.974  39.261  33.591  1.00  0.00    -0.237 OA
ATOM     90  O   UNL A   1      44.936  40.182  31.548  1.00  0.00    -0.237 OA
ATOM     91  O   UNL A   1      43.631  40.037  33.633  1.00  0.00    -0.744 OA
ENDBRANCH  87  88
ENDBRANCH  61  82
ENDBRANCH  35  36
ENDBRANCH  27  30
ENDBRANCH  25  26
ENDBRANCH   1  25
TORSDOF 16
ENDMDL
MODEL 3
REMARK VINA RESULT:     -11.4      5.017     10.399
REMARK SMILES Nc1nc(N2CCOC[C@H]2C(=O)NCCCNC(=O)c2ccc(-c3c4nc(c(-c5ccc(S(=O)(=O)[O-])cc5)c5ccc([nH]5)c(-c5ccc(S(=O)(=O)[O-])cc5)c5nc(c(-c6ccc(S(=O)(=O)[O-])cc6)c6ccc3[nH]6)C=C5)C=C4)cc2)ccc1[N+](=O)[O-]
REMARK SMILES IDX 15 1 14 2 13 3 11 4 12 5 10 7 5 8 6 9 7 10 9 11 8 12 4 13
REMARK SMILES IDX 2 14 3 15 82 16 81 17 80 18 1 19 83 22 84 23 85 24 16 25
REMARK SMILES IDX 17 26 18 27 19 29 20 30 21 31 79 32 22 33 78 34 23 35 24 36
REMARK SMILES IDX 25 37 72 38 26 39 77 40 71 41 73 42 27 43 76 44 70 45 69 46
REMARK SMILES IDX 28 48 58 49 39 50 57 51 40 52 43 53 56 54 74 55 41 56 42 57
REMARK SMILES IDX 55 59 75 60 44 61 29 62 30 63 38 64 31 65 37 66 32 67 33 68
REMARK SMILES IDX 34 69 35 70 36 71 59 72 60 73 68 74 61 75 67 76 62 77 63 78
REMARK SMILES IDX 64 79 65 80 66 81 45 82 46 83 54 84 47 85 53 86 48 87 49 88
REMARK SMILES IDX 50 89 51 90 52 91
REMARK H PARENT 13 6 1 20 1 21 17 28 73 47 43 58
REMARK Flexibility Score: inf
ROOT
ATOM      1  C   UNL A   1      36.212  23.980  24.815  1.00  0.00     0.042 C 
ENDROOT
BRANCH   1   2
ATOM      2  C   UNL A   1      34.726  24.182  24.544  1.00  0.00     0.117 C 
BRANCH   2   3
ATOM      3  N   UNL A   1      34.384  23.913  23.163  1.00  0.00    -0.354 N 
ATOM      4  C   UNL A   1      33.326  23.287  22.578  1.00  0.00     0.245 C 
ATOM      5  O   UNL A   1      33.347  23.293  21.337  1.00  0.00    -0.273 OA
ATOM      6  H   UNL A   1      35.050  24.250  22.519  1.00  0.00     0.163 HD
BRANCH   4   7
ATOM      7  C   UNL A   1      32.111  22.684  23.324  1.00  0.00     0.199 C 
ATOM      8  N   UNL A   1      32.402  21.840  24.507  1.00  0.00    -0.340 N 
ATOM      9  C   UNL A   1      32.364  22.464  25.824  1.00  0.00     0.147 C 
ATOM     10  C   UNL A   1      31.114  23.333  25.964  1.00  0.00     0.181 C 
ATOM     11  C   UNL A   1      30.989  23.705  23.621  1.00  0.00     0.195 C 
ATOM     12  O   UNL A   1      31.031  24.313  24.923  1.00  0.00    -0.377 OA
BRANCH   8  13
ATOM     13  C   UNL A   1      32.678  20.500  24.339  1.00  0.00     0.132 A 
ATOM     14  C   UNL A   1      32.507  18.561  23.019  1.00  0.00     0.204 A 
ATOM     15  N   UNL A   1      32.199  19.864  23.248  1.00  0.00    -0.207 NA
ATOM     16  C   UNL A   1      33.277  17.831  23.917  1.00  0.00     0.311 A 
ATOM     17  C   UNL A   1      33.722  18.449  25.083  1.00  0.00     0.093 A 
ATOM     18  C   UNL A   1      33.412  19.790  25.288  1.00  0.00     0.054 A 
BRANCH  14  19
ATOM     19  N   UNL A   1      31.911  18.034  21.890  1.00  0.00    -0.378 N 
ATOM     20  H   UNL A   1      31.701  18.618  21.125  1.00  0.00     0.158 HD
ATOM     21  H   UNL A   1      31.697  17.074  21.850  1.00  0.00     0.158 HD
ENDBRANCH  14  19
BRANCH  16  22
ATOM     22  N   UNL A   1      33.653  16.443  23.670  1.00  0.00     0.066 N 
ATOM     23  O   UNL A   1      33.408  15.620  24.566  1.00  0.00    -0.258 OA
ATOM     24  O   UNL A   1      34.219  16.160  22.604  1.00  0.00    -0.258 OA
ENDBRANCH  16  22
ENDBRANCH   8  13
ENDBRANCH   4   7
ENDBRANCH   2   3
ENDBRANCH   1   2
BRANCH   1  25
ATOM     25  C   UNL A   1      36.508  23.396  26.187  1.00  0.00     0.118 C 
BRANCH  25  26
ATOM     26  N   UNL A   1      37.556  22.386  26.136  1.00  0.00    -0.352 N 
ATOM     27  C   UNL A   1      38.920  22.496  26.268  1.00  0.00     0.251 C 
ATOM     28  H   UNL A   1      37.234  21.468  25.980  1.00  0.00     0.163 HD
ATOM     29  O   UNL A   1      39.618  21.526  25.980  1.00  0.00    -0.269 OA
BRANCH  27  30
ATOM     30  C   UNL A   1      39.560  23.752  26.734  1.00  0.00     0.039 A 
ATOM     31  C   UNL A   1      39.913  23.861  28.083  1.00  0.00     0.014 A 
ATOM     32  C   UNL A   1      39.764  24.842  25.883  1.00  0.00     0.014 A 
ATOM     33  C   UNL A   1      40.495  25.037  28.563  1.00  0.00     0.010 A 
ATOM     34  C   UNL A   1      40.439  25.973  26.338  1.00  0.00     0.010 A 
ATOM     35  C   UNL A   1      40.785  26.098  27.689  1.00  0.00    -0.014 A 
BRANCH  35  36
ATOM     36  C   UNL A   1      41.413  27.349  28.189  1.00  0.00     0.031 A 
ATOM     37  C   UNL A   1      42.909  27.528  28.134  1.00  0.00     0.074 A 
ATOM     38  C   UNL A   1      40.639  28.317  28.721  1.00  0.00     0.049 A 
ATOM     39  N   UNL A   1      43.631  28.559  28.495  1.00  0.00    -0.248 NA
ATOM     40  C   UNL A   1      43.703  26.391  27.639  1.00  0.00     0.031 C 
ATOM     41  C   UNL A   1      39.186  28.239  28.896  1.00  0.00     0.029 A 
ATOM     42  N   UNL A   1      40.963  29.559  29.205  1.00  0.00    -0.354 N 
ATOM     43  C   UNL A   1      44.956  28.186  28.292  1.00  0.00     0.074 A 
ATOM     44  C   UNL A   1      44.943  26.816  27.830  1.00  0.00     0.031 C 
ATOM     45  C   UNL A   1      38.741  29.397  29.407  1.00  0.00     0.029 A 
ATOM     46  C   UNL A   1      39.876  30.290  29.620  1.00  0.00     0.049 A 
ATOM     47  H   UNL A   1      41.888  29.894  29.250  1.00  0.00     0.167 HD
ATOM     48  C   UNL A   1      46.082  28.923  28.451  1.00  0.00     0.031 A 
ATOM     49  C   UNL A   1      39.797  31.544  30.105  1.00  0.00     0.031 A 
ATOM     50  C   UNL A   1      46.090  30.295  28.883  1.00  0.00     0.049 A 
ATOM     51  C   UNL A   1      41.052  32.365  30.215  1.00  0.00     0.074 A 
ATOM     52  C   UNL A   1      47.168  31.153  29.009  1.00  0.00     0.029 A 
ATOM     53  N   UNL A   1      44.963  31.010  29.257  1.00  0.00    -0.354 N 
ATOM     54  N   UNL A   1      42.287  32.020  29.941  1.00  0.00    -0.248 NA
ATOM     55  C   UNL A   1      40.897  33.751  30.676  1.00  0.00     0.031 C 
ATOM     56  C   UNL A   1      46.697  32.376  29.497  1.00  0.00     0.029 A 
ATOM     57  C   UNL A   1      45.320  32.296  29.626  1.00  0.00     0.049 A 
ATOM     58  H   UNL A   1      44.044  30.656  29.260  1.00  0.00     0.167 HD
ATOM     59  C   UNL A   1      43.056  33.155  30.171  1.00  0.00     0.074 A 
ATOM     60  C   UNL A   1      42.142  34.200  30.589  1.00  0.00     0.031 C 
ATOM     61  C   UNL A   1      44.396  33.320  30.047  1.00  0.00     0.031 A 
BRANCH  48  62
ATOM     62  C   UNL A   1      47.399  28.253  28.149  1.00  0.00    -0.014 A 
ATOM     63  C   UNL A   1      47.921  28.229  26.842  1.00  0.00     0.010 A 
ATOM     64  C   UNL A   1      48.137  27.662  29.189  1.00  0.00     0.010 A 
ATOM     65  C   UNL A   1      49.130  27.583  26.573  1.00  0.00     0.020 A 
ATOM     66  C   UNL A   1      49.363  27.040  28.930  1.00  0.00     0.020 A 
ATOM     67  C   UNL A   1      49.841  26.987  27.619  1.00  0.00     0.054 A 
BRANCH  67  68
ATOM     68  S   UNL A   1      51.416  26.167  27.244  1.00  0.00     0.124 S 
ATOM     69  O   UNL A   1      52.142  26.325  28.501  1.00  0.00    -0.237 OA
ATOM     70  O   UNL A   1      51.001  24.803  26.926  1.00  0.00    -0.237 OA
ATOM     71  O   UNL A   1      51.945  26.932  26.118  1.00  0.00    -0.744 OA
ENDBRANCH  67  68
ENDBRANCH  48  62
BRANCH  49  72
ATOM     72  C   UNL A   1      38.471  32.112  30.475  1.00  0.00    -0.014 A 
ATOM     73  C   UNL A   1      37.964  31.958  31.778  1.00  0.00     0.010 A 
ATOM     74  C   UNL A   1      37.724  32.842  29.532  1.00  0.00     0.010 A 
ATOM     75  C   UNL A   1      36.729  32.511  32.128  1.00  0.00     0.020 A 
ATOM     76  C   UNL A   1      36.501  33.418  29.887  1.00  0.00     0.020 A 
ATOM     77  C   UNL A   1      36.006  33.241  31.180  1.00  0.00     0.054 A 
BRANCH  77  78
ATOM     78  S   UNL A   1      34.439  34.009  31.676  1.00  0.00     0.124 S 
ATOM     79  O   UNL A   1      33.758  34.165  30.394  1.00  0.00    -0.237 OA
ATOM     80  O   UNL A   1      33.869  33.013  32.579  1.00  0.00    -0.237 OA
ATOM     81  O   UNL A   1      34.858  35.253  32.319  1.00  0.00    -0.744 OA
ENDBRANCH  77  78
ENDBRANCH  49  72
BRANCH  61  82
ATOM     82  C   UNL A   1      44.949  34.689  30.338  1.00  0.00    -0.014 A 
ATOM     83  C   UNL A   1      45.049  35.665  29.332  1.00  0.00     0.010 A 
ATOM     84  C   UNL A   1      45.350  35.008  31.649  1.00  0.00     0.010 A 
ATOM     85  C   UNL A   1      45.588  36.921  29.619  1.00  0.00     0.020 A 
ATOM     86  C   UNL A   1      45.864  36.272  31.946  1.00  0.00     0.020 A 
ATOM     87  C   UNL A   1      45.999  37.213  30.924  1.00  0.00     0.054 A 
BRANCH  87  88
ATOM     88  S   UNL A   1      46.687  38.854  31.278  1.00  0.00     0.124 S 
ATOM     89  O   UNL A   1      45.553  39.727  30.987  1.00  0.00    -0.237 OA
ATOM     90  O   UNL A   1      47.056  38.752  32.688  1.00  0.00    -0.237 OA
ATOM     91  O   UNL A   1      47.813  38.963  30.353  1.00  0.00    -0.744 OA
ENDBRANCH  87  88
ENDBRANCH  61  82
ENDBRANCH  35  36
ENDBRANCH  27  30
ENDBRANCH  25  26
ENDBRANCH   1  25
TORSDOF 16
ENDMDL
