MODEL 1
REMARK VINA RESULT:     -10.0      0.000      0.000
REMARK SMILES O=C(NCCCNC(=O)[C@@H](CCCCl)[P@TB4](=O)(c1ccccc1)c1ccccc1)c1ccc(-c2c3nc(c(-c4ccc(S(=O)(=O)[O-])cc4)c4ccc([nH]4)c(-c4ccc(S(=O)(=O)[O-])cc4)c4nc(c(-c5ccc(S(=O)(=O)[O-])cc5)c5ccc2[nH]5)C=C4)C=C3)cc1
REMARK SMILES IDX 5 1 4 2 3 3 1 4 2 5 29 7 30 8 88 9 31 10 87 11 32 12 33 13
REMARK SMILES IDX 34 14 81 15 35 16 86 17 80 18 82 19 36 20 85 21 79 22 78 23
REMARK SMILES IDX 37 25 67 26 48 27 66 28 49 29 52 30 65 31 83 32 50 33 51 34
REMARK SMILES IDX 64 36 84 37 53 38 38 39 39 40 47 41 40 42 46 43 41 44 42 45
REMARK SMILES IDX 43 46 44 47 45 48 68 49 69 50 77 51 70 52 76 53 71 54 72 55
REMARK SMILES IDX 73 56 74 57 75 58 54 59 55 60 63 61 56 62 62 63 57 64 58 65
REMARK SMILES IDX 59 66 60 67 61 68 6 69 7 70 8 71 9 73 10 74 11 75 12 76
REMARK SMILES IDX 13 77 14 78 15 79 16 80 17 81 18 82 22 83 19 84 21 85 20 86
REMARK SMILES IDX 23 87 24 88 28 89 25 90 27 91 26 92
REMARK H PARENT 3 6 82 24 52 35 7 72
REMARK Flexibility Score: inf
ROOT
ATOM      1  C   UNL A   1      33.951  27.953  24.886  1.00  0.00       nan C 
ENDROOT
BRANCH   1   2
ATOM      2  C   UNL A   1      34.099  28.023  26.391  1.00  0.00       nan C 
BRANCH   2   3
ATOM      3  N   UNL A   1      33.748  29.338  26.897  1.00  0.00       nan N 
ATOM      4  O   UNL A   1      33.851  31.105  28.280  1.00  0.00       nan OA
ATOM      5  C   UNL A   1      34.431  30.153  27.768  1.00  0.00       nan C 
ATOM      6  H   UNL A   1      32.893  29.699  26.568  1.00  0.00       nan HD
BRANCH   5   7
ATOM      7  C   UNL A   1      35.846  29.871  28.105  1.00  0.00       nan A 
ATOM      8  C   UNL A   1      36.200  29.375  29.361  1.00  0.00       nan A 
ATOM      9  C   UNL A   1      36.836  30.070  27.138  1.00  0.00       nan A 
ATOM     10  C   UNL A   1      37.536  29.255  29.713  1.00  0.00       nan A 
ATOM     11  C   UNL A   1      38.175  29.808  27.449  1.00  0.00       nan A 
ATOM     12  C   UNL A   1      38.539  29.419  28.747  1.00  0.00       inf A 
BRANCH  12  13
ATOM     13  C   UNL A   1      39.939  29.064  29.097  1.00  0.00     0.031 A 
ATOM     14  C   UNL A   1      40.840  30.037  29.805  1.00  0.00     0.074 A 
ATOM     15  C   UNL A   1      40.384  27.833  28.776  1.00  0.00     0.049 A 
ATOM     16  N   UNL A   1      42.087  29.879  30.168  1.00  0.00    -0.248 NA
ATOM     17  C   UNL A   1      40.278  31.354  30.142  1.00  0.00     0.031 C 
ATOM     18  C   UNL A   1      39.598  26.804  28.083  1.00  0.00     0.029 A 
ATOM     19  N   UNL A   1      41.590  27.223  29.001  1.00  0.00    -0.354 N 
ATOM     20  C   UNL A   1      42.470  31.082  30.752  1.00  0.00     0.074 A 
ATOM     21  C   UNL A   1      41.328  31.967  30.674  1.00  0.00     0.031 C 
ATOM     22  C   UNL A   1      40.319  25.678  27.995  1.00  0.00     0.029 A 
ATOM     23  C   UNL A   1      41.646  25.929  28.538  1.00  0.00     0.049 A 
ATOM     24  H   UNL A   1      42.345  27.667  29.451  1.00  0.00     0.167 HD
ATOM     25  C   UNL A   1      43.664  31.412  31.302  1.00  0.00     0.031 A 
ATOM     26  C   UNL A   1      42.660  25.044  28.519  1.00  0.00     0.031 A 
ATOM     27  C   UNL A   1      44.795  30.520  31.366  1.00  0.00     0.049 A 
ATOM     28  C   UNL A   1      43.983  25.453  29.092  1.00  0.00     0.074 A 
ATOM     29  C   UNL A   1      46.041  30.752  31.924  1.00  0.00     0.029 A 
ATOM     30  N   UNL A   1      44.823  29.233  30.849  1.00  0.00    -0.354 N 
ATOM     31  N   UNL A   1      44.315  26.587  29.663  1.00  0.00    -0.248 NA
ATOM     32  C   UNL A   1      45.068  24.468  29.018  1.00  0.00     0.031 C 
ATOM     33  C   UNL A   1      46.841  29.629  31.688  1.00  0.00     0.029 A 
ATOM     34  C   UNL A   1      46.073  28.669  31.048  1.00  0.00     0.049 A 
ATOM     35  H   UNL A   1      44.067  28.787  30.404  1.00  0.00     0.167 HD
ATOM     36  C   UNL A   1      45.645  26.443  30.036  1.00  0.00     0.074 A 
ATOM     37  C   UNL A   1      46.046  25.106  29.645  1.00  0.00     0.031 C 
ATOM     38  C   UNL A   1      46.459  27.339  30.647  1.00  0.00     0.031 A 
BRANCH  25  39
ATOM     39  C   UNL A   1      43.824  32.809  31.848  1.00  0.00    -0.014 A 
ATOM     40  C   UNL A   1      43.591  33.097  33.204  1.00  0.00     0.010 A 
ATOM     41  C   UNL A   1      44.264  33.841  30.998  1.00  0.00     0.010 A 
ATOM     42  C   UNL A   1      43.754  34.399  33.691  1.00  0.00     0.020 A 
ATOM     43  C   UNL A   1      44.456  35.138  31.486  1.00  0.00     0.020 A 
ATOM     44  C   UNL A   1      44.183  35.411  32.827  1.00  0.00     0.054 A 
BRANCH  44  45
ATOM     45  S   UNL A   1      44.400  37.085  33.490  1.00  0.00     0.124 S 
ATOM     46  O   UNL A   1      44.982  36.814  34.803  1.00  0.00    -0.237 OA
ATOM     47  O   UNL A   1      45.301  37.700  32.519  1.00  0.00    -0.237 OA
ATOM     48  O   UNL A   1      43.045  37.631  33.511  1.00  0.00    -0.744 OA
ENDBRANCH  44  45
ENDBRANCH  25  39
BRANCH  26  49
ATOM     49  C   UNL A   1      42.457  23.702  27.910  1.00  0.00    -0.014 A 
ATOM     50  C   UNL A   1      42.747  23.477  26.553  1.00  0.00     0.010 A 
ATOM     51  C   UNL A   1      42.000  22.629  28.698  1.00  0.00     0.010 A 
ATOM     52  C   UNL A   1      42.569  22.208  25.993  1.00  0.00     0.020 A 
ATOM     53  C   UNL A   1      41.854  21.352  28.151  1.00  0.00     0.020 A 
ATOM     54  C   UNL A   1      42.127  21.153  26.798  1.00  0.00     0.054 A 
BRANCH  54  55
ATOM     55  S   UNL A   1      41.952  19.506  26.060  1.00  0.00     0.124 S 
ATOM     56  O   UNL A   1      42.471  18.643  27.116  1.00  0.00    -0.237 OA
ATOM     57  O   UNL A   1      40.513  19.421  25.821  1.00  0.00    -0.237 OA
ATOM     58  O   UNL A   1      42.773  19.582  24.853  1.00  0.00    -0.744 OA
ENDBRANCH  54  55
ENDBRANCH  26  49
BRANCH  38  59
ATOM     59  C   UNL A   1      47.860  26.886  30.966  1.00  0.00    -0.014 A 
ATOM     60  C   UNL A   1      48.929  27.141  30.088  1.00  0.00     0.010 A 
ATOM     61  C   UNL A   1      48.113  26.229  32.184  1.00  0.00     0.010 A 
ATOM     62  C   UNL A   1      50.221  26.718  30.409  1.00  0.00     0.020 A 
ATOM     63  C   UNL A   1      49.409  25.834  32.523  1.00  0.00     0.020 A 
ATOM     64  C   UNL A   1      50.452  26.069  31.626  1.00  0.00     0.054 A 
BRANCH  64  65
ATOM     65  S   UNL A   1      52.146  25.569  32.038  1.00  0.00     0.124 S 
ATOM     66  O   UNL A   1      52.422  26.378  33.222  1.00  0.00    -0.237 OA
ATOM     67  O   UNL A   1      52.006  24.134  32.274  1.00  0.00    -0.237 OA
ATOM     68  O   UNL A   1      52.913  25.927  30.846  1.00  0.00    -0.744 OA
ENDBRANCH  64  65
ENDBRANCH  38  59
ENDBRANCH  12  13
ENDBRANCH   5   7
ENDBRANCH   2   3
ENDBRANCH   1   2
BRANCH   1  69
ATOM     69  C   UNL A   1      32.947  26.899  24.457  1.00  0.00       nan C 
BRANCH  69  70
ATOM     70  N   UNL A   1      33.132  26.555  23.064  1.00  0.00       nan N 
ATOM     71  C   UNL A   1      33.293  25.366  22.437  1.00  0.00       nan C 
ATOM     72  H   UNL A   1      33.143  27.331  22.459  1.00  0.00       nan HD
ATOM     73  O   UNL A   1      33.487  25.415  21.216  1.00  0.00       nan OA
BRANCH  71  74
ATOM     74  C   UNL A   1      33.351  24.036  23.149  1.00  0.00       nan C 
BRANCH  74  75
ATOM     75  C   UNL A   1      32.714  22.900  22.288  1.00  0.00       nan C 
BRANCH  75  76
ATOM     76  C   UNL A   1      31.879  21.776  22.929  1.00  0.00       nan C 
BRANCH  76  77
ATOM     77  C   UNL A   1      32.537  20.450  23.294  1.00  0.00       nan C 
ATOM     78  Cl  UNL A   1      32.176  19.942  24.952  1.00  0.00       nan Cl
ENDBRANCH  76  77
ENDBRANCH  75  76
ENDBRANCH  74  75
BRANCH  74  79
ATOM     79  P   UNL A   1      34.921  23.546  23.952  1.00  0.00       nan P 
ATOM     80  O   UNL A   1      35.314  25.039  24.059  1.00  0.00       nan OA
BRANCH  79  81
ATOM     81  C   UNL A   1      33.970  23.010  25.574  1.00  0.00       nan A 
ATOM     82  C   UNL A   1      32.776  23.661  25.925  1.00  0.00       nan A 
ATOM     83  C   UNL A   1      34.520  22.054  26.436  1.00  0.00       nan A 
ATOM     84  C   UNL A   1      32.167  23.379  27.149  1.00  0.00       nan A 
ATOM     85  C   UNL A   1      33.881  21.745  27.636  1.00  0.00       nan A 
ATOM     86  C   UNL A   1      32.716  22.419  27.999  1.00  0.00       nan A 
ENDBRANCH  79  81
BRANCH  79  87
ATOM     87  C   UNL A   1      36.491  23.057  24.754  1.00  0.00       nan A 
ATOM     88  C   UNL A   1      37.020  21.785  24.481  1.00  0.00       nan A 
ATOM     89  C   UNL A   1      37.201  23.880  25.647  1.00  0.00       nan A 
ATOM     90  C   UNL A   1      38.179  21.335  25.121  1.00  0.00       nan A 
ATOM     91  C   UNL A   1      38.344  23.422  26.307  1.00  0.00       nan A 
ATOM     92  C   UNL A   1      38.828  22.146  26.048  1.00  0.00       nan A 
ENDBRANCH  79  87
ENDBRANCH  74  79
ENDBRANCH  71  74
ENDBRANCH  69  70
ENDBRANCH   1  69
TORSDOF 19
ENDMDL
MODEL 2
REMARK VINA RESULT:      -9.4      2.532      3.189
REMARK SMILES O=C(NCCCNC(=O)[C@@H](CCCCl)[P@TB4](=O)(c1ccccc1)c1ccccc1)c1ccc(-c2c3nc(c(-c4ccc(S(=O)(=O)[O-])cc4)c4ccc([nH]4)c(-c4ccc(S(=O)(=O)[O-])cc4)c4nc(c(-c5ccc(S(=O)(=O)[O-])cc5)c5ccc2[nH]5)C=C4)C=C3)cc1
REMARK SMILES IDX 5 1 4 2 3 3 1 4 2 5 29 7 30 8 88 9 31 10 87 11 32 12 33 13
REMARK SMILES IDX 34 14 81 15 35 16 86 17 80 18 82 19 36 20 85 21 79 22 78 23
REMARK SMILES IDX 37 25 67 26 48 27 66 28 49 29 52 30 65 31 83 32 50 33 51 34
REMARK SMILES IDX 64 36 84 37 53 38 38 39 39 40 47 41 40 42 46 43 41 44 42 45
REMARK SMILES IDX 43 46 44 47 45 48 68 49 69 50 77 51 70 52 76 53 71 54 72 55
REMARK SMILES IDX 73 56 74 57 75 58 54 59 55 60 63 61 56 62 62 63 57 64 58 65
REMARK SMILES IDX 59 66 60 67 61 68 6 69 7 70 8 71 9 73 10 74 11 75 12 76
REMARK SMILES IDX 13 77 14 78 15 79 16 80 17 81 18 82 22 83 19 84 21 85 20 86
REMARK SMILES IDX 23 87 24 88 28 89 25 90 27 91 26 92
REMARK H PARENT 3 6 82 24 52 35 7 72
REMARK Flexibility Score: inf
ROOT
ATOM      1  C   UNL A   1      33.658  28.520  24.859  1.00  0.00       nan C 
ENDROOT
BRANCH   1   2
ATOM      2  C   UNL A   1      34.106  28.871  26.262  1.00  0.00       nan C 
BRANCH   2   3
ATOM      3  N   UNL A   1      33.836  30.264  26.570  1.00  0.00       nan N 
ATOM      4  O   UNL A   1      33.865  32.141  27.804  1.00  0.00       nan OA
ATOM      5  C   UNL A   1      34.407  31.079  27.519  1.00  0.00       nan C 
ATOM      6  H   UNL A   1      33.141  30.688  26.017  1.00  0.00       nan HD
BRANCH   5   7
ATOM      7  C   UNL A   1      35.652  30.666  28.210  1.00  0.00       nan A 
ATOM      8  C   UNL A   1      36.864  31.307  27.948  1.00  0.00       nan A 
ATOM      9  C   UNL A   1      35.603  29.646  29.164  1.00  0.00       nan A 
ATOM     10  C   UNL A   1      38.043  30.816  28.489  1.00  0.00       nan A 
ATOM     11  C   UNL A   1      36.773  29.248  29.819  1.00  0.00       nan A 
ATOM     12  C   UNL A   1      38.008  29.816  29.471  1.00  0.00       inf A 
BRANCH  12  13
ATOM     13  C   UNL A   1      39.262  29.471  30.191  1.00  0.00     0.031 A 
ATOM     14  C   UNL A   1      39.666  30.187  31.449  1.00  0.00     0.074 A 
ATOM     15  C   UNL A   1      40.031  28.482  29.692  1.00  0.00     0.049 A 
ATOM     16  N   UNL A   1      40.734  30.008  32.184  1.00  0.00    -0.248 NA
ATOM     17  C   UNL A   1      38.766  31.240  31.944  1.00  0.00     0.031 C 
ATOM     18  C   UNL A   1      39.740  27.719  28.472  1.00  0.00     0.029 A 
ATOM     19  N   UNL A   1      41.200  27.931  30.150  1.00  0.00    -0.354 N 
ATOM     20  C   UNL A   1      40.651  30.940  33.212  1.00  0.00     0.074 A 
ATOM     21  C   UNL A   1      39.438  31.698  32.993  1.00  0.00     0.031 C 
ATOM     22  C   UNL A   1      40.668  26.764  28.314  1.00  0.00     0.029 A 
ATOM     23  C   UNL A   1      41.667  26.905  29.363  1.00  0.00     0.049 A 
ATOM     24  H   UNL A   1      41.660  28.239  30.964  1.00  0.00     0.167 HD
ATOM     25  C   UNL A   1      41.509  31.141  34.242  1.00  0.00     0.031 A 
ATOM     26  C   UNL A   1      42.793  26.172  29.449  1.00  0.00     0.031 A 
ATOM     27  C   UNL A   1      42.717  30.381  34.443  1.00  0.00     0.049 A 
ATOM     28  C   UNL A   1      43.746  26.448  30.573  1.00  0.00     0.074 A 
ATOM     29  C   UNL A   1      43.641  30.491  35.469  1.00  0.00     0.029 A 
ATOM     30  N   UNL A   1      43.176  29.378  33.601  1.00  0.00    -0.354 N 
ATOM     31  N   UNL A   1      43.635  27.317  31.549  1.00  0.00    -0.248 NA
ATOM     32  C   UNL A   1      44.976  25.648  30.607  1.00  0.00     0.031 C 
ATOM     33  C   UNL A   1      44.688  29.600  35.212  1.00  0.00     0.029 A 
ATOM     34  C   UNL A   1      44.383  28.882  34.066  1.00  0.00     0.049 A 
ATOM     35  H   UNL A   1      42.713  29.066  32.790  1.00  0.00     0.167 HD
ATOM     36  C   UNL A   1      44.773  27.154  32.328  1.00  0.00     0.074 A 
ATOM     37  C   UNL A   1      45.546  26.089  31.720  1.00  0.00     0.031 C 
ATOM     38  C   UNL A   1      45.144  27.826  33.446  1.00  0.00     0.031 A 
BRANCH  25  39
ATOM     39  C   UNL A   1      41.193  32.249  35.215  1.00  0.00    -0.014 A 
ATOM     40  C   UNL A   1      41.551  33.583  34.949  1.00  0.00     0.010 A 
ATOM     41  C   UNL A   1      40.480  31.957  36.393  1.00  0.00     0.010 A 
ATOM     42  C   UNL A   1      41.239  34.596  35.862  1.00  0.00     0.020 A 
ATOM     43  C   UNL A   1      40.141  32.971  37.295  1.00  0.00     0.020 A 
ATOM     44  C   UNL A   1      40.539  34.283  37.031  1.00  0.00     0.054 A 
BRANCH  44  45
ATOM     45  S   UNL A   1      40.136  35.620  38.188  1.00  0.00     0.124 S 
ATOM     46  O   UNL A   1      39.994  36.763  37.287  1.00  0.00    -0.237 OA
ATOM     47  O   UNL A   1      38.899  35.149  38.803  1.00  0.00    -0.237 OA
ATOM     48  O   UNL A   1      41.293  35.671  39.079  1.00  0.00    -0.744 OA
ENDBRANCH  44  45
ENDBRANCH  25  39
BRANCH  26  49
ATOM     49  C   UNL A   1      43.079  25.134  28.423  1.00  0.00    -0.014 A 
ATOM     50  C   UNL A   1      42.733  23.790  28.643  1.00  0.00     0.010 A 
ATOM     51  C   UNL A   1      43.674  25.494  27.199  1.00  0.00     0.010 A 
ATOM     52  C   UNL A   1      42.991  22.824  27.666  1.00  0.00     0.020 A 
ATOM     53  C   UNL A   1      43.902  24.539  26.207  1.00  0.00     0.020 A 
ATOM     54  C   UNL A   1      43.570  23.206  26.453  1.00  0.00     0.054 A 
BRANCH  54  55
ATOM     55  S   UNL A   1      43.850  21.943  25.182  1.00  0.00     0.124 S 
ATOM     56  O   UNL A   1      45.212  21.511  25.478  1.00  0.00    -0.237 OA
ATOM     57  O   UNL A   1      42.799  20.969  25.470  1.00  0.00    -0.237 OA
ATOM     58  O   UNL A   1      43.683  22.675  23.929  1.00  0.00    -0.744 OA
ENDBRANCH  54  55
ENDBRANCH  26  49
BRANCH  38  59
ATOM     59  C   UNL A   1      46.429  27.402  34.107  1.00  0.00    -0.014 A 
ATOM     60  C   UNL A   1      47.642  28.061  33.838  1.00  0.00     0.010 A 
ATOM     61  C   UNL A   1      46.410  26.351  35.042  1.00  0.00     0.010 A 
ATOM     62  C   UNL A   1      48.820  27.654  34.470  1.00  0.00     0.020 A 
ATOM     63  C   UNL A   1      47.579  25.963  35.699  1.00  0.00     0.020 A 
ATOM     64  C   UNL A   1      48.780  26.609  35.398  1.00  0.00     0.054 A 
BRANCH  64  65
ATOM     65  S   UNL A   1      50.315  26.129  36.236  1.00  0.00     0.124 S 
ATOM     66  O   UNL A   1      49.884  26.033  37.629  1.00  0.00    -0.237 OA
ATOM     67  O   UNL A   1      50.647  24.861  35.592  1.00  0.00    -0.237 OA
ATOM     68  O   UNL A   1      51.229  27.230  35.941  1.00  0.00    -0.744 OA
ENDBRANCH  64  65
ENDBRANCH  38  59
ENDBRANCH  12  13
ENDBRANCH   5   7
ENDBRANCH   2   3
ENDBRANCH   1   2
BRANCH   1  69
ATOM     69  C   UNL A   1      33.450  27.027  24.681  1.00  0.00       nan C 
BRANCH  69  70
ATOM     70  N   UNL A   1      33.558  26.660  23.285  1.00  0.00       nan N 
ATOM     71  C   UNL A   1      33.547  25.460  22.660  1.00  0.00       nan C 
ATOM     72  H   UNL A   1      33.657  27.427  22.677  1.00  0.00       nan HD
ATOM     73  O   UNL A   1      33.719  25.481  21.436  1.00  0.00       nan OA
BRANCH  71  74
ATOM     74  C   UNL A   1      33.447  24.134  23.377  1.00  0.00       nan C 
BRANCH  74  75
ATOM     75  C   UNL A   1      32.602  23.106  22.559  1.00  0.00       nan C 
BRANCH  75  76
ATOM     76  C   UNL A   1      32.032  21.834  23.211  1.00  0.00       nan C 
BRANCH  76  77
ATOM     77  C   UNL A   1      32.187  20.485  22.517  1.00  0.00       nan C 
ATOM     78  Cl  UNL A   1      32.488  19.161  23.654  1.00  0.00       nan Cl
ENDBRANCH  76  77
ENDBRANCH  75  76
ENDBRANCH  74  75
BRANCH  74  79
ATOM     79  P   UNL A   1      34.969  23.415  24.096  1.00  0.00       nan P 
ATOM     80  O   UNL A   1      35.585  24.833  24.169  1.00  0.00       nan OA
BRANCH  79  81
ATOM     81  C   UNL A   1      34.041  23.027  25.772  1.00  0.00       nan A 
ATOM     82  C   UNL A   1      34.431  21.918  26.541  1.00  0.00       nan A 
ATOM     83  C   UNL A   1      32.930  23.786  26.160  1.00  0.00       nan A 
ATOM     84  C   UNL A   1      33.686  21.557  27.664  1.00  0.00       nan A 
ATOM     85  C   UNL A   1      32.218  23.444  27.310  1.00  0.00       nan A 
ATOM     86  C   UNL A   1      32.585  22.322  28.050  1.00  0.00       nan A 
ENDBRANCH  79  81
BRANCH  79  87
ATOM     87  C   UNL A   1      36.491  22.698  24.814  1.00  0.00       nan A 
ATOM     88  C   UNL A   1      37.282  23.499  25.654  1.00  0.00       nan A 
ATOM     89  C   UNL A   1      36.929  21.384  24.564  1.00  0.00       nan A 
ATOM     90  C   UNL A   1      38.491  23.023  26.173  1.00  0.00       nan A 
ATOM     91  C   UNL A   1      38.148  20.918  25.059  1.00  0.00       nan A 
ATOM     92  C   UNL A   1      38.932  21.741  25.859  1.00  0.00       nan A 
ENDBRANCH  79  87
ENDBRANCH  74  79
ENDBRANCH  71  74
ENDBRANCH  69  70
ENDBRANCH   1  69
TORSDOF 19
ENDMDL
MODEL 3
REMARK VINA RESULT:      -8.8      5.638     12.052
REMARK SMILES O=C(NCCCNC(=O)[C@@H](CCCCl)[P@TB4](=O)(c1ccccc1)c1ccccc1)c1ccc(-c2c3nc(c(-c4ccc(S(=O)(=O)[O-])cc4)c4ccc([nH]4)c(-c4ccc(S(=O)(=O)[O-])cc4)c4nc(c(-c5ccc(S(=O)(=O)[O-])cc5)c5ccc2[nH]5)C=C4)C=C3)cc1
REMARK SMILES IDX 5 1 4 2 3 3 1 4 2 5 29 7 30 8 88 9 31 10 87 11 32 12 33 13
REMARK SMILES IDX 34 14 81 15 35 16 86 17 80 18 82 19 36 20 85 21 79 22 78 23
REMARK SMILES IDX 37 25 67 26 48 27 66 28 49 29 52 30 65 31 83 32 50 33 51 34
REMARK SMILES IDX 64 36 84 37 53 38 38 39 39 40 47 41 40 42 46 43 41 44 42 45
REMARK SMILES IDX 43 46 44 47 45 48 68 49 69 50 77 51 70 52 76 53 71 54 72 55
REMARK SMILES IDX 73 56 74 57 75 58 54 59 55 60 63 61 56 62 62 63 57 64 58 65
REMARK SMILES IDX 59 66 60 67 61 68 6 69 7 70 8 71 9 73 10 74 11 75 12 76
REMARK SMILES IDX 13 77 14 78 15 79 16 80 17 81 18 82 22 83 19 84 21 85 20 86
REMARK SMILES IDX 23 87 24 88 28 89 25 90 27 91 26 92
REMARK H PARENT 3 6 82 24 52 35 7 72
REMARK Flexibility Score: inf
ROOT
ATOM      1  C   UNL A   1      43.979  25.119  25.061  1.00  0.00       nan C 
ENDROOT
BRANCH   1   2
ATOM      2  C   UNL A   1      43.007  24.988  26.215  1.00  0.00       nan C 
BRANCH   2   3
ATOM      3  N   UNL A   1      41.650  24.783  25.742  1.00  0.00       nan N 
ATOM      4  O   UNL A   1      39.414  24.630  25.908  1.00  0.00       nan OA
ATOM      5  C   UNL A   1      40.455  25.120  26.333  1.00  0.00       nan C 
ATOM      6  H   UNL A   1      41.574  24.334  24.869  1.00  0.00       nan HD
BRANCH   5   7
ATOM      7  C   UNL A   1      40.426  26.048  27.488  1.00  0.00       nan A 
ATOM      8  C   UNL A   1      41.179  27.224  27.483  1.00  0.00       nan A 
ATOM      9  C   UNL A   1      39.605  25.759  28.582  1.00  0.00       nan A 
ATOM     10  C   UNL A   1      41.257  28.007  28.625  1.00  0.00       nan A 
ATOM     11  C   UNL A   1      39.574  26.629  29.678  1.00  0.00       nan A 
ATOM     12  C   UNL A   1      40.417  27.750  29.718  1.00  0.00       inf A 
BRANCH  12  13
ATOM     13  C   UNL A   1      40.363  28.734  30.830  1.00  0.00     0.031 A 
ATOM     14  C   UNL A   1      41.294  28.639  32.006  1.00  0.00     0.074 A 
ATOM     15  C   UNL A   1      39.461  29.733  30.754  1.00  0.00     0.049 A 
ATOM     16  N   UNL A   1      41.363  29.414  33.059  1.00  0.00    -0.248 NA
ATOM     17  C   UNL A   1      42.266  27.535  32.010  1.00  0.00     0.031 C 
ATOM     18  C   UNL A   1      38.501  29.923  29.659  1.00  0.00     0.029 A 
ATOM     19  N   UNL A   1      39.210  30.787  31.594  1.00  0.00    -0.354 N 
ATOM     20  C   UNL A   1      42.364  28.880  33.862  1.00  0.00     0.074 A 
ATOM     21  C   UNL A   1      42.859  27.701  33.185  1.00  0.00     0.031 C 
ATOM     22  C   UNL A   1      37.812  31.054  29.865  1.00  0.00     0.029 A 
ATOM     23  C   UNL A   1      38.211  31.619  31.145  1.00  0.00     0.049 A 
ATOM     24  H   UNL A   1      39.697  30.934  32.436  1.00  0.00     0.167 HD
ATOM     25  C   UNL A   1      42.824  29.334  35.053  1.00  0.00     0.031 A 
ATOM     26  C   UNL A   1      37.648  32.703  31.711  1.00  0.00     0.031 A 
ATOM     27  C   UNL A   1      42.315  30.507  35.719  1.00  0.00     0.049 A 
ATOM     28  C   UNL A   1      38.147  33.155  33.051  1.00  0.00     0.074 A 
ATOM     29  C   UNL A   1      42.731  31.064  36.917  1.00  0.00     0.029 A 
ATOM     30  N   UNL A   1      41.276  31.299  35.251  1.00  0.00    -0.354 N 
ATOM     31  N   UNL A   1      39.112  32.650  33.782  1.00  0.00    -0.248 NA
ATOM     32  C   UNL A   1      37.480  34.321  33.644  1.00  0.00     0.031 C 
ATOM     33  C   UNL A   1      41.901  32.153  37.203  1.00  0.00     0.029 A 
ATOM     34  C   UNL A   1      41.016  32.321  36.150  1.00  0.00     0.049 A 
ATOM     35  H   UNL A   1      40.792  31.154  34.406  1.00  0.00     0.167 HD
ATOM     36  C   UNL A   1      39.184  33.450  34.914  1.00  0.00     0.074 A 
ATOM     37  C   UNL A   1      38.179  34.483  34.759  1.00  0.00     0.031 C 
ATOM     38  C   UNL A   1      40.007  33.338  35.985  1.00  0.00     0.031 A 
BRANCH  25  39
ATOM     39  C   UNL A   1      43.911  28.542  35.735  1.00  0.00    -0.014 A 
ATOM     40  C   UNL A   1      43.609  27.512  36.644  1.00  0.00     0.010 A 
ATOM     41  C   UNL A   1      45.259  28.801  35.424  1.00  0.00     0.010 A 
ATOM     42  C   UNL A   1      44.634  26.784  37.258  1.00  0.00     0.020 A 
ATOM     43  C   UNL A   1      46.287  28.057  36.014  1.00  0.00     0.020 A 
ATOM     44  C   UNL A   1      45.967  27.064  36.941  1.00  0.00     0.054 A 
BRANCH  44  45
ATOM     45  S   UNL A   1      47.273  26.094  37.742  1.00  0.00     0.124 S 
ATOM     46  O   UNL A   1      48.088  25.688  36.599  1.00  0.00    -0.237 OA
ATOM     47  O   UNL A   1      47.890  27.066  38.639  1.00  0.00    -0.237 OA
ATOM     48  O   UNL A   1      46.547  25.012  38.404  1.00  0.00    -0.744 OA
ENDBRANCH  44  45
ENDBRANCH  25  39
BRANCH  26  49
ATOM     49  C   UNL A   1      36.537  33.406  31.016  1.00  0.00    -0.014 A 
ATOM     50  C   UNL A   1      36.756  34.068  29.796  1.00  0.00     0.010 A 
ATOM     51  C   UNL A   1      35.238  33.387  31.561  1.00  0.00     0.010 A 
ATOM     52  C   UNL A   1      35.701  34.713  29.143  1.00  0.00     0.020 A 
ATOM     53  C   UNL A   1      34.175  33.999  30.893  1.00  0.00     0.020 A 
ATOM     54  C   UNL A   1      34.417  34.670  29.694  1.00  0.00     0.054 A 
BRANCH  54  55
ATOM     55  S   UNL A   1      33.056  35.470  28.802  1.00  0.00     0.124 S 
ATOM     56  O   UNL A   1      32.263  36.026  29.894  1.00  0.00    -0.237 OA
ATOM     57  O   UNL A   1      33.757  36.444  27.968  1.00  0.00    -0.237 OA
ATOM     58  O   UNL A   1      32.432  34.370  28.071  1.00  0.00    -0.744 OA
ENDBRANCH  54  55
ENDBRANCH  26  49
BRANCH  38  59
ATOM     59  C   UNL A   1      39.881  34.386  37.060  1.00  0.00    -0.014 A 
ATOM     60  C   UNL A   1      39.093  34.169  38.204  1.00  0.00     0.010 A 
ATOM     61  C   UNL A   1      40.598  35.590  36.937  1.00  0.00     0.010 A 
ATOM     62  C   UNL A   1      38.998  35.152  39.191  1.00  0.00     0.020 A 
ATOM     63  C   UNL A   1      40.531  36.563  37.937  1.00  0.00     0.020 A 
ATOM     64  C   UNL A   1      39.719  36.342  39.052  1.00  0.00     0.054 A 
BRANCH  64  65
ATOM     65  S   UNL A   1      39.613  37.585  40.368  1.00  0.00     0.124 S 
ATOM     66  O   UNL A   1      38.942  36.843  41.433  1.00  0.00    -0.237 OA
ATOM     67  O   UNL A   1      41.015  37.910  40.614  1.00  0.00    -0.237 OA
ATOM     68  O   UNL A   1      38.826  38.660  39.767  1.00  0.00    -0.744 OA
ENDBRANCH  64  65
ENDBRANCH  38  59
ENDBRANCH  12  13
ENDBRANCH   5   7
ENDBRANCH   2   3
ENDBRANCH   1   2
BRANCH   1  69
ATOM     69  C   UNL A   1      45.334  25.635  25.510  1.00  0.00       nan C 
BRANCH  69  70
ATOM     70  N   UNL A   1      45.738  26.770  24.707  1.00  0.00       nan N 
ATOM     71  C   UNL A   1      46.417  27.900  25.013  1.00  0.00       nan C 
ATOM     72  H   UNL A   1      45.469  26.708  23.763  1.00  0.00       nan HD
ATOM     73  O   UNL A   1      46.556  28.718  24.095  1.00  0.00       nan OA
BRANCH  71  74
ATOM     74  C   UNL A   1      46.902  28.246  26.401  1.00  0.00       nan C 
BRANCH  74  75
ATOM     75  C   UNL A   1      48.430  28.568  26.406  1.00  0.00       nan C 
BRANCH  75  76
ATOM     76  C   UNL A   1      49.485  27.459  26.568  1.00  0.00       nan C 
BRANCH  76  77
ATOM     77  C   UNL A   1      49.050  26.030  26.875  1.00  0.00       nan C 
ATOM     78  Cl  UNL A   1      48.614  25.799  28.575  1.00  0.00       nan Cl
ENDBRANCH  76  77
ENDBRANCH  75  76
ENDBRANCH  74  75
BRANCH  74  79
ATOM     79  P   UNL A   1      45.909  29.411  27.405  1.00  0.00       nan P 
ATOM     80  O   UNL A   1      44.685  29.119  26.504  1.00  0.00       nan OA
BRANCH  79  81
ATOM     81  C   UNL A   1      45.911  28.170  28.916  1.00  0.00       nan A 
ATOM     82  C   UNL A   1      45.150  26.992  28.847  1.00  0.00       nan A 
ATOM     83  C   UNL A   1      46.583  28.495  30.100  1.00  0.00       nan A 
ATOM     84  C   UNL A   1      45.038  26.173  29.971  1.00  0.00       nan A 
ATOM     85  C   UNL A   1      46.502  27.648  31.205  1.00  0.00       nan A 
ATOM     86  C   UNL A   1      45.717  26.498  31.145  1.00  0.00       nan A 
ENDBRANCH  79  81
BRANCH  79  87
ATOM     87  C   UNL A   1      44.916  30.575  28.408  1.00  0.00       nan A 
ATOM     88  C   UNL A   1      45.504  31.785  28.815  1.00  0.00       nan A 
ATOM     89  C   UNL A   1      43.592  30.326  28.811  1.00  0.00       nan A 
ATOM     90  C   UNL A   1      44.814  32.678  29.641  1.00  0.00       nan A 
ATOM     91  C   UNL A   1      42.912  31.204  29.658  1.00  0.00       nan A 
ATOM     92  C   UNL A   1      43.527  32.377  30.077  1.00  0.00       nan A 
ENDBRANCH  79  87
ENDBRANCH  74  79
ENDBRANCH  71  74
ENDBRANCH  69  70
ENDBRANCH   1  69
TORSDOF 19
ENDMDL
