MODEL 1
REMARK VINA RESULT:     -11.7      0.000      0.000
REMARK SMILES C[C@@H](NC(=O)[C@@H]1CC[C@@H]2CCCC[C@@H]2[NH2+]1)C(=O)NCCCNC(=O)c1ccc(-c2c3nc(c(-c4ccc(S(=O)(=O)[O-])cc4)c4ccc([nH]4)c(-c4ccc(S(=O)(=O)[O-])cc4)c4nc(c(-c5ccc(S(=O)(=O)[O-])cc5)c5ccc2[nH]5)C=C4)C=C3)cc1
REMARK SMILES IDX 20 1 19 2 18 3 16 4 17 5 2 7 1 8 3 9 4 10 5 12 6 13 7 14
REMARK SMILES IDX 15 15 8 16 14 17 9 20 13 21 10 22 12 23 11 24 21 25 22 26
REMARK SMILES IDX 23 27 24 29 25 30 26 31 84 32 27 33 83 34 28 35 29 36 30 37
REMARK SMILES IDX 77 38 31 39 82 40 76 41 78 42 32 43 81 44 75 45 74 46 33 48
REMARK SMILES IDX 63 49 44 50 62 51 45 52 48 53 61 54 79 55 46 56 47 57 60 59
REMARK SMILES IDX 80 60 49 61 34 62 35 63 43 64 36 65 42 66 37 67 38 68 39 69
REMARK SMILES IDX 40 70 41 71 64 72 65 73 73 74 66 75 72 76 67 77 68 78 69 79
REMARK SMILES IDX 70 80 71 81 50 82 51 83 59 84 52 85 58 86 53 87 54 88 55 89
REMARK SMILES IDX 56 90 57 91
REMARK H PARENT 18 6 3 11 15 18 15 19 22 28 78 47 48 58
REMARK Flexibility Score: inf
ROOT
ATOM      1  C   UNL A   1      33.930  28.603  26.041  1.00  0.00     0.042 C 
ENDROOT
BRANCH   1   2
ATOM      2  C   UNL A   1      33.054  29.092  24.902  1.00  0.00     0.117 C 
BRANCH   2   3
ATOM      3  N   UNL A   1      33.716  29.024  23.609  1.00  0.00    -0.354 N 
ATOM      4  C   UNL A   1      33.591  28.094  22.621  1.00  0.00     0.242 C 
ATOM      5  O   UNL A   1      34.273  28.241  21.603  1.00  0.00    -0.273 OA
ATOM      6  H   UNL A   1      34.347  29.755  23.420  1.00  0.00     0.163 HD
BRANCH   4   7
ATOM      7  C   UNL A   1      32.776  26.808  22.833  1.00  0.00     0.168 C 
ATOM      8  C   UNL A   1      31.421  26.999  22.147  1.00  0.00     0.041 C 
BRANCH   7   9
ATOM      9  N   UNL A   1      33.404  25.585  22.349  1.00  0.00    -0.339 N 
ATOM     10  C   UNL A   1      33.298  24.308  22.807  1.00  0.00     0.278 C 
ATOM     11  H   UNL A   1      33.997  25.701  21.571  1.00  0.00     0.164 HD
ATOM     12  O   UNL A   1      33.777  23.444  22.070  1.00  0.00    -0.268 OA
BRANCH  10  13
ATOM     13  C   UNL A   1      32.676  23.994  24.197  1.00  0.00     0.272 C 
ATOM     14  C   UNL A   1      33.052  25.037  25.250  1.00  0.00     0.076 C 
ATOM     15  N   UNL A   1      33.037  22.648  24.677  1.00  0.00    -0.333 N 
ATOM     16  C   UNL A   1      34.550  25.038  25.520  1.00  0.00     0.016 C 
ATOM     17  C   UNL A   1      34.413  22.479  25.176  1.00  0.00     0.186 C 
ATOM     18  H   UNL A   1      32.906  21.996  23.902  1.00  0.00     0.347 HD
ATOM     19  H   UNL A   1      32.433  22.474  25.480  1.00  0.00     0.347 HD
ATOM     20  C   UNL A   1      35.005  23.652  25.988  1.00  0.00     0.048 C 
ATOM     21  C   UNL A   1      35.336  21.780  24.155  1.00  0.00     0.065 C 
ATOM     22  C   UNL A   1      36.529  23.552  26.086  1.00  0.00     0.010 C 
ATOM     23  C   UNL A   1      36.694  22.399  23.827  1.00  0.00     0.006 C 
ATOM     24  C   UNL A   1      37.190  23.525  24.719  1.00  0.00     0.001 C 
ENDBRANCH  10  13
ENDBRANCH   7   9
ENDBRANCH   4   7
ENDBRANCH   2   3
ENDBRANCH   1   2
BRANCH   1  25
ATOM     25  C   UNL A   1      33.403  28.918  27.435  1.00  0.00     0.118 C 
BRANCH  25  26
ATOM     26  N   UNL A   1      33.555  30.306  27.851  1.00  0.00    -0.352 N 
ATOM     27  C   UNL A   1      34.699  30.935  28.296  1.00  0.00     0.251 C 
ATOM     28  H   UNL A   1      32.744  30.862  27.809  1.00  0.00     0.163 HD
ATOM     29  O   UNL A   1      34.682  32.113  28.636  1.00  0.00    -0.269 OA
BRANCH  27  30
ATOM     30  C   UNL A   1      35.937  30.134  28.422  1.00  0.00     0.039 A 
ATOM     31  C   UNL A   1      36.846  30.136  27.363  1.00  0.00     0.014 A 
ATOM     32  C   UNL A   1      36.261  29.531  29.640  1.00  0.00     0.014 A 
ATOM     33  C   UNL A   1      38.133  29.636  27.567  1.00  0.00     0.010 A 
ATOM     34  C   UNL A   1      37.569  29.120  29.865  1.00  0.00     0.010 A 
ATOM     35  C   UNL A   1      38.525  29.187  28.838  1.00  0.00    -0.014 A 
BRANCH  35  36
ATOM     36  C   UNL A   1      39.933  28.812  29.134  1.00  0.00     0.031 A 
ATOM     37  C   UNL A   1      40.867  29.829  29.730  1.00  0.00     0.074 A 
ATOM     38  C   UNL A   1      40.395  27.596  28.777  1.00  0.00     0.049 A 
ATOM     39  N   UNL A   1      42.154  29.741  29.943  1.00  0.00    -0.248 NA
ATOM     40  C   UNL A   1      40.282  31.128  30.101  1.00  0.00     0.031 C 
ATOM     41  C   UNL A   1      39.606  26.535  28.143  1.00  0.00     0.029 A 
ATOM     42  N   UNL A   1      41.651  27.048  28.885  1.00  0.00    -0.354 N 
ATOM     43  C   UNL A   1      42.537  30.980  30.440  1.00  0.00     0.074 A 
ATOM     44  C   UNL A   1      41.357  31.816  30.454  1.00  0.00     0.031 C 
ATOM     45  C   UNL A   1      40.387  25.460  27.946  1.00  0.00     0.029 A 
ATOM     46  C   UNL A   1      41.741  25.765  28.396  1.00  0.00     0.049 A 
ATOM     47  H   UNL A   1      42.415  27.530  29.276  1.00  0.00     0.167 HD
ATOM     48  C   UNL A   1      43.758  31.383  30.865  1.00  0.00     0.031 A 
ATOM     49  C   UNL A   1      42.796  24.930  28.311  1.00  0.00     0.031 A 
ATOM     50  C   UNL A   1      44.922  30.541  30.882  1.00  0.00     0.049 A 
ATOM     51  C   UNL A   1      44.138  25.390  28.812  1.00  0.00     0.074 A 
ATOM     52  C   UNL A   1      46.189  30.835  31.352  1.00  0.00     0.029 A 
ATOM     53  N   UNL A   1      44.958  29.235  30.415  1.00  0.00    -0.354 N 
ATOM     54  N   UNL A   1      44.467  26.550  29.329  1.00  0.00    -0.248 NA
ATOM     55  C   UNL A   1      45.246  24.429  28.726  1.00  0.00     0.031 C 
ATOM     56  C   UNL A   1      47.003  29.717  31.140  1.00  0.00     0.029 A 
ATOM     57  C   UNL A   1      46.230  28.714  30.576  1.00  0.00     0.049 A 
ATOM     58  H   UNL A   1      44.194  28.753  30.028  1.00  0.00     0.167 HD
ATOM     59  C   UNL A   1      45.814  26.448  29.654  1.00  0.00     0.074 A 
ATOM     60  C   UNL A   1      46.238  25.114  29.282  1.00  0.00     0.031 C 
ATOM     61  C   UNL A   1      46.628  27.378  30.210  1.00  0.00     0.031 A 
BRANCH  48  62
ATOM     62  C   UNL A   1      43.886  32.802  31.348  1.00  0.00    -0.014 A 
ATOM     63  C   UNL A   1      43.668  33.129  32.698  1.00  0.00     0.010 A 
ATOM     64  C   UNL A   1      44.244  33.819  30.445  1.00  0.00     0.010 A 
ATOM     65  C   UNL A   1      43.757  34.455  33.128  1.00  0.00     0.020 A 
ATOM     66  C   UNL A   1      44.361  35.143  30.876  1.00  0.00     0.020 A 
ATOM     67  C   UNL A   1      44.095  35.455  32.211  1.00  0.00     0.054 A 
BRANCH  67  68
ATOM     68  S   UNL A   1      44.211  37.168  32.795  1.00  0.00     0.124 S 
ATOM     69  O   UNL A   1      43.190  37.199  33.839  1.00  0.00    -0.237 OA
ATOM     70  O   UNL A   1      45.591  37.257  33.264  1.00  0.00    -0.237 OA
ATOM     71  O   UNL A   1      43.910  37.961  31.605  1.00  0.00    -0.744 OA
ENDBRANCH  67  68
ENDBRANCH  48  62
BRANCH  49  72
ATOM     72  C   UNL A   1      42.621  23.565  27.744  1.00  0.00    -0.014 A 
ATOM     73  C   UNL A   1      42.912  23.316  26.390  1.00  0.00     0.010 A 
ATOM     74  C   UNL A   1      42.180  22.504  28.555  1.00  0.00     0.010 A 
ATOM     75  C   UNL A   1      42.753  22.034  25.855  1.00  0.00     0.020 A 
ATOM     76  C   UNL A   1      42.041  21.216  28.028  1.00  0.00     0.020 A 
ATOM     77  C   UNL A   1      42.319  20.991  26.679  1.00  0.00     0.054 A 
BRANCH  77  78
ATOM     78  S   UNL A   1      42.178  19.321  25.980  1.00  0.00     0.124 S 
ATOM     79  O   UNL A   1      42.693  18.494  27.067  1.00  0.00    -0.237 OA
ATOM     80  O   UNL A   1      40.745  19.206  25.721  1.00  0.00    -0.237 OA
ATOM     81  O   UNL A   1      43.015  19.381  24.784  1.00  0.00    -0.744 OA
ENDBRANCH  77  78
ENDBRANCH  49  72
BRANCH  61  82
ATOM     82  C   UNL A   1      48.050  26.982  30.489  1.00  0.00    -0.014 A 
ATOM     83  C   UNL A   1      49.068  27.223  29.551  1.00  0.00     0.010 A 
ATOM     84  C   UNL A   1      48.384  26.440  31.745  1.00  0.00     0.010 A 
ATOM     85  C   UNL A   1      50.396  26.920  29.860  1.00  0.00     0.020 A 
ATOM     86  C   UNL A   1      49.712  26.156  32.064  1.00  0.00     0.020 A 
ATOM     87  C   UNL A   1      50.711  26.391  31.115  1.00  0.00     0.054 A 
BRANCH  87  88
ATOM     88  S   UNL A   1      52.450  26.075  31.521  1.00  0.00     0.124 S 
ATOM     89  O   UNL A   1      53.092  26.190  30.215  1.00  0.00    -0.237 OA
ATOM     90  O   UNL A   1      52.758  27.143  32.469  1.00  0.00    -0.237 OA
ATOM     91  O   UNL A   1      52.434  24.731  32.092  1.00  0.00    -0.744 OA
ENDBRANCH  87  88
ENDBRANCH  61  82
ENDBRANCH  35  36
ENDBRANCH  27  30
ENDBRANCH  25  26
ENDBRANCH   1  25
TORSDOF 15
ENDMDL
MODEL 2
REMARK VINA RESULT:     -11.5      3.080      6.184
REMARK SMILES C[C@@H](NC(=O)[C@@H]1CC[C@@H]2CCCC[C@@H]2[NH2+]1)C(=O)NCCCNC(=O)c1ccc(-c2c3nc(c(-c4ccc(S(=O)(=O)[O-])cc4)c4ccc([nH]4)c(-c4ccc(S(=O)(=O)[O-])cc4)c4nc(c(-c5ccc(S(=O)(=O)[O-])cc5)c5ccc2[nH]5)C=C4)C=C3)cc1
REMARK SMILES IDX 20 1 19 2 18 3 16 4 17 5 2 7 1 8 3 9 4 10 5 12 6 13 7 14
REMARK SMILES IDX 15 15 8 16 14 17 9 20 13 21 10 22 12 23 11 24 21 25 22 26
REMARK SMILES IDX 23 27 24 29 25 30 26 31 84 32 27 33 83 34 28 35 29 36 30 37
REMARK SMILES IDX 77 38 31 39 82 40 76 41 78 42 32 43 81 44 75 45 74 46 33 48
REMARK SMILES IDX 63 49 44 50 62 51 45 52 48 53 61 54 79 55 46 56 47 57 60 59
REMARK SMILES IDX 80 60 49 61 34 62 35 63 43 64 36 65 42 66 37 67 38 68 39 69
REMARK SMILES IDX 40 70 41 71 64 72 65 73 73 74 66 75 72 76 67 77 68 78 69 79
REMARK SMILES IDX 70 80 71 81 50 82 51 83 59 84 52 85 58 86 53 87 54 88 55 89
REMARK SMILES IDX 56 90 57 91
REMARK H PARENT 18 6 3 11 15 18 15 19 22 28 78 47 48 58
REMARK Flexibility Score: inf
ROOT
ATOM      1  C   UNL A   1      33.635  33.301  28.024  1.00  0.00     0.042 C 
ENDROOT
BRANCH   1   2
ATOM      2  C   UNL A   1      34.119  34.604  28.634  1.00  0.00     0.117 C 
BRANCH   2   3
ATOM      3  N   UNL A   1      33.045  35.385  29.226  1.00  0.00    -0.354 N 
ATOM      4  C   UNL A   1      32.959  35.932  30.471  1.00  0.00     0.242 C 
ATOM      5  O   UNL A   1      31.930  36.552  30.757  1.00  0.00    -0.273 OA
ATOM      6  H   UNL A   1      32.267  35.542  28.644  1.00  0.00     0.163 HD
BRANCH   4   7
ATOM      7  C   UNL A   1      34.013  35.635  31.550  1.00  0.00     0.168 C 
ATOM      8  C   UNL A   1      33.701  36.521  32.759  1.00  0.00     0.041 C 
BRANCH   7   9
ATOM      9  N   UNL A   1      34.101  34.243  31.969  1.00  0.00    -0.339 N 
ATOM     10  C   UNL A   1      35.172  33.403  31.992  1.00  0.00     0.278 C 
ATOM     11  H   UNL A   1      33.256  33.848  32.284  1.00  0.00     0.164 HD
ATOM     12  O   UNL A   1      34.997  32.344  32.597  1.00  0.00    -0.268 OA
BRANCH  10  13
ATOM     13  C   UNL A   1      36.489  33.749  31.241  1.00  0.00     0.272 C 
ATOM     14  C   UNL A   1      37.299  32.501  30.887  1.00  0.00     0.076 C 
ATOM     15  N   UNL A   1      37.330  34.692  32.000  1.00  0.00    -0.333 N 
ATOM     16  C   UNL A   1      37.779  31.777  32.136  1.00  0.00     0.016 C 
ATOM     17  C   UNL A   1      38.053  34.137  33.158  1.00  0.00     0.186 C 
ATOM     18  H   UNL A   1      36.727  35.442  32.341  1.00  0.00     0.347 HD
ATOM     19  H   UNL A   1      38.053  34.996  31.349  1.00  0.00     0.347 HD
ATOM     20  C   UNL A   1      38.633  32.714  32.998  1.00  0.00     0.048 C 
ATOM     21  C   UNL A   1      37.380  34.486  34.503  1.00  0.00     0.065 C 
ATOM     22  C   UNL A   1      38.976  32.093  34.353  1.00  0.00     0.010 C 
ATOM     23  C   UNL A   1      37.115  33.375  35.518  1.00  0.00     0.006 C 
ATOM     24  C   UNL A   1      37.769  32.025  35.274  1.00  0.00     0.001 C 
ENDBRANCH  10  13
ENDBRANCH   7   9
ENDBRANCH   4   7
ENDBRANCH   2   3
ENDBRANCH   1   2
BRANCH   1  25
ATOM     25  C   UNL A   1      34.216  32.043  28.656  1.00  0.00     0.118 C 
BRANCH  25  26
ATOM     26  N   UNL A   1      33.867  30.798  27.984  1.00  0.00    -0.352 N 
ATOM     27  C   UNL A   1      34.668  29.695  27.777  1.00  0.00     0.251 C 
ATOM     28  H   UNL A   1      32.948  30.737  27.636  1.00  0.00     0.163 HD
ATOM     29  O   UNL A   1      34.249  28.713  27.172  1.00  0.00    -0.269 OA
BRANCH  27  30
ATOM     30  C   UNL A   1      36.072  29.750  28.239  1.00  0.00     0.039 A 
ATOM     31  C   UNL A   1      36.378  29.269  29.513  1.00  0.00     0.014 A 
ATOM     32  C   UNL A   1      37.088  30.118  27.352  1.00  0.00     0.014 A 
ATOM     33  C   UNL A   1      37.712  29.042  29.856  1.00  0.00     0.010 A 
ATOM     34  C   UNL A   1      38.406  29.804  27.664  1.00  0.00     0.010 A 
ATOM     35  C   UNL A   1      38.730  29.243  28.910  1.00  0.00    -0.014 A 
BRANCH  35  36
ATOM     36  C   UNL A   1      40.137  28.848  29.183  1.00  0.00     0.031 A 
ATOM     37  C   UNL A   1      41.094  29.851  29.766  1.00  0.00     0.074 A 
ATOM     38  C   UNL A   1      40.577  27.627  28.816  1.00  0.00     0.049 A 
ATOM     39  N   UNL A   1      42.383  29.746  29.959  1.00  0.00    -0.248 NA
ATOM     40  C   UNL A   1      40.533  31.158  30.149  1.00  0.00     0.031 C 
ATOM     41  C   UNL A   1      39.763  26.579  28.193  1.00  0.00     0.029 A 
ATOM     42  N   UNL A   1      41.826  27.062  28.903  1.00  0.00    -0.354 N 
ATOM     43  C   UNL A   1      42.791  30.979  30.452  1.00  0.00     0.074 A 
ATOM     44  C   UNL A   1      41.623  31.830  30.487  1.00  0.00     0.031 C 
ATOM     45  C   UNL A   1      40.527  25.493  27.980  1.00  0.00     0.029 A 
ATOM     46  C   UNL A   1      41.892  25.780  28.410  1.00  0.00     0.049 A 
ATOM     47  H   UNL A   1      42.604  27.533  29.283  1.00  0.00     0.167 HD
ATOM     48  C   UNL A   1      44.024  31.363  30.859  1.00  0.00     0.031 A 
ATOM     49  C   UNL A   1      42.934  24.930  28.306  1.00  0.00     0.031 A 
ATOM     50  C   UNL A   1      45.176  30.506  30.855  1.00  0.00     0.049 A 
ATOM     51  C   UNL A   1      44.289  25.371  28.787  1.00  0.00     0.074 A 
ATOM     52  C   UNL A   1      46.455  30.782  31.305  1.00  0.00     0.029 A 
ATOM     53  N   UNL A   1      45.187  29.201  30.385  1.00  0.00    -0.354 N 
ATOM     54  N   UNL A   1      44.642  26.525  29.301  1.00  0.00    -0.248 NA
ATOM     55  C   UNL A   1      45.383  24.396  28.681  1.00  0.00     0.031 C 
ATOM     56  C   UNL A   1      47.250  29.653  31.077  1.00  0.00     0.029 A 
ATOM     57  C   UNL A   1      46.454  28.662  30.524  1.00  0.00     0.049 A 
ATOM     58  H   UNL A   1      44.411  28.730  30.008  1.00  0.00     0.167 HD
ATOM     59  C   UNL A   1      45.993  26.404  29.603  1.00  0.00     0.074 A 
ATOM     60  C   UNL A   1      46.392  25.065  29.222  1.00  0.00     0.031 C 
ATOM     61  C   UNL A   1      46.828  27.322  30.149  1.00  0.00     0.031 A 
BRANCH  48  62
ATOM     62  C   UNL A   1      44.179  32.779  31.342  1.00  0.00    -0.014 A 
ATOM     63  C   UNL A   1      44.008  33.103  32.700  1.00  0.00     0.010 A 
ATOM     64  C   UNL A   1      44.516  33.798  30.432  1.00  0.00     0.010 A 
ATOM     65  C   UNL A   1      44.121  34.426  33.131  1.00  0.00     0.020 A 
ATOM     66  C   UNL A   1      44.656  35.119  30.864  1.00  0.00     0.020 A 
ATOM     67  C   UNL A   1      44.437  35.428  32.208  1.00  0.00     0.054 A 
BRANCH  67  68
ATOM     68  S   UNL A   1      44.585  37.137  32.795  1.00  0.00     0.124 S 
ATOM     69  O   UNL A   1      43.838  37.090  34.049  1.00  0.00    -0.237 OA
ATOM     70  O   UNL A   1      46.029  37.308  32.931  1.00  0.00    -0.237 OA
ATOM     71  O   UNL A   1      43.967  37.923  31.730  1.00  0.00    -0.744 OA
ENDBRANCH  67  68
ENDBRANCH  48  62
BRANCH  49  72
ATOM     72  C   UNL A   1      42.731  23.569  27.738  1.00  0.00    -0.014 A 
ATOM     73  C   UNL A   1      42.925  23.336  26.365  1.00  0.00     0.010 A 
ATOM     74  C   UNL A   1      42.360  22.495  28.568  1.00  0.00     0.010 A 
ATOM     75  C   UNL A   1      42.741  22.058  25.830  1.00  0.00     0.020 A 
ATOM     76  C   UNL A   1      42.196  21.212  28.040  1.00  0.00     0.020 A 
ATOM     77  C   UNL A   1      42.377  21.003  26.671  1.00  0.00     0.054 A 
BRANCH  77  78
ATOM     78  S   UNL A   1      42.202  19.339  25.967  1.00  0.00     0.124 S 
ATOM     79  O   UNL A   1      43.037  19.425  24.773  1.00  0.00    -0.237 OA
ATOM     80  O   UNL A   1      42.714  18.486  27.038  1.00  0.00    -0.237 OA
ATOM     81  O   UNL A   1      40.766  19.222  25.724  1.00  0.00    -0.744 OA
ENDBRANCH  77  78
ENDBRANCH  49  72
BRANCH  61  82
ATOM     82  C   UNL A   1      48.249  26.905  30.404  1.00  0.00    -0.014 A 
ATOM     83  C   UNL A   1      49.249  27.106  29.437  1.00  0.00     0.010 A 
ATOM     84  C   UNL A   1      48.602  26.388  31.665  1.00  0.00     0.010 A 
ATOM     85  C   UNL A   1      50.578  26.785  29.722  1.00  0.00     0.020 A 
ATOM     86  C   UNL A   1      49.933  26.086  31.960  1.00  0.00     0.020 A 
ATOM     87  C   UNL A   1      50.913  26.280  30.983  1.00  0.00     0.054 A 
BRANCH  87  88
ATOM     88  S   UNL A   1      52.655  25.941  31.356  1.00  0.00     0.124 S 
ATOM     89  O   UNL A   1      52.589  24.593  31.912  1.00  0.00    -0.237 OA
ATOM     90  O   UNL A   1      53.292  26.050  30.046  1.00  0.00    -0.237 OA
ATOM     91  O   UNL A   1      53.016  26.990  32.305  1.00  0.00    -0.744 OA
ENDBRANCH  87  88
ENDBRANCH  61  82
ENDBRANCH  35  36
ENDBRANCH  27  30
ENDBRANCH  25  26
ENDBRANCH   1  25
TORSDOF 15
ENDMDL
MODEL 3
REMARK VINA RESULT:     -10.9      2.836      9.380
REMARK SMILES C[C@@H](NC(=O)[C@@H]1CC[C@@H]2CCCC[C@@H]2[NH2+]1)C(=O)NCCCNC(=O)c1ccc(-c2c3nc(c(-c4ccc(S(=O)(=O)[O-])cc4)c4ccc([nH]4)c(-c4ccc(S(=O)(=O)[O-])cc4)c4nc(c(-c5ccc(S(=O)(=O)[O-])cc5)c5ccc2[nH]5)C=C4)C=C3)cc1
REMARK SMILES IDX 20 1 19 2 18 3 16 4 17 5 2 7 1 8 3 9 4 10 5 12 6 13 7 14
REMARK SMILES IDX 15 15 8 16 14 17 9 20 13 21 10 22 12 23 11 24 21 25 22 26
REMARK SMILES IDX 23 27 24 29 25 30 26 31 84 32 27 33 83 34 28 35 29 36 30 37
REMARK SMILES IDX 77 38 31 39 82 40 76 41 78 42 32 43 81 44 75 45 74 46 33 48
REMARK SMILES IDX 63 49 44 50 62 51 45 52 48 53 61 54 79 55 46 56 47 57 60 59
REMARK SMILES IDX 80 60 49 61 34 62 35 63 43 64 36 65 42 66 37 67 38 68 39 69
REMARK SMILES IDX 40 70 41 71 64 72 65 73 73 74 66 75 72 76 67 77 68 78 69 79
REMARK SMILES IDX 70 80 71 81 50 82 51 83 59 84 52 85 58 86 53 87 54 88 55 89
REMARK SMILES IDX 56 90 57 91
REMARK H PARENT 18 6 3 11 15 18 15 19 22 28 78 47 48 58
REMARK Flexibility Score: inf
ROOT
ATOM      1  C   UNL A   1      36.163  22.610  24.300  1.00  0.00     0.042 C 
ENDROOT
BRANCH   1   2
ATOM      2  C   UNL A   1      35.603  21.319  24.868  1.00  0.00     0.117 C 
BRANCH   2   3
ATOM      3  N   UNL A   1      35.144  21.457  26.241  1.00  0.00    -0.354 N 
ATOM      4  C   UNL A   1      33.951  21.917  26.712  1.00  0.00     0.242 C 
ATOM      5  O   UNL A   1      33.791  21.953  27.936  1.00  0.00    -0.273 OA
ATOM      6  H   UNL A   1      35.788  21.180  26.931  1.00  0.00     0.163 HD
BRANCH   4   7
ATOM      7  C   UNL A   1      32.907  22.542  25.773  1.00  0.00     0.168 C 
ATOM      8  C   UNL A   1      31.976  21.422  25.304  1.00  0.00     0.041 C 
BRANCH   7   9
ATOM      9  N   UNL A   1      32.123  23.628  26.348  1.00  0.00    -0.339 N 
ATOM     10  C   UNL A   1      32.271  24.975  26.220  1.00  0.00     0.278 C 
ATOM     11  H   UNL A   1      31.371  23.343  26.916  1.00  0.00     0.164 HD
ATOM     12  O   UNL A   1      31.331  25.649  26.646  1.00  0.00    -0.268 OA
BRANCH  10  13
ATOM     13  C   UNL A   1      33.571  25.596  25.638  1.00  0.00     0.272 C 
ATOM     14  C   UNL A   1      33.817  27.015  26.153  1.00  0.00     0.076 C 
ATOM     15  N   UNL A   1      33.577  25.593  24.163  1.00  0.00    -0.333 N 
ATOM     16  C   UNL A   1      32.726  27.970  25.693  1.00  0.00     0.016 C 
ATOM     17  C   UNL A   1      32.719  26.593  23.504  1.00  0.00     0.186 C 
ATOM     18  H   UNL A   1      33.272  24.669  23.854  1.00  0.00     0.347 HD
ATOM     19  H   UNL A   1      34.531  25.833  23.895  1.00  0.00     0.347 HD
ATOM     20  C   UNL A   1      32.649  27.989  24.162  1.00  0.00     0.048 C 
ATOM     21  C   UNL A   1      31.404  25.989  22.968  1.00  0.00     0.065 C 
ATOM     22  C   UNL A   1      31.442  28.785  23.659  1.00  0.00     0.010 C 
ATOM     23  C   UNL A   1      30.077  26.670  23.300  1.00  0.00     0.006 C 
ATOM     24  C   UNL A   1      30.132  28.060  23.913  1.00  0.00     0.001 C 
ENDBRANCH  10  13
ENDBRANCH   7   9
ENDBRANCH   4   7
ENDBRANCH   2   3
ENDBRANCH   1   2
BRANCH   1  25
ATOM     25  C   UNL A   1      37.184  23.310  25.188  1.00  0.00     0.118 C 
BRANCH  25  26
ATOM     26  N   UNL A   1      38.403  22.553  25.440  1.00  0.00    -0.352 N 
ATOM     27  C   UNL A   1      39.505  22.944  26.171  1.00  0.00     0.251 C 
ATOM     28  H   UNL A   1      38.444  21.654  25.042  1.00  0.00     0.163 HD
ATOM     29  O   UNL A   1      40.480  22.208  26.287  1.00  0.00    -0.269 OA
BRANCH  27  30
ATOM     30  C   UNL A   1      39.516  24.303  26.755  1.00  0.00     0.039 A 
ATOM     31  C   UNL A   1      38.979  24.489  28.030  1.00  0.00     0.014 A 
ATOM     32  C   UNL A   1      40.200  25.337  26.111  1.00  0.00     0.014 A 
ATOM     33  C   UNL A   1      39.235  25.679  28.712  1.00  0.00     0.010 A 
ATOM     34  C   UNL A   1      40.530  26.481  26.828  1.00  0.00     0.010 A 
ATOM     35  C   UNL A   1      40.069  26.656  28.143  1.00  0.00    -0.014 A 
BRANCH  35  36
ATOM     36  C   UNL A   1      40.502  27.854  28.909  1.00  0.00     0.031 A 
ATOM     37  C   UNL A   1      41.833  27.850  29.611  1.00  0.00     0.074 A 
ATOM     38  C   UNL A   1      39.664  28.900  29.055  1.00  0.00     0.049 A 
ATOM     39  N   UNL A   1      42.337  28.737  30.428  1.00  0.00    -0.248 NA
ATOM     40  C   UNL A   1      42.694  26.675  29.392  1.00  0.00     0.031 C 
ATOM     41  C   UNL A   1      38.324  29.008  28.469  1.00  0.00     0.029 A 
ATOM     42  N   UNL A   1      39.809  30.073  29.756  1.00  0.00    -0.354 N 
ATOM     43  C   UNL A   1      43.554  28.214  30.846  1.00  0.00     0.074 A 
ATOM     44  C   UNL A   1      43.693  26.914  30.228  1.00  0.00     0.031 C 
ATOM     45  C   UNL A   1      37.785  30.190  28.812  1.00  0.00     0.029 A 
ATOM     46  C   UNL A   1      38.718  30.907  29.676  1.00  0.00     0.049 A 
ATOM     47  H   UNL A   1      40.620  30.296  30.269  1.00  0.00     0.167 HD
ATOM     48  C   UNL A   1      44.484  28.773  31.656  1.00  0.00     0.031 A 
ATOM     49  C   UNL A   1      38.488  32.110  30.240  1.00  0.00     0.031 A 
ATOM     50  C   UNL A   1      44.360  30.078  32.242  1.00  0.00     0.049 A 
ATOM     51  C   UNL A   1      39.546  32.722  31.116  1.00  0.00     0.074 A 
ATOM     52  C   UNL A   1      45.274  30.760  33.026  1.00  0.00     0.029 A 
ATOM     53  N   UNL A   1      43.255  30.905  32.101  1.00  0.00    -0.354 N 
ATOM     54  N   UNL A   1      40.715  32.233  31.456  1.00  0.00    -0.248 NA
ATOM     55  C   UNL A   1      39.258  34.049  31.680  1.00  0.00     0.031 C 
ATOM     56  C   UNL A   1      44.709  31.987  33.387  1.00  0.00     0.029 A 
ATOM     57  C   UNL A   1      43.461  32.086  32.792  1.00  0.00     0.049 A 
ATOM     58  H   UNL A   1      42.447  30.685  31.586  1.00  0.00     0.167 HD
ATOM     59  C   UNL A   1      41.312  33.204  32.251  1.00  0.00     0.074 A 
ATOM     60  C   UNL A   1      40.381  34.310  32.337  1.00  0.00     0.031 C 
ATOM     61  C   UNL A   1      42.525  33.180  32.856  1.00  0.00     0.031 A 
BRANCH  48  62
ATOM     62  C   UNL A   1      45.718  27.964  31.950  1.00  0.00    -0.014 A 
ATOM     63  C   UNL A   1      45.757  27.074  33.037  1.00  0.00     0.010 A 
ATOM     64  C   UNL A   1      46.847  28.082  31.119  1.00  0.00     0.010 A 
ATOM     65  C   UNL A   1      46.920  26.353  33.320  1.00  0.00     0.020 A 
ATOM     66  C   UNL A   1      48.003  27.342  31.383  1.00  0.00     0.020 A 
ATOM     67  C   UNL A   1      48.038  26.499  32.495  1.00  0.00     0.054 A 
BRANCH  67  68
ATOM     68  S   UNL A   1      49.533  25.546  32.878  1.00  0.00     0.124 S 
ATOM     69  O   UNL A   1      50.378  26.556  33.511  1.00  0.00    -0.237 OA
ATOM     70  O   UNL A   1      49.031  24.501  33.767  1.00  0.00    -0.237 OA
ATOM     71  O   UNL A   1      49.991  25.080  31.571  1.00  0.00    -0.744 OA
ENDBRANCH  67  68
ENDBRANCH  48  62
BRANCH  49  72
ATOM     72  C   UNL A   1      37.208  32.823  29.977  1.00  0.00    -0.014 A 
ATOM     73  C   UNL A   1      37.019  33.521  28.771  1.00  0.00     0.010 A 
ATOM     74  C   UNL A   1      36.166  32.795  30.922  1.00  0.00     0.010 A 
ATOM     75  C   UNL A   1      35.816  34.188  28.519  1.00  0.00     0.020 A 
ATOM     76  C   UNL A   1      34.954  33.442  30.663  1.00  0.00     0.020 A 
ATOM     77  C   UNL A   1      34.791  34.144  29.467  1.00  0.00     0.054 A 
BRANCH  77  78
ATOM     78  S   UNL A   1      33.215  34.965  29.095  1.00  0.00     0.124 S 
ATOM     79  O   UNL A   1      32.548  34.942  30.393  1.00  0.00    -0.237 OA
ATOM     80  O   UNL A   1      33.645  36.280  28.627  1.00  0.00    -0.237 OA
ATOM     81  O   UNL A   1      32.621  34.112  28.068  1.00  0.00    -0.744 OA
ENDBRANCH  77  78
ENDBRANCH  49  72
BRANCH  61  82
ATOM     82  C   UNL A   1      42.938  34.397  33.635  1.00  0.00    -0.014 A 
ATOM     83  C   UNL A   1      42.713  34.483  35.019  1.00  0.00     0.010 A 
ATOM     84  C   UNL A   1      43.641  35.429  32.985  1.00  0.00     0.010 A 
ATOM     85  C   UNL A   1      43.174  35.587  35.740  1.00  0.00     0.020 A 
ATOM     86  C   UNL A   1      44.122  36.523  33.706  1.00  0.00     0.020 A 
ATOM     87  C   UNL A   1      43.879  36.599  35.080  1.00  0.00     0.054 A 
BRANCH  87  88
ATOM     88  S   UNL A   1      44.533  37.985  36.049  1.00  0.00     0.124 S 
ATOM     89  O   UNL A   1      44.159  39.133  35.227  1.00  0.00    -0.237 OA
ATOM     90  O   UNL A   1      43.817  37.859  37.316  1.00  0.00    -0.237 OA
ATOM     91  O   UNL A   1      45.966  37.711  36.121  1.00  0.00    -0.744 OA
ENDBRANCH  87  88
ENDBRANCH  61  82
ENDBRANCH  35  36
ENDBRANCH  27  30
ENDBRANCH  25  26
ENDBRANCH   1  25
TORSDOF 15
ENDMDL
