MODEL 1
REMARK VINA RESULT:     -12.0      0.000      0.000
REMARK SMILES CC(C)Cc1cc2c(cc1Cl)C=C(C(=O)NCCCNC(=O)c1ccc(-c3c4nc(c(-c5ccc(S(=O)(=O)[O-])cc5)c5ccc([nH]5)c(-c5ccc(S(=O)(=O)[O-])cc5)c5nc(c(-c6ccc(S(=O)(=O)[O-])cc6)c6ccc3[nH]6)C=C5)C=C4)cc1)[C@@H](C(F)(F)F)O2
REMARK SMILES IDX 18 1 17 2 16 3 14 4 15 5 13 7 5 8 6 9 10 10 7 11 9 12 11 13
REMARK SMILES IDX 8 14 88 15 12 16 83 17 4 18 2 19 1 20 3 21 84 22 85 23 86 24
REMARK SMILES IDX 87 25 19 26 20 27 21 28 22 30 23 31 24 32 82 33 25 34 81 35
REMARK SMILES IDX 26 36 27 37 28 38 75 39 29 40 80 41 74 42 76 43 30 44 79 45
REMARK SMILES IDX 73 46 72 47 31 49 61 50 42 51 60 52 43 53 46 54 59 55 77 56
REMARK SMILES IDX 44 57 45 58 58 60 78 61 47 62 32 63 33 64 41 65 34 66 40 67
REMARK SMILES IDX 35 68 36 69 37 70 38 71 39 72 62 73 63 74 71 75 64 76 70 77
REMARK SMILES IDX 65 78 66 79 67 80 68 81 69 82 48 83 49 84 57 85 50 86 56 87
REMARK SMILES IDX 51 88 52 89 53 90 54 91 55 92
REMARK H PARENT 16 6 20 29 76 48 46 59
REMARK Flexibility Score: inf
ROOT
ATOM      1  C   UNL A   1      37.835  23.276  26.027  1.00  0.00     0.042 C 
ENDROOT
BRANCH   1   2
ATOM      2  C   UNL A   1      36.514  23.714  25.414  1.00  0.00     0.118 C 
BRANCH   2   3
ATOM      3  N   UNL A   1      35.375  23.314  26.227  1.00  0.00    -0.352 N 
ATOM      4  C   UNL A   1      34.063  23.627  26.321  1.00  0.00     0.251 C 
ATOM      5  O   UNL A   1      33.443  23.025  27.204  1.00  0.00    -0.270 OA
ATOM      6  H   UNL A   1      35.630  22.631  26.890  1.00  0.00     0.163 HD
BRANCH   4   7
ATOM      7  C   UNL A   1      33.344  24.600  25.448  1.00  0.00     0.067 C 
ATOM      8  C   UNL A   1      31.111  28.767  23.664  1.00  0.00    -0.025 A 
ATOM      9  C   UNL A   1      31.366  27.484  23.148  1.00  0.00     0.052 A 
ATOM     10  C   UNL A   1      31.639  29.093  24.924  1.00  0.00     0.045 A 
ATOM     11  C   UNL A   1      32.089  26.551  23.886  1.00  0.00     0.128 A 
ATOM     12  C   UNL A   1      32.369  28.151  25.660  1.00  0.00     0.032 A 
ATOM     13  Cl  UNL A   1      31.422  30.653  25.638  1.00  0.00    -0.084 Cl
ATOM     14  C   UNL A   1      32.585  26.871  25.146  1.00  0.00     0.019 A 
ATOM     15  O   UNL A   1      32.306  25.341  23.294  1.00  0.00    -0.475 OA
ATOM     16  C   UNL A   1      33.328  25.869  25.897  1.00  0.00     0.025 C 
ATOM     17  C   UNL A   1      32.625  24.231  24.180  1.00  0.00     0.314 C 
BRANCH   8  18
ATOM     18  C   UNL A   1      30.251  29.705  22.847  1.00  0.00     0.040 C 
BRANCH  18  19
ATOM     19  C   UNL A   1      28.847  29.929  23.451  1.00  0.00    -0.013 C 
ATOM     20  C   UNL A   1      28.492  31.413  23.580  1.00  0.00     0.008 C 
ATOM     21  C   UNL A   1      27.794  29.225  22.590  1.00  0.00     0.008 C 
ENDBRANCH  18  19
ENDBRANCH   8  18
BRANCH  17  22
ATOM     22  C   UNL A   1      31.335  23.427  24.431  1.00  0.00     0.429 C 
ATOM     23  F   UNL A   1      30.709  23.869  25.550  1.00  0.00    -0.167 F 
ATOM     24  F   UNL A   1      30.438  23.539  23.423  1.00  0.00    -0.167 F 
ATOM     25  F   UNL A   1      31.570  22.105  24.596  1.00  0.00    -0.167 F 
ENDBRANCH  17  22
ENDBRANCH   4   7
ENDBRANCH   2   3
ENDBRANCH   1   2
BRANCH   1  26
ATOM     26  C   UNL A   1      38.507  24.389  26.822  1.00  0.00     0.118 C 
BRANCH  26  27
ATOM     27  N   UNL A   1      39.682  24.925  26.137  1.00  0.00    -0.352 N 
ATOM     28  C   UNL A   1      40.398  26.077  26.363  1.00  0.00     0.251 C 
ATOM     29  H   UNL A   1      40.015  24.372  25.395  1.00  0.00     0.163 HD
ATOM     30  O   UNL A   1      41.212  26.460  25.526  1.00  0.00    -0.269 OA
BRANCH  28  31
ATOM     31  C   UNL A   1      40.174  26.861  27.594  1.00  0.00     0.039 A 
ATOM     32  C   UNL A   1      40.583  28.192  27.664  1.00  0.00     0.014 A 
ATOM     33  C   UNL A   1      39.552  26.261  28.694  1.00  0.00     0.014 A 
ATOM     34  C   UNL A   1      40.565  28.851  28.884  1.00  0.00     0.010 A 
ATOM     35  C   UNL A   1      39.429  26.970  29.893  1.00  0.00     0.010 A 
ATOM     36  C   UNL A   1      39.985  28.252  30.015  1.00  0.00    -0.014 A 
BRANCH  36  37
ATOM     37  C   UNL A   1      39.980  28.996  31.300  1.00  0.00     0.031 A 
ATOM     38  C   UNL A   1      41.134  28.884  32.260  1.00  0.00     0.074 A 
ATOM     39  C   UNL A   1      38.970  29.851  31.556  1.00  0.00     0.049 A 
ATOM     40  N   UNL A   1      41.320  29.510  33.395  1.00  0.00    -0.248 NA
ATOM     41  C   UNL A   1      42.218  27.952  31.909  1.00  0.00     0.031 C 
ATOM     42  C   UNL A   1      37.816  30.068  30.679  1.00  0.00     0.029 A 
ATOM     43  N   UNL A   1      38.773  30.734  32.587  1.00  0.00    -0.354 N 
ATOM     44  C   UNL A   1      42.528  29.040  33.897  1.00  0.00     0.074 A 
ATOM     45  C   UNL A   1      43.017  28.051  32.962  1.00  0.00     0.031 C 
ATOM     46  C   UNL A   1      37.087  31.084  31.158  1.00  0.00     0.029 A 
ATOM     47  C   UNL A   1      37.668  31.534  32.419  1.00  0.00     0.049 A 
ATOM     48  H   UNL A   1      39.366  30.789  33.371  1.00  0.00     0.167 HD
ATOM     49  C   UNL A   1      43.176  29.411  35.027  1.00  0.00     0.031 A 
ATOM     50  C   UNL A   1      37.166  32.521  33.188  1.00  0.00     0.031 A 
ATOM     51  C   UNL A   1      42.682  30.401  35.949  1.00  0.00     0.049 A 
ATOM     52  C   UNL A   1      37.870  32.877  34.463  1.00  0.00     0.074 A 
ATOM     53  C   UNL A   1      43.258  30.834  37.130  1.00  0.00     0.029 A 
ATOM     54  N   UNL A   1      41.505  31.117  35.790  1.00  0.00    -0.354 N 
ATOM     55  N   UNL A   1      38.993  32.394  34.938  1.00  0.00    -0.248 NA
ATOM     56  C   UNL A   1      37.239  33.895  35.312  1.00  0.00     0.031 C 
ATOM     57  C   UNL A   1      42.402  31.771  37.714  1.00  0.00     0.029 A 
ATOM     58  C   UNL A   1      41.325  31.973  36.864  1.00  0.00     0.049 A 
ATOM     59  H   UNL A   1      40.889  31.031  35.028  1.00  0.00     0.167 HD
ATOM     60  C   UNL A   1      39.204  33.046  36.145  1.00  0.00     0.074 A 
ATOM     61  C   UNL A   1      38.105  33.976  36.316  1.00  0.00     0.031 C 
ATOM     62  C   UNL A   1      40.216  32.881  37.032  1.00  0.00     0.031 A 
BRANCH  49  63
ATOM     63  C   UNL A   1      44.486  28.734  35.343  1.00  0.00    -0.014 A 
ATOM     64  C   UNL A   1      45.688  29.267  34.842  1.00  0.00     0.010 A 
ATOM     65  C   UNL A   1      44.525  27.536  36.079  1.00  0.00     0.010 A 
ATOM     66  C   UNL A   1      46.904  28.613  35.062  1.00  0.00     0.020 A 
ATOM     67  C   UNL A   1      45.742  26.893  36.326  1.00  0.00     0.020 A 
ATOM     68  C   UNL A   1      46.922  27.427  35.802  1.00  0.00     0.054 A 
BRANCH  68  69
ATOM     69  S   UNL A   1      48.510  26.606  36.109  1.00  0.00     0.124 S 
ATOM     70  O   UNL A   1      49.421  27.367  35.260  1.00  0.00    -0.237 OA
ATOM     71  O   UNL A   1      48.692  26.780  37.548  1.00  0.00    -0.237 OA
ATOM     72  O   UNL A   1      48.264  25.227  35.687  1.00  0.00    -0.744 OA
ENDBRANCH  68  69
ENDBRANCH  49  63
BRANCH  50  73
ATOM     73  C   UNL A   1      35.947  33.237  32.723  1.00  0.00    -0.014 A 
ATOM     74  C   UNL A   1      36.052  34.287  31.791  1.00  0.00     0.010 A 
ATOM     75  C   UNL A   1      34.704  32.979  33.325  1.00  0.00     0.010 A 
ATOM     76  C   UNL A   1      34.961  35.120  31.536  1.00  0.00     0.020 A 
ATOM     77  C   UNL A   1      33.601  33.794  33.048  1.00  0.00     0.020 A 
ATOM     78  C   UNL A   1      33.749  34.883  32.187  1.00  0.00     0.054 A 
BRANCH  78  79
ATOM     79  S   UNL A   1      32.381  36.045  31.929  1.00  0.00     0.124 S 
ATOM     80  O   UNL A   1      32.881  37.246  32.593  1.00  0.00    -0.237 OA
ATOM     81  O   UNL A   1      32.294  36.121  30.473  1.00  0.00    -0.237 OA
ATOM     82  O   UNL A   1      31.250  35.392  32.584  1.00  0.00    -0.744 OA
ENDBRANCH  78  79
ENDBRANCH  50  73
BRANCH  62  83
ATOM     83  C   UNL A   1      40.191  33.704  38.292  1.00  0.00    -0.014 A 
ATOM     84  C   UNL A   1      39.481  33.242  39.414  1.00  0.00     0.010 A 
ATOM     85  C   UNL A   1      40.756  34.992  38.316  1.00  0.00     0.010 A 
ATOM     86  C   UNL A   1      39.302  34.067  40.527  1.00  0.00     0.020 A 
ATOM     87  C   UNL A   1      40.599  35.810  39.438  1.00  0.00     0.020 A 
ATOM     88  C   UNL A   1      39.850  35.351  40.526  1.00  0.00     0.054 A 
BRANCH  88  89
ATOM     89  S   UNL A   1      39.570  36.425  41.960  1.00  0.00     0.124 S 
ATOM     90  O   UNL A   1      39.243  37.700  41.329  1.00  0.00    -0.237 OA
ATOM     91  O   UNL A   1      38.465  35.761  42.648  1.00  0.00    -0.237 OA
ATOM     92  O   UNL A   1      40.846  36.388  42.670  1.00  0.00    -0.744 OA
ENDBRANCH  88  89
ENDBRANCH  62  83
ENDBRANCH  36  37
ENDBRANCH  28  31
ENDBRANCH  26  27
ENDBRANCH   1  26
TORSDOF 16
ENDMDL
MODEL 2
REMARK VINA RESULT:     -12.0      6.483      8.534
REMARK SMILES CC(C)Cc1cc2c(cc1Cl)C=C(C(=O)NCCCNC(=O)c1ccc(-c3c4nc(c(-c5ccc(S(=O)(=O)[O-])cc5)c5ccc([nH]5)c(-c5ccc(S(=O)(=O)[O-])cc5)c5nc(c(-c6ccc(S(=O)(=O)[O-])cc6)c6ccc3[nH]6)C=C5)C=C4)cc1)[C@@H](C(F)(F)F)O2
REMARK SMILES IDX 18 1 17 2 16 3 14 4 15 5 13 7 5 8 6 9 10 10 7 11 9 12 11 13
REMARK SMILES IDX 8 14 88 15 12 16 83 17 4 18 2 19 1 20 3 21 84 22 85 23 86 24
REMARK SMILES IDX 87 25 19 26 20 27 21 28 22 30 23 31 24 32 82 33 25 34 81 35
REMARK SMILES IDX 26 36 27 37 28 38 75 39 29 40 80 41 74 42 76 43 30 44 79 45
REMARK SMILES IDX 73 46 72 47 31 49 61 50 42 51 60 52 43 53 46 54 59 55 77 56
REMARK SMILES IDX 44 57 45 58 58 60 78 61 47 62 32 63 33 64 41 65 34 66 40 67
REMARK SMILES IDX 35 68 36 69 37 70 38 71 39 72 62 73 63 74 71 75 64 76 70 77
REMARK SMILES IDX 65 78 66 79 67 80 68 81 69 82 48 83 49 84 57 85 50 86 56 87
REMARK SMILES IDX 51 88 52 89 53 90 54 91 55 92
REMARK H PARENT 16 6 20 29 76 48 46 59
REMARK Flexibility Score: inf
ROOT
ATOM      1  C   UNL A   1      37.905  20.059  24.954  1.00  0.00     0.042 C 
ENDROOT
BRANCH   1   2
ATOM      2  C   UNL A   1      36.641  20.795  25.372  1.00  0.00     0.118 C 
BRANCH   2   3
ATOM      3  N   UNL A   1      35.438  20.117  24.913  1.00  0.00    -0.352 N 
ATOM      4  C   UNL A   1      34.132  20.420  24.741  1.00  0.00     0.251 C 
ATOM      5  O   UNL A   1      33.430  19.494  24.321  1.00  0.00    -0.270 OA
ATOM      6  H   UNL A   1      35.627  19.185  24.658  1.00  0.00     0.163 HD
BRANCH   4   7
ATOM      7  C   UNL A   1      33.514  21.753  25.001  1.00  0.00     0.067 C 
ATOM      8  C   UNL A   1      32.273  26.644  24.736  1.00  0.00    -0.025 A 
ATOM      9  C   UNL A   1      31.879  25.567  25.549  1.00  0.00     0.052 A 
ATOM     10  C   UNL A   1      33.140  26.383  23.662  1.00  0.00     0.045 A 
ATOM     11  C   UNL A   1      32.368  24.284  25.318  1.00  0.00     0.128 A 
ATOM     12  C   UNL A   1      33.625  25.089  23.433  1.00  0.00     0.032 A 
ATOM     13  Cl  UNL A   1      33.658  27.623  22.575  1.00  0.00    -0.084 Cl
ATOM     14  C   UNL A   1      33.249  24.038  24.270  1.00  0.00     0.019 A 
ATOM     15  O   UNL A   1      31.911  23.298  26.144  1.00  0.00    -0.475 OA
ATOM     16  C   UNL A   1      33.751  22.687  24.061  1.00  0.00     0.025 C 
ATOM     17  C   UNL A   1      32.726  22.096  26.236  1.00  0.00     0.314 C 
BRANCH   8  18
ATOM     18  C   UNL A   1      31.769  28.025  25.091  1.00  0.00     0.040 C 
BRANCH  18  19
ATOM     19  C   UNL A   1      32.451  28.622  26.342  1.00  0.00    -0.013 C 
ATOM     20  C   UNL A   1      31.770  28.194  27.644  1.00  0.00     0.008 C 
ATOM     21  C   UNL A   1      33.924  28.209  26.376  1.00  0.00     0.008 C 
ENDBRANCH  18  19
ENDBRANCH   8  18
BRANCH  17  22
ATOM     22  C   UNL A   1      33.600  22.199  27.500  1.00  0.00     0.429 C 
ATOM     23  F   UNL A   1      34.620  23.071  27.303  1.00  0.00    -0.167 F 
ATOM     24  F   UNL A   1      32.917  22.648  28.579  1.00  0.00    -0.167 F 
ATOM     25  F   UNL A   1      34.146  21.012  27.852  1.00  0.00    -0.167 F 
ENDBRANCH  17  22
ENDBRANCH   4   7
ENDBRANCH   2   3
ENDBRANCH   1   2
BRANCH   1  26
ATOM     26  C   UNL A   1      39.111  20.445  25.802  1.00  0.00     0.118 C 
BRANCH  26  27
ATOM     27  N   UNL A   1      40.061  19.343  25.947  1.00  0.00    -0.352 N 
ATOM     28  C   UNL A   1      41.427  19.356  26.103  1.00  0.00     0.251 C 
ATOM     29  H   UNL A   1      39.657  18.445  25.930  1.00  0.00     0.163 HD
ATOM     30  O   UNL A   1      42.063  18.313  25.973  1.00  0.00    -0.269 OA
BRANCH  28  31
ATOM     31  C   UNL A   1      42.126  20.621  26.406  1.00  0.00     0.039 A 
ATOM     32  C   UNL A   1      42.276  21.041  27.726  1.00  0.00     0.014 A 
ATOM     33  C   UNL A   1      42.637  21.398  25.362  1.00  0.00     0.014 A 
ATOM     34  C   UNL A   1      42.740  22.322  27.990  1.00  0.00     0.010 A 
ATOM     35  C   UNL A   1      43.212  22.642  25.640  1.00  0.00     0.010 A 
ATOM     36  C   UNL A   1      43.217  23.139  26.952  1.00  0.00    -0.014 A 
BRANCH  36  37
ATOM     37  C   UNL A   1      43.711  24.501  27.278  1.00  0.00     0.031 A 
ATOM     38  C   UNL A   1      45.145  24.883  27.026  1.00  0.00     0.074 A 
ATOM     39  C   UNL A   1      42.833  25.425  27.718  1.00  0.00     0.049 A 
ATOM     40  N   UNL A   1      45.726  26.044  27.196  1.00  0.00    -0.248 NA
ATOM     41  C   UNL A   1      46.045  23.834  26.521  1.00  0.00     0.031 C 
ATOM     42  C   UNL A   1      41.411  25.177  27.964  1.00  0.00     0.029 A 
ATOM     43  N   UNL A   1      42.986  26.763  27.980  1.00  0.00    -0.354 N 
ATOM     44  C   UNL A   1      47.055  25.862  26.834  1.00  0.00     0.074 A 
ATOM     45  C   UNL A   1      47.206  24.471  26.467  1.00  0.00     0.031 C 
ATOM     46  C   UNL A   1      40.806  26.338  28.247  1.00  0.00     0.029 A 
ATOM     47  C   UNL A   1      41.807  27.399  28.288  1.00  0.00     0.049 A 
ATOM     48  H   UNL A   1      43.857  27.223  27.950  1.00  0.00     0.167 HD
ATOM     49  C   UNL A   1      48.055  26.775  26.796  1.00  0.00     0.031 A 
ATOM     50  C   UNL A   1      41.548  28.690  28.577  1.00  0.00     0.031 A 
ATOM     51  C   UNL A   1      47.893  28.159  27.160  1.00  0.00     0.049 A 
ATOM     52  C   UNL A   1      42.680  29.673  28.585  1.00  0.00     0.074 A 
ATOM     53  C   UNL A   1      48.849  29.159  27.171  1.00  0.00     0.029 A 
ATOM     54  N   UNL A   1      46.700  28.740  27.563  1.00  0.00    -0.354 N 
ATOM     55  N   UNL A   1      43.938  29.472  28.275  1.00  0.00    -0.248 NA
ATOM     56  C   UNL A   1      42.366  31.048  28.993  1.00  0.00     0.031 C 
ATOM     57  C   UNL A   1      48.248  30.332  27.636  1.00  0.00     0.029 A 
ATOM     58  C   UNL A   1      46.901  30.081  27.849  1.00  0.00     0.049 A 
ATOM     59  H   UNL A   1      45.839  28.271  27.637  1.00  0.00     0.167 HD
ATOM     60  C   UNL A   1      44.571  30.695  28.453  1.00  0.00     0.074 A 
ATOM     61  C   UNL A   1      43.552  31.635  28.874  1.00  0.00     0.031 C 
ATOM     62  C   UNL A   1      45.881  31.003  28.287  1.00  0.00     0.031 A 
BRANCH  49  63
ATOM     63  C   UNL A   1      49.422  26.308  26.364  1.00  0.00    -0.014 A 
ATOM     64  C   UNL A   1      50.259  25.647  27.282  1.00  0.00     0.010 A 
ATOM     65  C   UNL A   1      49.906  26.579  25.071  1.00  0.00     0.010 A 
ATOM     66  C   UNL A   1      51.556  25.273  26.921  1.00  0.00     0.020 A 
ATOM     67  C   UNL A   1      51.194  26.181  24.697  1.00  0.00     0.020 A 
ATOM     68  C   UNL A   1      52.017  25.545  25.630  1.00  0.00     0.054 A 
BRANCH  68  69
ATOM     69  S   UNL A   1      53.691  25.025  25.164  1.00  0.00     0.124 S 
ATOM     70  O   UNL A   1      53.565  23.572  25.129  1.00  0.00    -0.237 OA
ATOM     71  O   UNL A   1      53.883  25.675  23.869  1.00  0.00    -0.237 OA
ATOM     72  O   UNL A   1      54.523  25.557  26.244  1.00  0.00    -0.744 OA
ENDBRANCH  68  69
ENDBRANCH  49  63
BRANCH  50  73
ATOM     73  C   UNL A   1      40.142  29.091  28.850  1.00  0.00    -0.014 A 
ATOM     74  C   UNL A   1      39.263  29.367  27.785  1.00  0.00     0.010 A 
ATOM     75  C   UNL A   1      39.723  29.348  30.167  1.00  0.00     0.010 A 
ATOM     76  C   UNL A   1      38.029  29.976  28.024  1.00  0.00     0.020 A 
ATOM     77  C   UNL A   1      38.474  29.931  30.411  1.00  0.00     0.020 A 
ATOM     78  C   UNL A   1      37.655  30.277  29.335  1.00  0.00     0.054 A 
BRANCH  78  79
ATOM     79  S   UNL A   1      36.101  31.171  29.612  1.00  0.00     0.124 S 
ATOM     80  O   UNL A   1      35.800  30.822  30.998  1.00  0.00    -0.237 OA
ATOM     81  O   UNL A   1      36.485  32.561  29.383  1.00  0.00    -0.237 OA
ATOM     82  O   UNL A   1      35.198  30.604  28.613  1.00  0.00    -0.744 OA
ENDBRANCH  78  79
ENDBRANCH  50  73
BRANCH  62  83
ATOM     83  C   UNL A   1      46.315  32.414  28.577  1.00  0.00    -0.014 A 
ATOM     84  C   UNL A   1      46.672  32.780  29.887  1.00  0.00     0.010 A 
ATOM     85  C   UNL A   1      46.239  33.405  27.582  1.00  0.00     0.010 A 
ATOM     86  C   UNL A   1      46.908  34.118  30.209  1.00  0.00     0.020 A 
ATOM     87  C   UNL A   1      46.499  34.742  27.895  1.00  0.00     0.020 A 
ATOM     88  C   UNL A   1      46.806  35.093  29.214  1.00  0.00     0.054 A 
BRANCH  88  89
ATOM     89  S   UNL A   1      47.073  36.831  29.658  1.00  0.00     0.124 S 
ATOM     90  O   UNL A   1      47.273  36.750  31.102  1.00  0.00    -0.237 OA
ATOM     91  O   UNL A   1      48.255  37.185  28.877  1.00  0.00    -0.237 OA
ATOM     92  O   UNL A   1      45.838  37.486  29.235  1.00  0.00    -0.744 OA
ENDBRANCH  88  89
ENDBRANCH  62  83
ENDBRANCH  36  37
ENDBRANCH  28  31
ENDBRANCH  26  27
ENDBRANCH   1  26
TORSDOF 16
ENDMDL
MODEL 3
REMARK VINA RESULT:     -11.9      6.405      8.300
REMARK SMILES CC(C)Cc1cc2c(cc1Cl)C=C(C(=O)NCCCNC(=O)c1ccc(-c3c4nc(c(-c5ccc(S(=O)(=O)[O-])cc5)c5ccc([nH]5)c(-c5ccc(S(=O)(=O)[O-])cc5)c5nc(c(-c6ccc(S(=O)(=O)[O-])cc6)c6ccc3[nH]6)C=C5)C=C4)cc1)[C@@H](C(F)(F)F)O2
REMARK SMILES IDX 18 1 17 2 16 3 14 4 15 5 13 7 5 8 6 9 10 10 7 11 9 12 11 13
REMARK SMILES IDX 8 14 88 15 12 16 83 17 4 18 2 19 1 20 3 21 84 22 85 23 86 24
REMARK SMILES IDX 87 25 19 26 20 27 21 28 22 30 23 31 24 32 82 33 25 34 81 35
REMARK SMILES IDX 26 36 27 37 28 38 75 39 29 40 80 41 74 42 76 43 30 44 79 45
REMARK SMILES IDX 73 46 72 47 31 49 61 50 42 51 60 52 43 53 46 54 59 55 77 56
REMARK SMILES IDX 44 57 45 58 58 60 78 61 47 62 32 63 33 64 41 65 34 66 40 67
REMARK SMILES IDX 35 68 36 69 37 70 38 71 39 72 62 73 63 74 71 75 64 76 70 77
REMARK SMILES IDX 65 78 66 79 67 80 68 81 69 82 48 83 49 84 57 85 50 86 56 87
REMARK SMILES IDX 51 88 52 89 53 90 54 91 55 92
REMARK H PARENT 16 6 20 29 76 48 46 59
REMARK Flexibility Score: inf
ROOT
ATOM      1  C   UNL A   1      38.106  19.907  25.096  1.00  0.00     0.042 C 
ENDROOT
BRANCH   1   2
ATOM      2  C   UNL A   1      37.148  21.062  24.847  1.00  0.00     0.118 C 
BRANCH   2   3
ATOM      3  N   UNL A   1      35.990  21.010  25.725  1.00  0.00    -0.352 N 
ATOM      4  C   UNL A   1      34.848  21.712  25.906  1.00  0.00     0.251 C 
ATOM      5  O   UNL A   1      34.121  21.304  26.817  1.00  0.00    -0.270 OA
ATOM      6  H   UNL A   1      36.054  20.259  26.359  1.00  0.00     0.163 HD
BRANCH   4   7
ATOM      7  C   UNL A   1      34.423  22.890  25.095  1.00  0.00     0.067 C 
ATOM      8  C   UNL A   1      33.059  27.540  23.664  1.00  0.00    -0.025 A 
ATOM      9  C   UNL A   1      33.256  26.319  22.996  1.00  0.00     0.052 A 
ATOM     10  C   UNL A   1      33.377  27.609  25.030  1.00  0.00     0.045 A 
ATOM     11  C   UNL A   1      33.716  25.198  23.683  1.00  0.00     0.128 A 
ATOM     12  C   UNL A   1      33.842  26.479  25.715  1.00  0.00     0.032 A 
ATOM     13  Cl  UNL A   1      33.212  29.069  25.942  1.00  0.00    -0.084 Cl
ATOM     14  C   UNL A   1      34.001  25.265  25.043  1.00  0.00     0.019 A 
ATOM     15  O   UNL A   1      33.898  24.063  22.948  1.00  0.00    -0.475 OA
ATOM     16  C   UNL A   1      34.469  24.073  25.735  1.00  0.00     0.025 C 
ATOM     17  C   UNL A   1      33.915  22.807  23.681  1.00  0.00     0.314 C 
BRANCH   8  18
ATOM     18  C   UNL A   1      32.482  28.696  22.878  1.00  0.00     0.040 C 
BRANCH  18  19
ATOM     19  C   UNL A   1      30.996  28.972  23.200  1.00  0.00    -0.013 C 
ATOM     20  C   UNL A   1      30.282  29.727  22.076  1.00  0.00     0.008 C 
ATOM     21  C   UNL A   1      30.270  27.652  23.470  1.00  0.00     0.008 C 
ENDBRANCH  18  19
ENDBRANCH   8  18
BRANCH  17  22
ATOM     22  C   UNL A   1      32.516  22.168  23.580  1.00  0.00     0.429 C 
ATOM     23  F   UNL A   1      31.882  22.587  22.457  1.00  0.00    -0.167 F 
ATOM     24  F   UNL A   1      32.558  20.816  23.513  1.00  0.00    -0.167 F 
ATOM     25  F   UNL A   1      31.725  22.480  24.632  1.00  0.00    -0.167 F 
ENDBRANCH  17  22
ENDBRANCH   4   7
ENDBRANCH   2   3
ENDBRANCH   1   2
BRANCH   1  26
ATOM     26  C   UNL A   1      39.347  20.335  25.869  1.00  0.00     0.118 C 
BRANCH  26  27
ATOM     27  N   UNL A   1      40.330  19.258  25.978  1.00  0.00    -0.352 N 
ATOM     28  C   UNL A   1      41.697  19.308  26.115  1.00  0.00     0.251 C 
ATOM     29  H   UNL A   1      39.952  18.350  25.948  1.00  0.00     0.163 HD
ATOM     30  O   UNL A   1      42.361  18.288  25.954  1.00  0.00    -0.269 OA
BRANCH  28  31
ATOM     31  C   UNL A   1      42.365  20.586  26.434  1.00  0.00     0.039 A 
ATOM     32  C   UNL A   1      42.466  21.015  27.757  1.00  0.00     0.014 A 
ATOM     33  C   UNL A   1      42.894  21.369  25.403  1.00  0.00     0.014 A 
ATOM     34  C   UNL A   1      42.898  22.304  28.029  1.00  0.00     0.010 A 
ATOM     35  C   UNL A   1      43.437  22.624  25.694  1.00  0.00     0.010 A 
ATOM     36  C   UNL A   1      43.393  23.126  27.003  1.00  0.00    -0.014 A 
BRANCH  36  37
ATOM     37  C   UNL A   1      43.852  24.498  27.339  1.00  0.00     0.031 A 
ATOM     38  C   UNL A   1      45.285  24.906  27.125  1.00  0.00     0.074 A 
ATOM     39  C   UNL A   1      42.945  25.406  27.752  1.00  0.00     0.049 A 
ATOM     40  N   UNL A   1      45.839  26.078  27.307  1.00  0.00    -0.248 NA
ATOM     41  C   UNL A   1      46.218  23.873  26.647  1.00  0.00     0.031 C 
ATOM     42  C   UNL A   1      41.522  25.132  27.960  1.00  0.00     0.029 A 
ATOM     43  N   UNL A   1      43.066  26.747  28.014  1.00  0.00    -0.354 N 
ATOM     44  C   UNL A   1      47.181  25.921  26.982  1.00  0.00     0.074 A 
ATOM     45  C   UNL A   1      47.368  24.532  26.624  1.00  0.00     0.031 C 
ATOM     46  C   UNL A   1      40.887  26.282  28.223  1.00  0.00     0.029 A 
ATOM     47  C   UNL A   1      41.867  27.361  28.289  1.00  0.00     0.049 A 
ATOM     48  H   UNL A   1      43.928  27.223  28.007  1.00  0.00     0.167 HD
ATOM     49  C   UNL A   1      48.164  26.852  26.969  1.00  0.00     0.031 A 
ATOM     50  C   UNL A   1      41.576  28.648  28.567  1.00  0.00     0.031 A 
ATOM     51  C   UNL A   1      47.966  28.234  27.324  1.00  0.00     0.049 A 
ATOM     52  C   UNL A   1      42.689  29.652  28.603  1.00  0.00     0.074 A 
ATOM     53  C   UNL A   1      48.903  29.251  27.359  1.00  0.00     0.029 A 
ATOM     54  N   UNL A   1      46.752  28.793  27.693  1.00  0.00    -0.354 N 
ATOM     55  N   UNL A   1      43.958  29.475  28.327  1.00  0.00    -0.248 NA
ATOM     56  C   UNL A   1      42.338  31.022  28.998  1.00  0.00     0.031 C 
ATOM     57  C   UNL A   1      48.267  30.414  27.804  1.00  0.00     0.029 A 
ATOM     58  C   UNL A   1      46.919  30.138  27.981  1.00  0.00     0.049 A 
ATOM     59  H   UNL A   1      45.898  28.307  27.745  1.00  0.00     0.167 HD
ATOM     60  C   UNL A   1      44.563  30.709  28.519  1.00  0.00     0.074 A 
ATOM     61  C   UNL A   1      43.515  31.631  28.910  1.00  0.00     0.031 C 
ATOM     62  C   UNL A   1      45.871  31.042  28.388  1.00  0.00     0.031 A 
BRANCH  49  63
ATOM     63  C   UNL A   1      49.550  26.410  26.575  1.00  0.00    -0.014 A 
ATOM     64  C   UNL A   1      49.973  26.539  25.239  1.00  0.00     0.010 A 
ATOM     65  C   UNL A   1      50.413  25.806  27.508  1.00  0.00     0.010 A 
ATOM     66  C   UNL A   1      51.227  26.067  24.839  1.00  0.00     0.020 A 
ATOM     67  C   UNL A   1      51.679  25.358  27.118  1.00  0.00     0.020 A 
ATOM     68  C   UNL A   1      52.072  25.477  25.783  1.00  0.00     0.054 A 
BRANCH  68  69
ATOM     69  S   UNL A   1      53.709  24.898  25.258  1.00  0.00     0.124 S 
ATOM     70  O   UNL A   1      53.903  25.616  24.003  1.00  0.00    -0.237 OA
ATOM     71  O   UNL A   1      54.569  25.314  26.364  1.00  0.00    -0.237 OA
ATOM     72  O   UNL A   1      53.532  23.452  25.133  1.00  0.00    -0.744 OA
ENDBRANCH  68  69
ENDBRANCH  49  63
BRANCH  50  73
ATOM     73  C   UNL A   1      40.155  29.023  28.800  1.00  0.00    -0.014 A 
ATOM     74  C   UNL A   1      39.319  29.347  27.714  1.00  0.00     0.010 A 
ATOM     75  C   UNL A   1      39.679  29.209  30.109  1.00  0.00     0.010 A 
ATOM     76  C   UNL A   1      38.070  29.933  27.931  1.00  0.00     0.020 A 
ATOM     77  C   UNL A   1      38.416  29.768  30.330  1.00  0.00     0.020 A 
ATOM     78  C   UNL A   1      37.638  30.163  29.239  1.00  0.00     0.054 A 
BRANCH  78  79
ATOM     79  S   UNL A   1      36.065  31.028  29.496  1.00  0.00     0.124 S 
ATOM     80  O   UNL A   1      35.164  30.270  28.634  1.00  0.00    -0.237 OA
ATOM     81  O   UNL A   1      35.844  30.872  30.931  1.00  0.00    -0.237 OA
ATOM     82  O   UNL A   1      36.350  32.393  29.058  1.00  0.00    -0.744 OA
ENDBRANCH  78  79
ENDBRANCH  50  73
BRANCH  62  83
ATOM     83  C   UNL A   1      46.271  32.462  28.686  1.00  0.00    -0.014 A 
ATOM     84  C   UNL A   1      46.572  32.840  30.006  1.00  0.00     0.010 A 
ATOM     85  C   UNL A   1      46.215  33.446  27.683  1.00  0.00     0.010 A 
ATOM     86  C   UNL A   1      46.774  34.184  30.329  1.00  0.00     0.020 A 
ATOM     87  C   UNL A   1      46.441  34.789  27.998  1.00  0.00     0.020 A 
ATOM     88  C   UNL A   1      46.693  35.152  29.325  1.00  0.00     0.054 A 
BRANCH  88  89
ATOM     89  S   UNL A   1      46.914  36.896  29.768  1.00  0.00     0.124 S 
ATOM     90  O   UNL A   1      45.535  37.348  29.931  1.00  0.00    -0.237 OA
ATOM     91  O   UNL A   1      47.701  36.818  30.997  1.00  0.00    -0.237 OA
ATOM     92  O   UNL A   1      47.622  37.454  28.619  1.00  0.00    -0.744 OA
ENDBRANCH  88  89
ENDBRANCH  62  83
ENDBRANCH  36  37
ENDBRANCH  28  31
ENDBRANCH  26  27
ENDBRANCH   1  26
TORSDOF 16
ENDMDL
