MODEL 1
REMARK VINA RESULT:     -10.7      0.000      0.000
REMARK SMILES O=C(N[C@@H]1C=C[C@@H](C(=O)NCCCNC(=O)c2ccc(-c3c4nc(c(-c5ccc(S(=O)(=O)[O-])cc5)c5ccc([nH]5)c(-c5ccc(S(=O)(=O)[O-])cc5)c5nc(c(-c6ccc(S(=O)(=O)[O-])cc6)c6ccc3[nH]6)C=C5)C=C4)cc2)C1)Oc1ccccc1
REMARK SMILES IDX 12 1 11 2 10 3 8 4 9 5 7 7 4 8 5 9 77 10 6 11 3 12 1 13 2 14
REMARK SMILES IDX 78 16 79 17 80 18 84 19 81 20 83 21 82 22 13 23 14 24 15 25
REMARK SMILES IDX 16 27 17 28 18 29 76 30 19 31 75 32 20 33 21 34 22 35 69 36
REMARK SMILES IDX 23 37 74 38 68 39 70 40 24 41 73 42 67 43 66 44 25 46 55 47
REMARK SMILES IDX 36 48 54 49 37 50 40 51 53 52 71 53 38 54 39 55 52 57 72 58
REMARK SMILES IDX 41 59 26 60 27 61 35 62 28 63 34 64 29 65 30 66 31 67 32 68
REMARK SMILES IDX 33 69 56 70 57 71 65 72 58 73 64 74 59 75 60 76 61 77 62 78
REMARK SMILES IDX 63 79 42 80 43 81 51 82 44 83 50 84 45 85 46 86 47 87 48 88
REMARK SMILES IDX 49 89
REMARK H PARENT 10 6 3 15 14 26 70 45 40 56
REMARK Flexibility Score: inf
ROOT
ATOM      1  C   UNL A   1      40.967  20.583  27.024  1.00  0.00     0.042 C 
ENDROOT
BRANCH   1   2
ATOM      2  C   UNL A   1      41.049  19.370  26.103  1.00  0.00     0.117 C 
BRANCH   2   3
ATOM      3  N   UNL A   1      42.132  18.482  26.465  1.00  0.00    -0.356 N 
ATOM      4  C   UNL A   1      43.416  18.372  26.047  1.00  0.00     0.227 C 
ATOM      5  O   UNL A   1      44.092  17.510  26.624  1.00  0.00    -0.274 OA
ATOM      6  H   UNL A   1      41.886  17.823  27.154  1.00  0.00     0.163 HD
BRANCH   4   7
ATOM      7  C   UNL A   1      44.095  19.280  25.014  1.00  0.00     0.103 C 
ATOM      8  C   UNL A   1      45.650  21.142  25.461  1.00  0.00     0.109 C 
ATOM      9  C   UNL A   1      46.354  19.905  25.001  1.00  0.00    -0.006 C 
ATOM     10  C   UNL A   1      44.171  20.802  25.191  1.00  0.00     0.047 C 
ATOM     11  C   UNL A   1      45.519  18.882  24.798  1.00  0.00    -0.016 C 
BRANCH   8  12
ATOM     12  N   UNL A   1      46.161  22.260  24.716  1.00  0.00    -0.315 N 
ATOM     13  O   UNL A   1      46.550  24.365  24.075  1.00  0.00    -0.224 OA
ATOM     14  C   UNL A   1      45.923  23.607  24.814  1.00  0.00     0.413 C 
ATOM     15  H   UNL A   1      46.798  22.015  24.005  1.00  0.00     0.167 HD
BRANCH  14  16
ATOM     16  O   UNL A   1      44.974  24.142  25.720  1.00  0.00    -0.410 OA
BRANCH  16  17
ATOM     17  C   UNL A   1      44.730  23.982  27.108  1.00  0.00     0.132 A 
ATOM     18  C   UNL A   1      43.505  23.452  27.502  1.00  0.00     0.047 A 
ATOM     19  C   UNL A   1      45.682  24.376  28.042  1.00  0.00     0.047 A 
ATOM     20  C   UNL A   1      43.279  23.209  28.857  1.00  0.00     0.004 A 
ATOM     21  C   UNL A   1      45.474  24.082  29.388  1.00  0.00     0.004 A 
ATOM     22  C   UNL A   1      44.277  23.489  29.794  1.00  0.00     0.000 A 
ENDBRANCH  16  17
ENDBRANCH  14  16
ENDBRANCH   8  12
ENDBRANCH   4   7
ENDBRANCH   2   3
ENDBRANCH   1   2
BRANCH   1  23
ATOM     23  C   UNL A   1      40.817  21.907  26.281  1.00  0.00     0.118 C 
BRANCH  23  24
ATOM     24  N   UNL A   1      39.451  22.156  25.843  1.00  0.00    -0.352 N 
ATOM     25  C   UNL A   1      38.619  23.215  26.120  1.00  0.00     0.251 C 
ATOM     26  H   UNL A   1      39.066  21.462  25.261  1.00  0.00     0.163 HD
ATOM     27  O   UNL A   1      37.440  23.152  25.791  1.00  0.00    -0.269 OA
BRANCH  25  28
ATOM     28  C   UNL A   1      39.135  24.410  26.826  1.00  0.00     0.039 A 
ATOM     29  C   UNL A   1      39.942  25.310  26.124  1.00  0.00     0.014 A 
ATOM     30  C   UNL A   1      38.849  24.635  28.174  1.00  0.00     0.014 A 
ATOM     31  C   UNL A   1      40.417  26.459  26.762  1.00  0.00     0.010 A 
ATOM     32  C   UNL A   1      39.247  25.824  28.781  1.00  0.00     0.010 A 
ATOM     33  C   UNL A   1      40.052  26.741  28.088  1.00  0.00    -0.014 A 
BRANCH  33  34
ATOM     34  C   UNL A   1      40.522  27.972  28.774  1.00  0.00     0.031 A 
ATOM     35  C   UNL A   1      41.921  28.042  29.328  1.00  0.00     0.074 A 
ATOM     36  C   UNL A   1      39.677  29.005  28.954  1.00  0.00     0.049 A 
ATOM     37  N   UNL A   1      42.500  29.011  29.992  1.00  0.00    -0.248 NA
ATOM     38  C   UNL A   1      42.771  26.855  29.140  1.00  0.00     0.031 C 
ATOM     39  C   UNL A   1      38.282  29.044  28.510  1.00  0.00     0.029 A 
ATOM     40  N   UNL A   1      39.865  30.219  29.566  1.00  0.00    -0.354 N 
ATOM     41  C   UNL A   1      43.767  28.542  30.318  1.00  0.00     0.074 A 
ATOM     42  C   UNL A   1      43.851  27.181  29.833  1.00  0.00     0.031 C 
ATOM     43  C   UNL A   1      37.750  30.233  28.840  1.00  0.00     0.029 A 
ATOM     44  C   UNL A   1      38.749  31.022  29.553  1.00  0.00     0.049 A 
ATOM     45  H   UNL A   1      40.719  30.489  29.975  1.00  0.00     0.167 HD
ATOM     46  C   UNL A   1      44.780  29.187  30.946  1.00  0.00     0.031 A 
ATOM     47  C   UNL A   1      38.547  32.254  30.061  1.00  0.00     0.031 A 
ATOM     48  C   UNL A   1      44.693  30.542  31.425  1.00  0.00     0.049 A 
ATOM     49  C   UNL A   1      39.683  32.960  30.748  1.00  0.00     0.074 A 
ATOM     50  C   UNL A   1      45.679  31.310  32.019  1.00  0.00     0.029 A 
ATOM     51  N   UNL A   1      43.551  31.329  31.373  1.00  0.00    -0.354 N 
ATOM     52  N   UNL A   1      40.900  32.528  30.982  1.00  0.00    -0.248 NA
ATOM     53  C   UNL A   1      39.424  34.326  31.222  1.00  0.00     0.031 C 
ATOM     54  C   UNL A   1      45.116  32.538  32.382  1.00  0.00     0.029 A 
ATOM     55  C   UNL A   1      43.799  32.564  31.948  1.00  0.00     0.049 A 
ATOM     56  H   UNL A   1      42.690  31.049  30.985  1.00  0.00     0.167 HD
ATOM     57  C   UNL A   1      41.562  33.581  31.604  1.00  0.00     0.074 A 
ATOM     58  C   UNL A   1      40.612  34.672  31.699  1.00  0.00     0.031 C 
ATOM     59  C   UNL A   1      42.844  33.640  32.047  1.00  0.00     0.031 A 
BRANCH  46  60
ATOM     60  C   UNL A   1      46.058  28.417  31.168  1.00  0.00    -0.014 A 
ATOM     61  C   UNL A   1      46.248  27.627  32.317  1.00  0.00     0.010 A 
ATOM     62  C   UNL A   1      47.090  28.488  30.215  1.00  0.00     0.010 A 
ATOM     63  C   UNL A   1      47.469  26.986  32.544  1.00  0.00     0.020 A 
ATOM     64  C   UNL A   1      48.300  27.818  30.420  1.00  0.00     0.020 A 
ATOM     65  C   UNL A   1      48.491  27.095  31.597  1.00  0.00     0.054 A 
BRANCH  65  66
ATOM     66  S   UNL A   1      50.073  26.271  31.928  1.00  0.00     0.124 S 
ATOM     67  O   UNL A   1      50.007  26.065  33.373  1.00  0.00    -0.237 OA
ATOM     68  O   UNL A   1      49.981  25.062  31.116  1.00  0.00    -0.237 OA
ATOM     69  O   UNL A   1      51.070  27.243  31.483  1.00  0.00    -0.744 OA
ENDBRANCH  65  66
ENDBRANCH  46  60
BRANCH  47  70
ATOM     70  C   UNL A   1      37.214  32.898  29.904  1.00  0.00    -0.014 A 
ATOM     71  C   UNL A   1      36.337  33.008  30.997  1.00  0.00     0.010 A 
ATOM     72  C   UNL A   1      36.842  33.461  28.669  1.00  0.00     0.010 A 
ATOM     73  C   UNL A   1      35.114  33.670  30.860  1.00  0.00     0.020 A 
ATOM     74  C   UNL A   1      35.632  34.148  28.536  1.00  0.00     0.020 A 
ATOM     75  C   UNL A   1      34.774  34.245  29.632  1.00  0.00     0.054 A 
BRANCH  75  76
ATOM     76  S   UNL A   1      33.225  35.183  29.506  1.00  0.00     0.124 S 
ATOM     77  O   UNL A   1      32.644  34.989  30.830  1.00  0.00    -0.237 OA
ATOM     78  O   UNL A   1      33.699  36.533  29.213  1.00  0.00    -0.237 OA
ATOM     79  O   UNL A   1      32.517  34.528  28.408  1.00  0.00    -0.744 OA
ENDBRANCH  75  76
ENDBRANCH  47  70
BRANCH  59  80
ATOM     80  C   UNL A   1      43.313  34.943  32.642  1.00  0.00    -0.014 A 
ATOM     81  C   UNL A   1      43.888  35.952  31.849  1.00  0.00     0.010 A 
ATOM     82  C   UNL A   1      43.128  35.176  34.018  1.00  0.00     0.010 A 
ATOM     83  C   UNL A   1      44.305  37.155  32.429  1.00  0.00     0.020 A 
ATOM     84  C   UNL A   1      43.514  36.389  34.594  1.00  0.00     0.020 A 
ATOM     85  C   UNL A   1      44.115  37.364  33.799  1.00  0.00     0.054 A 
BRANCH  85  86
ATOM     86  S   UNL A   1      44.635  38.944  34.521  1.00  0.00     0.124 S 
ATOM     87  O   UNL A   1      43.938  39.908  33.675  1.00  0.00    -0.237 OA
ATOM     88  O   UNL A   1      44.148  38.845  35.895  1.00  0.00    -0.237 OA
ATOM     89  O   UNL A   1      46.090  38.929  34.379  1.00  0.00    -0.744 OA
ENDBRANCH  85  86
ENDBRANCH  59  80
ENDBRANCH  33  34
ENDBRANCH  25  28
ENDBRANCH  23  24
ENDBRANCH   1  23
TORSDOF 16
ENDMDL
MODEL 2
REMARK VINA RESULT:     -10.5      3.310      6.367
REMARK SMILES O=C(N[C@@H]1C=C[C@@H](C(=O)NCCCNC(=O)c2ccc(-c3c4nc(c(-c5ccc(S(=O)(=O)[O-])cc5)c5ccc([nH]5)c(-c5ccc(S(=O)(=O)[O-])cc5)c5nc(c(-c6ccc(S(=O)(=O)[O-])cc6)c6ccc3[nH]6)C=C5)C=C4)cc2)C1)Oc1ccccc1
REMARK SMILES IDX 12 1 11 2 10 3 8 4 9 5 7 7 4 8 5 9 77 10 6 11 3 12 1 13 2 14
REMARK SMILES IDX 78 16 79 17 80 18 84 19 81 20 83 21 82 22 13 23 14 24 15 25
REMARK SMILES IDX 16 27 17 28 18 29 76 30 19 31 75 32 20 33 21 34 22 35 69 36
REMARK SMILES IDX 23 37 74 38 68 39 70 40 24 41 73 42 67 43 66 44 25 46 55 47
REMARK SMILES IDX 36 48 54 49 37 50 40 51 53 52 71 53 38 54 39 55 52 57 72 58
REMARK SMILES IDX 41 59 26 60 27 61 35 62 28 63 34 64 29 65 30 66 31 67 32 68
REMARK SMILES IDX 33 69 56 70 57 71 65 72 58 73 64 74 59 75 60 76 61 77 62 78
REMARK SMILES IDX 63 79 42 80 43 81 51 82 44 83 50 84 45 85 46 86 47 87 48 88
REMARK SMILES IDX 49 89
REMARK H PARENT 10 6 3 15 14 26 70 45 40 56
REMARK Flexibility Score: inf
ROOT
ATOM      1  C   UNL A   1      35.225  23.249  25.364  1.00  0.00     0.042 C 
ENDROOT
BRANCH   1   2
ATOM      2  C   UNL A   1      34.590  22.448  26.495  1.00  0.00     0.117 C 
BRANCH   2   3
ATOM      3  N   UNL A   1      34.344  21.072  26.120  1.00  0.00    -0.356 N 
ATOM      4  C   UNL A   1      33.313  20.455  25.494  1.00  0.00     0.227 C 
ATOM      5  O   UNL A   1      33.464  19.244  25.285  1.00  0.00    -0.274 OA
ATOM      6  H   UNL A   1      35.073  20.461  26.370  1.00  0.00     0.163 HD
BRANCH   4   7
ATOM      7  C   UNL A   1      32.057  21.151  24.954  1.00  0.00     0.103 C 
ATOM      8  C   UNL A   1      31.613  23.576  24.881  1.00  0.00     0.109 C 
ATOM      9  C   UNL A   1      32.016  23.027  23.549  1.00  0.00    -0.006 C 
ATOM     10  C   UNL A   1      31.373  22.298  25.708  1.00  0.00     0.047 C 
ATOM     11  C   UNL A   1      32.297  21.722  23.594  1.00  0.00    -0.016 C 
BRANCH   8  12
ATOM     12  N   UNL A   1      30.455  24.407  24.698  1.00  0.00    -0.315 N 
ATOM     13  O   UNL A   1      29.010  26.094  24.946  1.00  0.00    -0.224 OA
ATOM     14  C   UNL A   1      30.030  25.537  25.350  1.00  0.00     0.413 C 
ATOM     15  H   UNL A   1      29.856  24.112  23.973  1.00  0.00     0.167 HD
BRANCH  14  16
ATOM     16  O   UNL A   1      30.714  26.062  26.474  1.00  0.00    -0.410 OA
BRANCH  16  17
ATOM     17  C   UNL A   1      31.755  27.010  26.645  1.00  0.00     0.132 A 
ATOM     18  C   UNL A   1      33.006  26.716  26.109  1.00  0.00     0.047 A 
ATOM     19  C   UNL A   1      31.532  28.183  27.358  1.00  0.00     0.047 A 
ATOM     20  C   UNL A   1      34.019  27.671  26.193  1.00  0.00     0.004 A 
ATOM     21  C   UNL A   1      32.529  29.156  27.394  1.00  0.00     0.004 A 
ATOM     22  C   UNL A   1      33.768  28.903  26.802  1.00  0.00     0.000 A 
ENDBRANCH  16  17
ENDBRANCH  14  16
ENDBRANCH   8  12
ENDBRANCH   4   7
ENDBRANCH   2   3
ENDBRANCH   1   2
BRANCH   1  23
ATOM     23  C   UNL A   1      36.586  23.839  25.720  1.00  0.00     0.118 C 
BRANCH  23  24
ATOM     24  N   UNL A   1      37.630  22.830  25.820  1.00  0.00    -0.352 N 
ATOM     25  C   UNL A   1      38.918  22.942  26.285  1.00  0.00     0.251 C 
ATOM     26  H   UNL A   1      37.374  21.932  25.509  1.00  0.00     0.163 HD
ATOM     27  O   UNL A   1      39.697  22.009  26.125  1.00  0.00    -0.269 OA
BRANCH  25  28
ATOM     28  C   UNL A   1      39.370  24.185  26.951  1.00  0.00     0.039 A 
ATOM     29  C   UNL A   1      40.109  25.113  26.213  1.00  0.00     0.014 A 
ATOM     30  C   UNL A   1      39.091  24.430  28.297  1.00  0.00     0.014 A 
ATOM     31  C   UNL A   1      40.523  26.306  26.813  1.00  0.00     0.010 A 
ATOM     32  C   UNL A   1      39.424  25.656  28.867  1.00  0.00     0.010 A 
ATOM     33  C   UNL A   1      40.161  26.601  28.136  1.00  0.00    -0.014 A 
BRANCH  33  34
ATOM     34  C   UNL A   1      40.565  27.877  28.782  1.00  0.00     0.031 A 
ATOM     35  C   UNL A   1      41.937  28.018  29.388  1.00  0.00     0.074 A 
ATOM     36  C   UNL A   1      39.681  28.889  28.880  1.00  0.00     0.049 A 
ATOM     37  N   UNL A   1      42.458  29.034  30.028  1.00  0.00    -0.248 NA
ATOM     38  C   UNL A   1      42.829  26.852  29.289  1.00  0.00     0.031 C 
ATOM     39  C   UNL A   1      38.305  28.863  28.380  1.00  0.00     0.029 A 
ATOM     40  N   UNL A   1      39.807  30.136  29.441  1.00  0.00    -0.354 N 
ATOM     41  C   UNL A   1      43.725  28.621  30.425  1.00  0.00     0.074 A 
ATOM     42  C   UNL A   1      43.869  27.243  30.008  1.00  0.00     0.031 C 
ATOM     43  C   UNL A   1      37.725  30.047  28.631  1.00  0.00     0.029 A 
ATOM     44  C   UNL A   1      38.669  30.900  29.346  1.00  0.00     0.049 A 
ATOM     45  H   UNL A   1      40.635  30.452  29.870  1.00  0.00     0.167 HD
ATOM     46  C   UNL A   1      44.690  29.327  31.062  1.00  0.00     0.031 A 
ATOM     47  C   UNL A   1      38.409  32.147  29.788  1.00  0.00     0.031 A 
ATOM     48  C   UNL A   1      44.542  30.699  31.474  1.00  0.00     0.049 A 
ATOM     49  C   UNL A   1      39.493  32.920  30.486  1.00  0.00     0.074 A 
ATOM     50  C   UNL A   1      45.479  31.524  32.070  1.00  0.00     0.029 A 
ATOM     51  N   UNL A   1      43.381  31.445  31.340  1.00  0.00    -0.354 N 
ATOM     52  N   UNL A   1      40.712  32.539  30.788  1.00  0.00    -0.248 NA
ATOM     53  C   UNL A   1      39.174  34.297  30.884  1.00  0.00     0.031 C 
ATOM     54  C   UNL A   1      44.864  32.749  32.352  1.00  0.00     0.029 A 
ATOM     55  C   UNL A   1      43.567  32.713  31.865  1.00  0.00     0.049 A 
ATOM     56  H   UNL A   1      42.545  31.120  30.931  1.00  0.00     0.167 HD
ATOM     57  C   UNL A   1      41.316  33.640  31.385  1.00  0.00     0.074 A 
ATOM     58  C   UNL A   1      40.330  34.703  31.391  1.00  0.00     0.031 C 
ATOM     59  C   UNL A   1      42.575  33.761  31.875  1.00  0.00     0.031 A 
BRANCH  46  60
ATOM     60  C   UNL A   1      45.981  28.609  31.371  1.00  0.00    -0.014 A 
ATOM     61  C   UNL A   1      46.163  27.917  32.582  1.00  0.00     0.010 A 
ATOM     62  C   UNL A   1      47.033  28.633  30.436  1.00  0.00     0.010 A 
ATOM     63  C   UNL A   1      47.394  27.326  32.884  1.00  0.00     0.020 A 
ATOM     64  C   UNL A   1      48.253  28.012  30.719  1.00  0.00     0.020 A 
ATOM     65  C   UNL A   1      48.435  27.387  31.953  1.00  0.00     0.054 A 
BRANCH  65  66
ATOM     66  S   UNL A   1      50.028  26.633  32.380  1.00  0.00     0.124 S 
ATOM     67  O   UNL A   1      50.458  26.092  31.093  1.00  0.00    -0.237 OA
ATOM     68  O   UNL A   1      50.799  27.770  32.874  1.00  0.00    -0.237 OA
ATOM     69  O   UNL A   1      49.679  25.634  33.389  1.00  0.00    -0.744 OA
ENDBRANCH  65  66
ENDBRANCH  46  60
BRANCH  47  70
ATOM     70  C   UNL A   1      37.065  32.740  29.547  1.00  0.00    -0.014 A 
ATOM     71  C   UNL A   1      36.076  32.705  30.546  1.00  0.00     0.010 A 
ATOM     72  C   UNL A   1      36.788  33.399  28.335  1.00  0.00     0.010 A 
ATOM     73  C   UNL A   1      34.838  33.318  30.339  1.00  0.00     0.020 A 
ATOM     74  C   UNL A   1      35.561  34.038  28.135  1.00  0.00     0.020 A 
ATOM     75  C   UNL A   1      34.592  33.991  29.139  1.00  0.00     0.054 A 
BRANCH  75  76
ATOM     76  S   UNL A   1      33.013  34.862  28.933  1.00  0.00     0.124 S 
ATOM     77  O   UNL A   1      32.338  34.037  27.937  1.00  0.00    -0.237 OA
ATOM     78  O   UNL A   1      32.452  34.816  30.280  1.00  0.00    -0.237 OA
ATOM     79  O   UNL A   1      33.413  36.192  28.478  1.00  0.00    -0.744 OA
ENDBRANCH  75  76
ENDBRANCH  47  70
BRANCH  59  80
ATOM     80  C   UNL A   1      42.980  35.103  32.427  1.00  0.00    -0.014 A 
ATOM     81  C   UNL A   1      43.599  36.076  31.622  1.00  0.00     0.010 A 
ATOM     82  C   UNL A   1      42.688  35.411  33.769  1.00  0.00     0.010 A 
ATOM     83  C   UNL A   1      43.954  37.317  32.160  1.00  0.00     0.020 A 
ATOM     84  C   UNL A   1      43.012  36.662  34.301  1.00  0.00     0.020 A 
ATOM     85  C   UNL A   1      43.658  37.601  33.498  1.00  0.00     0.054 A 
BRANCH  85  86
ATOM     86  S   UNL A   1      44.100  39.229  34.163  1.00  0.00     0.124 S 
ATOM     87  O   UNL A   1      45.382  39.485  33.513  1.00  0.00    -0.237 OA
ATOM     88  O   UNL A   1      42.990  40.069  33.717  1.00  0.00    -0.237 OA
ATOM     89  O   UNL A   1      44.166  39.008  35.606  1.00  0.00    -0.744 OA
ENDBRANCH  85  86
ENDBRANCH  59  80
ENDBRANCH  33  34
ENDBRANCH  25  28
ENDBRANCH  23  24
ENDBRANCH   1  23
TORSDOF 16
ENDMDL
MODEL 3
REMARK VINA RESULT:     -10.5      4.168     11.210
REMARK SMILES O=C(N[C@@H]1C=C[C@@H](C(=O)NCCCNC(=O)c2ccc(-c3c4nc(c(-c5ccc(S(=O)(=O)[O-])cc5)c5ccc([nH]5)c(-c5ccc(S(=O)(=O)[O-])cc5)c5nc(c(-c6ccc(S(=O)(=O)[O-])cc6)c6ccc3[nH]6)C=C5)C=C4)cc2)C1)Oc1ccccc1
REMARK SMILES IDX 12 1 11 2 10 3 8 4 9 5 7 7 4 8 5 9 77 10 6 11 3 12 1 13 2 14
REMARK SMILES IDX 78 16 79 17 80 18 84 19 81 20 83 21 82 22 13 23 14 24 15 25
REMARK SMILES IDX 16 27 17 28 18 29 76 30 19 31 75 32 20 33 21 34 22 35 69 36
REMARK SMILES IDX 23 37 74 38 68 39 70 40 24 41 73 42 67 43 66 44 25 46 55 47
REMARK SMILES IDX 36 48 54 49 37 50 40 51 53 52 71 53 38 54 39 55 52 57 72 58
REMARK SMILES IDX 41 59 26 60 27 61 35 62 28 63 34 64 29 65 30 66 31 67 32 68
REMARK SMILES IDX 33 69 56 70 57 71 65 72 58 73 64 74 59 75 60 76 61 77 62 78
REMARK SMILES IDX 63 79 42 80 43 81 51 82 44 83 50 84 45 85 46 86 47 87 48 88
REMARK SMILES IDX 49 89
REMARK H PARENT 10 6 3 15 14 26 70 45 40 56
REMARK Flexibility Score: inf
ROOT
ATOM      1  C   UNL A   1      32.816  27.944  25.565  1.00  0.00     0.042 C 
ENDROOT
BRANCH   1   2
ATOM      2  C   UNL A   1      33.068  28.444  24.147  1.00  0.00     0.117 C 
BRANCH   2   3
ATOM      3  N   UNL A   1      31.971  29.246  23.647  1.00  0.00    -0.356 N 
ATOM      4  C   UNL A   1      30.840  28.942  22.967  1.00  0.00     0.227 C 
ATOM      5  O   UNL A   1      30.082  29.895  22.742  1.00  0.00    -0.274 OA
ATOM      6  H   UNL A   1      32.067  30.206  23.841  1.00  0.00     0.163 HD
BRANCH   4   7
ATOM      7  C   UNL A   1      30.401  27.531  22.557  1.00  0.00     0.103 C 
ATOM      8  C   UNL A   1      31.509  25.402  23.129  1.00  0.00     0.109 C 
ATOM      9  C   UNL A   1      30.293  25.658  23.963  1.00  0.00    -0.006 C 
ATOM     10  C   UNL A   1      31.397  26.486  22.038  1.00  0.00     0.047 C 
ATOM     11  C   UNL A   1      29.715  26.829  23.685  1.00  0.00    -0.016 C 
BRANCH   8  12
ATOM     12  N   UNL A   1      31.453  24.049  22.647  1.00  0.00    -0.315 N 
ATOM     13  O   UNL A   1      31.803  21.847  22.503  1.00  0.00    -0.224 OA
ATOM     14  C   UNL A   1      32.079  22.904  23.068  1.00  0.00     0.413 C 
ATOM     15  H   UNL A   1      30.856  23.920  21.874  1.00  0.00     0.167 HD
BRANCH  14  16
ATOM     16  O   UNL A   1      33.038  22.908  24.111  1.00  0.00    -0.410 OA
BRANCH  16  17
ATOM     17  C   UNL A   1      34.416  22.577  24.191  1.00  0.00     0.132 A 
ATOM     18  C   UNL A   1      34.790  21.520  25.015  1.00  0.00     0.047 A 
ATOM     19  C   UNL A   1      35.360  23.316  23.487  1.00  0.00     0.047 A 
ATOM     20  C   UNL A   1      36.128  21.126  25.041  1.00  0.00     0.004 A 
ATOM     21  C   UNL A   1      36.686  22.886  23.475  1.00  0.00     0.004 A 
ATOM     22  C   UNL A   1      37.067  21.785  24.244  1.00  0.00     0.000 A 
ENDBRANCH  16  17
ENDBRANCH  14  16
ENDBRANCH   8  12
ENDBRANCH   4   7
ENDBRANCH   2   3
ENDBRANCH   1   2
BRANCH   1  23
ATOM     23  C   UNL A   1      33.892  28.363  26.563  1.00  0.00     0.118 C 
BRANCH  23  24
ATOM     24  N   UNL A   1      33.718  29.727  27.039  1.00  0.00    -0.352 N 
ATOM     25  C   UNL A   1      34.547  30.498  27.819  1.00  0.00     0.251 C 
ATOM     26  H   UNL A   1      32.881  30.163  26.760  1.00  0.00     0.163 HD
ATOM     27  O   UNL A   1      34.137  31.568  28.254  1.00  0.00    -0.269 OA
BRANCH  25  28
ATOM     28  C   UNL A   1      35.914  30.031  28.149  1.00  0.00     0.039 A 
ATOM     29  C   UNL A   1      36.913  30.139  27.179  1.00  0.00     0.014 A 
ATOM     30  C   UNL A   1      36.208  29.472  29.394  1.00  0.00     0.014 A 
ATOM     31  C   UNL A   1      38.217  29.732  27.477  1.00  0.00     0.010 A 
ATOM     32  C   UNL A   1      37.524  29.151  29.720  1.00  0.00     0.010 A 
ATOM     33  C   UNL A   1      38.540  29.260  28.759  1.00  0.00    -0.014 A 
BRANCH  33  34
ATOM     34  C   UNL A   1      39.926  28.850  29.104  1.00  0.00     0.031 A 
ATOM     35  C   UNL A   1      40.856  29.822  29.783  1.00  0.00     0.074 A 
ATOM     36  C   UNL A   1      40.371  27.628  28.756  1.00  0.00     0.049 A 
ATOM     37  N   UNL A   1      42.108  29.665  30.128  1.00  0.00    -0.248 NA
ATOM     38  C   UNL A   1      40.315  31.157  30.086  1.00  0.00     0.031 C 
ATOM     39  C   UNL A   1      39.589  26.611  28.051  1.00  0.00     0.029 A 
ATOM     40  N   UNL A   1      41.596  27.035  28.941  1.00  0.00    -0.354 N 
ATOM     41  C   UNL A   1      42.510  30.883  30.664  1.00  0.00     0.074 A 
ATOM     42  C   UNL A   1      41.386  31.787  30.543  1.00  0.00     0.031 C 
ATOM     43  C   UNL A   1      40.343  25.511  27.889  1.00  0.00     0.029 A 
ATOM     44  C   UNL A   1      41.672  25.759  28.438  1.00  0.00     0.049 A 
ATOM     45  H   UNL A   1      42.348  27.483  29.392  1.00  0.00     0.167 HD
ATOM     46  C   UNL A   1      43.697  31.218  31.225  1.00  0.00     0.031 A 
ATOM     47  C   UNL A   1      42.696  24.882  28.415  1.00  0.00     0.031 A 
ATOM     48  C   UNL A   1      44.811  30.315  31.345  1.00  0.00     0.049 A 
ATOM     49  C   UNL A   1      44.004  25.267  29.049  1.00  0.00     0.074 A 
ATOM     50  C   UNL A   1      46.036  30.534  31.950  1.00  0.00     0.029 A 
ATOM     51  N   UNL A   1      44.840  29.022  30.842  1.00  0.00    -0.354 N 
ATOM     52  N   UNL A   1      44.342  26.399  29.619  1.00  0.00    -0.248 NA
ATOM     53  C   UNL A   1      45.062  24.248  29.055  1.00  0.00     0.031 C 
ATOM     54  C   UNL A   1      46.827  29.396  31.759  1.00  0.00     0.029 A 
ATOM     55  C   UNL A   1      46.071  28.440  31.099  1.00  0.00     0.049 A 
ATOM     56  H   UNL A   1      44.095  28.582  30.370  1.00  0.00     0.167 HD
ATOM     57  C   UNL A   1      45.643  26.219  30.078  1.00  0.00     0.074 A 
ATOM     58  C   UNL A   1      46.024  24.865  29.728  1.00  0.00     0.031 C 
ATOM     59  C   UNL A   1      46.443  27.094  30.737  1.00  0.00     0.031 A 
BRANCH  46  60
ATOM     60  C   UNL A   1      43.849  32.633  31.727  1.00  0.00    -0.014 A 
ATOM     61  C   UNL A   1      43.610  32.963  33.074  1.00  0.00     0.010 A 
ATOM     62  C   UNL A   1      44.231  33.651  30.834  1.00  0.00     0.010 A 
ATOM     63  C   UNL A   1      43.678  34.292  33.501  1.00  0.00     0.020 A 
ATOM     64  C   UNL A   1      44.336  34.977  31.266  1.00  0.00     0.020 A 
ATOM     65  C   UNL A   1      44.031  35.293  32.590  1.00  0.00     0.054 A 
BRANCH  65  66
ATOM     66  S   UNL A   1      44.089  37.011  33.167  1.00  0.00     0.124 S 
ATOM     67  O   UNL A   1      45.275  37.001  34.019  1.00  0.00    -0.237 OA
ATOM     68  O   UNL A   1      44.216  37.763  31.922  1.00  0.00    -0.237 OA
ATOM     69  O   UNL A   1      42.819  37.184  33.870  1.00  0.00    -0.744 OA
ENDBRANCH  65  66
ENDBRANCH  46  60
BRANCH  47  70
ATOM     70  C   UNL A   1      42.499  23.545  27.791  1.00  0.00    -0.014 A 
ATOM     71  C   UNL A   1      42.869  23.316  26.455  1.00  0.00     0.010 A 
ATOM     72  C   UNL A   1      41.995  22.475  28.554  1.00  0.00     0.010 A 
ATOM     73  C   UNL A   1      42.741  22.043  25.893  1.00  0.00     0.020 A 
ATOM     74  C   UNL A   1      41.891  21.195  28.004  1.00  0.00     0.020 A 
ATOM     75  C   UNL A   1      42.263  20.987  26.674  1.00  0.00     0.054 A 
BRANCH  75  76
ATOM     76  S   UNL A   1      42.197  19.324  25.951  1.00  0.00     0.124 S 
ATOM     77  O   UNL A   1      40.777  19.178  25.653  1.00  0.00    -0.237 OA
ATOM     78  O   UNL A   1      43.078  19.452  24.793  1.00  0.00    -0.237 OA
ATOM     79  O   UNL A   1      42.706  18.467  27.019  1.00  0.00    -0.744 OA
ENDBRANCH  75  76
ENDBRANCH  47  70
BRANCH  59  80
ATOM     80  C   UNL A   1      47.804  26.605  31.163  1.00  0.00    -0.014 A 
ATOM     81  C   UNL A   1      48.000  25.943  32.388  1.00  0.00     0.010 A 
ATOM     82  C   UNL A   1      48.898  26.772  30.293  1.00  0.00     0.010 A 
ATOM     83  C   UNL A   1      49.273  25.491  32.751  1.00  0.00     0.020 A 
ATOM     84  C   UNL A   1      50.164  26.293  30.638  1.00  0.00     0.020 A 
ATOM     85  C   UNL A   1      50.347  25.671  31.873  1.00  0.00     0.054 A 
BRANCH  85  86
ATOM     86  S   UNL A   1      51.981  25.048  32.353  1.00  0.00     0.124 S 
ATOM     87  O   UNL A   1      51.758  23.605  32.386  1.00  0.00    -0.237 OA
ATOM     88  O   UNL A   1      52.838  25.528  31.270  1.00  0.00    -0.237 OA
ATOM     89  O   UNL A   1      52.222  25.671  33.652  1.00  0.00    -0.744 OA
ENDBRANCH  85  86
ENDBRANCH  59  80
ENDBRANCH  33  34
ENDBRANCH  25  28
ENDBRANCH  23  24
ENDBRANCH   1  23
TORSDOF 16
ENDMDL
