MODEL 1
REMARK VINA RESULT:     -12.4      0.000      0.000
REMARK SMILES Cc1ccc(C)c(N2C(=O)C[C@@H](SCC(=O)NCCCNC(=O)c3ccc(-c4c5nc(c(-c6ccc(S(=O)(=O)[O-])cc6)c6ccc([nH]6)c(-c6ccc(S(=O)(=O)[O-])cc6)c6nc(c(-c7ccc(S(=O)(=O)[O-])cc7)c7ccc4[nH]7)C=C6)C=C5)cc3)C2=O)c1
REMARK SMILES IDX 19 1 18 2 17 3 15 4 16 5 14 7 13 8 12 9 8 10 9 11 84 12
REMARK SMILES IDX 10 13 11 14 85 15 7 16 1 17 2 18 3 19 86 20 4 21 5 22 6 23
REMARK SMILES IDX 20 24 21 25 22 26 23 28 24 29 25 30 83 31 26 32 82 33 27 34
REMARK SMILES IDX 28 35 29 36 76 37 30 38 81 39 75 40 77 41 31 42 80 43 74 44
REMARK SMILES IDX 73 45 32 47 62 48 43 49 61 50 44 51 47 52 60 53 78 54 45 55
REMARK SMILES IDX 46 56 59 58 79 59 48 60 33 61 34 62 42 63 35 64 41 65 36 66
REMARK SMILES IDX 37 67 38 68 39 69 40 70 63 71 64 72 72 73 65 74 71 75 66 76
REMARK SMILES IDX 67 77 68 78 69 79 70 80 49 81 50 82 58 83 51 84 57 85 52 86
REMARK SMILES IDX 53 87 54 88 55 89 56 90
REMARK H PARENT 17 6 21 27 77 46 47 57
REMARK Flexibility Score: inf
ROOT
ATOM      1  C   UNL A   1      38.944  21.380  25.817  1.00  0.00     0.042 C 
ENDROOT
BRANCH   1   2
ATOM      2  C   UNL A   1      38.094  22.657  25.883  1.00  0.00     0.117 C 
BRANCH   2   3
ATOM      3  N   UNL A   1      37.528  23.064  24.607  1.00  0.00    -0.355 N 
ATOM      4  C   UNL A   1      36.447  22.584  23.929  1.00  0.00     0.230 C 
ATOM      5  O   UNL A   1      36.189  23.061  22.821  1.00  0.00    -0.274 OA
ATOM      6  H   UNL A   1      38.000  23.806  24.162  1.00  0.00     0.163 HD
BRANCH   4   7
ATOM      7  C   UNL A   1      35.594  21.474  24.505  1.00  0.00     0.170 C 
BRANCH   7   8
ATOM      8  S   UNL A   1      33.844  21.938  24.646  1.00  0.00    -0.138 SA
BRANCH   8   9
ATOM      9  C   UNL A   1      33.866  22.916  26.212  1.00  0.00     0.146 C 
ATOM     10  N   UNL A   1      32.521  24.824  26.076  1.00  0.00    -0.249 N 
ATOM     11  C   UNL A   1      31.785  23.919  26.804  1.00  0.00     0.235 C 
ATOM     12  C   UNL A   1      33.793  24.375  25.822  1.00  0.00     0.247 C 
ATOM     13  O   UNL A   1      30.630  24.018  27.181  1.00  0.00    -0.274 OA
ATOM     14  C   UNL A   1      32.640  22.713  27.082  1.00  0.00     0.125 C 
ATOM     15  O   UNL A   1      34.737  25.001  25.350  1.00  0.00    -0.273 OA
BRANCH  10  16
ATOM     16  C   UNL A   1      32.033  26.089  25.677  1.00  0.00     0.055 A 
ATOM     17  C   UNL A   1      32.032  29.643  27.094  1.00  0.00     0.044 C 
ATOM     18  C   UNL A   1      31.796  28.473  26.185  1.00  0.00    -0.049 A 
ATOM     19  C   UNL A   1      31.160  28.662  24.958  1.00  0.00     0.004 A 
ATOM     20  C   UNL A   1      32.209  27.183  26.545  1.00  0.00     0.030 A 
ATOM     21  C   UNL A   1      30.948  27.582  24.102  1.00  0.00     0.006 A 
ATOM     22  C   UNL A   1      31.373  26.287  24.447  1.00  0.00    -0.027 A 
ATOM     23  C   UNL A   1      31.018  25.180  23.492  1.00  0.00     0.046 C 
ENDBRANCH  10  16
ENDBRANCH   8   9
ENDBRANCH   7   8
ENDBRANCH   4   7
ENDBRANCH   2   3
ENDBRANCH   1   2
BRANCH   1  24
ATOM     24  C   UNL A   1      40.128  21.311  26.779  1.00  0.00     0.118 C 
BRANCH  24  25
ATOM     25  N   UNL A   1      41.415  21.642  26.148  1.00  0.00    -0.352 N 
ATOM     26  C   UNL A   1      42.088  22.831  25.904  1.00  0.00     0.251 C 
ATOM     27  H   UNL A   1      41.905  20.848  25.831  1.00  0.00     0.163 HD
ATOM     28  O   UNL A   1      42.980  22.836  25.068  1.00  0.00    -0.269 OA
BRANCH  26  29
ATOM     29  C   UNL A   1      41.749  24.080  26.628  1.00  0.00     0.039 A 
ATOM     30  C   UNL A   1      40.690  24.916  26.258  1.00  0.00     0.014 A 
ATOM     31  C   UNL A   1      42.553  24.475  27.679  1.00  0.00     0.014 A 
ATOM     32  C   UNL A   1      40.534  26.132  26.932  1.00  0.00     0.010 A 
ATOM     33  C   UNL A   1      42.166  25.428  28.566  1.00  0.00     0.010 A 
ATOM     34  C   UNL A   1      41.314  26.381  28.071  1.00  0.00    -0.014 A 
BRANCH  34  35
ATOM     35  C   UNL A   1      41.315  27.630  28.803  1.00  0.00     0.031 A 
ATOM     36  C   UNL A   1      42.290  28.604  28.300  1.00  0.00     0.074 A 
ATOM     37  C   UNL A   1      40.345  28.022  29.658  1.00  0.00     0.049 A 
ATOM     38  N   UNL A   1      43.451  28.853  28.795  1.00  0.00    -0.248 NA
ATOM     39  C   UNL A   1      42.020  29.241  27.004  1.00  0.00     0.031 C 
ATOM     40  C   UNL A   1      39.062  27.378  29.974  1.00  0.00     0.029 A 
ATOM     41  N   UNL A   1      40.279  29.182  30.364  1.00  0.00    -0.354 N 
ATOM     42  C   UNL A   1      43.969  29.864  28.006  1.00  0.00     0.074 A 
ATOM     43  C   UNL A   1      43.171  29.883  26.803  1.00  0.00     0.031 C 
ATOM     44  C   UNL A   1      38.277  28.247  30.656  1.00  0.00     0.029 A 
ATOM     45  C   UNL A   1      39.051  29.439  30.957  1.00  0.00     0.049 A 
ATOM     46  H   UNL A   1      41.045  29.795  30.447  1.00  0.00     0.167 HD
ATOM     47  C   UNL A   1      44.831  30.784  28.518  1.00  0.00     0.031 A 
ATOM     48  C   UNL A   1      38.703  30.570  31.620  1.00  0.00     0.031 A 
ATOM     49  C   UNL A   1      45.263  30.425  29.850  1.00  0.00     0.049 A 
ATOM     50  C   UNL A   1      39.965  31.236  32.036  1.00  0.00     0.074 A 
ATOM     51  C   UNL A   1      45.888  29.324  30.404  1.00  0.00     0.029 A 
ATOM     52  N   UNL A   1      44.662  31.086  30.900  1.00  0.00    -0.354 N 
ATOM     53  N   UNL A   1      40.792  30.730  32.907  1.00  0.00    -0.248 NA
ATOM     54  C   UNL A   1      40.532  32.260  31.171  1.00  0.00     0.031 C 
ATOM     55  C   UNL A   1      45.244  29.125  31.663  1.00  0.00     0.029 A 
ATOM     56  C   UNL A   1      44.311  30.149  31.840  1.00  0.00     0.049 A 
ATOM     57  H   UNL A   1      44.512  32.057  30.964  1.00  0.00     0.167 HD
ATOM     58  C   UNL A   1      42.057  31.040  32.427  1.00  0.00     0.074 A 
ATOM     59  C   UNL A   1      41.832  32.079  31.426  1.00  0.00     0.031 C 
ATOM     60  C   UNL A   1      43.131  30.232  32.684  1.00  0.00     0.031 A 
BRANCH  47  61
ATOM     61  C   UNL A   1      44.965  32.184  27.984  1.00  0.00    -0.014 A 
ATOM     62  C   UNL A   1      46.186  32.566  27.397  1.00  0.00     0.010 A 
ATOM     63  C   UNL A   1      44.032  33.207  28.249  1.00  0.00     0.010 A 
ATOM     64  C   UNL A   1      46.478  33.912  27.147  1.00  0.00     0.020 A 
ATOM     65  C   UNL A   1      44.291  34.544  27.955  1.00  0.00     0.020 A 
ATOM     66  C   UNL A   1      45.531  34.892  27.440  1.00  0.00     0.054 A 
BRANCH  66  67
ATOM     67  S   UNL A   1      45.957  36.634  27.218  1.00  0.00     0.124 S 
ATOM     68  O   UNL A   1      44.640  37.243  27.054  1.00  0.00    -0.237 OA
ATOM     69  O   UNL A   1      46.651  36.944  28.463  1.00  0.00    -0.237 OA
ATOM     70  O   UNL A   1      46.799  36.630  26.024  1.00  0.00    -0.744 OA
ENDBRANCH  66  67
ENDBRANCH  47  61
BRANCH  48  71
ATOM     71  C   UNL A   1      37.382  31.241  31.693  1.00  0.00    -0.014 A 
ATOM     72  C   UNL A   1      36.771  31.504  32.934  1.00  0.00     0.010 A 
ATOM     73  C   UNL A   1      36.855  31.885  30.555  1.00  0.00     0.010 A 
ATOM     74  C   UNL A   1      35.726  32.438  33.045  1.00  0.00     0.020 A 
ATOM     75  C   UNL A   1      35.809  32.811  30.656  1.00  0.00     0.020 A 
ATOM     76  C   UNL A   1      35.269  33.105  31.906  1.00  0.00     0.054 A 
BRANCH  76  77
ATOM     77  S   UNL A   1      34.067  34.458  32.084  1.00  0.00     0.124 S 
ATOM     78  O   UNL A   1      33.112  33.902  33.038  1.00  0.00    -0.237 OA
ATOM     79  O   UNL A   1      34.893  35.554  32.581  1.00  0.00    -0.237 OA
ATOM     80  O   UNL A   1      33.554  34.642  30.727  1.00  0.00    -0.744 OA
ENDBRANCH  76  77
ENDBRANCH  48  71
BRANCH  60  81
ATOM     81  C   UNL A   1      42.994  29.176  33.762  1.00  0.00    -0.014 A 
ATOM     82  C   UNL A   1      43.508  29.315  35.067  1.00  0.00     0.010 A 
ATOM     83  C   UNL A   1      42.191  28.055  33.481  1.00  0.00     0.010 A 
ATOM     84  C   UNL A   1      43.252  28.346  36.050  1.00  0.00     0.020 A 
ATOM     85  C   UNL A   1      41.915  27.097  34.460  1.00  0.00     0.020 A 
ATOM     86  C   UNL A   1      42.455  27.241  35.739  1.00  0.00     0.054 A 
BRANCH  86  87
ATOM     87  S   UNL A   1      42.086  26.016  37.027  1.00  0.00     0.124 S 
ATOM     88  O   UNL A   1      42.486  24.761  36.397  1.00  0.00    -0.237 OA
ATOM     89  O   UNL A   1      42.922  26.454  38.143  1.00  0.00    -0.237 OA
ATOM     90  O   UNL A   1      40.647  26.165  37.248  1.00  0.00    -0.744 OA
ENDBRANCH  86  87
ENDBRANCH  60  81
ENDBRANCH  34  35
ENDBRANCH  26  29
ENDBRANCH  24  25
ENDBRANCH   1  24
TORSDOF 16
ENDMDL
MODEL 2
REMARK VINA RESULT:     -12.3      1.323      1.802
REMARK SMILES Cc1ccc(C)c(N2C(=O)C[C@@H](SCC(=O)NCCCNC(=O)c3ccc(-c4c5nc(c(-c6ccc(S(=O)(=O)[O-])cc6)c6ccc([nH]6)c(-c6ccc(S(=O)(=O)[O-])cc6)c6nc(c(-c7ccc(S(=O)(=O)[O-])cc7)c7ccc4[nH]7)C=C6)C=C5)cc3)C2=O)c1
REMARK SMILES IDX 19 1 18 2 17 3 15 4 16 5 14 7 13 8 12 9 8 10 9 11 84 12
REMARK SMILES IDX 10 13 11 14 85 15 7 16 1 17 2 18 3 19 86 20 4 21 5 22 6 23
REMARK SMILES IDX 20 24 21 25 22 26 23 28 24 29 25 30 83 31 26 32 82 33 27 34
REMARK SMILES IDX 28 35 29 36 76 37 30 38 81 39 75 40 77 41 31 42 80 43 74 44
REMARK SMILES IDX 73 45 32 47 62 48 43 49 61 50 44 51 47 52 60 53 78 54 45 55
REMARK SMILES IDX 46 56 59 58 79 59 48 60 33 61 34 62 42 63 35 64 41 65 36 66
REMARK SMILES IDX 37 67 38 68 39 69 40 70 63 71 64 72 72 73 65 74 71 75 66 76
REMARK SMILES IDX 67 77 68 78 69 79 70 80 49 81 50 82 58 83 51 84 57 85 52 86
REMARK SMILES IDX 53 87 54 88 55 89 56 90
REMARK H PARENT 17 6 21 27 77 46 47 57
REMARK Flexibility Score: inf
ROOT
ATOM      1  C   UNL A   1      37.901  20.866  25.063  1.00  0.00     0.042 C 
ENDROOT
BRANCH   1   2
ATOM      2  C   UNL A   1      36.374  21.020  25.014  1.00  0.00     0.117 C 
BRANCH   2   3
ATOM      3  N   UNL A   1      35.802  21.678  26.179  1.00  0.00    -0.355 N 
ATOM      4  C   UNL A   1      34.520  21.694  26.641  1.00  0.00     0.230 C 
ATOM      5  O   UNL A   1      34.262  22.378  27.634  1.00  0.00    -0.274 OA
ATOM      6  H   UNL A   1      36.443  22.194  26.720  1.00  0.00     0.163 HD
BRANCH   4   7
ATOM      7  C   UNL A   1      33.428  20.913  25.942  1.00  0.00     0.170 C 
BRANCH   7   8
ATOM      8  S   UNL A   1      31.892  21.864  25.763  1.00  0.00    -0.138 SA
BRANCH   8   9
ATOM      9  C   UNL A   1      31.938  22.267  23.961  1.00  0.00     0.146 C 
ATOM     10  N   UNL A   1      32.950  24.335  23.550  1.00  0.00    -0.249 N 
ATOM     11  C   UNL A   1      33.906  23.400  23.232  1.00  0.00     0.235 C 
ATOM     12  C   UNL A   1      31.737  23.761  23.839  1.00  0.00     0.247 C 
ATOM     13  O   UNL A   1      35.074  23.588  22.937  1.00  0.00    -0.274 OA
ATOM     14  C   UNL A   1      33.289  22.031  23.312  1.00  0.00     0.125 C 
ATOM     15  O   UNL A   1      30.654  24.317  23.994  1.00  0.00    -0.273 OA
BRANCH  10  16
ATOM     16  C   UNL A   1      33.182  25.729  23.533  1.00  0.00     0.055 A 
ATOM     17  C   UNL A   1      34.117  28.426  26.081  1.00  0.00     0.044 C 
ATOM     18  C   UNL A   1      33.762  27.750  24.789  1.00  0.00    -0.049 A 
ATOM     19  C   UNL A   1      33.723  28.486  23.605  1.00  0.00     0.004 A 
ATOM     20  C   UNL A   1      33.470  26.380  24.748  1.00  0.00     0.030 A 
ATOM     21  C   UNL A   1      33.406  27.863  22.399  1.00  0.00     0.006 A 
ATOM     22  C   UNL A   1      33.127  26.486  22.345  1.00  0.00    -0.027 A 
ATOM     23  C   UNL A   1      32.712  25.931  21.009  1.00  0.00     0.046 C 
ENDBRANCH  10  16
ENDBRANCH   8   9
ENDBRANCH   7   8
ENDBRANCH   4   7
ENDBRANCH   2   3
ENDBRANCH   1   2
BRANCH   1  24
ATOM     24  C   UNL A   1      38.636  21.778  26.043  1.00  0.00     0.118 C 
BRANCH  24  25
ATOM     25  N   UNL A   1      40.100  21.710  25.918  1.00  0.00    -0.352 N 
ATOM     26  C   UNL A   1      41.124  22.633  26.089  1.00  0.00     0.251 C 
ATOM     27  H   UNL A   1      40.424  20.817  25.658  1.00  0.00     0.163 HD
ATOM     28  O   UNL A   1      42.216  22.391  25.595  1.00  0.00    -0.269 OA
BRANCH  26  29
ATOM     29  C   UNL A   1      40.919  23.891  26.847  1.00  0.00     0.039 A 
ATOM     30  C   UNL A   1      39.798  24.710  26.680  1.00  0.00     0.014 A 
ATOM     31  C   UNL A   1      41.910  24.309  27.714  1.00  0.00     0.014 A 
ATOM     32  C   UNL A   1      39.763  25.936  27.355  1.00  0.00     0.010 A 
ATOM     33  C   UNL A   1      41.693  25.273  28.645  1.00  0.00     0.010 A 
ATOM     34  C   UNL A   1      40.749  26.210  28.314  1.00  0.00    -0.014 A 
BRANCH  34  35
ATOM     35  C   UNL A   1      40.880  27.471  29.013  1.00  0.00     0.031 A 
ATOM     36  C   UNL A   1      41.889  28.364  28.433  1.00  0.00     0.074 A 
ATOM     37  C   UNL A   1      39.990  27.949  29.912  1.00  0.00     0.049 A 
ATOM     38  N   UNL A   1      43.092  28.540  28.855  1.00  0.00    -0.248 NA
ATOM     39  C   UNL A   1      41.590  28.991  27.138  1.00  0.00     0.031 C 
ATOM     40  C   UNL A   1      38.687  27.404  30.316  1.00  0.00     0.029 A 
ATOM     41  N   UNL A   1      40.047  29.125  30.591  1.00  0.00    -0.354 N 
ATOM     42  C   UNL A   1      43.632  29.495  28.012  1.00  0.00     0.074 A 
ATOM     43  C   UNL A   1      42.769  29.545  26.857  1.00  0.00     0.031 C 
ATOM     44  C   UNL A   1      38.005  28.340  31.019  1.00  0.00     0.029 A 
ATOM     45  C   UNL A   1      38.876  29.481  31.246  1.00  0.00     0.049 A 
ATOM     46  H   UNL A   1      40.857  29.684  30.616  1.00  0.00     0.167 HD
ATOM     47  C   UNL A   1      44.584  30.362  28.452  1.00  0.00     0.031 A 
ATOM     48  C   UNL A   1      38.647  30.647  31.899  1.00  0.00     0.031 A 
ATOM     49  C   UNL A   1      45.067  30.001  29.766  1.00  0.00     0.049 A 
ATOM     50  C   UNL A   1      39.974  31.231  32.227  1.00  0.00     0.074 A 
ATOM     51  C   UNL A   1      45.644  28.870  30.312  1.00  0.00     0.029 A 
ATOM     52  N   UNL A   1      44.575  30.724  30.832  1.00  0.00    -0.354 N 
ATOM     53  N   UNL A   1      40.813  30.685  33.062  1.00  0.00    -0.248 NA
ATOM     54  C   UNL A   1      40.559  32.194  31.305  1.00  0.00     0.031 C 
ATOM     55  C   UNL A   1      45.063  28.744  31.609  1.00  0.00     0.029 A 
ATOM     56  C   UNL A   1      44.215  29.835  31.813  1.00  0.00     0.049 A 
ATOM     57  H   UNL A   1      44.497  31.705  30.880  1.00  0.00     0.167 HD
ATOM     58  C   UNL A   1      42.067  30.895  32.503  1.00  0.00     0.074 A 
ATOM     59  C   UNL A   1      41.856  31.927  31.491  1.00  0.00     0.031 C 
ATOM     60  C   UNL A   1      43.095  30.019  32.720  1.00  0.00     0.031 A 
BRANCH  47  61
ATOM     61  C   UNL A   1      44.784  31.737  27.877  1.00  0.00    -0.014 A 
ATOM     62  C   UNL A   1      45.994  32.021  27.216  1.00  0.00     0.010 A 
ATOM     63  C   UNL A   1      43.939  32.829  28.165  1.00  0.00     0.010 A 
ATOM     64  C   UNL A   1      46.363  33.337  26.917  1.00  0.00     0.020 A 
ATOM     65  C   UNL A   1      44.272  34.138  27.824  1.00  0.00     0.020 A 
ATOM     66  C   UNL A   1      45.502  34.387  27.235  1.00  0.00     0.054 A 
BRANCH  66  67
ATOM     67  S   UNL A   1      46.034  36.090  26.947  1.00  0.00     0.124 S 
ATOM     68  O   UNL A   1      46.834  35.950  25.734  1.00  0.00    -0.237 OA
ATOM     69  O   UNL A   1      44.762  36.789  26.793  1.00  0.00    -0.237 OA
ATOM     70  O   UNL A   1      46.782  36.424  28.157  1.00  0.00    -0.744 OA
ENDBRANCH  66  67
ENDBRANCH  47  61
BRANCH  48  71
ATOM     71  C   UNL A   1      37.382  31.412  32.030  1.00  0.00    -0.014 A 
ATOM     72  C   UNL A   1      37.040  32.043  33.241  1.00  0.00     0.010 A 
ATOM     73  C   UNL A   1      36.650  31.765  30.877  1.00  0.00     0.010 A 
ATOM     74  C   UNL A   1      36.058  33.049  33.282  1.00  0.00     0.020 A 
ATOM     75  C   UNL A   1      35.665  32.761  30.912  1.00  0.00     0.020 A 
ATOM     76  C   UNL A   1      35.395  33.419  32.110  1.00  0.00     0.054 A 
BRANCH  76  77
ATOM     77  S   UNL A   1      34.282  34.857  32.127  1.00  0.00     0.124 S 
ATOM     78  O   UNL A   1      33.101  34.328  32.803  1.00  0.00    -0.237 OA
ATOM     79  O   UNL A   1      35.051  35.846  32.877  1.00  0.00    -0.237 OA
ATOM     80  O   UNL A   1      34.100  35.167  30.710  1.00  0.00    -0.744 OA
ENDBRANCH  76  77
ENDBRANCH  48  71
BRANCH  60  81
ATOM     81  C   UNL A   1      42.948  28.998  33.830  1.00  0.00    -0.014 A 
ATOM     82  C   UNL A   1      43.465  29.171  35.130  1.00  0.00     0.010 A 
ATOM     83  C   UNL A   1      42.131  27.879  33.584  1.00  0.00     0.010 A 
ATOM     84  C   UNL A   1      43.200  28.235  36.141  1.00  0.00     0.020 A 
ATOM     85  C   UNL A   1      41.845  26.954  34.593  1.00  0.00     0.020 A 
ATOM     86  C   UNL A   1      42.389  27.131  35.866  1.00  0.00     0.054 A 
BRANCH  86  87
ATOM     87  S   UNL A   1      42.009  25.950  37.191  1.00  0.00     0.124 S 
ATOM     88  O   UNL A   1      42.239  24.661  36.546  1.00  0.00    -0.237 OA
ATOM     89  O   UNL A   1      42.967  26.311  38.235  1.00  0.00    -0.237 OA
ATOM     90  O   UNL A   1      40.611  26.235  37.521  1.00  0.00    -0.744 OA
ENDBRANCH  86  87
ENDBRANCH  60  81
ENDBRANCH  34  35
ENDBRANCH  26  29
ENDBRANCH  24  25
ENDBRANCH   1  24
TORSDOF 16
ENDMDL
MODEL 3
REMARK VINA RESULT:     -12.2      2.984      9.385
REMARK SMILES Cc1ccc(C)c(N2C(=O)C[C@@H](SCC(=O)NCCCNC(=O)c3ccc(-c4c5nc(c(-c6ccc(S(=O)(=O)[O-])cc6)c6ccc([nH]6)c(-c6ccc(S(=O)(=O)[O-])cc6)c6nc(c(-c7ccc(S(=O)(=O)[O-])cc7)c7ccc4[nH]7)C=C6)C=C5)cc3)C2=O)c1
REMARK SMILES IDX 19 1 18 2 17 3 15 4 16 5 14 7 13 8 12 9 8 10 9 11 84 12
REMARK SMILES IDX 10 13 11 14 85 15 7 16 1 17 2 18 3 19 86 20 4 21 5 22 6 23
REMARK SMILES IDX 20 24 21 25 22 26 23 28 24 29 25 30 83 31 26 32 82 33 27 34
REMARK SMILES IDX 28 35 29 36 76 37 30 38 81 39 75 40 77 41 31 42 80 43 74 44
REMARK SMILES IDX 73 45 32 47 62 48 43 49 61 50 44 51 47 52 60 53 78 54 45 55
REMARK SMILES IDX 46 56 59 58 79 59 48 60 33 61 34 62 42 63 35 64 41 65 36 66
REMARK SMILES IDX 37 67 38 68 39 69 40 70 63 71 64 72 72 73 65 74 71 75 66 76
REMARK SMILES IDX 67 77 68 78 69 79 70 80 49 81 50 82 58 83 51 84 57 85 52 86
REMARK SMILES IDX 53 87 54 88 55 89 56 90
REMARK H PARENT 17 6 21 27 77 46 47 57
REMARK Flexibility Score: inf
ROOT
ATOM      1  C   UNL A   1      32.159  28.457  27.616  1.00  0.00     0.042 C 
ENDROOT
BRANCH   1   2
ATOM      2  C   UNL A   1      31.532  27.504  26.588  1.00  0.00     0.117 C 
BRANCH   2   3
ATOM      3  N   UNL A   1      31.811  26.097  26.830  1.00  0.00    -0.355 N 
ATOM      4  C   UNL A   1      32.699  25.258  26.227  1.00  0.00     0.230 C 
ATOM      5  O   UNL A   1      32.717  24.074  26.571  1.00  0.00    -0.274 OA
ATOM      6  H   UNL A   1      31.271  25.684  27.543  1.00  0.00     0.163 HD
BRANCH   4   7
ATOM      7  C   UNL A   1      33.630  25.756  25.141  1.00  0.00     0.170 C 
BRANCH   7   8
ATOM      8  S   UNL A   1      33.227  25.073  23.507  1.00  0.00    -0.138 SA
BRANCH   8   9
ATOM      9  C   UNL A   1      33.382  26.580  22.451  1.00  0.00     0.146 C 
ATOM     10  N   UNL A   1      31.548  28.012  22.692  1.00  0.00    -0.249 N 
ATOM     11  C   UNL A   1      32.552  28.589  23.433  1.00  0.00     0.235 C 
ATOM     12  C   UNL A   1      31.990  26.928  21.974  1.00  0.00     0.247 C 
ATOM     13  O   UNL A   1      32.481  29.555  24.174  1.00  0.00    -0.274 OA
ATOM     14  C   UNL A   1      33.824  27.819  23.207  1.00  0.00     0.125 C 
ATOM     15  O   UNL A   1      31.394  26.306  21.100  1.00  0.00    -0.273 OA
BRANCH  10  16
ATOM     16  C   UNL A   1      30.227  28.511  22.640  1.00  0.00     0.055 A 
ATOM     17  C   UNL A   1      28.454  31.541  21.119  1.00  0.00     0.044 C 
ATOM     18  C   UNL A   1      28.700  30.259  21.859  1.00  0.00    -0.049 A 
ATOM     19  C   UNL A   1      27.630  29.564  22.423  1.00  0.00     0.004 A 
ATOM     20  C   UNL A   1      29.994  29.738  21.990  1.00  0.00     0.030 A 
ATOM     21  C   UNL A   1      27.849  28.365  23.101  1.00  0.00     0.006 A 
ATOM     22  C   UNL A   1      29.142  27.826  23.224  1.00  0.00    -0.027 A 
ATOM     23  C   UNL A   1      29.278  26.574  24.049  1.00  0.00     0.046 C 
ENDBRANCH  10  16
ENDBRANCH   8   9
ENDBRANCH   7   8
ENDBRANCH   4   7
ENDBRANCH   2   3
ENDBRANCH   1   2
BRANCH   1  24
ATOM     24  C   UNL A   1      33.605  28.872  27.353  1.00  0.00     0.118 C 
BRANCH  24  25
ATOM     25  N   UNL A   1      33.770  30.320  27.157  1.00  0.00    -0.352 N 
ATOM     26  C   UNL A   1      34.720  31.245  27.572  1.00  0.00     0.251 C 
ATOM     27  H   UNL A   1      33.053  30.721  26.612  1.00  0.00     0.163 HD
ATOM     28  O   UNL A   1      34.429  32.432  27.544  1.00  0.00    -0.269 OA
BRANCH  26  29
ATOM     29  C   UNL A   1      36.061  30.824  28.044  1.00  0.00     0.039 A 
ATOM     30  C   UNL A   1      36.962  31.697  28.663  1.00  0.00     0.014 A 
ATOM     31  C   UNL A   1      36.470  29.527  27.805  1.00  0.00     0.014 A 
ATOM     32  C   UNL A   1      38.247  31.228  28.958  1.00  0.00     0.010 A 
ATOM     33  C   UNL A   1      37.539  28.980  28.439  1.00  0.00     0.010 A 
ATOM     34  C   UNL A   1      38.523  29.862  28.803  1.00  0.00    -0.014 A 
BRANCH  34  35
ATOM     35  C   UNL A   1      39.830  29.267  28.985  1.00  0.00     0.031 A 
ATOM     36  C   UNL A   1      40.175  29.022  30.389  1.00  0.00     0.074 A 
ATOM     37  C   UNL A   1      40.560  28.699  28.000  1.00  0.00     0.049 A 
ATOM     38  N   UNL A   1      40.922  29.758  31.135  1.00  0.00    -0.248 NA
ATOM     39  C   UNL A   1      39.469  27.943  31.093  1.00  0.00     0.031 C 
ATOM     40  C   UNL A   1      40.205  28.455  26.595  1.00  0.00     0.029 A 
ATOM     41  N   UNL A   1      41.784  28.115  28.104  1.00  0.00    -0.354 N 
ATOM     42  C   UNL A   1      40.979  29.098  32.350  1.00  0.00     0.074 A 
ATOM     43  C   UNL A   1      39.892  28.148  32.341  1.00  0.00     0.031 C 
ATOM     44  C   UNL A   1      41.109  27.612  26.040  1.00  0.00     0.029 A 
ATOM     45  C   UNL A   1      42.181  27.384  26.993  1.00  0.00     0.049 A 
ATOM     46  H   UNL A   1      42.345  28.202  28.909  1.00  0.00     0.167 HD
ATOM     47  C   UNL A   1      42.076  29.190  33.149  1.00  0.00     0.031 A 
ATOM     48  C   UNL A   1      43.302  26.627  26.893  1.00  0.00     0.031 A 
ATOM     49  C   UNL A   1      43.001  30.192  32.670  1.00  0.00     0.049 A 
ATOM     50  C   UNL A   1      44.248  27.109  27.933  1.00  0.00     0.074 A 
ATOM     51  C   UNL A   1      42.912  31.544  32.398  1.00  0.00     0.029 A 
ATOM     52  N   UNL A   1      44.109  29.742  31.985  1.00  0.00    -0.354 N 
ATOM     53  N   UNL A   1      44.794  28.293  27.916  1.00  0.00    -0.248 NA
ATOM     54  C   UNL A   1      44.260  26.443  29.227  1.00  0.00     0.031 C 
ATOM     55  C   UNL A   1      43.679  31.736  31.209  1.00  0.00     0.029 A 
ATOM     56  C   UNL A   1      44.246  30.509  30.855  1.00  0.00     0.049 A 
ATOM     57  H   UNL A   1      44.698  29.001  32.259  1.00  0.00     0.167 HD
ATOM     58  C   UNL A   1      44.822  28.697  29.244  1.00  0.00     0.074 A 
ATOM     59  C   UNL A   1      44.592  27.475  30.010  1.00  0.00     0.031 C 
ATOM     60  C   UNL A   1      44.750  30.020  29.584  1.00  0.00     0.031 A 
BRANCH  47  61
ATOM     61  C   UNL A   1      42.491  28.115  34.115  1.00  0.00    -0.014 A 
ATOM     62  C   UNL A   1      42.629  28.449  35.476  1.00  0.00     0.010 A 
ATOM     63  C   UNL A   1      42.983  26.856  33.710  1.00  0.00     0.010 A 
ATOM     64  C   UNL A   1      43.281  27.590  36.369  1.00  0.00     0.020 A 
ATOM     65  C   UNL A   1      43.586  25.971  34.601  1.00  0.00     0.020 A 
ATOM     66  C   UNL A   1      43.765  26.362  35.920  1.00  0.00     0.054 A 
BRANCH  66  67
ATOM     67  S   UNL A   1      44.702  25.310  37.051  1.00  0.00     0.124 S 
ATOM     68  O   UNL A   1      44.022  25.558  38.319  1.00  0.00    -0.237 OA
ATOM     69  O   UNL A   1      44.506  23.983  36.474  1.00  0.00    -0.237 OA
ATOM     70  O   UNL A   1      46.063  25.832  36.956  1.00  0.00    -0.744 OA
ENDBRANCH  66  67
ENDBRANCH  47  61
BRANCH  48  71
ATOM     71  C   UNL A   1      43.512  25.363  26.144  1.00  0.00    -0.014 A 
ATOM     72  C   UNL A   1      44.707  25.130  25.438  1.00  0.00     0.010 A 
ATOM     73  C   UNL A   1      42.656  24.264  26.364  1.00  0.00     0.010 A 
ATOM     74  C   UNL A   1      45.072  23.832  25.038  1.00  0.00     0.020 A 
ATOM     75  C   UNL A   1      43.009  22.969  25.961  1.00  0.00     0.020 A 
ATOM     76  C   UNL A   1      44.230  22.755  25.327  1.00  0.00     0.054 A 
BRANCH  76  77
ATOM     77  S   UNL A   1      44.800  21.061  24.996  1.00  0.00     0.124 S 
ATOM     78  O   UNL A   1      44.702  20.978  23.541  1.00  0.00    -0.237 OA
ATOM     79  O   UNL A   1      46.154  21.068  25.539  1.00  0.00    -0.237 OA
ATOM     80  O   UNL A   1      43.848  20.229  25.729  1.00  0.00    -0.744 OA
ENDBRANCH  76  77
ENDBRANCH  48  71
BRANCH  60  81
ATOM     81  C   UNL A   1      44.966  31.054  28.498  1.00  0.00    -0.014 A 
ATOM     82  C   UNL A   1      43.985  31.417  27.553  1.00  0.00     0.010 A 
ATOM     83  C   UNL A   1      46.166  31.788  28.524  1.00  0.00     0.010 A 
ATOM     84  C   UNL A   1      44.213  32.460  26.642  1.00  0.00     0.020 A 
ATOM     85  C   UNL A   1      46.391  32.842  27.633  1.00  0.00     0.020 A 
ATOM     86  C   UNL A   1      45.417  33.168  26.689  1.00  0.00     0.054 A 
BRANCH  86  87
ATOM     87  S   UNL A   1      45.687  34.548  25.541  1.00  0.00     0.124 S 
ATOM     88  O   UNL A   1      47.122  34.476  25.288  1.00  0.00    -0.237 OA
ATOM     89  O   UNL A   1      44.830  34.202  24.408  1.00  0.00    -0.237 OA
ATOM     90  O   UNL A   1      45.251  35.722  26.299  1.00  0.00    -0.744 OA
ENDBRANCH  86  87
ENDBRANCH  60  81
ENDBRANCH  34  35
ENDBRANCH  26  29
ENDBRANCH  24  25
ENDBRANCH   1  24
TORSDOF 16
ENDMDL
