MODEL 1
REMARK VINA RESULT:     -12.0      0.000      0.000
REMARK SMILES Cc1nsc(NCc2ccncc2)c1C(=O)NCCCNC(=O)c1ccc(-c2c3nc(c(-c4ccc(S(=O)(=O)[O-])cc4)c4ccc([nH]4)c(-c4ccc(S(=O)(=O)[O-])cc4)c4nc(c(-c5ccc(S(=O)(=O)[O-])cc5)c5ccc2[nH]5)C=C4)C=C3)cc1
REMARK SMILES IDX 19 1 18 2 17 3 15 4 16 5 14 7 1 8 2 9 3 10 4 11 5 12 6 13
REMARK SMILES IDX 7 15 8 16 9 17 13 18 10 19 12 20 11 21 20 22 21 23 22 24
REMARK SMILES IDX 23 26 24 27 25 28 83 29 26 30 82 31 27 32 28 33 29 34 76 35
REMARK SMILES IDX 30 36 81 37 75 38 77 39 31 40 80 41 74 42 73 43 32 45 62 46
REMARK SMILES IDX 43 47 61 48 44 49 47 50 60 51 78 52 45 53 46 54 59 56 79 57
REMARK SMILES IDX 48 58 33 59 34 60 42 61 35 62 41 63 36 64 37 65 38 66 39 67
REMARK SMILES IDX 40 68 63 69 64 70 72 71 65 72 71 73 66 74 67 75 68 76 69 77
REMARK SMILES IDX 70 78 49 79 50 80 58 81 51 82 57 83 52 84 53 85 54 86 55 87
REMARK SMILES IDX 56 88
REMARK H PARENT 17 6 6 14 21 25 77 44 47 55
REMARK Flexibility Score: inf
ROOT
ATOM      1  C   UNL A   1      38.776  21.893  25.893  1.00  0.00     0.042 C 
ENDROOT
BRANCH   1   2
ATOM      2  C   UNL A   1      37.484  22.662  25.599  1.00  0.00     0.118 C 
BRANCH   2   3
ATOM      3  N   UNL A   1      36.386  22.242  26.433  1.00  0.00    -0.352 N 
ATOM      4  C   UNL A   1      35.024  22.233  26.340  1.00  0.00     0.256 C 
ATOM      5  O   UNL A   1      34.509  21.608  27.279  1.00  0.00    -0.269 OA
ATOM      6  H   UNL A   1      36.698  21.865  27.287  1.00  0.00     0.163 HD
BRANCH   4   7
ATOM      7  C   UNL A   1      34.177  22.855  25.295  1.00  0.00     0.097 A 
ATOM      8  C   UNL A   1      34.249  25.542  25.485  1.00  0.00     0.069 C 
ATOM      9  C   UNL A   1      33.833  24.231  24.925  1.00  0.00     0.066 A 
ATOM     10  N   UNL A   1      32.989  24.379  23.901  1.00  0.00    -0.195 NA
ATOM     11  S   UNL A   1      32.544  22.923  23.330  1.00  0.00    -0.018 S 
ATOM     12  C   UNL A   1      33.490  21.991  24.409  1.00  0.00     0.122 A 
BRANCH  12  13
ATOM     13  N   UNL A   1      33.548  20.630  24.386  1.00  0.00    -0.371 N 
ATOM     14  H   UNL A   1      34.353  20.229  23.985  1.00  0.00     0.161 HD
BRANCH  13  15
ATOM     15  C   UNL A   1      32.549  19.714  24.890  1.00  0.00     0.149 C 
BRANCH  15  16
ATOM     16  C   UNL A   1      33.002  18.281  24.750  1.00  0.00    -0.026 A 
ATOM     17  C   UNL A   1      33.684  17.825  23.615  1.00  0.00     0.025 A 
ATOM     18  C   UNL A   1      32.681  17.348  25.740  1.00  0.00     0.025 A 
ATOM     19  C   UNL A   1      34.025  16.485  23.533  1.00  0.00     0.111 A 
ATOM     20  C   UNL A   1      33.062  16.026  25.564  1.00  0.00     0.111 A 
ATOM     21  N   UNL A   1      33.721  15.571  24.478  1.00  0.00    -0.265 NA
ENDBRANCH  15  16
ENDBRANCH  13  15
ENDBRANCH  12  13
ENDBRANCH   4   7
ENDBRANCH   2   3
ENDBRANCH   1   2
BRANCH   1  22
ATOM     22  C   UNL A   1      39.661  22.630  26.881  1.00  0.00     0.118 C 
BRANCH  22  23
ATOM     23  N   UNL A   1      41.009  22.048  26.941  1.00  0.00    -0.352 N 
ATOM     24  C   UNL A   1      42.239  22.678  26.825  1.00  0.00     0.251 C 
ATOM     25  H   UNL A   1      41.043  21.074  27.084  1.00  0.00     0.163 HD
ATOM     26  O   UNL A   1      43.242  22.043  26.565  1.00  0.00    -0.269 OA
BRANCH  24  27
ATOM     27  C   UNL A   1      42.282  24.137  27.025  1.00  0.00     0.039 A 
ATOM     28  C   UNL A   1      41.807  25.032  26.066  1.00  0.00     0.014 A 
ATOM     29  C   UNL A   1      42.714  24.581  28.267  1.00  0.00     0.014 A 
ATOM     30  C   UNL A   1      41.677  26.371  26.426  1.00  0.00     0.010 A 
ATOM     31  C   UNL A   1      42.345  25.826  28.692  1.00  0.00     0.010 A 
ATOM     32  C   UNL A   1      41.909  26.752  27.762  1.00  0.00    -0.014 A 
BRANCH  32  33
ATOM     33  C   UNL A   1      41.618  28.095  28.242  1.00  0.00     0.031 A 
ATOM     34  C   UNL A   1      42.635  29.103  27.866  1.00  0.00     0.074 A 
ATOM     35  C   UNL A   1      40.460  28.454  28.835  1.00  0.00     0.049 A 
ATOM     36  N   UNL A   1      43.654  29.456  28.573  1.00  0.00    -0.248 NA
ATOM     37  C   UNL A   1      42.651  29.627  26.493  1.00  0.00     0.031 C 
ATOM     38  C   UNL A   1      39.226  27.674  29.013  1.00  0.00     0.029 A 
ATOM     39  N   UNL A   1      40.121  29.660  29.364  1.00  0.00    -0.354 N 
ATOM     40  C   UNL A   1      44.281  30.460  27.851  1.00  0.00     0.074 A 
ATOM     41  C   UNL A   1      43.772  30.354  26.505  1.00  0.00     0.031 C 
ATOM     42  C   UNL A   1      38.219  28.485  29.410  1.00  0.00     0.029 A 
ATOM     43  C   UNL A   1      38.783  29.784  29.717  1.00  0.00     0.049 A 
ATOM     44  H   UNL A   1      40.772  30.388  29.487  1.00  0.00     0.167 HD
ATOM     45  C   UNL A   1      44.921  31.476  28.494  1.00  0.00     0.031 A 
ATOM     46  C   UNL A   1      38.189  30.863  30.280  1.00  0.00     0.031 A 
ATOM     47  C   UNL A   1      45.012  31.213  29.911  1.00  0.00     0.049 A 
ATOM     48  C   UNL A   1      39.264  31.614  30.967  1.00  0.00     0.074 A 
ATOM     49  C   UNL A   1      45.638  30.284  30.713  1.00  0.00     0.029 A 
ATOM     50  N   UNL A   1      43.996  31.765  30.658  1.00  0.00    -0.354 N 
ATOM     51  N   UNL A   1      39.933  31.135  31.981  1.00  0.00    -0.248 NA
ATOM     52  C   UNL A   1      39.892  32.730  30.280  1.00  0.00     0.031 C 
ATOM     53  C   UNL A   1      44.736  30.052  31.797  1.00  0.00     0.029 A 
ATOM     54  C   UNL A   1      43.633  30.898  31.654  1.00  0.00     0.049 A 
ATOM     55  H   UNL A   1      43.591  32.649  30.501  1.00  0.00     0.167 HD
ATOM     56  C   UNL A   1      41.231  31.583  31.791  1.00  0.00     0.074 A 
ATOM     57  C   UNL A   1      41.111  32.668  30.820  1.00  0.00     0.031 C 
ATOM     58  C   UNL A   1      42.298  30.850  32.227  1.00  0.00     0.031 A 
BRANCH  45  59
ATOM     59  C   UNL A   1      45.021  32.888  27.964  1.00  0.00    -0.014 A 
ATOM     60  C   UNL A   1      46.290  33.503  27.936  1.00  0.00     0.010 A 
ATOM     61  C   UNL A   1      43.903  33.720  27.763  1.00  0.00     0.010 A 
ATOM     62  C   UNL A   1      46.425  34.888  27.773  1.00  0.00     0.020 A 
ATOM     63  C   UNL A   1      44.029  35.096  27.559  1.00  0.00     0.020 A 
ATOM     64  C   UNL A   1      45.289  35.675  27.593  1.00  0.00     0.054 A 
BRANCH  64  65
ATOM     65  S   UNL A   1      45.470  37.470  27.453  1.00  0.00     0.124 S 
ATOM     66  O   UNL A   1      44.082  37.904  27.332  1.00  0.00    -0.237 OA
ATOM     67  O   UNL A   1      46.136  37.809  28.708  1.00  0.00    -0.237 OA
ATOM     68  O   UNL A   1      46.289  37.638  26.255  1.00  0.00    -0.744 OA
ENDBRANCH  64  65
ENDBRANCH  45  59
BRANCH  46  69
ATOM     69  C   UNL A   1      36.868  31.456  29.957  1.00  0.00    -0.014 A 
ATOM     70  C   UNL A   1      36.092  32.075  30.957  1.00  0.00     0.010 A 
ATOM     71  C   UNL A   1      36.517  31.693  28.613  1.00  0.00     0.010 A 
ATOM     72  C   UNL A   1      35.053  32.959  30.622  1.00  0.00     0.020 A 
ATOM     73  C   UNL A   1      35.481  32.573  28.272  1.00  0.00     0.020 A 
ATOM     74  C   UNL A   1      34.770  33.222  29.279  1.00  0.00     0.054 A 
BRANCH  74  75
ATOM     75  S   UNL A   1      33.553  34.508  28.857  1.00  0.00     0.124 S 
ATOM     76  O   UNL A   1      32.962  34.815  30.156  1.00  0.00    -0.237 OA
ATOM     77  O   UNL A   1      34.386  35.558  28.278  1.00  0.00    -0.237 OA
ATOM     78  O   UNL A   1      32.659  33.839  27.913  1.00  0.00    -0.744 OA
ENDBRANCH  74  75
ENDBRANCH  46  69
BRANCH  58  79
ATOM     79  C   UNL A   1      42.052  29.799  33.287  1.00  0.00    -0.014 A 
ATOM     80  C   UNL A   1      41.646  28.475  33.030  1.00  0.00     0.010 A 
ATOM     81  C   UNL A   1      42.361  30.157  34.611  1.00  0.00     0.010 A 
ATOM     82  C   UNL A   1      41.532  27.545  34.079  1.00  0.00     0.020 A 
ATOM     83  C   UNL A   1      42.268  29.236  35.654  1.00  0.00     0.020 A 
ATOM     84  C   UNL A   1      41.844  27.936  35.386  1.00  0.00     0.054 A 
BRANCH  84  85
ATOM     85  S   UNL A   1      41.729  26.730  36.740  1.00  0.00     0.124 S 
ATOM     86  O   UNL A   1      41.730  25.454  36.031  1.00  0.00    -0.237 OA
ATOM     87  O   UNL A   1      42.925  27.014  37.530  1.00  0.00    -0.237 OA
ATOM     88  O   UNL A   1      40.468  27.067  37.401  1.00  0.00    -0.744 OA
ENDBRANCH  84  85
ENDBRANCH  58  79
ENDBRANCH  32  33
ENDBRANCH  24  27
ENDBRANCH  22  23
ENDBRANCH   1  22
TORSDOF 16
ENDMDL
MODEL 2
REMARK VINA RESULT:     -11.6      3.931     10.439
REMARK SMILES Cc1nsc(NCc2ccncc2)c1C(=O)NCCCNC(=O)c1ccc(-c2c3nc(c(-c4ccc(S(=O)(=O)[O-])cc4)c4ccc([nH]4)c(-c4ccc(S(=O)(=O)[O-])cc4)c4nc(c(-c5ccc(S(=O)(=O)[O-])cc5)c5ccc2[nH]5)C=C4)C=C3)cc1
REMARK SMILES IDX 19 1 18 2 17 3 15 4 16 5 14 7 1 8 2 9 3 10 4 11 5 12 6 13
REMARK SMILES IDX 7 15 8 16 9 17 13 18 10 19 12 20 11 21 20 22 21 23 22 24
REMARK SMILES IDX 23 26 24 27 25 28 83 29 26 30 82 31 27 32 28 33 29 34 76 35
REMARK SMILES IDX 30 36 81 37 75 38 77 39 31 40 80 41 74 42 73 43 32 45 62 46
REMARK SMILES IDX 43 47 61 48 44 49 47 50 60 51 78 52 45 53 46 54 59 56 79 57
REMARK SMILES IDX 48 58 33 59 34 60 42 61 35 62 41 63 36 64 37 65 38 66 39 67
REMARK SMILES IDX 40 68 63 69 64 70 72 71 65 72 71 73 66 74 67 75 68 76 69 77
REMARK SMILES IDX 70 78 49 79 50 80 58 81 51 82 57 83 52 84 53 85 54 86 55 87
REMARK SMILES IDX 56 88
REMARK H PARENT 17 6 6 14 21 25 77 44 47 55
REMARK Flexibility Score: inf
ROOT
ATOM      1  C   UNL A   1      33.099  29.590  27.177  1.00  0.00     0.042 C 
ENDROOT
BRANCH   1   2
ATOM      2  C   UNL A   1      32.281  30.153  26.011  1.00  0.00     0.118 C 
BRANCH   2   3
ATOM      3  N   UNL A   1      32.852  29.835  24.727  1.00  0.00    -0.352 N 
ATOM      4  C   UNL A   1      32.728  28.828  23.814  1.00  0.00     0.256 C 
ATOM      5  O   UNL A   1      33.331  29.092  22.762  1.00  0.00    -0.269 OA
ATOM      6  H   UNL A   1      33.496  30.520  24.433  1.00  0.00     0.163 HD
BRANCH   4   7
ATOM      7  C   UNL A   1      31.992  27.550  23.960  1.00  0.00     0.097 A 
ATOM      8  C   UNL A   1      33.700  25.512  24.394  1.00  0.00     0.069 C 
ATOM      9  C   UNL A   1      32.377  26.155  24.194  1.00  0.00     0.066 A 
ATOM     10  N   UNL A   1      31.384  25.264  24.240  1.00  0.00    -0.195 NA
ATOM     11  S   UNL A   1      29.957  26.005  23.999  1.00  0.00    -0.018 S 
ATOM     12  C   UNL A   1      30.582  27.590  23.848  1.00  0.00     0.122 A 
BRANCH  12  13
ATOM     13  N   UNL A   1      29.810  28.695  23.653  1.00  0.00    -0.371 N 
ATOM     14  H   UNL A   1      29.872  29.405  24.333  1.00  0.00     0.161 HD
BRANCH  13  15
ATOM     15  C   UNL A   1      28.907  28.934  22.549  1.00  0.00     0.149 C 
BRANCH  15  16
ATOM     16  C   UNL A   1      28.694  30.412  22.327  1.00  0.00    -0.026 A 
ATOM     17  C   UNL A   1      28.895  31.352  23.344  1.00  0.00     0.025 A 
ATOM     18  C   UNL A   1      28.215  30.871  21.096  1.00  0.00     0.025 A 
ATOM     19  C   UNL A   1      28.632  32.688  23.084  1.00  0.00     0.111 A 
ATOM     20  C   UNL A   1      27.978  32.228  20.934  1.00  0.00     0.111 A 
ATOM     21  N   UNL A   1      28.168  33.147  21.903  1.00  0.00    -0.265 NA
ENDBRANCH  15  16
ENDBRANCH  13  15
ENDBRANCH  12  13
ENDBRANCH   4   7
ENDBRANCH   2   3
ENDBRANCH   1   2
BRANCH   1  22
ATOM     22  C   UNL A   1      34.517  30.132  27.188  1.00  0.00     0.118 C 
BRANCH  22  23
ATOM     23  N   UNL A   1      34.558  31.534  27.625  1.00  0.00    -0.352 N 
ATOM     24  C   UNL A   1      35.261  32.100  28.679  1.00  0.00     0.251 C 
ATOM     25  H   UNL A   1      34.011  32.158  27.097  1.00  0.00     0.163 HD
ATOM     26  O   UNL A   1      34.949  33.188  29.123  1.00  0.00    -0.269 OA
BRANCH  24  27
ATOM     27  C   UNL A   1      36.390  31.336  29.236  1.00  0.00     0.039 A 
ATOM     28  C   UNL A   1      36.235  30.048  29.749  1.00  0.00     0.014 A 
ATOM     29  C   UNL A   1      37.648  31.914  29.124  1.00  0.00     0.014 A 
ATOM     30  C   UNL A   1      37.382  29.316  30.045  1.00  0.00     0.010 A 
ATOM     31  C   UNL A   1      38.753  31.114  29.168  1.00  0.00     0.010 A 
ATOM     32  C   UNL A   1      38.643  29.845  29.709  1.00  0.00    -0.014 A 
BRANCH  32  33
ATOM     33  C   UNL A   1      39.864  29.060  29.826  1.00  0.00     0.031 A 
ATOM     34  C   UNL A   1      40.264  28.773  31.221  1.00  0.00     0.074 A 
ATOM     35  C   UNL A   1      40.505  28.494  28.781  1.00  0.00     0.049 A 
ATOM     36  N   UNL A   1      41.070  29.476  31.942  1.00  0.00    -0.248 NA
ATOM     37  C   UNL A   1      39.553  27.726  31.969  1.00  0.00     0.031 C 
ATOM     38  C   UNL A   1      40.092  28.411  27.371  1.00  0.00     0.029 A 
ATOM     39  N   UNL A   1      41.673  27.798  28.784  1.00  0.00    -0.354 N 
ATOM     40  C   UNL A   1      41.189  28.794  33.144  1.00  0.00     0.074 A 
ATOM     41  C   UNL A   1      40.073  27.881  33.191  1.00  0.00     0.031 C 
ATOM     42  C   UNL A   1      40.879  27.533  26.710  1.00  0.00     0.029 A 
ATOM     43  C   UNL A   1      41.971  27.160  27.587  1.00  0.00     0.049 A 
ATOM     44  H   UNL A   1      42.260  27.750  29.572  1.00  0.00     0.167 HD
ATOM     45  C   UNL A   1      42.359  28.823  33.841  1.00  0.00     0.031 A 
ATOM     46  C   UNL A   1      43.074  26.422  27.313  1.00  0.00     0.031 A 
ATOM     47  C   UNL A   1      43.276  29.781  33.270  1.00  0.00     0.049 A 
ATOM     48  C   UNL A   1      44.123  26.887  28.249  1.00  0.00     0.074 A 
ATOM     49  C   UNL A   1      43.314  31.149  33.110  1.00  0.00     0.029 A 
ATOM     50  N   UNL A   1      44.163  29.248  32.363  1.00  0.00    -0.354 N 
ATOM     51  N   UNL A   1      44.614  28.097  28.225  1.00  0.00    -0.248 NA
ATOM     52  C   UNL A   1      44.340  26.152  29.482  1.00  0.00     0.031 C 
ATOM     53  C   UNL A   1      43.959  31.365  31.854  1.00  0.00     0.029 A 
ATOM     54  C   UNL A   1      44.353  30.129  31.332  1.00  0.00     0.049 A 
ATOM     55  H   UNL A   1      44.597  28.368  32.443  1.00  0.00     0.167 HD
ATOM     56  C   UNL A   1      44.808  28.425  29.558  1.00  0.00     0.074 A 
ATOM     57  C   UNL A   1      44.760  27.149  30.266  1.00  0.00     0.031 C 
ATOM     58  C   UNL A   1      44.709  29.720  29.984  1.00  0.00     0.031 A 
BRANCH  45  59
ATOM     59  C   UNL A   1      42.867  27.685  34.696  1.00  0.00    -0.014 A 
ATOM     60  C   UNL A   1      43.249  27.965  36.024  1.00  0.00     0.010 A 
ATOM     61  C   UNL A   1      43.245  26.433  34.172  1.00  0.00     0.010 A 
ATOM     62  C   UNL A   1      44.020  27.061  36.767  1.00  0.00     0.020 A 
ATOM     63  C   UNL A   1      43.979  25.507  34.919  1.00  0.00     0.020 A 
ATOM     64  C   UNL A   1      44.385  25.840  36.203  1.00  0.00     0.054 A 
BRANCH  64  65
ATOM     65  S   UNL A   1      45.438  24.711  37.145  1.00  0.00     0.124 S 
ATOM     66  O   UNL A   1      45.072  23.416  36.581  1.00  0.00    -0.237 OA
ATOM     67  O   UNL A   1      46.777  25.193  36.816  1.00  0.00    -0.237 OA
ATOM     68  O   UNL A   1      45.025  24.933  38.529  1.00  0.00    -0.744 OA
ENDBRANCH  64  65
ENDBRANCH  45  59
BRANCH  46  69
ATOM     69  C   UNL A   1      43.159  25.138  26.576  1.00  0.00    -0.014 A 
ATOM     70  C   UNL A   1      43.856  25.052  25.355  1.00  0.00     0.010 A 
ATOM     71  C   UNL A   1      42.828  23.933  27.229  1.00  0.00     0.010 A 
ATOM     72  C   UNL A   1      44.274  23.810  24.846  1.00  0.00     0.020 A 
ATOM     73  C   UNL A   1      43.241  22.692  26.727  1.00  0.00     0.020 A 
ATOM     74  C   UNL A   1      43.985  22.638  25.550  1.00  0.00     0.054 A 
BRANCH  74  75
ATOM     75  S   UNL A   1      44.690  21.059  24.984  1.00  0.00     0.124 S 
ATOM     76  O   UNL A   1      46.045  21.112  25.526  1.00  0.00    -0.237 OA
ATOM     77  O   UNL A   1      43.802  20.076  25.597  1.00  0.00    -0.237 OA
ATOM     78  O   UNL A   1      44.602  21.146  23.527  1.00  0.00    -0.744 OA
ENDBRANCH  74  75
ENDBRANCH  46  69
BRANCH  58  79
ATOM     79  C   UNL A   1      44.833  30.818  28.951  1.00  0.00    -0.014 A 
ATOM     80  C   UNL A   1      46.026  31.495  28.633  1.00  0.00     0.010 A 
ATOM     81  C   UNL A   1      43.685  31.094  28.188  1.00  0.00     0.010 A 
ATOM     82  C   UNL A   1      46.057  32.439  27.591  1.00  0.00     0.020 A 
ATOM     83  C   UNL A   1      43.712  32.016  27.141  1.00  0.00     0.020 A 
ATOM     84  C   UNL A   1      44.895  32.693  26.852  1.00  0.00     0.054 A 
BRANCH  84  85
ATOM     85  S   UNL A   1      44.938  33.888  25.485  1.00  0.00     0.124 S 
ATOM     86  O   UNL A   1      44.421  33.109  24.364  1.00  0.00    -0.237 OA
ATOM     87  O   UNL A   1      44.067  34.959  25.964  1.00  0.00    -0.237 OA
ATOM     88  O   UNL A   1      46.351  34.252  25.384  1.00  0.00    -0.744 OA
ENDBRANCH  84  85
ENDBRANCH  58  79
ENDBRANCH  32  33
ENDBRANCH  24  27
ENDBRANCH  22  23
ENDBRANCH   1  22
TORSDOF 16
ENDMDL
MODEL 3
REMARK VINA RESULT:     -11.4      1.800      3.937
REMARK SMILES Cc1nsc(NCc2ccncc2)c1C(=O)NCCCNC(=O)c1ccc(-c2c3nc(c(-c4ccc(S(=O)(=O)[O-])cc4)c4ccc([nH]4)c(-c4ccc(S(=O)(=O)[O-])cc4)c4nc(c(-c5ccc(S(=O)(=O)[O-])cc5)c5ccc2[nH]5)C=C4)C=C3)cc1
REMARK SMILES IDX 19 1 18 2 17 3 15 4 16 5 14 7 1 8 2 9 3 10 4 11 5 12 6 13
REMARK SMILES IDX 7 15 8 16 9 17 13 18 10 19 12 20 11 21 20 22 21 23 22 24
REMARK SMILES IDX 23 26 24 27 25 28 83 29 26 30 82 31 27 32 28 33 29 34 76 35
REMARK SMILES IDX 30 36 81 37 75 38 77 39 31 40 80 41 74 42 73 43 32 45 62 46
REMARK SMILES IDX 43 47 61 48 44 49 47 50 60 51 78 52 45 53 46 54 59 56 79 57
REMARK SMILES IDX 48 58 33 59 34 60 42 61 35 62 41 63 36 64 37 65 38 66 39 67
REMARK SMILES IDX 40 68 63 69 64 70 72 71 65 72 71 73 66 74 67 75 68 76 69 77
REMARK SMILES IDX 70 78 49 79 50 80 58 81 51 82 57 83 52 84 53 85 54 86 55 87
REMARK SMILES IDX 56 88
REMARK H PARENT 17 6 6 14 21 25 77 44 47 55
REMARK Flexibility Score: inf
ROOT
ATOM      1  C   UNL A   1      38.015  21.349  25.055  1.00  0.00     0.042 C 
ENDROOT
BRANCH   1   2
ATOM      2  C   UNL A   1      36.524  21.627  25.264  1.00  0.00     0.118 C 
BRANCH   2   3
ATOM      3  N   UNL A   1      35.959  22.445  24.220  1.00  0.00    -0.352 N 
ATOM      4  C   UNL A   1      34.714  22.891  23.880  1.00  0.00     0.256 C 
ATOM      5  O   UNL A   1      34.765  23.719  22.958  1.00  0.00    -0.269 OA
ATOM      6  H   UNL A   1      36.647  22.763  23.591  1.00  0.00     0.163 HD
BRANCH   4   7
ATOM      7  C   UNL A   1      33.412  22.501  24.472  1.00  0.00     0.097 A 
ATOM      8  C   UNL A   1      33.117  19.824  24.447  1.00  0.00     0.069 C 
ATOM      9  C   UNL A   1      32.723  21.230  24.712  1.00  0.00     0.066 A 
ATOM     10  N   UNL A   1      31.511  21.306  25.266  1.00  0.00    -0.195 NA
ATOM     11  S   UNL A   1      31.111  22.861  25.522  1.00  0.00    -0.018 S 
ATOM     12  C   UNL A   1      32.565  23.539  24.930  1.00  0.00     0.122 A 
BRANCH  12  13
ATOM     13  N   UNL A   1      32.831  24.875  24.918  1.00  0.00    -0.371 N 
ATOM     14  H   UNL A   1      32.646  25.355  24.078  1.00  0.00     0.161 HD
BRANCH  13  15
ATOM     15  C   UNL A   1      33.356  25.662  26.012  1.00  0.00     0.149 C 
BRANCH  15  16
ATOM     16  C   UNL A   1      32.946  27.109  25.889  1.00  0.00    -0.026 A 
ATOM     17  C   UNL A   1      31.751  27.493  25.270  1.00  0.00     0.025 A 
ATOM     18  C   UNL A   1      33.803  28.118  26.340  1.00  0.00     0.025 A 
ATOM     19  C   UNL A   1      31.462  28.843  25.148  1.00  0.00     0.111 A 
ATOM     20  C   UNL A   1      33.428  29.442  26.168  1.00  0.00     0.111 A 
ATOM     21  N   UNL A   1      32.279  29.829  25.575  1.00  0.00    -0.265 NA
ENDBRANCH  15  16
ENDBRANCH  13  15
ENDBRANCH  12  13
ENDBRANCH   4   7
ENDBRANCH   2   3
ENDBRANCH   1   2
BRANCH   1  22
ATOM     22  C   UNL A   1      38.871  22.037  26.102  1.00  0.00     0.118 C 
BRANCH  22  23
ATOM     23  N   UNL A   1      40.281  21.637  25.998  1.00  0.00    -0.352 N 
ATOM     24  C   UNL A   1      41.423  22.387  26.241  1.00  0.00     0.251 C 
ATOM     25  H   UNL A   1      40.438  20.707  25.716  1.00  0.00     0.163 HD
ATOM     26  O   UNL A   1      42.502  22.040  25.802  1.00  0.00    -0.269 OA
BRANCH  24  27
ATOM     27  C   UNL A   1      41.276  23.614  27.042  1.00  0.00     0.039 A 
ATOM     28  C   UNL A   1      41.860  23.753  28.302  1.00  0.00     0.014 A 
ATOM     29  C   UNL A   1      40.621  24.678  26.436  1.00  0.00     0.014 A 
ATOM     30  C   UNL A   1      41.862  25.017  28.888  1.00  0.00     0.010 A 
ATOM     31  C   UNL A   1      40.852  25.945  26.889  1.00  0.00     0.010 A 
ATOM     32  C   UNL A   1      41.391  26.120  28.151  1.00  0.00    -0.014 A 
BRANCH  32  33
ATOM     33  C   UNL A   1      41.531  27.486  28.634  1.00  0.00     0.031 A 
ATOM     34  C   UNL A   1      42.779  28.153  28.200  1.00  0.00     0.074 A 
ATOM     35  C   UNL A   1      40.561  28.165  29.283  1.00  0.00     0.049 A 
ATOM     36  N   UNL A   1      43.891  28.186  28.851  1.00  0.00    -0.248 NA
ATOM     37  C   UNL A   1      42.879  28.660  26.823  1.00  0.00     0.031 C 
ATOM     38  C   UNL A   1      39.163  27.780  29.529  1.00  0.00     0.029 A 
ATOM     39  N   UNL A   1      40.618  29.413  29.818  1.00  0.00    -0.354 N 
ATOM     40  C   UNL A   1      44.748  28.968  28.091  1.00  0.00     0.074 A 
ATOM     41  C   UNL A   1      44.163  29.026  26.774  1.00  0.00     0.031 C 
ATOM     42  C   UNL A   1      38.460  28.848  29.969  1.00  0.00     0.029 A 
ATOM     43  C   UNL A   1      39.396  29.923  30.237  1.00  0.00     0.049 A 
ATOM     44  H   UNL A   1      41.460  29.917  29.903  1.00  0.00     0.167 HD
ATOM     45  C   UNL A   1      45.690  29.746  28.693  1.00  0.00     0.031 A 
ATOM     46  C   UNL A   1      39.174  31.124  30.821  1.00  0.00     0.031 A 
ATOM     47  C   UNL A   1      45.771  29.459  30.106  1.00  0.00     0.049 A 
ATOM     48  C   UNL A   1      40.455  31.522  31.447  1.00  0.00     0.074 A 
ATOM     49  C   UNL A   1      46.136  28.380  30.882  1.00  0.00     0.029 A 
ATOM     50  N   UNL A   1      45.001  30.279  30.898  1.00  0.00    -0.354 N 
ATOM     51  N   UNL A   1      41.004  30.859  32.429  1.00  0.00    -0.248 NA
ATOM     52  C   UNL A   1      41.347  32.408  30.720  1.00  0.00     0.031 C 
ATOM     53  C   UNL A   1      45.262  28.416  32.012  1.00  0.00     0.029 A 
ATOM     54  C   UNL A   1      44.450  29.550  31.918  1.00  0.00     0.049 A 
ATOM     55  H   UNL A   1      44.866  31.244  30.755  1.00  0.00     0.167 HD
ATOM     56  C   UNL A   1      42.365  30.908  32.171  1.00  0.00     0.074 A 
ATOM     57  C   UNL A   1      42.520  31.988  31.199  1.00  0.00     0.031 C 
ATOM     58  C   UNL A   1      43.191  29.891  32.559  1.00  0.00     0.031 A 
BRANCH  45  59
ATOM     59  C   UNL A   1      46.173  31.070  28.148  1.00  0.00    -0.014 A 
ATOM     60  C   UNL A   1      45.258  32.143  28.089  1.00  0.00     0.010 A 
ATOM     61  C   UNL A   1      47.382  31.223  27.442  1.00  0.00     0.010 A 
ATOM     62  C   UNL A   1      45.519  33.281  27.315  1.00  0.00     0.020 A 
ATOM     63  C   UNL A   1      47.669  32.371  26.700  1.00  0.00     0.020 A 
ATOM     64  C   UNL A   1      46.722  33.382  26.620  1.00  0.00     0.054 A 
BRANCH  64  65
ATOM     65  S   UNL A   1      47.018  34.824  25.569  1.00  0.00     0.124 S 
ATOM     66  O   UNL A   1      48.363  34.561  25.067  1.00  0.00    -0.237 OA
ATOM     67  O   UNL A   1      45.941  34.715  24.588  1.00  0.00    -0.237 OA
ATOM     68  O   UNL A   1      46.900  35.950  26.493  1.00  0.00    -0.744 OA
ENDBRANCH  64  65
ENDBRANCH  45  59
BRANCH  46  69
ATOM     69  C   UNL A   1      38.070  32.081  30.560  1.00  0.00    -0.014 A 
ATOM     70  C   UNL A   1      38.117  32.953  29.455  1.00  0.00     0.010 A 
ATOM     71  C   UNL A   1      36.832  31.915  31.214  1.00  0.00     0.010 A 
ATOM     72  C   UNL A   1      36.952  33.574  28.974  1.00  0.00     0.020 A 
ATOM     73  C   UNL A   1      35.667  32.533  30.740  1.00  0.00     0.020 A 
ATOM     74  C   UNL A   1      35.728  33.340  29.605  1.00  0.00     0.054 A 
BRANCH  74  75
ATOM     75  S   UNL A   1      34.201  33.996  28.865  1.00  0.00     0.124 S 
ATOM     76  O   UNL A   1      33.714  32.855  28.095  1.00  0.00    -0.237 OA
ATOM     77  O   UNL A   1      33.406  34.351  30.037  1.00  0.00    -0.237 OA
ATOM     78  O   UNL A   1      34.664  35.130  28.068  1.00  0.00    -0.744 OA
ENDBRANCH  74  75
ENDBRANCH  46  69
BRANCH  58  79
ATOM     79  C   UNL A   1      42.701  28.951  33.637  1.00  0.00    -0.014 A 
ATOM     80  C   UNL A   1      41.908  27.809  33.412  1.00  0.00     0.010 A 
ATOM     81  C   UNL A   1      43.171  29.191  34.940  1.00  0.00     0.010 A 
ATOM     82  C   UNL A   1      41.580  26.946  34.473  1.00  0.00     0.020 A 
ATOM     83  C   UNL A   1      42.865  28.330  35.994  1.00  0.00     0.020 A 
ATOM     84  C   UNL A   1      42.062  27.215  35.759  1.00  0.00     0.054 A 
BRANCH  84  85
ATOM     85  S   UNL A   1      41.666  26.086  37.126  1.00  0.00     0.124 S 
ATOM     86  O   UNL A   1      41.621  24.787  36.463  1.00  0.00    -0.237 OA
ATOM     87  O   UNL A   1      42.784  26.286  38.045  1.00  0.00    -0.237 OA
ATOM     88  O   UNL A   1      40.378  26.573  37.619  1.00  0.00    -0.744 OA
ENDBRANCH  84  85
ENDBRANCH  58  79
ENDBRANCH  32  33
ENDBRANCH  24  27
ENDBRANCH  22  23
ENDBRANCH   1  22
TORSDOF 16
ENDMDL
