MODEL 1
REMARK VINA RESULT:     -12.3      0.000      0.000
REMARK SMILES Cn1c(C[NH+](C)C)nnc1[C@@H]1CCC[N@@H+](Cc2ccccc2C(=O)NCCCNC(=O)c2ccc(-c3c4nc(c(-c5ccc(S(=O)(=O)[O-])cc5)c5ccc([nH]5)c(-c5ccc(S(=O)(=O)[O-])cc5)c5nc(c(-c6ccc(S(=O)(=O)[O-])cc6)c6ccc3[nH]6)C=C5)C=C4)cc2)C1
REMARK SMILES IDX 26 1 25 2 23 3 24 4 22 6 17 7 18 8 19 9 21 10 20 11 16 12
REMARK SMILES IDX 15 13 11 14 12 15 92 16 13 17 14 18 10 20 3 21 8 22 2 23
REMARK SMILES IDX 9 24 1 25 4 26 5 27 6 28 7 29 27 31 28 32 29 33 30 34 31 36
REMARK SMILES IDX 32 37 33 38 91 39 34 40 90 41 35 42 36 43 37 44 84 45 38 46
REMARK SMILES IDX 89 47 83 48 85 49 39 50 88 51 82 52 81 53 40 55 70 56 51 57
REMARK SMILES IDX 69 58 52 59 55 60 68 61 86 62 53 63 54 64 67 66 87 67 56 68
REMARK SMILES IDX 41 69 42 70 50 71 43 72 49 73 44 74 45 75 46 76 47 77 48 78
REMARK SMILES IDX 71 79 72 80 80 81 73 82 79 83 74 84 75 85 76 86 77 87 78 88
REMARK SMILES IDX 57 89 58 90 66 91 59 92 65 93 60 94 61 95 62 96 63 97 64 98
REMARK H PARENT 25 5 15 19 5 30 29 35 85 54 55 65
REMARK Flexibility Score: inf
ROOT
ATOM      1  C   UNL A   1      33.098  29.636  25.853  1.00  0.00     0.118 C 
ENDROOT
BRANCH   1   2
ATOM      2  N   UNL A   1      33.652  29.177  24.600  1.00  0.00    -0.352 N 
ATOM      3  C   UNL A   1      33.058  28.518  23.557  1.00  0.00     0.251 C 
ATOM      4  O   UNL A   1      33.716  28.349  22.529  1.00  0.00    -0.269 OA
ATOM      5  H   UNL A   1      34.610  29.367  24.477  1.00  0.00     0.163 HD
BRANCH   3   6
ATOM      6  C   UNL A   1      31.708  27.908  23.643  1.00  0.00     0.048 A 
ATOM      7  C   UNL A   1      31.303  26.794  24.406  1.00  0.00     0.019 A 
ATOM      8  C   UNL A   1      29.949  26.390  24.287  1.00  0.00     0.010 A 
ATOM      9  C   UNL A   1      29.025  27.085  23.501  1.00  0.00     0.001 A 
ATOM     10  C   UNL A   1      30.751  28.629  22.891  1.00  0.00     0.014 A 
ATOM     11  C   UNL A   1      29.422  28.222  22.820  1.00  0.00     0.001 A 
BRANCH   7  12
ATOM     12  C   UNL A   1      32.167  25.934  25.307  1.00  0.00     0.299 C 
BRANCH  12  13
ATOM     13  N   UNL A   1      32.980  24.850  24.756  1.00  0.00    -0.331 N 
ATOM     14  C   UNL A   1      33.138  22.668  23.488  1.00  0.00     0.113 C 
ATOM     15  C   UNL A   1      34.581  23.031  23.121  1.00  0.00     0.023 C 
ATOM     16  C   UNL A   1      32.309  23.910  23.858  1.00  0.00     0.274 C 
ATOM     17  C   UNL A   1      35.195  24.052  24.070  1.00  0.00     0.062 C 
ATOM     18  C   UNL A   1      34.289  25.270  24.267  1.00  0.00     0.262 C 
ATOM     19  H   UNL A   1      33.153  24.286  25.588  1.00  0.00     0.348 HD
BRANCH  14  20
ATOM     20  C   UNL A   1      33.041  21.466  24.398  1.00  0.00     0.141 A 
ATOM     21  C   UNL A   1      32.853  19.448  25.297  1.00  0.00     0.187 A 
ATOM     22  N   UNL A   1      33.235  20.287  26.238  1.00  0.00    -0.129 NA
ATOM     23  N   UNL A   1      32.660  20.170  24.130  1.00  0.00    -0.313 N 
ATOM     24  N   UNL A   1      33.351  21.533  25.682  1.00  0.00    -0.135 NA
ATOM     25  C   UNL A   1      32.150  19.607  22.910  1.00  0.00     0.153 C 
BRANCH  21  26
ATOM     26  C   UNL A   1      32.651  17.957  25.376  1.00  0.00     0.340 C 
BRANCH  26  27
ATOM     27  N   UNL A   1      33.812  17.059  25.501  1.00  0.00    -0.333 N 
ATOM     28  C   UNL A   1      33.454  15.649  25.378  1.00  0.00     0.332 C 
ATOM     29  C   UNL A   1      34.900  17.400  24.596  1.00  0.00     0.332 C 
ATOM     30  H   UNL A   1      34.155  17.205  26.450  1.00  0.00     0.348 HD
ENDBRANCH  26  27
ENDBRANCH  21  26
ENDBRANCH  14  20
ENDBRANCH  12  13
ENDBRANCH   7  12
ENDBRANCH   3   6
ENDBRANCH   1   2
BRANCH   1  31
ATOM     31  C   UNL A   1      33.601  28.905  27.085  1.00  0.00     0.042 C 
BRANCH  31  32
ATOM     32  C   UNL A   1      35.022  29.266  27.512  1.00  0.00     0.118 C 
BRANCH  32  33
ATOM     33  N   UNL A   1      35.098  30.202  28.623  1.00  0.00    -0.352 N 
ATOM     34  C   UNL A   1      36.147  30.548  29.427  1.00  0.00     0.251 C 
ATOM     35  H   UNL A   1      34.254  30.663  28.831  1.00  0.00     0.163 HD
ATOM     36  O   UNL A   1      35.969  31.325  30.361  1.00  0.00    -0.269 OA
BRANCH  34  37
ATOM     37  C   UNL A   1      37.478  29.968  29.235  1.00  0.00     0.039 A 
ATOM     38  C   UNL A   1      38.047  30.000  27.957  1.00  0.00     0.014 A 
ATOM     39  C   UNL A   1      38.151  29.379  30.299  1.00  0.00     0.014 A 
ATOM     40  C   UNL A   1      39.331  29.503  27.761  1.00  0.00     0.010 A 
ATOM     41  C   UNL A   1      39.467  28.986  30.126  1.00  0.00     0.010 A 
ATOM     42  C   UNL A   1      40.071  29.049  28.858  1.00  0.00    -0.014 A 
BRANCH  42  43
ATOM     43  C   UNL A   1      41.485  28.624  28.746  1.00  0.00     0.031 A 
ATOM     44  C   UNL A   1      42.554  29.677  28.800  1.00  0.00     0.074 A 
ATOM     45  C   UNL A   1      41.777  27.345  28.443  1.00  0.00     0.049 A 
ATOM     46  N   UNL A   1      43.780  29.633  28.353  1.00  0.00    -0.248 NA
ATOM     47  C   UNL A   1      42.165  30.978  29.375  1.00  0.00     0.031 C 
ATOM     48  C   UNL A   1      40.817  26.239  28.367  1.00  0.00     0.029 A 
ATOM     49  N   UNL A   1      42.973  26.763  28.107  1.00  0.00    -0.354 N 
ATOM     50  C   UNL A   1      44.285  30.916  28.527  1.00  0.00     0.074 A 
ATOM     51  C   UNL A   1      43.227  31.720  29.099  1.00  0.00     0.031 C 
ATOM     52  C   UNL A   1      41.462  25.115  28.017  1.00  0.00     0.029 A 
ATOM     53  C   UNL A   1      42.861  25.435  27.768  1.00  0.00     0.049 A 
ATOM     54  H   UNL A   1      43.829  27.250  28.108  1.00  0.00     0.167 HD
ATOM     55  C   UNL A   1      45.524  31.374  28.233  1.00  0.00     0.031 A 
ATOM     56  C   UNL A   1      43.777  24.584  27.269  1.00  0.00     0.031 A 
ATOM     57  C   UNL A   1      46.571  30.533  27.718  1.00  0.00     0.049 A 
ATOM     58  C   UNL A   1      45.158  25.107  26.991  1.00  0.00     0.074 A 
ATOM     59  C   UNL A   1      47.879  30.866  27.419  1.00  0.00     0.029 A 
ATOM     60  N   UNL A   1      46.433  29.176  27.460  1.00  0.00    -0.354 N 
ATOM     61  N   UNL A   1      45.616  26.331  27.124  1.00  0.00    -0.248 NA
ATOM     62  C   UNL A   1      46.144  24.140  26.496  1.00  0.00     0.031 C 
ATOM     63  C   UNL A   1      48.527  29.712  26.961  1.00  0.00     0.029 A 
ATOM     64  C   UNL A   1      47.633  28.654  27.017  1.00  0.00     0.049 A 
ATOM     65  H   UNL A   1      45.601  28.661  27.575  1.00  0.00     0.167 HD
ATOM     66  C   UNL A   1      46.952  26.274  26.752  1.00  0.00     0.074 A 
ATOM     67  C   UNL A   1      47.230  24.894  26.404  1.00  0.00     0.031 C 
ATOM     68  C   UNL A   1      47.870  27.270  26.696  1.00  0.00     0.031 A 
BRANCH  55  69
ATOM     69  C   UNL A   1      45.808  32.834  28.461  1.00  0.00    -0.014 A 
ATOM     70  C   UNL A   1      45.563  33.790  27.458  1.00  0.00     0.010 A 
ATOM     71  C   UNL A   1      46.293  33.267  29.710  1.00  0.00     0.010 A 
ATOM     72  C   UNL A   1      45.830  35.143  27.686  1.00  0.00     0.020 A 
ATOM     73  C   UNL A   1      46.534  34.624  29.952  1.00  0.00     0.020 A 
ATOM     74  C   UNL A   1      46.315  35.552  28.931  1.00  0.00     0.054 A 
BRANCH  74  75
ATOM     75  S   UNL A   1      46.609  37.320  29.212  1.00  0.00     0.124 S 
ATOM     76  O   UNL A   1      47.121  37.749  27.913  1.00  0.00    -0.237 OA
ATOM     77  O   UNL A   1      45.279  37.816  29.559  1.00  0.00    -0.237 OA
ATOM     78  O   UNL A   1      47.581  37.339  30.303  1.00  0.00    -0.744 OA
ENDBRANCH  74  75
ENDBRANCH  55  69
BRANCH  56  79
ATOM     79  C   UNL A   1      43.417  23.166  26.996  1.00  0.00    -0.014 A 
ATOM     80  C   UNL A   1      43.587  22.630  25.708  1.00  0.00     0.010 A 
ATOM     81  C   UNL A   1      42.918  22.338  28.019  1.00  0.00     0.010 A 
ATOM     82  C   UNL A   1      43.242  21.303  25.439  1.00  0.00     0.020 A 
ATOM     83  C   UNL A   1      42.599  21.001  27.762  1.00  0.00     0.020 A 
ATOM     84  C   UNL A   1      42.749  20.496  26.468  1.00  0.00     0.054 A 
BRANCH  84  85
ATOM     85  S   UNL A   1      42.350  18.763  26.109  1.00  0.00     0.124 S 
ATOM     86  O   UNL A   1      42.653  18.113  27.379  1.00  0.00    -0.237 OA
ATOM     87  O   UNL A   1      40.935  18.830  25.751  1.00  0.00    -0.237 OA
ATOM     88  O   UNL A   1      43.247  18.430  25.004  1.00  0.00    -0.744 OA
ENDBRANCH  84  85
ENDBRANCH  56  79
BRANCH  68  89
ATOM     89  C   UNL A   1      49.265  26.884  26.296  1.00  0.00    -0.014 A 
ATOM     90  C   UNL A   1      49.714  27.048  24.975  1.00  0.00     0.010 A 
ATOM     91  C   UNL A   1      50.149  26.393  27.273  1.00  0.00     0.010 A 
ATOM     92  C   UNL A   1      51.019  26.694  24.629  1.00  0.00     0.020 A 
ATOM     93  C   UNL A   1      51.462  26.061  26.937  1.00  0.00     0.020 A 
ATOM     94  C   UNL A   1      51.884  26.201  25.613  1.00  0.00     0.054 A 
BRANCH  94  95
ATOM     95  S   UNL A   1      53.586  25.785  25.148  1.00  0.00     0.124 S 
ATOM     96  O   UNL A   1      53.450  25.511  23.720  1.00  0.00    -0.237 OA
ATOM     97  O   UNL A   1      54.319  27.002  25.488  1.00  0.00    -0.237 OA
ATOM     98  O   UNL A   1      53.897  24.625  25.980  1.00  0.00    -0.744 OA
ENDBRANCH  94  95
ENDBRANCH  68  89
ENDBRANCH  42  43
ENDBRANCH  34  37
ENDBRANCH  32  33
ENDBRANCH  31  32
ENDBRANCH   1  31
TORSDOF 18
ENDMDL
MODEL 2
REMARK VINA RESULT:     -12.2      6.095     11.952
REMARK SMILES Cn1c(C[NH+](C)C)nnc1[C@@H]1CCC[N@@H+](Cc2ccccc2C(=O)NCCCNC(=O)c2ccc(-c3c4nc(c(-c5ccc(S(=O)(=O)[O-])cc5)c5ccc([nH]5)c(-c5ccc(S(=O)(=O)[O-])cc5)c5nc(c(-c6ccc(S(=O)(=O)[O-])cc6)c6ccc3[nH]6)C=C5)C=C4)cc2)C1
REMARK SMILES IDX 26 1 25 2 23 3 24 4 22 6 17 7 18 8 19 9 21 10 20 11 16 12
REMARK SMILES IDX 15 13 11 14 12 15 92 16 13 17 14 18 10 20 3 21 8 22 2 23
REMARK SMILES IDX 9 24 1 25 4 26 5 27 6 28 7 29 27 31 28 32 29 33 30 34 31 36
REMARK SMILES IDX 32 37 33 38 91 39 34 40 90 41 35 42 36 43 37 44 84 45 38 46
REMARK SMILES IDX 89 47 83 48 85 49 39 50 88 51 82 52 81 53 40 55 70 56 51 57
REMARK SMILES IDX 69 58 52 59 55 60 68 61 86 62 53 63 54 64 67 66 87 67 56 68
REMARK SMILES IDX 41 69 42 70 50 71 43 72 49 73 44 74 45 75 46 76 47 77 48 78
REMARK SMILES IDX 71 79 72 80 80 81 73 82 79 83 74 84 75 85 76 86 77 87 78 88
REMARK SMILES IDX 57 89 58 90 66 91 59 92 65 93 60 94 61 95 62 96 63 97 64 98
REMARK H PARENT 25 5 15 19 5 30 29 35 85 54 55 65
REMARK Flexibility Score: inf
ROOT
ATOM      1  C   UNL A   1      36.561  22.080  25.643  1.00  0.00     0.118 C 
ENDROOT
BRANCH   1   2
ATOM      2  N   UNL A   1      35.504  22.125  26.627  1.00  0.00    -0.352 N 
ATOM      3  C   UNL A   1      34.180  21.791  26.521  1.00  0.00     0.251 C 
ATOM      4  O   UNL A   1      33.499  21.789  27.547  1.00  0.00    -0.269 OA
ATOM      5  H   UNL A   1      35.779  22.446  27.515  1.00  0.00     0.163 HD
BRANCH   3   6
ATOM      6  C   UNL A   1      33.506  21.539  25.224  1.00  0.00     0.048 A 
ATOM      7  C   UNL A   1      33.275  22.449  24.171  1.00  0.00     0.019 A 
ATOM      8  C   UNL A   1      32.575  21.960  23.039  1.00  0.00     0.010 A 
ATOM      9  C   UNL A   1      32.174  20.625  22.924  1.00  0.00     0.001 A 
ATOM     10  C   UNL A   1      33.137  20.183  25.071  1.00  0.00     0.014 A 
ATOM     11  C   UNL A   1      32.478  19.728  23.933  1.00  0.00     0.001 A 
BRANCH   7  12
ATOM     12  C   UNL A   1      33.643  23.919  24.130  1.00  0.00     0.299 C 
BRANCH  12  13
ATOM     13  N   UNL A   1      32.727  24.937  24.643  1.00  0.00    -0.331 N 
ATOM     14  C   UNL A   1      30.499  26.127  24.524  1.00  0.00     0.113 C 
ATOM     15  C   UNL A   1      30.657  26.488  26.005  1.00  0.00     0.023 C 
ATOM     16  C   UNL A   1      31.356  24.910  24.134  1.00  0.00     0.274 C 
ATOM     17  C   UNL A   1      32.106  26.445  26.475  1.00  0.00     0.062 C 
ATOM     18  C   UNL A   1      32.797  25.134  26.086  1.00  0.00     0.262 C 
ATOM     19  H   UNL A   1      33.110  25.783  24.220  1.00  0.00     0.348 HD
BRANCH  14  20
ATOM     20  C   UNL A   1      30.538  27.331  23.613  1.00  0.00     0.141 A 
ATOM     21  C   UNL A   1      30.106  29.138  22.403  1.00  0.00     0.187 A 
ATOM     22  N   UNL A   1      31.411  28.962  22.433  1.00  0.00    -0.129 NA
ATOM     23  N   UNL A   1      29.515  28.089  23.088  1.00  0.00    -0.313 N 
ATOM     24  N   UNL A   1      31.677  27.845  23.180  1.00  0.00    -0.135 NA
ATOM     25  C   UNL A   1      28.095  27.891  23.188  1.00  0.00     0.153 C 
BRANCH  21  26
ATOM     26  C   UNL A   1      29.311  30.255  21.777  1.00  0.00     0.340 C 
BRANCH  26  27
ATOM     27  N   UNL A   1      29.322  31.599  22.380  1.00  0.00    -0.333 N 
ATOM     28  C   UNL A   1      28.454  32.541  21.680  1.00  0.00     0.332 C 
ATOM     29  C   UNL A   1      29.035  31.589  23.807  1.00  0.00     0.332 C 
ATOM     30  H   UNL A   1      30.281  31.928  22.269  1.00  0.00     0.348 HD
ENDBRANCH  26  27
ENDBRANCH  21  26
ENDBRANCH  14  20
ENDBRANCH  12  13
ENDBRANCH   7  12
ENDBRANCH   3   6
ENDBRANCH   1   2
BRANCH   1  31
ATOM     31  C   UNL A   1      37.167  23.427  25.290  1.00  0.00     0.042 C 
BRANCH  31  32
ATOM     32  C   UNL A   1      38.113  24.003  26.342  1.00  0.00     0.118 C 
BRANCH  32  33
ATOM     33  N   UNL A   1      39.521  23.727  26.102  1.00  0.00    -0.352 N 
ATOM     34  C   UNL A   1      40.643  24.365  26.551  1.00  0.00     0.251 C 
ATOM     35  H   UNL A   1      39.695  22.953  25.520  1.00  0.00     0.163 HD
ATOM     36  O   UNL A   1      41.749  23.995  26.167  1.00  0.00    -0.269 OA
BRANCH  34  37
ATOM     37  C   UNL A   1      40.556  25.521  27.445  1.00  0.00     0.039 A 
ATOM     38  C   UNL A   1      39.661  25.475  28.520  1.00  0.00     0.014 A 
ATOM     39  C   UNL A   1      41.333  26.650  27.215  1.00  0.00     0.014 A 
ATOM     40  C   UNL A   1      39.599  26.540  29.412  1.00  0.00     0.010 A 
ATOM     41  C   UNL A   1      41.350  27.659  28.162  1.00  0.00     0.010 A 
ATOM     42  C   UNL A   1      40.488  27.612  29.272  1.00  0.00    -0.014 A 
BRANCH  42  43
ATOM     43  C   UNL A   1      40.566  28.717  30.253  1.00  0.00     0.031 A 
ATOM     44  C   UNL A   1      41.540  28.597  31.390  1.00  0.00     0.074 A 
ATOM     45  C   UNL A   1      39.668  29.721  30.204  1.00  0.00     0.049 A 
ATOM     46  N   UNL A   1      41.534  29.198  32.548  1.00  0.00    -0.248 NA
ATOM     47  C   UNL A   1      42.626  27.615  31.222  1.00  0.00     0.031 C 
ATOM     48  C   UNL A   1      38.679  29.936  29.144  1.00  0.00     0.029 A 
ATOM     49  N   UNL A   1      39.421  30.735  31.093  1.00  0.00    -0.354 N 
ATOM     50  C   UNL A   1      42.569  28.618  33.273  1.00  0.00     0.074 A 
ATOM     51  C   UNL A   1      43.165  27.604  32.431  1.00  0.00     0.031 C 
ATOM     52  C   UNL A   1      37.940  31.018  29.439  1.00  0.00     0.029 A 
ATOM     53  C   UNL A   1      38.350  31.523  30.742  1.00  0.00     0.049 A 
ATOM     54  H   UNL A   1      39.959  30.885  31.904  1.00  0.00     0.167 HD
ATOM     55  C   UNL A   1      42.980  28.913  34.528  1.00  0.00     0.031 A 
ATOM     56  C   UNL A   1      37.740  32.514  31.419  1.00  0.00     0.031 A 
ATOM     57  C   UNL A   1      42.402  29.968  35.316  1.00  0.00     0.049 A 
ATOM     58  C   UNL A   1      38.242  32.851  32.795  1.00  0.00     0.074 A 
ATOM     59  C   UNL A   1      42.754  30.393  36.584  1.00  0.00     0.029 A 
ATOM     60  N   UNL A   1      41.367  30.789  34.891  1.00  0.00    -0.354 N 
ATOM     61  N   UNL A   1      39.197  32.272  33.486  1.00  0.00    -0.248 NA
ATOM     62  C   UNL A   1      37.586  33.968  33.483  1.00  0.00     0.031 C 
ATOM     63  C   UNL A   1      41.919  31.461  36.931  1.00  0.00     0.029 A 
ATOM     64  C   UNL A   1      41.076  31.727  35.863  1.00  0.00     0.049 A 
ATOM     65  H   UNL A   1      40.907  30.715  34.022  1.00  0.00     0.167 HD
ATOM     66  C   UNL A   1      39.274  32.973  34.682  1.00  0.00     0.074 A 
ATOM     67  C   UNL A   1      38.279  34.026  34.612  1.00  0.00     0.031 C 
ATOM     68  C   UNL A   1      40.087  32.768  35.747  1.00  0.00     0.031 A 
BRANCH  55  69
ATOM     69  C   UNL A   1      44.096  28.092  35.116  1.00  0.00    -0.014 A 
ATOM     70  C   UNL A   1      43.852  26.823  35.674  1.00  0.00     0.010 A 
ATOM     71  C   UNL A   1      45.417  28.576  35.079  1.00  0.00     0.010 A 
ATOM     72  C   UNL A   1      44.899  26.072  36.214  1.00  0.00     0.020 A 
ATOM     73  C   UNL A   1      46.472  27.814  35.592  1.00  0.00     0.020 A 
ATOM     74  C   UNL A   1      46.203  26.572  36.170  1.00  0.00     0.054 A 
BRANCH  74  75
ATOM     75  S   UNL A   1      47.548  25.554  36.839  1.00  0.00     0.124 S 
ATOM     76  O   UNL A   1      47.410  25.781  38.275  1.00  0.00    -0.237 OA
ATOM     77  O   UNL A   1      47.196  24.214  36.377  1.00  0.00    -0.237 OA
ATOM     78  O   UNL A   1      48.748  26.124  36.231  1.00  0.00    -0.744 OA
ENDBRANCH  74  75
ENDBRANCH  55  69
BRANCH  56  79
ATOM     79  C   UNL A   1      36.593  33.243  30.814  1.00  0.00    -0.014 A 
ATOM     80  C   UNL A   1      36.796  34.083  29.705  1.00  0.00     0.010 A 
ATOM     81  C   UNL A   1      35.290  33.095  31.327  1.00  0.00     0.010 A 
ATOM     82  C   UNL A   1      35.728  34.780  29.135  1.00  0.00     0.020 A 
ATOM     83  C   UNL A   1      34.213  33.768  30.742  1.00  0.00     0.020 A 
ATOM     84  C   UNL A   1      34.441  34.618  29.658  1.00  0.00     0.054 A 
BRANCH  84  85
ATOM     85  S   UNL A   1      33.061  35.498  28.877  1.00  0.00     0.124 S 
ATOM     86  O   UNL A   1      32.327  35.998  30.033  1.00  0.00    -0.237 OA
ATOM     87  O   UNL A   1      33.741  36.509  28.071  1.00  0.00    -0.237 OA
ATOM     88  O   UNL A   1      32.385  34.454  28.108  1.00  0.00    -0.744 OA
ENDBRANCH  84  85
ENDBRANCH  56  79
BRANCH  68  89
ATOM     89  C   UNL A   1      39.965  33.735  36.888  1.00  0.00    -0.014 A 
ATOM     90  C   UNL A   1      39.072  33.501  37.947  1.00  0.00     0.010 A 
ATOM     91  C   UNL A   1      40.794  34.870  36.918  1.00  0.00     0.010 A 
ATOM     92  C   UNL A   1      38.985  34.407  39.005  1.00  0.00     0.020 A 
ATOM     93  C   UNL A   1      40.728  35.766  37.986  1.00  0.00     0.020 A 
ATOM     94  C   UNL A   1      39.812  35.536  39.016  1.00  0.00     0.054 A 
BRANCH  94  95
ATOM     95  S   UNL A   1      39.709  36.678  40.419  1.00  0.00     0.124 S 
ATOM     96  O   UNL A   1      39.443  35.768  41.530  1.00  0.00    -0.237 OA
ATOM     97  O   UNL A   1      41.029  37.306  40.421  1.00  0.00    -0.237 OA
ATOM     98  O   UNL A   1      38.605  37.566  40.061  1.00  0.00    -0.744 OA
ENDBRANCH  94  95
ENDBRANCH  68  89
ENDBRANCH  42  43
ENDBRANCH  34  37
ENDBRANCH  32  33
ENDBRANCH  31  32
ENDBRANCH   1  31
TORSDOF 18
ENDMDL
MODEL 3
REMARK VINA RESULT:     -12.1      6.046     11.863
REMARK SMILES Cn1c(C[NH+](C)C)nnc1[C@@H]1CCC[N@@H+](Cc2ccccc2C(=O)NCCCNC(=O)c2ccc(-c3c4nc(c(-c5ccc(S(=O)(=O)[O-])cc5)c5ccc([nH]5)c(-c5ccc(S(=O)(=O)[O-])cc5)c5nc(c(-c6ccc(S(=O)(=O)[O-])cc6)c6ccc3[nH]6)C=C5)C=C4)cc2)C1
REMARK SMILES IDX 26 1 25 2 23 3 24 4 22 6 17 7 18 8 19 9 21 10 20 11 16 12
REMARK SMILES IDX 15 13 11 14 12 15 92 16 13 17 14 18 10 20 3 21 8 22 2 23
REMARK SMILES IDX 9 24 1 25 4 26 5 27 6 28 7 29 27 31 28 32 29 33 30 34 31 36
REMARK SMILES IDX 32 37 33 38 91 39 34 40 90 41 35 42 36 43 37 44 84 45 38 46
REMARK SMILES IDX 89 47 83 48 85 49 39 50 88 51 82 52 81 53 40 55 70 56 51 57
REMARK SMILES IDX 69 58 52 59 55 60 68 61 86 62 53 63 54 64 67 66 87 67 56 68
REMARK SMILES IDX 41 69 42 70 50 71 43 72 49 73 44 74 45 75 46 76 47 77 48 78
REMARK SMILES IDX 71 79 72 80 80 81 73 82 79 83 74 84 75 85 76 86 77 87 78 88
REMARK SMILES IDX 57 89 58 90 66 91 59 92 65 93 60 94 61 95 62 96 63 97 64 98
REMARK H PARENT 25 5 15 19 5 30 29 35 85 54 55 65
REMARK Flexibility Score: inf
ROOT
ATOM      1  C   UNL A   1      36.425  22.376  25.500  1.00  0.00     0.118 C 
ENDROOT
BRANCH   1   2
ATOM      2  N   UNL A   1      35.428  22.305  26.543  1.00  0.00    -0.352 N 
ATOM      3  C   UNL A   1      34.218  21.664  26.570  1.00  0.00     0.251 C 
ATOM      4  O   UNL A   1      33.599  21.640  27.634  1.00  0.00    -0.269 OA
ATOM      5  H   UNL A   1      35.654  22.795  27.366  1.00  0.00     0.163 HD
BRANCH   3   6
ATOM      6  C   UNL A   1      33.572  21.094  25.362  1.00  0.00     0.048 A 
ATOM      7  C   UNL A   1      32.994  21.785  24.276  1.00  0.00     0.019 A 
ATOM      8  C   UNL A   1      32.410  20.999  23.251  1.00  0.00     0.010 A 
ATOM      9  C   UNL A   1      32.447  19.601  23.264  1.00  0.00     0.001 A 
ATOM     10  C   UNL A   1      33.645  19.682  25.336  1.00  0.00     0.014 A 
ATOM     11  C   UNL A   1      33.088  18.941  24.298  1.00  0.00     0.001 A 
BRANCH   7  12
ATOM     12  C   UNL A   1      32.871  23.285  24.102  1.00  0.00     0.299 C 
BRANCH  12  13
ATOM     13  N   UNL A   1      31.872  24.050  24.849  1.00  0.00    -0.331 N 
ATOM     14  C   UNL A   1      30.529  26.171  25.155  1.00  0.00     0.113 C 
ATOM     15  C   UNL A   1      29.474  25.347  25.902  1.00  0.00     0.023 C 
ATOM     16  C   UNL A   1      31.400  25.294  24.239  1.00  0.00     0.274 C 
ATOM     17  C   UNL A   1      30.027  24.043  26.464  1.00  0.00     0.062 C 
ATOM     18  C   UNL A   1      30.794  23.242  25.407  1.00  0.00     0.262 C 
ATOM     19  H   UNL A   1      32.423  24.379  25.641  1.00  0.00     0.348 HD
BRANCH  14  20
ATOM     20  C   UNL A   1      31.233  27.174  26.038  1.00  0.00     0.141 A 
ATOM     21  C   UNL A   1      32.288  28.919  26.907  1.00  0.00     0.187 A 
ATOM     22  N   UNL A   1      31.887  28.145  27.894  1.00  0.00    -0.129 NA
ATOM     23  N   UNL A   1      31.945  28.306  25.713  1.00  0.00    -0.313 N 
ATOM     24  N   UNL A   1      31.235  27.066  27.357  1.00  0.00    -0.135 NA
ATOM     25  C   UNL A   1      32.304  28.812  24.416  1.00  0.00     0.153 C 
BRANCH  21  26
ATOM     26  C   UNL A   1      32.984  30.255  26.968  1.00  0.00     0.340 C 
BRANCH  26  27
ATOM     27  N   UNL A   1      34.180  30.428  27.811  1.00  0.00    -0.333 N 
ATOM     28  C   UNL A   1      35.200  29.414  27.563  1.00  0.00     0.332 C 
ATOM     29  C   UNL A   1      34.747  31.766  27.732  1.00  0.00     0.332 C 
ATOM     30  H   UNL A   1      33.847  30.299  28.766  1.00  0.00     0.348 HD
ENDBRANCH  26  27
ENDBRANCH  21  26
ENDBRANCH  14  20
ENDBRANCH  12  13
ENDBRANCH   7  12
ENDBRANCH   3   6
ENDBRANCH   1   2
BRANCH   1  31
ATOM     31  C   UNL A   1      37.137  23.712  25.382  1.00  0.00     0.042 C 
BRANCH  31  32
ATOM     32  C   UNL A   1      38.120  24.020  26.510  1.00  0.00     0.118 C 
BRANCH  32  33
ATOM     33  N   UNL A   1      39.518  23.826  26.161  1.00  0.00    -0.352 N 
ATOM     34  C   UNL A   1      40.633  24.528  26.522  1.00  0.00     0.251 C 
ATOM     35  H   UNL A   1      39.691  23.062  25.564  1.00  0.00     0.163 HD
ATOM     36  O   UNL A   1      41.726  24.221  26.052  1.00  0.00    -0.269 OA
BRANCH  34  37
ATOM     37  C   UNL A   1      40.550  25.679  27.423  1.00  0.00     0.039 A 
ATOM     38  C   UNL A   1      39.761  25.578  28.573  1.00  0.00     0.014 A 
ATOM     39  C   UNL A   1      41.226  26.857  27.125  1.00  0.00     0.014 A 
ATOM     40  C   UNL A   1      39.707  26.640  29.470  1.00  0.00     0.010 A 
ATOM     41  C   UNL A   1      41.261  27.868  28.070  1.00  0.00     0.010 A 
ATOM     42  C   UNL A   1      40.507  27.768  29.252  1.00  0.00    -0.014 A 
BRANCH  42  43
ATOM     43  C   UNL A   1      40.598  28.880  30.225  1.00  0.00     0.031 A 
ATOM     44  C   UNL A   1      41.590  28.768  31.347  1.00  0.00     0.074 A 
ATOM     45  C   UNL A   1      39.699  29.882  30.183  1.00  0.00     0.049 A 
ATOM     46  N   UNL A   1      41.602  29.378  32.501  1.00  0.00    -0.248 NA
ATOM     47  C   UNL A   1      42.675  27.787  31.168  1.00  0.00     0.031 C 
ATOM     48  C   UNL A   1      38.692  30.088  29.137  1.00  0.00     0.029 A 
ATOM     49  N   UNL A   1      39.464  30.902  31.069  1.00  0.00    -0.354 N 
ATOM     50  C   UNL A   1      42.649  28.804  33.213  1.00  0.00     0.074 A 
ATOM     51  C   UNL A   1      43.234  27.785  32.369  1.00  0.00     0.031 C 
ATOM     52  C   UNL A   1      37.956  31.171  29.437  1.00  0.00     0.029 A 
ATOM     53  C   UNL A   1      38.387  31.686  30.730  1.00  0.00     0.049 A 
ATOM     54  H   UNL A   1      40.014  31.057  31.871  1.00  0.00     0.167 HD
ATOM     55  C   UNL A   1      43.079  29.107  34.460  1.00  0.00     0.031 A 
ATOM     56  C   UNL A   1      37.786  32.680  31.410  1.00  0.00     0.031 A 
ATOM     57  C   UNL A   1      42.512  30.167  35.250  1.00  0.00     0.049 A 
ATOM     58  C   UNL A   1      38.308  33.027  32.776  1.00  0.00     0.074 A 
ATOM     59  C   UNL A   1      42.884  30.601  36.509  1.00  0.00     0.029 A 
ATOM     60  N   UNL A   1      41.469  30.984  34.836  1.00  0.00    -0.354 N 
ATOM     61  N   UNL A   1      39.275  32.454  33.455  1.00  0.00    -0.248 NA
ATOM     62  C   UNL A   1      37.662  34.148  33.467  1.00  0.00     0.031 C 
ATOM     63  C   UNL A   1      42.052  31.670  36.863  1.00  0.00     0.029 A 
ATOM     64  C   UNL A   1      41.192  31.927  35.806  1.00  0.00     0.049 A 
ATOM     65  H   UNL A   1      40.996  30.903  33.975  1.00  0.00     0.167 HD
ATOM     66  C   UNL A   1      39.369  33.163  34.645  1.00  0.00     0.074 A 
ATOM     67  C   UNL A   1      38.372  34.214  34.584  1.00  0.00     0.031 C 
ATOM     68  C   UNL A   1      40.200  32.966  35.698  1.00  0.00     0.031 A 
BRANCH  55  69
ATOM     69  C   UNL A   1      44.205  28.292  35.035  1.00  0.00    -0.014 A 
ATOM     70  C   UNL A   1      43.955  27.110  35.757  1.00  0.00     0.010 A 
ATOM     71  C   UNL A   1      45.539  28.690  34.822  1.00  0.00     0.010 A 
ATOM     72  C   UNL A   1      45.012  26.362  36.284  1.00  0.00     0.020 A 
ATOM     73  C   UNL A   1      46.600  27.928  35.322  1.00  0.00     0.020 A 
ATOM     74  C   UNL A   1      46.328  26.776  36.064  1.00  0.00     0.054 A 
BRANCH  74  75
ATOM     75  S   UNL A   1      47.681  25.761  36.722  1.00  0.00     0.124 S 
ATOM     76  O   UNL A   1      46.974  24.892  37.659  1.00  0.00    -0.237 OA
ATOM     77  O   UNL A   1      48.200  25.105  35.524  1.00  0.00    -0.237 OA
ATOM     78  O   UNL A   1      48.580  26.737  37.333  1.00  0.00    -0.744 OA
ENDBRANCH  74  75
ENDBRANCH  55  69
BRANCH  56  79
ATOM     79  C   UNL A   1      36.628  33.404  30.818  1.00  0.00    -0.014 A 
ATOM     80  C   UNL A   1      35.340  33.234  31.354  1.00  0.00     0.010 A 
ATOM     81  C   UNL A   1      36.803  34.278  29.728  1.00  0.00     0.010 A 
ATOM     82  C   UNL A   1      34.245  33.902  30.800  1.00  0.00     0.020 A 
ATOM     83  C   UNL A   1      35.715  34.970  29.188  1.00  0.00     0.020 A 
ATOM     84  C   UNL A   1      34.439  34.766  29.718  1.00  0.00     0.054 A 
BRANCH  84  85
ATOM     85  S   UNL A   1      33.012  35.658  29.041  1.00  0.00     0.124 S 
ATOM     86  O   UNL A   1      33.652  36.759  28.330  1.00  0.00    -0.237 OA
ATOM     87  O   UNL A   1      32.374  34.646  28.202  1.00  0.00    -0.237 OA
ATOM     88  O   UNL A   1      32.252  36.036  30.230  1.00  0.00    -0.744 OA
ENDBRANCH  84  85
ENDBRANCH  56  79
BRANCH  68  89
ATOM     89  C   UNL A   1      40.094  33.940  36.835  1.00  0.00    -0.014 A 
ATOM     90  C   UNL A   1      39.304  33.660  37.962  1.00  0.00     0.010 A 
ATOM     91  C   UNL A   1      40.837  35.134  36.789  1.00  0.00     0.010 A 
ATOM     92  C   UNL A   1      39.231  34.575  39.013  1.00  0.00     0.020 A 
ATOM     93  C   UNL A   1      40.787  36.040  37.849  1.00  0.00     0.020 A 
ATOM     94  C   UNL A   1      39.972  35.761  38.948  1.00  0.00     0.054 A 
BRANCH  94  95
ATOM     95  S   UNL A   1      39.893  36.915  40.343  1.00  0.00     0.124 S 
ATOM     96  O   UNL A   1      40.485  38.121  39.771  1.00  0.00    -0.237 OA
ATOM     97  O   UNL A   1      38.460  36.988  40.620  1.00  0.00    -0.237 OA
ATOM     98  O   UNL A   1      40.688  36.260  41.379  1.00  0.00    -0.744 OA
ENDBRANCH  94  95
ENDBRANCH  68  89
ENDBRANCH  42  43
ENDBRANCH  34  37
ENDBRANCH  32  33
ENDBRANCH  31  32
ENDBRANCH   1  31
TORSDOF 18
ENDMDL
