MODEL 1
REMARK VINA RESULT:     -10.3      0.000      0.000
REMARK SMILES COc1nc(Cl)nc(N(CC(=O)NCCCNC(=O)c2ccc(-c3c4nc(c(-c5ccc(S(=O)(=O)[O-])cc5)c5ccc([nH]5)c(-c5ccc(S(=O)(=O)[O-])cc5)c5nc(c(-c6ccc(S(=O)(=O)[O-])cc6)c6ccc3[nH]6)C=C5)C=C4)cc2)C(C)(C)C)n1
REMARK SMILES IDX 15 1 14 2 13 3 11 4 12 5 10 7 9 8 8 9 3 10 4 11 84 12 5 13
REMARK SMILES IDX 6 14 7 15 2 16 1 17 80 18 81 19 82 20 83 21 16 22 17 23
REMARK SMILES IDX 18 24 19 26 20 27 21 28 79 29 22 30 78 31 23 32 24 33 25 34
REMARK SMILES IDX 72 35 26 36 77 37 71 38 73 39 27 40 76 41 70 42 69 43 28 45
REMARK SMILES IDX 58 46 39 47 57 48 40 49 43 50 56 51 74 52 41 53 42 54 55 56
REMARK SMILES IDX 75 57 44 58 29 59 30 60 38 61 31 62 37 63 32 64 33 65 34 66
REMARK SMILES IDX 35 67 36 68 59 69 60 70 68 71 61 72 67 73 62 74 63 75 64 76
REMARK SMILES IDX 65 77 66 78 45 79 46 80 54 81 47 82 53 83 48 84 49 85 50 86
REMARK SMILES IDX 51 87 52 88
REMARK H PARENT 13 6 17 25 73 44 43 55
REMARK Flexibility Score: inf
ROOT
ATOM      1  C   UNL A   1      33.456  27.597  26.628  1.00  0.00     0.042 C 
ENDROOT
BRANCH   1   2
ATOM      2  C   UNL A   1      32.009  27.208  26.348  1.00  0.00     0.117 C 
BRANCH   2   3
ATOM      3  N   UNL A   1      31.604  25.984  27.008  1.00  0.00    -0.354 N 
ATOM      4  C   UNL A   1      31.257  24.780  26.466  1.00  0.00     0.239 C 
ATOM      5  O   UNL A   1      31.111  23.829  27.241  1.00  0.00    -0.273 OA
ATOM      6  H   UNL A   1      31.577  26.026  27.991  1.00  0.00     0.163 HD
BRANCH   4   7
ATOM      7  C   UNL A   1      31.116  24.597  24.949  1.00  0.00     0.220 C 
BRANCH   7   8
ATOM      8  N   UNL A   1      32.391  24.696  24.210  1.00  0.00    -0.326 N 
BRANCH   8   9
ATOM      9  C   UNL A   1      33.394  23.806  24.591  1.00  0.00     0.233 A 
ATOM     10  C   UNL A   1      34.173  21.687  24.848  1.00  0.00     0.322 A 
ATOM     11  N   UNL A   1      35.333  22.056  25.356  1.00  0.00    -0.164 NA
ATOM     12  N   UNL A   1      33.205  22.504  24.443  1.00  0.00    -0.158 NA
ATOM     13  C   UNL A   1      35.430  23.368  25.430  1.00  0.00     0.230 A 
ATOM     14  Cl  UNL A   1      36.905  23.980  26.040  1.00  0.00    -0.041 Cl
ATOM     15  N   UNL A   1      34.528  24.280  25.088  1.00  0.00    -0.182 NA
BRANCH  10  16
ATOM     16  O   UNL A   1      33.904  20.349  24.667  1.00  0.00    -0.467 OA
ATOM     17  C   UNL A   1      32.511  20.065  24.721  1.00  0.00     0.282 C 
ENDBRANCH  10  16
ENDBRANCH   8   9
BRANCH   8  18
ATOM     18  C   UNL A   1      32.522  25.509  22.957  1.00  0.00     0.035 C 
ATOM     19  C   UNL A   1      32.878  24.611  21.756  1.00  0.00     0.034 C 
ATOM     20  C   UNL A   1      31.226  26.308  22.680  1.00  0.00     0.034 C 
ATOM     21  C   UNL A   1      33.644  26.572  23.035  1.00  0.00     0.034 C 
ENDBRANCH   8  18
ENDBRANCH   7   8
ENDBRANCH   4   7
ENDBRANCH   2   3
ENDBRANCH   1   2
BRANCH   1  22
ATOM     22  C   UNL A   1      33.934  28.845  25.885  1.00  0.00     0.118 C 
BRANCH  22  23
ATOM     23  N   UNL A   1      33.688  30.069  26.634  1.00  0.00    -0.352 N 
ATOM     24  C   UNL A   1      34.396  30.644  27.657  1.00  0.00     0.251 C 
ATOM     25  H   UNL A   1      32.881  30.563  26.360  1.00  0.00     0.163 HD
ATOM     26  O   UNL A   1      33.893  31.585  28.272  1.00  0.00    -0.269 OA
BRANCH  24  27
ATOM     27  C   UNL A   1      35.739  30.152  28.040  1.00  0.00     0.039 A 
ATOM     28  C   UNL A   1      36.741  30.121  27.064  1.00  0.00     0.014 A 
ATOM     29  C   UNL A   1      36.007  29.665  29.323  1.00  0.00     0.014 A 
ATOM     30  C   UNL A   1      38.017  29.655  27.386  1.00  0.00     0.010 A 
ATOM     31  C   UNL A   1      37.299  29.253  29.660  1.00  0.00     0.010 A 
ATOM     32  C   UNL A   1      38.316  29.240  28.694  1.00  0.00    -0.014 A 
BRANCH  32  33
ATOM     33  C   UNL A   1      39.695  28.826  29.060  1.00  0.00     0.031 A 
ATOM     34  C   UNL A   1      40.627  29.770  29.768  1.00  0.00     0.074 A 
ATOM     35  C   UNL A   1      40.129  27.600  28.705  1.00  0.00     0.049 A 
ATOM     36  N   UNL A   1      41.854  29.563  30.178  1.00  0.00    -0.248 NA
ATOM     37  C   UNL A   1      40.127  31.127  30.031  1.00  0.00     0.031 C 
ATOM     38  C   UNL A   1      39.347  26.612  27.959  1.00  0.00     0.029 A 
ATOM     39  N   UNL A   1      41.332  26.979  28.922  1.00  0.00    -0.354 N 
ATOM     40  C   UNL A   1      42.279  30.765  30.730  1.00  0.00     0.074 A 
ATOM     41  C   UNL A   1      41.192  31.707  30.567  1.00  0.00     0.031 C 
ATOM     42  C   UNL A   1      40.083  25.501  27.800  1.00  0.00     0.029 A 
ATOM     43  C   UNL A   1      41.393  25.705  28.410  1.00  0.00     0.049 A 
ATOM     44  H   UNL A   1      42.081  27.405  29.398  1.00  0.00     0.167 HD
ATOM     45  C   UNL A   1      43.460  31.056  31.330  1.00  0.00     0.031 A 
ATOM     46  C   UNL A   1      42.388  24.796  28.430  1.00  0.00     0.031 A 
ATOM     47  C   UNL A   1      44.541  30.119  31.494  1.00  0.00     0.049 A 
ATOM     48  C   UNL A   1      43.673  25.125  29.131  1.00  0.00     0.074 A 
ATOM     49  C   UNL A   1      45.745  30.298  32.154  1.00  0.00     0.029 A 
ATOM     50  N   UNL A   1      44.554  28.829  30.984  1.00  0.00    -0.354 N 
ATOM     51  N   UNL A   1      44.021  26.239  29.729  1.00  0.00    -0.248 NA
ATOM     52  C   UNL A   1      44.692  24.068  29.175  1.00  0.00     0.031 C 
ATOM     53  C   UNL A   1      46.505  29.131  32.005  1.00  0.00     0.029 A 
ATOM     54  C   UNL A   1      45.755  28.209  31.291  1.00  0.00     0.049 A 
ATOM     55  H   UNL A   1      43.818  28.415  30.478  1.00  0.00     0.167 HD
ATOM     56  C   UNL A   1      45.299  26.014  30.230  1.00  0.00     0.074 A 
ATOM     57  C   UNL A   1      45.650  24.650  29.884  1.00  0.00     0.031 C 
ATOM     58  C   UNL A   1      46.106  26.861  30.917  1.00  0.00     0.031 A 
BRANCH  45  59
ATOM     59  C   UNL A   1      43.643  32.463  31.836  1.00  0.00    -0.014 A 
ATOM     60  C   UNL A   1      43.330  32.805  33.166  1.00  0.00     0.010 A 
ATOM     61  C   UNL A   1      44.135  33.459  30.973  1.00  0.00     0.010 A 
ATOM     62  C   UNL A   1      43.448  34.127  33.603  1.00  0.00     0.020 A 
ATOM     63  C   UNL A   1      44.278  34.778  31.415  1.00  0.00     0.020 A 
ATOM     64  C   UNL A   1      43.909  35.108  32.721  1.00  0.00     0.054 A 
BRANCH  64  65
ATOM     65  S   UNL A   1      44.035  36.820  33.305  1.00  0.00     0.124 S 
ATOM     66  O   UNL A   1      42.742  37.009  33.960  1.00  0.00    -0.237 OA
ATOM     67  O   UNL A   1      45.189  36.775  34.199  1.00  0.00    -0.237 OA
ATOM     68  O   UNL A   1      44.231  37.591  32.079  1.00  0.00    -0.744 OA
ENDBRANCH  64  65
ENDBRANCH  45  59
BRANCH  46  69
ATOM     69  C   UNL A   1      42.172  23.474  27.787  1.00  0.00    -0.014 A 
ATOM     70  C   UNL A   1      42.573  23.254  26.459  1.00  0.00     0.010 A 
ATOM     71  C   UNL A   1      41.631  22.407  28.528  1.00  0.00     0.010 A 
ATOM     72  C   UNL A   1      42.447  21.987  25.883  1.00  0.00     0.020 A 
ATOM     73  C   UNL A   1      41.522  21.134  27.962  1.00  0.00     0.020 A 
ATOM     74  C   UNL A   1      41.930  20.932  26.641  1.00  0.00     0.054 A 
BRANCH  74  75
ATOM     75  S   UNL A   1      41.874  19.272  25.912  1.00  0.00     0.124 S 
ATOM     76  O   UNL A   1      42.299  18.434  27.029  1.00  0.00    -0.237 OA
ATOM     77  O   UNL A   1      40.472  19.143  25.523  1.00  0.00    -0.237 OA
ATOM     78  O   UNL A   1      42.814  19.357  24.797  1.00  0.00    -0.744 OA
ENDBRANCH  74  75
ENDBRANCH  46  69
BRANCH  58  79
ATOM     79  C   UNL A   1      47.451  26.332  31.336  1.00  0.00    -0.014 A 
ATOM     80  C   UNL A   1      48.568  26.440  30.489  1.00  0.00     0.010 A 
ATOM     81  C   UNL A   1      47.603  25.734  32.600  1.00  0.00     0.010 A 
ATOM     82  C   UNL A   1      49.805  25.921  30.880  1.00  0.00     0.020 A 
ATOM     83  C   UNL A   1      48.845  25.236  33.005  1.00  0.00     0.020 A 
ATOM     84  C   UNL A   1      49.933  25.315  32.133  1.00  0.00     0.054 A 
BRANCH  84  85
ATOM     85  S   UNL A   1      51.550  24.658  32.629  1.00  0.00     0.124 S 
ATOM     86  O   UNL A   1      51.370  23.223  32.423  1.00  0.00    -0.237 OA
ATOM     87  O   UNL A   1      52.466  25.315  31.699  1.00  0.00    -0.237 OA
ATOM     88  O   UNL A   1      51.681  25.077  34.022  1.00  0.00    -0.744 OA
ENDBRANCH  84  85
ENDBRANCH  58  79
ENDBRANCH  32  33
ENDBRANCH  24  27
ENDBRANCH  22  23
ENDBRANCH   1  22
TORSDOF 17
ENDMDL
MODEL 2
REMARK VINA RESULT:     -10.3      2.984      9.442
REMARK SMILES COc1nc(Cl)nc(N(CC(=O)NCCCNC(=O)c2ccc(-c3c4nc(c(-c5ccc(S(=O)(=O)[O-])cc5)c5ccc([nH]5)c(-c5ccc(S(=O)(=O)[O-])cc5)c5nc(c(-c6ccc(S(=O)(=O)[O-])cc6)c6ccc3[nH]6)C=C5)C=C4)cc2)C(C)(C)C)n1
REMARK SMILES IDX 15 1 14 2 13 3 11 4 12 5 10 7 9 8 8 9 3 10 4 11 84 12 5 13
REMARK SMILES IDX 6 14 7 15 2 16 1 17 80 18 81 19 82 20 83 21 16 22 17 23
REMARK SMILES IDX 18 24 19 26 20 27 21 28 79 29 22 30 78 31 23 32 24 33 25 34
REMARK SMILES IDX 72 35 26 36 77 37 71 38 73 39 27 40 76 41 70 42 69 43 28 45
REMARK SMILES IDX 58 46 39 47 57 48 40 49 43 50 56 51 74 52 41 53 42 54 55 56
REMARK SMILES IDX 75 57 44 58 29 59 30 60 38 61 31 62 37 63 32 64 33 65 34 66
REMARK SMILES IDX 35 67 36 68 59 69 60 70 68 71 61 72 67 73 62 74 63 75 64 76
REMARK SMILES IDX 65 77 66 78 45 79 46 80 54 81 47 82 53 83 48 84 49 85 50 86
REMARK SMILES IDX 51 87 52 88
REMARK H PARENT 13 6 17 25 73 44 43 55
REMARK Flexibility Score: inf
ROOT
ATOM      1  C   UNL A   1      35.885  23.110  24.064  1.00  0.00     0.042 C 
ENDROOT
BRANCH   1   2
ATOM      2  C   UNL A   1      34.570  23.880  24.050  1.00  0.00     0.117 C 
BRANCH   2   3
ATOM      3  N   UNL A   1      34.464  24.816  22.949  1.00  0.00    -0.354 N 
ATOM      4  C   UNL A   1      33.353  25.397  22.409  1.00  0.00     0.239 C 
ATOM      5  O   UNL A   1      33.529  26.297  21.581  1.00  0.00    -0.273 OA
ATOM      6  H   UNL A   1      35.317  25.071  22.531  1.00  0.00     0.163 HD
BRANCH   4   7
ATOM      7  C   UNL A   1      31.942  24.996  22.858  1.00  0.00     0.220 C 
BRANCH   7   8
ATOM      8  N   UNL A   1      31.506  25.636  24.115  1.00  0.00    -0.326 N 
BRANCH   8   9
ATOM      9  C   UNL A   1      31.217  26.997  24.045  1.00  0.00     0.233 A 
ATOM     10  C   UNL A   1      31.661  29.152  24.615  1.00  0.00     0.322 A 
ATOM     11  N   UNL A   1      30.649  29.658  23.938  1.00  0.00    -0.164 NA
ATOM     12  N   UNL A   1      31.989  27.865  24.682  1.00  0.00    -0.158 NA
ATOM     13  C   UNL A   1      29.968  28.716  23.317  1.00  0.00     0.230 A 
ATOM     14  Cl  UNL A   1      28.646  29.242  22.370  1.00  0.00    -0.041 Cl
ATOM     15  N   UNL A   1      30.177  27.405  23.331  1.00  0.00    -0.182 NA
BRANCH  10  16
ATOM     16  O   UNL A   1      32.505  29.992  25.306  1.00  0.00    -0.467 OA
ATOM     17  C   UNL A   1      31.977  30.371  26.571  1.00  0.00     0.282 C 
ENDBRANCH  10  16
ENDBRANCH   8   9
BRANCH   8  18
ATOM     18  C   UNL A   1      31.138  24.835  25.328  1.00  0.00     0.035 C 
ATOM     19  C   UNL A   1      29.856  25.389  25.982  1.00  0.00     0.034 C 
ATOM     20  C   UNL A   1      30.969  23.339  24.971  1.00  0.00     0.034 C 
ATOM     21  C   UNL A   1      32.222  24.868  26.432  1.00  0.00     0.034 C 
ENDBRANCH   8  18
ENDBRANCH   7   8
ENDBRANCH   4   7
ENDBRANCH   2   3
ENDBRANCH   1   2
BRANCH   1  22
ATOM     22  C   UNL A   1      36.954  23.695  24.987  1.00  0.00     0.118 C 
BRANCH  22  23
ATOM     23  N   UNL A   1      37.912  22.696  25.437  1.00  0.00    -0.352 N 
ATOM     24  C   UNL A   1      39.078  22.835  26.144  1.00  0.00     0.251 C 
ATOM     25  H   UNL A   1      37.684  21.769  25.194  1.00  0.00     0.163 HD
ATOM     26  O   UNL A   1      39.829  21.864  26.246  1.00  0.00    -0.269 OA
BRANCH  24  27
ATOM     27  C   UNL A   1      39.453  24.121  26.772  1.00  0.00     0.039 A 
ATOM     28  C   UNL A   1      39.002  24.386  28.069  1.00  0.00     0.014 A 
ATOM     29  C   UNL A   1      40.185  25.092  26.082  1.00  0.00     0.014 A 
ATOM     30  C   UNL A   1      39.327  25.593  28.691  1.00  0.00     0.010 A 
ATOM     31  C   UNL A   1      40.559  26.275  26.725  1.00  0.00     0.010 A 
ATOM     32  C   UNL A   1      40.131  26.540  28.034  1.00  0.00    -0.014 A 
BRANCH  32  33
ATOM     33  C   UNL A   1      40.550  27.786  28.726  1.00  0.00     0.031 A 
ATOM     34  C   UNL A   1      41.916  27.910  29.342  1.00  0.00     0.074 A 
ATOM     35  C   UNL A   1      39.670  28.801  28.842  1.00  0.00     0.049 A 
ATOM     36  N   UNL A   1      42.449  28.933  29.963  1.00  0.00    -0.248 NA
ATOM     37  C   UNL A   1      42.788  26.729  29.271  1.00  0.00     0.031 C 
ATOM     38  C   UNL A   1      38.293  28.784  28.346  1.00  0.00     0.029 A 
ATOM     39  N   UNL A   1      39.803  30.039  29.416  1.00  0.00    -0.354 N 
ATOM     40  C   UNL A   1      43.710  28.515  30.373  1.00  0.00     0.074 A 
ATOM     41  C   UNL A   1      43.844  27.132  29.963  1.00  0.00     0.031 C 
ATOM     42  C   UNL A   1      37.715  29.964  28.617  1.00  0.00     0.029 A 
ATOM     43  C   UNL A   1      38.670  30.811  29.326  1.00  0.00     0.049 A 
ATOM     44  H   UNL A   1      40.631  30.345  29.853  1.00  0.00     0.167 HD
ATOM     45  C   UNL A   1      44.672  29.218  31.018  1.00  0.00     0.031 A 
ATOM     46  C   UNL A   1      38.422  32.063  29.758  1.00  0.00     0.031 A 
ATOM     47  C   UNL A   1      44.539  30.593  31.425  1.00  0.00     0.049 A 
ATOM     48  C   UNL A   1      39.513  32.838  30.437  1.00  0.00     0.074 A 
ATOM     49  C   UNL A   1      45.485  31.414  32.016  1.00  0.00     0.029 A 
ATOM     50  N   UNL A   1      43.384  31.350  31.292  1.00  0.00    -0.354 N 
ATOM     51  N   UNL A   1      40.731  32.454  30.734  1.00  0.00    -0.248 NA
ATOM     52  C   UNL A   1      39.200  34.220  30.824  1.00  0.00     0.031 C 
ATOM     53  C   UNL A   1      44.887  32.652  32.281  1.00  0.00     0.029 A 
ATOM     54  C   UNL A   1      43.583  32.618  31.813  1.00  0.00     0.049 A 
ATOM     55  H   UNL A   1      42.545  31.031  30.886  1.00  0.00     0.167 HD
ATOM     56  C   UNL A   1      41.336  33.553  31.335  1.00  0.00     0.074 A 
ATOM     57  C   UNL A   1      40.355  34.620  31.339  1.00  0.00     0.031 C 
ATOM     58  C   UNL A   1      42.591  33.664  31.837  1.00  0.00     0.031 A 
BRANCH  45  59
ATOM     59  C   UNL A   1      45.953  28.492  31.341  1.00  0.00    -0.014 A 
ATOM     60  C   UNL A   1      46.114  27.808  32.561  1.00  0.00     0.010 A 
ATOM     61  C   UNL A   1      47.010  28.493  30.413  1.00  0.00     0.010 A 
ATOM     62  C   UNL A   1      47.329  27.192  32.871  1.00  0.00     0.020 A 
ATOM     63  C   UNL A   1      48.218  27.855  30.710  1.00  0.00     0.020 A 
ATOM     64  C   UNL A   1      48.379  27.231  31.948  1.00  0.00     0.054 A 
BRANCH  64  65
ATOM     65  S   UNL A   1      49.953  26.441  32.382  1.00  0.00     0.124 S 
ATOM     66  O   UNL A   1      50.883  27.110  31.475  1.00  0.00    -0.237 OA
ATOM     67  O   UNL A   1      50.106  26.774  33.795  1.00  0.00    -0.237 OA
ATOM     68  O   UNL A   1      49.718  25.026  32.101  1.00  0.00    -0.744 OA
ENDBRANCH  64  65
ENDBRANCH  45  59
BRANCH  46  69
ATOM     69  C   UNL A   1      37.083  32.660  29.517  1.00  0.00    -0.014 A 
ATOM     70  C   UNL A   1      36.125  32.699  30.544  1.00  0.00     0.010 A 
ATOM     71  C   UNL A   1      36.787  33.258  28.278  1.00  0.00     0.010 A 
ATOM     72  C   UNL A   1      34.898  33.334  30.342  1.00  0.00     0.020 A 
ATOM     73  C   UNL A   1      35.568  33.912  28.080  1.00  0.00     0.020 A 
ATOM     74  C   UNL A   1      34.630  33.945  29.113  1.00  0.00     0.054 A 
BRANCH  74  75
ATOM     75  S   UNL A   1      33.075  34.858  28.907  1.00  0.00     0.124 S 
ATOM     76  O   UNL A   1      33.545  36.157  28.437  1.00  0.00    -0.237 OA
ATOM     77  O   UNL A   1      32.361  34.049  27.922  1.00  0.00    -0.237 OA
ATOM     78  O   UNL A   1      32.493  34.847  30.246  1.00  0.00    -0.744 OA
ENDBRANCH  74  75
ENDBRANCH  46  69
BRANCH  58  79
ATOM     79  C   UNL A   1      42.971  34.993  32.434  1.00  0.00    -0.014 A 
ATOM     80  C   UNL A   1      42.691  35.289  33.780  1.00  0.00     0.010 A 
ATOM     81  C   UNL A   1      43.632  35.951  31.643  1.00  0.00     0.010 A 
ATOM     82  C   UNL A   1      43.025  36.537  34.314  1.00  0.00     0.020 A 
ATOM     83  C   UNL A   1      43.990  37.191  32.181  1.00  0.00     0.020 A 
ATOM     84  C   UNL A   1      43.666  37.482  33.508  1.00  0.00     0.054 A 
BRANCH  84  85
ATOM     85  S   UNL A   1      44.104  39.092  34.222  1.00  0.00     0.124 S 
ATOM     86  O   UNL A   1      45.373  39.382  33.559  1.00  0.00    -0.237 OA
ATOM     87  O   UNL A   1      42.980  39.939  33.825  1.00  0.00    -0.237 OA
ATOM     88  O   UNL A   1      44.195  38.821  35.654  1.00  0.00    -0.744 OA
ENDBRANCH  84  85
ENDBRANCH  58  79
ENDBRANCH  32  33
ENDBRANCH  24  27
ENDBRANCH  22  23
ENDBRANCH   1  22
TORSDOF 17
ENDMDL
MODEL 3
REMARK VINA RESULT:     -10.2      2.881      9.362
REMARK SMILES COc1nc(Cl)nc(N(CC(=O)NCCCNC(=O)c2ccc(-c3c4nc(c(-c5ccc(S(=O)(=O)[O-])cc5)c5ccc([nH]5)c(-c5ccc(S(=O)(=O)[O-])cc5)c5nc(c(-c6ccc(S(=O)(=O)[O-])cc6)c6ccc3[nH]6)C=C5)C=C4)cc2)C(C)(C)C)n1
REMARK SMILES IDX 15 1 14 2 13 3 11 4 12 5 10 7 9 8 8 9 3 10 4 11 84 12 5 13
REMARK SMILES IDX 6 14 7 15 2 16 1 17 80 18 81 19 82 20 83 21 16 22 17 23
REMARK SMILES IDX 18 24 19 26 20 27 21 28 79 29 22 30 78 31 23 32 24 33 25 34
REMARK SMILES IDX 72 35 26 36 77 37 71 38 73 39 27 40 76 41 70 42 69 43 28 45
REMARK SMILES IDX 58 46 39 47 57 48 40 49 43 50 56 51 74 52 41 53 42 54 55 56
REMARK SMILES IDX 75 57 44 58 29 59 30 60 38 61 31 62 37 63 32 64 33 65 34 66
REMARK SMILES IDX 35 67 36 68 59 69 60 70 68 71 61 72 67 73 62 74 63 75 64 76
REMARK SMILES IDX 65 77 66 78 45 79 46 80 54 81 47 82 53 83 48 84 49 85 50 86
REMARK SMILES IDX 51 87 52 88
REMARK H PARENT 13 6 17 25 73 44 43 55
REMARK Flexibility Score: inf
ROOT
ATOM      1  C   UNL A   1      35.180  22.885  26.230  1.00  0.00     0.042 C 
ENDROOT
BRANCH   1   2
ATOM      2  C   UNL A   1      33.999  23.238  25.332  1.00  0.00     0.117 C 
BRANCH   2   3
ATOM      3  N   UNL A   1      32.867  23.778  26.057  1.00  0.00    -0.354 N 
ATOM      4  C   UNL A   1      32.550  25.078  26.325  1.00  0.00     0.239 C 
ATOM      5  O   UNL A   1      31.439  25.302  26.818  1.00  0.00    -0.273 OA
ATOM      6  H   UNL A   1      32.235  23.110  26.407  1.00  0.00     0.163 HD
BRANCH   4   7
ATOM      7  C   UNL A   1      33.505  26.224  25.968  1.00  0.00     0.220 C 
BRANCH   7   8
ATOM      8  N   UNL A   1      32.825  27.466  25.547  1.00  0.00    -0.326 N 
BRANCH   8   9
ATOM      9  C   UNL A   1      32.092  27.394  24.364  1.00  0.00     0.233 A 
ATOM     10  C   UNL A   1      31.863  26.705  22.210  1.00  0.00     0.322 A 
ATOM     11  N   UNL A   1      30.683  27.269  22.037  1.00  0.00    -0.164 NA
ATOM     12  N   UNL A   1      32.578  26.723  23.331  1.00  0.00    -0.158 NA
ATOM     13  C   UNL A   1      30.278  27.881  23.132  1.00  0.00     0.230 A 
ATOM     14  Cl  UNL A   1      28.741  28.625  23.054  1.00  0.00    -0.041 Cl
ATOM     15  N   UNL A   1      30.911  27.993  24.294  1.00  0.00    -0.182 NA
BRANCH  10  16
ATOM     16  O   UNL A   1      32.435  25.994  21.180  1.00  0.00    -0.467 OA
ATOM     17  C   UNL A   1      33.033  24.782  21.623  1.00  0.00     0.282 C 
ENDBRANCH  10  16
ENDBRANCH   8   9
BRANCH   8  18
ATOM     18  C   UNL A   1      32.702  28.652  26.456  1.00  0.00     0.035 C 
ATOM     19  C   UNL A   1      33.999  28.861  27.262  1.00  0.00     0.034 C 
ATOM     20  C   UNL A   1      32.342  29.926  25.655  1.00  0.00     0.034 C 
ATOM     21  C   UNL A   1      31.574  28.500  27.505  1.00  0.00     0.034 C 
ENDBRANCH   8  18
ENDBRANCH   7   8
ENDBRANCH   4   7
ENDBRANCH   2   3
ENDBRANCH   1   2
BRANCH   1  22
ATOM     22  C   UNL A   1      36.504  23.531  25.821  1.00  0.00     0.118 C 
BRANCH  22  23
ATOM     23  N   UNL A   1      37.635  22.627  25.971  1.00  0.00    -0.352 N 
ATOM     24  C   UNL A   1      38.927  22.875  26.357  1.00  0.00     0.251 C 
ATOM     25  H   UNL A   1      37.441  21.685  25.760  1.00  0.00     0.163 HD
ATOM     26  O   UNL A   1      39.767  21.984  26.225  1.00  0.00    -0.269 OA
BRANCH  24  27
ATOM     27  C   UNL A   1      39.330  24.186  26.914  1.00  0.00     0.039 A 
ATOM     28  C   UNL A   1      38.954  24.496  28.225  1.00  0.00     0.014 A 
ATOM     29  C   UNL A   1      40.014  25.134  26.148  1.00  0.00     0.014 A 
ATOM     30  C   UNL A   1      39.307  25.727  28.782  1.00  0.00     0.010 A 
ATOM     31  C   UNL A   1      40.417  26.341  26.724  1.00  0.00     0.010 A 
ATOM     32  C   UNL A   1      40.064  26.652  28.045  1.00  0.00    -0.014 A 
BRANCH  32  33
ATOM     33  C   UNL A   1      40.516  27.925  28.665  1.00  0.00     0.031 A 
ATOM     34  C   UNL A   1      41.916  28.079  29.191  1.00  0.00     0.074 A 
ATOM     35  C   UNL A   1      39.636  28.938  28.799  1.00  0.00     0.049 A 
ATOM     36  N   UNL A   1      42.478  29.126  29.741  1.00  0.00    -0.248 NA
ATOM     37  C   UNL A   1      42.791  26.901  29.109  1.00  0.00     0.031 C 
ATOM     38  C   UNL A   1      38.232  28.895  28.390  1.00  0.00     0.029 A 
ATOM     39  N   UNL A   1      39.794  30.197  29.320  1.00  0.00    -0.354 N 
ATOM     40  C   UNL A   1      43.764  28.730  30.087  1.00  0.00     0.074 A 
ATOM     41  C   UNL A   1      43.885  27.335  29.719  1.00  0.00     0.031 C 
ATOM     42  C   UNL A   1      37.662  30.081  28.654  1.00  0.00     0.029 A 
ATOM     43  C   UNL A   1      38.652  30.959  29.272  1.00  0.00     0.049 A 
ATOM     44  H   UNL A   1      40.645  30.523  29.693  1.00  0.00     0.167 HD
ATOM     45  C   UNL A   1      44.759  29.462  30.647  1.00  0.00     0.031 A 
ATOM     46  C   UNL A   1      38.421  32.223  29.674  1.00  0.00     0.031 A 
ATOM     47  C   UNL A   1      44.640  30.850  31.011  1.00  0.00     0.049 A 
ATOM     48  C   UNL A   1      39.545  33.029  30.257  1.00  0.00     0.074 A 
ATOM     49  C   UNL A   1      45.614  31.697  31.514  1.00  0.00     0.029 A 
ATOM     50  N   UNL A   1      43.473  31.595  30.923  1.00  0.00    -0.354 N 
ATOM     51  N   UNL A   1      40.782  32.663  30.491  1.00  0.00    -0.248 NA
ATOM     52  C   UNL A   1      39.245  34.422  30.613  1.00  0.00     0.031 C 
ATOM     53  C   UNL A   1      45.024  32.941  31.771  1.00  0.00     0.029 A 
ATOM     54  C   UNL A   1      43.694  32.882  31.385  1.00  0.00     0.049 A 
ATOM     55  H   UNL A   1      42.614  31.257  30.582  1.00  0.00     0.167 HD
ATOM     56  C   UNL A   1      41.414  33.786  31.014  1.00  0.00     0.074 A 
ATOM     57  C   UNL A   1      40.427  34.847  31.040  1.00  0.00     0.031 C 
ATOM     58  C   UNL A   1      42.697  33.923  31.434  1.00  0.00     0.031 A 
BRANCH  45  59
ATOM     59  C   UNL A   1      46.063  28.756  30.915  1.00  0.00    -0.014 A 
ATOM     60  C   UNL A   1      47.082  28.717  29.945  1.00  0.00     0.010 A 
ATOM     61  C   UNL A   1      46.274  28.123  32.153  1.00  0.00     0.010 A 
ATOM     62  C   UNL A   1      48.262  28.006  30.186  1.00  0.00     0.020 A 
ATOM     63  C   UNL A   1      47.463  27.433  32.407  1.00  0.00     0.020 A 
ATOM     64  C   UNL A   1      48.439  27.357  31.411  1.00  0.00     0.054 A 
BRANCH  64  65
ATOM     65  S   UNL A   1      49.969  26.425  31.694  1.00  0.00     0.124 S 
ATOM     66  O   UNL A   1      50.287  26.783  33.074  1.00  0.00    -0.237 OA
ATOM     67  O   UNL A   1      49.550  25.041  31.485  1.00  0.00    -0.237 OA
ATOM     68  O   UNL A   1      50.886  26.953  30.685  1.00  0.00    -0.744 OA
ENDBRANCH  64  65
ENDBRANCH  45  59
BRANCH  46  69
ATOM     69  C   UNL A   1      37.064  32.803  29.495  1.00  0.00    -0.014 A 
ATOM     70  C   UNL A   1      36.209  32.968  30.597  1.00  0.00     0.010 A 
ATOM     71  C   UNL A   1      36.651  33.260  28.230  1.00  0.00     0.010 A 
ATOM     72  C   UNL A   1      34.968  33.590  30.442  1.00  0.00     0.020 A 
ATOM     73  C   UNL A   1      35.419  33.901  28.075  1.00  0.00     0.020 A 
ATOM     74  C   UNL A   1      34.584  34.060  29.183  1.00  0.00     0.054 A 
BRANCH  74  75
ATOM     75  S   UNL A   1      33.016  34.960  29.022  1.00  0.00     0.124 S 
ATOM     76  O   UNL A   1      32.492  34.905  30.383  1.00  0.00    -0.237 OA
ATOM     77  O   UNL A   1      33.452  36.278  28.565  1.00  0.00    -0.237 OA
ATOM     78  O   UNL A   1      32.276  34.183  28.032  1.00  0.00    -0.744 OA
ENDBRANCH  74  75
ENDBRANCH  46  69
BRANCH  58  79
ATOM     79  C   UNL A   1      43.102  35.274  31.959  1.00  0.00    -0.014 A 
ATOM     80  C   UNL A   1      42.919  35.611  33.312  1.00  0.00     0.010 A 
ATOM     81  C   UNL A   1      43.688  36.214  31.091  1.00  0.00     0.010 A 
ATOM     82  C   UNL A   1      43.275  36.878  33.780  1.00  0.00     0.020 A 
ATOM     83  C   UNL A   1      44.068  37.474  31.561  1.00  0.00     0.020 A 
ATOM     84  C   UNL A   1      43.840  37.805  32.899  1.00  0.00     0.054 A 
BRANCH  84  85
ATOM     85  S   UNL A   1      44.308  39.441  33.527  1.00  0.00     0.124 S 
ATOM     86  O   UNL A   1      44.994  39.103  34.772  1.00  0.00    -0.237 OA
ATOM     87  O   UNL A   1      45.162  39.965  32.463  1.00  0.00    -0.237 OA
ATOM     88  O   UNL A   1      43.030  40.129  33.686  1.00  0.00    -0.744 OA
ENDBRANCH  84  85
ENDBRANCH  58  79
ENDBRANCH  32  33
ENDBRANCH  24  27
ENDBRANCH  22  23
ENDBRANCH   1  22
TORSDOF 17
ENDMDL
