MODEL 1
REMARK VINA RESULT:     -11.8      0.000      0.000
REMARK SMILES CCCc1c(C(=O)NCCCNC(=O)c2ccc(-c3c4nc(c(-c5ccc(S(=O)(=O)[O-])cc5)c5ccc([nH]5)c(-c5ccc(S(=O)(=O)[O-])cc5)c5nc(c(-c6ccc(S(=O)(=O)[O-])cc6)c6ccc3[nH]6)C=C5)C=C4)cc2)nnn1-c1ccccc1[N+](=O)[O-]
REMARK SMILES IDX 10 1 9 2 8 3 6 4 7 5 5 7 4 8 77 9 75 10 76 11 3 12 2 13 1 14
REMARK SMILES IDX 78 15 79 16 83 17 80 18 82 19 81 20 84 21 85 22 86 23 11 24
REMARK SMILES IDX 12 25 13 26 14 28 15 29 16 30 74 31 17 32 73 33 18 34 19 35
REMARK SMILES IDX 20 36 67 37 21 38 72 39 66 40 68 41 22 42 71 43 65 44 64 45
REMARK SMILES IDX 23 47 53 48 34 49 52 50 35 51 38 52 51 53 69 54 36 55 37 56
REMARK SMILES IDX 50 58 70 59 39 60 24 61 25 62 33 63 26 64 32 65 27 66 28 67
REMARK SMILES IDX 29 68 30 69 31 70 54 71 55 72 63 73 56 74 62 75 57 76 58 77
REMARK SMILES IDX 59 78 60 79 61 80 40 81 41 82 49 83 42 84 48 85 43 86 44 87
REMARK SMILES IDX 45 88 46 89 47 90
REMARK H PARENT 8 6 12 27 68 46 38 57
REMARK Flexibility Score: inf
ROOT
ATOM      1  C   UNL A   1      37.194  22.638  25.597  1.00  0.00     0.042 C 
ENDROOT
BRANCH   1   2
ATOM      2  C   UNL A   1      36.314  21.731  24.760  1.00  0.00     0.118 C 
BRANCH   2   3
ATOM      3  N   UNL A   1      35.413  20.828  25.402  1.00  0.00    -0.351 N 
ATOM      4  C   UNL A   1      34.044  20.779  25.215  1.00  0.00     0.273 C 
ATOM      5  O   UNL A   1      33.455  19.827  25.728  1.00  0.00    -0.267 OA
ATOM      6  H   UNL A   1      35.801  20.182  26.036  1.00  0.00     0.163 HD
BRANCH   4   7
ATOM      7  C   UNL A   1      33.296  21.844  24.516  1.00  0.00     0.174 A 
ATOM      8  C   UNL A   1      33.043  23.218  24.714  1.00  0.00     0.078 A 
ATOM      9  N   UNL A   1      32.202  23.531  23.633  1.00  0.00    -0.210 N 
ATOM     10  N   UNL A   1      32.616  21.437  23.385  1.00  0.00    -0.124 NA
ATOM     11  N   UNL A   1      31.881  22.430  22.938  1.00  0.00    -0.061 NA
BRANCH   8  12
ATOM     12  C   UNL A   1      33.305  24.234  25.798  1.00  0.00     0.059 C 
BRANCH  12  13
ATOM     13  C   UNL A   1      34.238  25.427  25.568  1.00  0.00     0.003 C 
ATOM     14  C   UNL A   1      33.675  26.831  25.654  1.00  0.00     0.004 C 
ENDBRANCH  12  13
ENDBRANCH   8  12
BRANCH   9  15
ATOM     15  C   UNL A   1      31.495  24.728  23.369  1.00  0.00     0.144 A 
ATOM     16  C   UNL A   1      30.263  24.911  24.020  1.00  0.00     0.036 A 
ATOM     17  C   UNL A   1      31.995  25.752  22.555  1.00  0.00     0.294 A 
ATOM     18  C   UNL A   1      29.594  26.134  23.921  1.00  0.00     0.003 A 
ATOM     19  C   UNL A   1      31.324  26.980  22.460  1.00  0.00     0.088 A 
ATOM     20  C   UNL A   1      30.131  27.171  23.158  1.00  0.00     0.007 A 
BRANCH  17  21
ATOM     21  N   UNL A   1      33.172  25.563  21.716  1.00  0.00     0.065 N 
ATOM     22  O   UNL A   1      34.105  26.363  21.869  1.00  0.00    -0.258 OA
ATOM     23  O   UNL A   1      33.157  24.626  20.910  1.00  0.00    -0.258 OA
ENDBRANCH  17  21
ENDBRANCH   9  15
ENDBRANCH   4   7
ENDBRANCH   2   3
ENDBRANCH   1   2
BRANCH   1  24
ATOM     24  C   UNL A   1      38.585  22.068  25.815  1.00  0.00     0.118 C 
BRANCH  24  25
ATOM     25  N   UNL A   1      38.725  20.616  25.622  1.00  0.00    -0.352 N 
ATOM     26  C   UNL A   1      39.875  19.847  25.854  1.00  0.00     0.251 C 
ATOM     27  H   UNL A   1      37.929  20.135  25.299  1.00  0.00     0.163 HD
ATOM     28  O   UNL A   1      39.949  18.684  25.556  1.00  0.00    -0.269 OA
BRANCH  26  29
ATOM     29  C   UNL A   1      41.004  20.568  26.492  1.00  0.00     0.039 A 
ATOM     30  C   UNL A   1      41.809  21.426  25.737  1.00  0.00     0.014 A 
ATOM     31  C   UNL A   1      40.909  20.693  27.864  1.00  0.00     0.014 A 
ATOM     32  C   UNL A   1      42.363  22.554  26.356  1.00  0.00     0.010 A 
ATOM     33  C   UNL A   1      41.272  21.909  28.399  1.00  0.00     0.010 A 
ATOM     34  C   UNL A   1      42.018  22.856  27.681  1.00  0.00    -0.014 A 
BRANCH  34  35
ATOM     35  C   UNL A   1      42.291  24.179  28.281  1.00  0.00     0.031 A 
ATOM     36  C   UNL A   1      41.329  25.317  28.055  1.00  0.00     0.074 A 
ATOM     37  C   UNL A   1      43.223  24.377  29.244  1.00  0.00     0.049 A 
ATOM     38  N   UNL A   1      41.576  26.454  27.482  1.00  0.00    -0.248 NA
ATOM     39  C   UNL A   1      39.945  25.201  28.537  1.00  0.00     0.031 C 
ATOM     40  C   UNL A   1      44.139  23.413  29.868  1.00  0.00     0.029 A 
ATOM     41  N   UNL A   1      43.427  25.495  29.994  1.00  0.00    -0.354 N 
ATOM     42  C   UNL A   1      40.448  27.260  27.655  1.00  0.00     0.074 A 
ATOM     43  C   UNL A   1      39.440  26.403  28.233  1.00  0.00     0.031 C 
ATOM     44  C   UNL A   1      44.532  23.872  31.072  1.00  0.00     0.029 A 
ATOM     45  C   UNL A   1      44.122  25.256  31.169  1.00  0.00     0.049 A 
ATOM     46  H   UNL A   1      43.111  26.388  29.729  1.00  0.00     0.167 HD
ATOM     47  C   UNL A   1      40.462  28.611  27.451  1.00  0.00     0.031 A 
ATOM     48  C   UNL A   1      44.400  26.131  32.157  1.00  0.00     0.031 A 
ATOM     49  C   UNL A   1      41.687  29.060  26.843  1.00  0.00     0.049 A 
ATOM     50  C   UNL A   1      44.396  27.477  31.547  1.00  0.00     0.074 A 
ATOM     51  C   UNL A   1      42.354  28.798  25.663  1.00  0.00     0.029 A 
ATOM     52  N   UNL A   1      42.614  29.670  27.658  1.00  0.00    -0.354 N 
ATOM     53  N   UNL A   1      45.235  27.830  30.610  1.00  0.00    -0.248 NA
ATOM     54  C   UNL A   1      43.207  28.305  31.655  1.00  0.00     0.031 C 
ATOM     55  C   UNL A   1      43.734  28.765  26.030  1.00  0.00     0.029 A 
ATOM     56  C   UNL A   1      43.814  29.059  27.395  1.00  0.00     0.049 A 
ATOM     57  H   UNL A   1      42.450  30.398  28.299  1.00  0.00     0.167 HD
ATOM     58  C   UNL A   1      44.498  28.626  29.747  1.00  0.00     0.074 A 
ATOM     59  C   UNL A   1      43.308  28.994  30.513  1.00  0.00     0.031 C 
ATOM     60  C   UNL A   1      44.782  28.687  28.410  1.00  0.00     0.031 A 
BRANCH  47  61
ATOM     61  C   UNL A   1      39.503  29.611  28.056  1.00  0.00    -0.014 A 
ATOM     62  C   UNL A   1      39.811  30.199  29.305  1.00  0.00     0.010 A 
ATOM     63  C   UNL A   1      38.193  29.792  27.572  1.00  0.00     0.010 A 
ATOM     64  C   UNL A   1      38.841  30.881  30.056  1.00  0.00     0.020 A 
ATOM     65  C   UNL A   1      37.228  30.504  28.297  1.00  0.00     0.020 A 
ATOM     66  C   UNL A   1      37.549  31.012  29.553  1.00  0.00     0.054 A 
BRANCH  66  67
ATOM     67  S   UNL A   1      36.270  31.781  30.585  1.00  0.00     0.124 S 
ATOM     68  O   UNL A   1      36.059  30.764  31.609  1.00  0.00    -0.237 OA
ATOM     69  O   UNL A   1      36.923  33.007  31.036  1.00  0.00    -0.237 OA
ATOM     70  O   UNL A   1      35.157  31.979  29.658  1.00  0.00    -0.744 OA
ENDBRANCH  66  67
ENDBRANCH  47  61
BRANCH  48  71
ATOM     71  C   UNL A   1      44.399  25.829  33.603  1.00  0.00    -0.014 A 
ATOM     72  C   UNL A   1      45.570  25.457  34.277  1.00  0.00     0.010 A 
ATOM     73  C   UNL A   1      43.257  26.137  34.380  1.00  0.00     0.010 A 
ATOM     74  C   UNL A   1      45.614  25.444  35.681  1.00  0.00     0.020 A 
ATOM     75  C   UNL A   1      43.292  26.120  35.777  1.00  0.00     0.020 A 
ATOM     76  C   UNL A   1      44.481  25.796  36.421  1.00  0.00     0.054 A 
BRANCH  76  77
ATOM     77  S   UNL A   1      44.610  25.955  38.226  1.00  0.00     0.124 S 
ATOM     78  O   UNL A   1      43.237  26.269  38.608  1.00  0.00    -0.237 OA
ATOM     79  O   UNL A   1      45.092  24.635  38.625  1.00  0.00    -0.237 OA
ATOM     80  O   UNL A   1      45.572  27.041  38.408  1.00  0.00    -0.744 OA
ENDBRANCH  76  77
ENDBRANCH  48  71
BRANCH  60  81
ATOM     81  C   UNL A   1      46.055  28.033  27.902  1.00  0.00    -0.014 A 
ATOM     82  C   UNL A   1      47.254  28.748  27.710  1.00  0.00     0.010 A 
ATOM     83  C   UNL A   1      46.102  26.630  27.807  1.00  0.00     0.010 A 
ATOM     84  C   UNL A   1      48.457  28.090  27.415  1.00  0.00     0.020 A 
ATOM     85  C   UNL A   1      47.303  25.964  27.528  1.00  0.00     0.020 A 
ATOM     86  C   UNL A   1      48.474  26.697  27.329  1.00  0.00     0.054 A 
BRANCH  86  87
ATOM     87  S   UNL A   1      50.050  25.851  27.020  1.00  0.00     0.124 S 
ATOM     88  O   UNL A   1      50.184  25.947  25.569  1.00  0.00    -0.237 OA
ATOM     89  O   UNL A   1      51.005  26.645  27.792  1.00  0.00    -0.237 OA
ATOM     90  O   UNL A   1      49.826  24.500  27.533  1.00  0.00    -0.744 OA
ENDBRANCH  86  87
ENDBRANCH  60  81
ENDBRANCH  34  35
ENDBRANCH  26  29
ENDBRANCH  24  25
ENDBRANCH   1  24
TORSDOF 17
ENDMDL
MODEL 2
REMARK VINA RESULT:     -11.6      3.257      7.812
REMARK SMILES CCCc1c(C(=O)NCCCNC(=O)c2ccc(-c3c4nc(c(-c5ccc(S(=O)(=O)[O-])cc5)c5ccc([nH]5)c(-c5ccc(S(=O)(=O)[O-])cc5)c5nc(c(-c6ccc(S(=O)(=O)[O-])cc6)c6ccc3[nH]6)C=C5)C=C4)cc2)nnn1-c1ccccc1[N+](=O)[O-]
REMARK SMILES IDX 10 1 9 2 8 3 6 4 7 5 5 7 4 8 77 9 75 10 76 11 3 12 2 13 1 14
REMARK SMILES IDX 78 15 79 16 83 17 80 18 82 19 81 20 84 21 85 22 86 23 11 24
REMARK SMILES IDX 12 25 13 26 14 28 15 29 16 30 74 31 17 32 73 33 18 34 19 35
REMARK SMILES IDX 20 36 67 37 21 38 72 39 66 40 68 41 22 42 71 43 65 44 64 45
REMARK SMILES IDX 23 47 53 48 34 49 52 50 35 51 38 52 51 53 69 54 36 55 37 56
REMARK SMILES IDX 50 58 70 59 39 60 24 61 25 62 33 63 26 64 32 65 27 66 28 67
REMARK SMILES IDX 29 68 30 69 31 70 54 71 55 72 63 73 56 74 62 75 57 76 58 77
REMARK SMILES IDX 59 78 60 79 61 80 40 81 41 82 49 83 42 84 48 85 43 86 44 87
REMARK SMILES IDX 45 88 46 89 47 90
REMARK H PARENT 8 6 12 27 68 46 38 57
REMARK Flexibility Score: inf
ROOT
ATOM      1  C   UNL A   1      37.596  20.996  24.812  1.00  0.00     0.042 C 
ENDROOT
BRANCH   1   2
ATOM      2  C   UNL A   1      36.113  21.225  24.601  1.00  0.00     0.118 C 
BRANCH   2   3
ATOM      3  N   UNL A   1      35.170  20.284  25.117  1.00  0.00    -0.351 N 
ATOM      4  C   UNL A   1      33.809  20.285  24.877  1.00  0.00     0.273 C 
ATOM      5  O   UNL A   1      33.182  19.301  25.271  1.00  0.00    -0.267 OA
ATOM      6  H   UNL A   1      35.521  19.570  25.696  1.00  0.00     0.163 HD
BRANCH   4   7
ATOM      7  C   UNL A   1      33.109  21.432  24.261  1.00  0.00     0.174 A 
ATOM      8  C   UNL A   1      32.960  22.808  24.533  1.00  0.00     0.078 A 
ATOM      9  N   UNL A   1      32.101  23.231  23.505  1.00  0.00    -0.210 N 
ATOM     10  N   UNL A   1      32.357  21.128  23.143  1.00  0.00    -0.124 NA
ATOM     11  N   UNL A   1      31.676  22.189  22.775  1.00  0.00    -0.061 NA
BRANCH   8  12
ATOM     12  C   UNL A   1      33.336  23.750  25.651  1.00  0.00     0.059 C 
BRANCH  12  13
ATOM     13  C   UNL A   1      33.998  23.244  26.936  1.00  0.00     0.003 C 
ATOM     14  C   UNL A   1      33.194  22.384  27.890  1.00  0.00     0.004 C 
ENDBRANCH  12  13
ENDBRANCH   8  12
BRANCH   9  15
ATOM     15  C   UNL A   1      31.469  24.484  23.328  1.00  0.00     0.144 A 
ATOM     16  C   UNL A   1      30.241  24.690  23.982  1.00  0.00     0.036 A 
ATOM     17  C   UNL A   1      32.038  25.536  22.600  1.00  0.00     0.294 A 
ATOM     18  C   UNL A   1      29.646  25.954  23.971  1.00  0.00     0.003 A 
ATOM     19  C   UNL A   1      31.442  26.805  22.594  1.00  0.00     0.088 A 
ATOM     20  C   UNL A   1      30.253  27.013  23.294  1.00  0.00     0.007 A 
BRANCH  17  21
ATOM     21  N   UNL A   1      33.212  25.341  21.758  1.00  0.00     0.065 N 
ATOM     22  O   UNL A   1      34.303  25.228  22.334  1.00  0.00    -0.258 OA
ATOM     23  O   UNL A   1      33.042  25.307  20.535  1.00  0.00    -0.258 OA
ENDBRANCH  17  21
ENDBRANCH   9  15
ENDBRANCH   4   7
ENDBRANCH   2   3
ENDBRANCH   1   2
BRANCH   1  24
ATOM     24  C   UNL A   1      38.220  22.015  25.748  1.00  0.00     0.118 C 
BRANCH  24  25
ATOM     25  N   UNL A   1      39.646  21.821  26.055  1.00  0.00    -0.352 N 
ATOM     26  C   UNL A   1      40.554  22.803  26.479  1.00  0.00     0.251 C 
ATOM     27  H   UNL A   1      39.999  20.907  25.954  1.00  0.00     0.163 HD
ATOM     28  O   UNL A   1      41.732  22.591  26.591  1.00  0.00    -0.269 OA
BRANCH  26  29
ATOM     29  C   UNL A   1      39.962  24.130  26.777  1.00  0.00     0.039 A 
ATOM     30  C   UNL A   1      39.438  24.399  28.045  1.00  0.00     0.014 A 
ATOM     31  C   UNL A   1      40.370  25.147  25.937  1.00  0.00     0.014 A 
ATOM     32  C   UNL A   1      39.520  25.705  28.547  1.00  0.00     0.010 A 
ATOM     33  C   UNL A   1      40.641  26.362  26.525  1.00  0.00     0.010 A 
ATOM     34  C   UNL A   1      40.213  26.684  27.822  1.00  0.00    -0.014 A 
BRANCH  34  35
ATOM     35  C   UNL A   1      40.621  27.968  28.429  1.00  0.00     0.031 A 
ATOM     36  C   UNL A   1      41.822  28.703  27.892  1.00  0.00     0.074 A 
ATOM     37  C   UNL A   1      39.832  28.670  29.277  1.00  0.00     0.049 A 
ATOM     38  N   UNL A   1      42.907  29.011  28.533  1.00  0.00    -0.248 NA
ATOM     39  C   UNL A   1      41.819  29.173  26.499  1.00  0.00     0.031 C 
ATOM     40  C   UNL A   1      38.491  28.349  29.786  1.00  0.00     0.029 A 
ATOM     41  N   UNL A   1      40.019  29.937  29.741  1.00  0.00    -0.354 N 
ATOM     42  C   UNL A   1      43.662  29.838  27.697  1.00  0.00     0.074 A 
ATOM     43  C   UNL A   1      42.984  29.828  26.422  1.00  0.00     0.031 C 
ATOM     44  C   UNL A   1      37.871  29.479  30.180  1.00  0.00     0.029 A 
ATOM     45  C   UNL A   1      38.859  30.534  30.209  1.00  0.00     0.049 A 
ATOM     46  H   UNL A   1      40.894  30.387  29.744  1.00  0.00     0.167 HD
ATOM     47  C   UNL A   1      44.709  30.592  28.147  1.00  0.00     0.031 A 
ATOM     48  C   UNL A   1      38.700  31.801  30.644  1.00  0.00     0.031 A 
ATOM     49  C   UNL A   1      45.068  30.276  29.504  1.00  0.00     0.049 A 
ATOM     50  C   UNL A   1      40.024  32.258  31.115  1.00  0.00     0.074 A 
ATOM     51  C   UNL A   1      45.497  29.146  30.171  1.00  0.00     0.029 A 
ATOM     52  N   UNL A   1      44.659  31.146  30.489  1.00  0.00    -0.354 N 
ATOM     53  N   UNL A   1      40.654  31.693  32.111  1.00  0.00    -0.248 NA
ATOM     54  C   UNL A   1      40.855  33.061  30.235  1.00  0.00     0.031 C 
ATOM     55  C   UNL A   1      44.824  29.195  31.430  1.00  0.00     0.029 A 
ATOM     56  C   UNL A   1      44.075  30.374  31.462  1.00  0.00     0.049 A 
ATOM     57  H   UNL A   1      44.764  32.125  30.495  1.00  0.00     0.167 HD
ATOM     58  C   UNL A   1      41.990  31.702  31.744  1.00  0.00     0.074 A 
ATOM     59  C   UNL A   1      42.065  32.676  30.655  1.00  0.00     0.031 C 
ATOM     60  C   UNL A   1      42.855  30.728  32.163  1.00  0.00     0.031 A 
BRANCH  47  61
ATOM     61  C   UNL A   1      45.253  31.839  27.488  1.00  0.00    -0.014 A 
ATOM     62  C   UNL A   1      46.588  31.850  27.021  1.00  0.00     0.010 A 
ATOM     63  C   UNL A   1      44.589  33.080  27.549  1.00  0.00     0.010 A 
ATOM     64  C   UNL A   1      47.243  33.047  26.690  1.00  0.00     0.020 A 
ATOM     65  C   UNL A   1      45.222  34.276  27.185  1.00  0.00     0.020 A 
ATOM     66  C   UNL A   1      46.557  34.256  26.793  1.00  0.00     0.054 A 
BRANCH  66  67
ATOM     67  S   UNL A   1      47.447  35.807  26.488  1.00  0.00     0.124 S 
ATOM     68  O   UNL A   1      46.353  36.727  26.190  1.00  0.00    -0.237 OA
ATOM     69  O   UNL A   1      48.136  36.032  27.755  1.00  0.00    -0.237 OA
ATOM     70  O   UNL A   1      48.319  35.484  25.359  1.00  0.00    -0.744 OA
ENDBRANCH  66  67
ENDBRANCH  47  61
BRANCH  48  71
ATOM     71  C   UNL A   1      37.516  32.652  30.407  1.00  0.00    -0.014 A 
ATOM     72  C   UNL A   1      37.550  33.724  29.505  1.00  0.00     0.010 A 
ATOM     73  C   UNL A   1      36.257  32.255  30.917  1.00  0.00     0.010 A 
ATOM     74  C   UNL A   1      36.362  34.344  29.086  1.00  0.00     0.020 A 
ATOM     75  C   UNL A   1      35.071  32.871  30.509  1.00  0.00     0.020 A 
ATOM     76  C   UNL A   1      35.129  33.899  29.574  1.00  0.00     0.054 A 
BRANCH  76  77
ATOM     77  S   UNL A   1      33.596  34.585  28.882  1.00  0.00     0.124 S 
ATOM     78  O   UNL A   1      33.186  33.543  27.946  1.00  0.00    -0.237 OA
ATOM     79  O   UNL A   1      32.756  34.738  30.067  1.00  0.00    -0.237 OA
ATOM     80  O   UNL A   1      34.027  35.840  28.268  1.00  0.00    -0.744 OA
ENDBRANCH  76  77
ENDBRANCH  48  71
BRANCH  60  81
ATOM     81  C   UNL A   1      42.387  29.739  33.216  1.00  0.00    -0.014 A 
ATOM     82  C   UNL A   1      41.604  28.609  32.904  1.00  0.00     0.010 A 
ATOM     83  C   UNL A   1      42.910  29.838  34.518  1.00  0.00     0.010 A 
ATOM     84  C   UNL A   1      41.338  27.619  33.860  1.00  0.00     0.020 A 
ATOM     85  C   UNL A   1      42.662  28.846  35.475  1.00  0.00     0.020 A 
ATOM     86  C   UNL A   1      41.873  27.742  35.143  1.00  0.00     0.054 A 
BRANCH  86  87
ATOM     87  S   UNL A   1      41.583  26.419  36.352  1.00  0.00     0.124 S 
ATOM     88  O   UNL A   1      42.935  26.085  36.790  1.00  0.00    -0.237 OA
ATOM     89  O   UNL A   1      40.742  27.071  37.355  1.00  0.00    -0.237 OA
ATOM     90  O   UNL A   1      40.909  25.380  35.574  1.00  0.00    -0.744 OA
ENDBRANCH  86  87
ENDBRANCH  60  81
ENDBRANCH  34  35
ENDBRANCH  26  29
ENDBRANCH  24  25
ENDBRANCH   1  24
TORSDOF 17
ENDMDL
MODEL 3
REMARK VINA RESULT:     -11.6      3.446      8.249
REMARK SMILES CCCc1c(C(=O)NCCCNC(=O)c2ccc(-c3c4nc(c(-c5ccc(S(=O)(=O)[O-])cc5)c5ccc([nH]5)c(-c5ccc(S(=O)(=O)[O-])cc5)c5nc(c(-c6ccc(S(=O)(=O)[O-])cc6)c6ccc3[nH]6)C=C5)C=C4)cc2)nnn1-c1ccccc1[N+](=O)[O-]
REMARK SMILES IDX 10 1 9 2 8 3 6 4 7 5 5 7 4 8 77 9 75 10 76 11 3 12 2 13 1 14
REMARK SMILES IDX 78 15 79 16 83 17 80 18 82 19 81 20 84 21 85 22 86 23 11 24
REMARK SMILES IDX 12 25 13 26 14 28 15 29 16 30 74 31 17 32 73 33 18 34 19 35
REMARK SMILES IDX 20 36 67 37 21 38 72 39 66 40 68 41 22 42 71 43 65 44 64 45
REMARK SMILES IDX 23 47 53 48 34 49 52 50 35 51 38 52 51 53 69 54 36 55 37 56
REMARK SMILES IDX 50 58 70 59 39 60 24 61 25 62 33 63 26 64 32 65 27 66 28 67
REMARK SMILES IDX 29 68 30 69 31 70 54 71 55 72 63 73 56 74 62 75 57 76 58 77
REMARK SMILES IDX 59 78 60 79 61 80 40 81 41 82 49 83 42 84 48 85 43 86 44 87
REMARK SMILES IDX 45 88 46 89 47 90
REMARK H PARENT 8 6 12 27 68 46 38 57
REMARK Flexibility Score: inf
ROOT
ATOM      1  C   UNL A   1      33.221  29.998  26.136  1.00  0.00     0.042 C 
ENDROOT
BRANCH   1   2
ATOM      2  C   UNL A   1      31.806  29.606  25.764  1.00  0.00     0.118 C 
BRANCH   2   3
ATOM      3  N   UNL A   1      31.313  29.888  24.453  1.00  0.00    -0.351 N 
ATOM      4  C   UNL A   1      30.679  28.991  23.614  1.00  0.00     0.273 C 
ATOM      5  O   UNL A   1      30.178  29.458  22.591  1.00  0.00    -0.267 OA
ATOM      6  H   UNL A   1      31.437  30.804  24.115  1.00  0.00     0.163 HD
BRANCH   4   7
ATOM      7  C   UNL A   1      30.666  27.535  23.867  1.00  0.00     0.174 A 
ATOM      8  C   UNL A   1      31.625  26.524  24.088  1.00  0.00     0.078 A 
ATOM      9  N   UNL A   1      30.830  25.372  24.208  1.00  0.00    -0.210 N 
ATOM     10  N   UNL A   1      29.414  26.950  23.860  1.00  0.00    -0.124 NA
ATOM     11  N   UNL A   1      29.542  25.646  23.953  1.00  0.00    -0.061 NA
BRANCH   8  12
ATOM     12  C   UNL A   1      33.129  26.414  24.047  1.00  0.00     0.059 C 
BRANCH  12  13
ATOM     13  C   UNL A   1      33.946  26.132  25.312  1.00  0.00     0.003 C 
ATOM     14  C   UNL A   1      34.740  24.846  25.405  1.00  0.00     0.004 C 
ENDBRANCH  12  13
ENDBRANCH   8  12
BRANCH   9  15
ATOM     15  C   UNL A   1      31.229  24.017  24.293  1.00  0.00     0.144 A 
ATOM     16  C   UNL A   1      31.517  23.347  23.091  1.00  0.00     0.036 A 
ATOM     17  C   UNL A   1      31.415  23.346  25.509  1.00  0.00     0.294 A 
ATOM     18  C   UNL A   1      32.062  22.061  23.119  1.00  0.00     0.003 A 
ATOM     19  C   UNL A   1      31.965  22.056  25.535  1.00  0.00     0.088 A 
ATOM     20  C   UNL A   1      32.301  21.424  24.337  1.00  0.00     0.007 A 
BRANCH  17  21
ATOM     21  N   UNL A   1      30.972  23.913  26.776  1.00  0.00     0.065 N 
ATOM     22  O   UNL A   1      29.792  23.719  27.096  1.00  0.00    -0.258 OA
ATOM     23  O   UNL A   1      31.798  24.551  27.439  1.00  0.00    -0.258 OA
ENDBRANCH  17  21
ENDBRANCH   9  15
ENDBRANCH   4   7
ENDBRANCH   2   3
ENDBRANCH   1   2
BRANCH   1  24
ATOM     24  C   UNL A   1      33.292  30.765  27.445  1.00  0.00     0.118 C 
BRANCH  24  25
ATOM     25  N   UNL A   1      34.120  31.982  27.436  1.00  0.00    -0.352 N 
ATOM     26  C   UNL A   1      35.448  32.095  27.873  1.00  0.00     0.251 C 
ATOM     27  H   UNL A   1      33.698  32.800  27.087  1.00  0.00     0.163 HD
ATOM     28  O   UNL A   1      36.018  33.151  27.948  1.00  0.00    -0.269 OA
BRANCH  26  29
ATOM     29  C   UNL A   1      36.107  30.818  28.241  1.00  0.00     0.039 A 
ATOM     30  C   UNL A   1      36.716  30.029  27.260  1.00  0.00     0.014 A 
ATOM     31  C   UNL A   1      36.469  30.717  29.571  1.00  0.00     0.014 A 
ATOM     32  C   UNL A   1      37.846  29.276  27.602  1.00  0.00     0.010 A 
ATOM     33  C   UNL A   1      37.696  30.152  29.835  1.00  0.00     0.010 A 
ATOM     34  C   UNL A   1      38.405  29.407  28.881  1.00  0.00    -0.014 A 
BRANCH  34  35
ATOM     35  C   UNL A   1      39.760  28.911  29.200  1.00  0.00     0.031 A 
ATOM     36  C   UNL A   1      40.168  28.717  30.637  1.00  0.00     0.074 A 
ATOM     37  C   UNL A   1      40.587  28.366  28.274  1.00  0.00     0.049 A 
ATOM     38  N   UNL A   1      41.140  29.303  31.265  1.00  0.00    -0.248 NA
ATOM     39  C   UNL A   1      39.439  27.751  31.473  1.00  0.00     0.031 C 
ATOM     40  C   UNL A   1      40.373  28.169  26.834  1.00  0.00     0.029 A 
ATOM     41  N   UNL A   1      41.762  27.712  28.483  1.00  0.00    -0.354 N 
ATOM     42  C   UNL A   1      41.257  28.688  32.515  1.00  0.00     0.074 A 
ATOM     43  C   UNL A   1      40.123  27.801  32.622  1.00  0.00     0.031 C 
ATOM     44  C   UNL A   1      41.180  27.188  26.385  1.00  0.00     0.029 A 
ATOM     45  C   UNL A   1      42.139  26.897  27.428  1.00  0.00     0.049 A 
ATOM     46  H   UNL A   1      42.295  27.808  29.305  1.00  0.00     0.167 HD
ATOM     47  C   UNL A   1      42.355  28.837  33.316  1.00  0.00     0.031 A 
ATOM     48  C   UNL A   1      43.194  26.058  27.367  1.00  0.00     0.031 A 
ATOM     49  C   UNL A   1      43.255  29.848  32.828  1.00  0.00     0.049 A 
ATOM     50  C   UNL A   1      44.203  26.576  28.315  1.00  0.00     0.074 A 
ATOM     51  C   UNL A   1      43.168  31.200  32.566  1.00  0.00     0.029 A 
ATOM     52  N   UNL A   1      44.396  29.425  32.182  1.00  0.00    -0.354 N 
ATOM     53  N   UNL A   1      44.763  27.749  28.179  1.00  0.00    -0.248 NA
ATOM     54  C   UNL A   1      44.295  25.998  29.644  1.00  0.00     0.031 C 
ATOM     55  C   UNL A   1      43.925  31.385  31.369  1.00  0.00     0.029 A 
ATOM     56  C   UNL A   1      44.462  30.143  31.015  1.00  0.00     0.049 A 
ATOM     57  H   UNL A   1      45.035  28.745  32.495  1.00  0.00     0.167 HD
ATOM     58  C   UNL A   1      44.886  28.241  29.469  1.00  0.00     0.074 A 
ATOM     59  C   UNL A   1      44.714  27.069  30.327  1.00  0.00     0.031 C 
ATOM     60  C   UNL A   1      44.841  29.583  29.731  1.00  0.00     0.031 A 
BRANCH  47  61
ATOM     61  C   UNL A   1      42.800  27.881  34.399  1.00  0.00    -0.014 A 
ATOM     62  C   UNL A   1      43.154  28.389  35.669  1.00  0.00     0.010 A 
ATOM     63  C   UNL A   1      43.136  26.539  34.133  1.00  0.00     0.010 A 
ATOM     64  C   UNL A   1      43.860  27.613  36.602  1.00  0.00     0.020 A 
ATOM     65  C   UNL A   1      43.806  25.744  35.072  1.00  0.00     0.020 A 
ATOM     66  C   UNL A   1      44.197  26.298  36.287  1.00  0.00     0.054 A 
BRANCH  66  67
ATOM     67  S   UNL A   1      45.218  25.345  37.444  1.00  0.00     0.124 S 
ATOM     68  O   UNL A   1      44.583  25.645  38.724  1.00  0.00    -0.237 OA
ATOM     69  O   UNL A   1      45.052  23.977  36.960  1.00  0.00    -0.237 OA
ATOM     70  O   UNL A   1      46.556  25.906  37.261  1.00  0.00    -0.744 OA
ENDBRANCH  66  67
ENDBRANCH  47  61
BRANCH  48  71
ATOM     71  C   UNL A   1      43.206  24.731  26.720  1.00  0.00    -0.014 A 
ATOM     72  C   UNL A   1      43.404  24.588  25.340  1.00  0.00     0.010 A 
ATOM     73  C   UNL A   1      43.249  23.564  27.520  1.00  0.00     0.010 A 
ATOM     74  C   UNL A   1      43.688  23.330  24.785  1.00  0.00     0.020 A 
ATOM     75  C   UNL A   1      43.525  22.308  26.974  1.00  0.00     0.020 A 
ATOM     76  C   UNL A   1      43.767  22.202  25.608  1.00  0.00     0.054 A 
BRANCH  76  77
ATOM     77  S   UNL A   1      44.318  20.621  24.903  1.00  0.00     0.124 S 
ATOM     78  O   UNL A   1      44.482  20.950  23.491  1.00  0.00    -0.237 OA
ATOM     79  O   UNL A   1      45.553  20.361  25.640  1.00  0.00    -0.237 OA
ATOM     80  O   UNL A   1      43.219  19.706  25.208  1.00  0.00    -0.744 OA
ENDBRANCH  76  77
ENDBRANCH  48  71
BRANCH  60  81
ATOM     81  C   UNL A   1      44.864  30.557  28.565  1.00  0.00    -0.014 A 
ATOM     82  C   UNL A   1      43.853  30.594  27.585  1.00  0.00     0.010 A 
ATOM     83  C   UNL A   1      45.820  31.589  28.565  1.00  0.00     0.010 A 
ATOM     84  C   UNL A   1      43.804  31.615  26.625  1.00  0.00     0.020 A 
ATOM     85  C   UNL A   1      45.769  32.621  27.620  1.00  0.00     0.020 A 
ATOM     86  C   UNL A   1      44.764  32.628  26.651  1.00  0.00     0.054 A 
BRANCH  86  87
ATOM     87  S   UNL A   1      44.648  33.985  25.451  1.00  0.00     0.124 S 
ATOM     88  O   UNL A   1      43.766  34.933  26.125  1.00  0.00    -0.237 OA
ATOM     89  O   UNL A   1      46.039  34.413  25.307  1.00  0.00    -0.237 OA
ATOM     90  O   UNL A   1      44.080  33.350  24.262  1.00  0.00    -0.744 OA
ENDBRANCH  86  87
ENDBRANCH  60  81
ENDBRANCH  34  35
ENDBRANCH  26  29
ENDBRANCH  24  25
ENDBRANCH   1  24
TORSDOF 17
ENDMDL
