MODEL 1
REMARK VINA RESULT:      -8.9      0.000      0.000
REMARK SMILES CC/C=C/C/C=C/C/C=C/C/C=C/CC/C=C/COCC(=O)NCCCNC(=O)c1ccc(-c2c3nc(c(-c4ccc(S(=O)(=O)[O-])cc4)c4ccc([nH]4)c(-c4ccc(S(=O)(=O)[O-])cc4)c4nc(c(-c5ccc(S(=O)(=O)[O-])cc5)c5ccc2[nH]5)C=C4)C=C3)cc1
REMARK SMILES IDX 18 1 17 2 16 3 15 4 14 5 13 6 12 7 11 8 10 9 9 10 8 11 7 12
REMARK SMILES IDX 6 13 5 14 4 15 3 16 2 17 1 18 19 19 20 20 21 21 22 22 23 23
REMARK SMILES IDX 24 25 25 26 26 27 27 28 28 29 29 31 30 32 31 33 89 34 32 35
REMARK SMILES IDX 88 36 33 37 34 38 35 39 82 40 36 41 87 42 81 43 83 44 37 45
REMARK SMILES IDX 86 46 80 47 79 48 38 50 68 51 49 52 67 53 50 54 53 55 66 56
REMARK SMILES IDX 84 57 51 58 52 59 65 61 85 62 54 63 39 64 40 65 48 66 41 67
REMARK SMILES IDX 47 68 42 69 43 70 44 71 45 72 46 73 69 74 70 75 78 76 71 77
REMARK SMILES IDX 77 78 72 79 73 80 74 81 75 82 76 83 55 84 56 85 64 86 57 87
REMARK SMILES IDX 63 88 58 89 59 90 60 91 61 92 62 93
REMARK H PARENT 23 24 27 30 83 49 53 60
REMARK Flexibility Score: inf
ROOT
ATOM      1  C   UNL A   1      32.104  25.927  26.439  1.00  0.00     0.188 C 
ENDROOT
BRANCH   1   2
ATOM      2  C   UNL A   1      31.233  26.001  25.223  1.00  0.00    -0.003 C 
ATOM      3  C   UNL A   1      30.309  26.957  25.046  1.00  0.00    -0.029 C 
BRANCH   3   4
ATOM      4  C   UNL A   1      29.308  26.980  23.925  1.00  0.00     0.031 C 
BRANCH   4   5
ATOM      5  C   UNL A   1      29.831  27.729  22.686  1.00  0.00     0.031 C 
BRANCH   5   6
ATOM      6  C   UNL A   1      31.208  27.288  22.269  1.00  0.00    -0.031 C 
ATOM      7  C   UNL A   1      31.484  26.110  21.688  1.00  0.00    -0.027 C 
BRANCH   7   8
ATOM      8  C   UNL A   1      32.873  25.663  21.331  1.00  0.00     0.054 C 
BRANCH   8   9
ATOM      9  C   UNL A   1      33.263  24.465  22.149  1.00  0.00    -0.027 C 
ATOM     10  C   UNL A   1      34.129  24.503  23.174  1.00  0.00    -0.027 C 
BRANCH  10  11
ATOM     11  C   UNL A   1      34.551  23.298  23.964  1.00  0.00     0.054 C 
BRANCH  11  12
ATOM     12  C   UNL A   1      33.630  22.142  23.693  1.00  0.00    -0.027 C 
ATOM     13  C   UNL A   1      33.177  21.302  24.636  1.00  0.00    -0.027 C 
BRANCH  13  14
ATOM     14  C   UNL A   1      32.279  20.131  24.361  1.00  0.00     0.054 C 
BRANCH  14  15
ATOM     15  C   UNL A   1      33.065  18.851  24.332  1.00  0.00    -0.027 C 
ATOM     16  C   UNL A   1      33.229  18.092  23.236  1.00  0.00    -0.031 C 
BRANCH  16  17
ATOM     17  C   UNL A   1      34.002  16.806  23.217  1.00  0.00     0.023 C 
ATOM     18  C   UNL A   1      34.073  16.186  24.603  1.00  0.00     0.008 C 
ENDBRANCH  16  17
ENDBRANCH  14  15
ENDBRANCH  13  14
ENDBRANCH  11  12
ENDBRANCH  10  11
ENDBRANCH   8   9
ENDBRANCH   7   8
ENDBRANCH   5   6
ENDBRANCH   4   5
ENDBRANCH   3   4
ENDBRANCH   1   2
BRANCH   1  19
ATOM     19  O   UNL A   1      32.505  27.239  26.841  1.00  0.00    -0.368 OA
BRANCH  19  20
ATOM     20  C   UNL A   1      33.695  27.699  26.211  1.00  0.00     0.260 C 
BRANCH  20  21
ATOM     21  C   UNL A   1      33.574  28.937  25.317  1.00  0.00     0.246 C 
ATOM     22  O   UNL A   1      33.620  28.865  24.088  1.00  0.00    -0.272 OA
ATOM     23  N   UNL A   1      33.385  30.158  25.901  1.00  0.00    -0.354 N 
ATOM     24  H   UNL A   1      33.285  30.920  25.286  1.00  0.00     0.163 HD
BRANCH  23  25
ATOM     25  C   UNL A   1      33.317  30.469  27.317  1.00  0.00     0.117 C 
BRANCH  25  26
ATOM     26  C   UNL A   1      32.583  31.777  27.587  1.00  0.00     0.042 C 
BRANCH  26  27
ATOM     27  C   UNL A   1      33.352  33.029  27.171  1.00  0.00     0.118 C 
BRANCH  27  28
ATOM     28  N   UNL A   1      33.037  34.189  27.994  1.00  0.00    -0.352 N 
ATOM     29  C   UNL A   1      33.538  34.578  29.211  1.00  0.00     0.251 C 
ATOM     30  H   UNL A   1      32.355  34.791  27.617  1.00  0.00     0.163 HD
ATOM     31  O   UNL A   1      33.003  35.512  29.808  1.00  0.00    -0.269 OA
BRANCH  29  32
ATOM     32  C   UNL A   1      34.691  33.878  29.818  1.00  0.00     0.039 A 
ATOM     33  C   UNL A   1      35.981  34.236  29.416  1.00  0.00     0.014 A 
ATOM     34  C   UNL A   1      34.513  32.859  30.756  1.00  0.00     0.014 A 
ATOM     35  C   UNL A   1      37.090  33.619  30.004  1.00  0.00     0.010 A 
ATOM     36  C   UNL A   1      35.618  32.300  31.396  1.00  0.00     0.010 A 
ATOM     37  C   UNL A   1      36.919  32.675  31.028  1.00  0.00    -0.014 A 
BRANCH  37  38
ATOM     38  C   UNL A   1      38.087  32.083  31.734  1.00  0.00     0.031 A 
ATOM     39  C   UNL A   1      38.518  32.614  33.077  1.00  0.00     0.074 A 
ATOM     40  C   UNL A   1      38.803  31.110  31.133  1.00  0.00     0.049 A 
ATOM     41  N   UNL A   1      39.544  32.263  33.810  1.00  0.00    -0.248 NA
ATOM     42  C   UNL A   1      37.708  33.695  33.661  1.00  0.00     0.031 C 
ATOM     43  C   UNL A   1      38.518  30.540  29.813  1.00  0.00     0.029 A 
ATOM     44  N   UNL A   1      39.925  30.435  31.547  1.00  0.00    -0.354 N 
ATOM     45  C   UNL A   1      39.517  33.092  34.924  1.00  0.00     0.074 A 
ATOM     46  C   UNL A   1      38.396  33.991  34.755  1.00  0.00     0.031 C 
ATOM     47  C   UNL A   1      39.427  29.592  29.536  1.00  0.00     0.029 A 
ATOM     48  C   UNL A   1      40.386  29.516  30.634  1.00  0.00     0.049 A 
ATOM     49  H   UNL A   1      40.359  30.595  32.417  1.00  0.00     0.167 HD
ATOM     50  C   UNL A   1      40.342  33.098  35.998  1.00  0.00     0.031 A 
ATOM     51  C   UNL A   1      41.468  28.711  30.664  1.00  0.00     0.031 A 
ATOM     52  C   UNL A   1      41.446  32.190  36.172  1.00  0.00     0.049 A 
ATOM     53  C   UNL A   1      42.368  28.738  31.869  1.00  0.00     0.074 A 
ATOM     54  C   UNL A   1      42.291  32.067  37.262  1.00  0.00     0.029 A 
ATOM     55  N   UNL A   1      41.866  31.260  35.235  1.00  0.00    -0.354 N 
ATOM     56  N   UNL A   1      42.271  29.469  32.954  1.00  0.00    -0.248 NA
ATOM     57  C   UNL A   1      43.516  27.820  31.862  1.00  0.00     0.031 C 
ATOM     58  C   UNL A   1      43.261  31.108  36.957  1.00  0.00     0.029 A 
ATOM     59  C   UNL A   1      42.979  30.583  35.707  1.00  0.00     0.049 A 
ATOM     60  H   UNL A   1      41.436  31.103  34.363  1.00  0.00     0.167 HD
ATOM     61  C   UNL A   1      43.329  29.079  33.769  1.00  0.00     0.074 A 
ATOM     62  C   UNL A   1      44.040  28.035  33.061  1.00  0.00     0.031 C 
ATOM     63  C   UNL A   1      43.677  29.544  34.994  1.00  0.00     0.031 A 
BRANCH  50  64
ATOM     64  C   UNL A   1      40.097  34.127  37.073  1.00  0.00    -0.014 A 
ATOM     65  C   UNL A   1      40.479  35.468  36.903  1.00  0.00     0.010 A 
ATOM     66  C   UNL A   1      39.407  33.755  38.242  1.00  0.00     0.010 A 
ATOM     67  C   UNL A   1      40.204  36.414  37.895  1.00  0.00     0.020 A 
ATOM     68  C   UNL A   1      39.105  34.703  39.224  1.00  0.00     0.020 A 
ATOM     69  C   UNL A   1      39.516  36.025  39.049  1.00  0.00     0.054 A 
BRANCH  69  70
ATOM     70  S   UNL A   1      39.135  37.283  40.299  1.00  0.00     0.124 S 
ATOM     71  O   UNL A   1      38.378  38.261  39.522  1.00  0.00    -0.237 OA
ATOM     72  O   UNL A   1      38.362  36.530  41.284  1.00  0.00    -0.237 OA
ATOM     73  O   UNL A   1      40.449  37.731  40.754  1.00  0.00    -0.744 OA
ENDBRANCH  69  70
ENDBRANCH  50  64
BRANCH  51  74
ATOM     74  C   UNL A   1      41.766  27.817  29.510  1.00  0.00    -0.014 A 
ATOM     75  C   UNL A   1      42.803  28.122  28.611  1.00  0.00     0.010 A 
ATOM     76  C   UNL A   1      41.002  26.653  29.301  1.00  0.00     0.010 A 
ATOM     77  C   UNL A   1      43.051  27.298  27.509  1.00  0.00     0.020 A 
ATOM     78  C   UNL A   1      41.269  25.809  28.220  1.00  0.00     0.020 A 
ATOM     79  C   UNL A   1      42.282  26.146  27.321  1.00  0.00     0.054 A 
BRANCH  79  80
ATOM     80  S   UNL A   1      42.642  25.073  25.902  1.00  0.00     0.124 S 
ATOM     81  O   UNL A   1      41.922  23.853  26.253  1.00  0.00    -0.237 OA
ATOM     82  O   UNL A   1      42.091  25.835  24.784  1.00  0.00    -0.237 OA
ATOM     83  O   UNL A   1      44.099  24.967  25.915  1.00  0.00    -0.744 OA
ENDBRANCH  79  80
ENDBRANCH  51  74
BRANCH  63  84
ATOM     84  C   UNL A   1      44.860  28.902  35.672  1.00  0.00    -0.014 A 
ATOM     85  C   UNL A   1      46.165  29.398  35.497  1.00  0.00     0.010 A 
ATOM     86  C   UNL A   1      44.652  27.816  36.543  1.00  0.00     0.010 A 
ATOM     87  C   UNL A   1      47.242  28.799  36.155  1.00  0.00     0.020 A 
ATOM     88  C   UNL A   1      45.722  27.236  37.228  1.00  0.00     0.020 A 
ATOM     89  C   UNL A   1      47.013  27.721  37.018  1.00  0.00     0.054 A 
BRANCH  89  90
ATOM     90  S   UNL A   1      48.423  26.990  37.894  1.00  0.00     0.124 S 
ATOM     91  O   UNL A   1      48.854  28.093  38.749  1.00  0.00    -0.237 OA
ATOM     92  O   UNL A   1      47.816  25.856  38.587  1.00  0.00    -0.237 OA
ATOM     93  O   UNL A   1      49.351  26.634  36.823  1.00  0.00    -0.744 OA
ENDBRANCH  89  90
ENDBRANCH  63  84
ENDBRANCH  37  38
ENDBRANCH  29  32
ENDBRANCH  27  28
ENDBRANCH  26  27
ENDBRANCH  25  26
ENDBRANCH  23  25
ENDBRANCH  20  21
ENDBRANCH  19  20
ENDBRANCH   1  19
TORSDOF 26
ENDMDL
MODEL 2
REMARK VINA RESULT:      -8.5      5.019      9.788
REMARK SMILES CC/C=C/C/C=C/C/C=C/C/C=C/CC/C=C/COCC(=O)NCCCNC(=O)c1ccc(-c2c3nc(c(-c4ccc(S(=O)(=O)[O-])cc4)c4ccc([nH]4)c(-c4ccc(S(=O)(=O)[O-])cc4)c4nc(c(-c5ccc(S(=O)(=O)[O-])cc5)c5ccc2[nH]5)C=C4)C=C3)cc1
REMARK SMILES IDX 18 1 17 2 16 3 15 4 14 5 13 6 12 7 11 8 10 9 9 10 8 11 7 12
REMARK SMILES IDX 6 13 5 14 4 15 3 16 2 17 1 18 19 19 20 20 21 21 22 22 23 23
REMARK SMILES IDX 24 25 25 26 26 27 27 28 28 29 29 31 30 32 31 33 89 34 32 35
REMARK SMILES IDX 88 36 33 37 34 38 35 39 82 40 36 41 87 42 81 43 83 44 37 45
REMARK SMILES IDX 86 46 80 47 79 48 38 50 68 51 49 52 67 53 50 54 53 55 66 56
REMARK SMILES IDX 84 57 51 58 52 59 65 61 85 62 54 63 39 64 40 65 48 66 41 67
REMARK SMILES IDX 47 68 42 69 43 70 44 71 45 72 46 73 69 74 70 75 78 76 71 77
REMARK SMILES IDX 77 78 72 79 73 80 74 81 75 82 76 83 55 84 56 85 64 86 57 87
REMARK SMILES IDX 63 88 58 89 59 90 60 91 61 92 62 93
REMARK H PARENT 23 24 27 30 83 49 53 60
REMARK Flexibility Score: inf
ROOT
ATOM      1  C   UNL A   1      38.005  33.762  34.781  1.00  0.00     0.188 C 
ENDROOT
BRANCH   1   2
ATOM      2  C   UNL A   1      39.039  32.681  34.839  1.00  0.00    -0.003 C 
ATOM      3  C   UNL A   1      39.564  32.236  35.990  1.00  0.00    -0.029 C 
BRANCH   3   4
ATOM      4  C   UNL A   1      40.713  31.272  36.088  1.00  0.00     0.031 C 
BRANCH   4   5
ATOM      5  C   UNL A   1      41.802  31.546  35.036  1.00  0.00     0.031 C 
BRANCH   5   6
ATOM      6  C   UNL A   1      42.085  30.358  34.157  1.00  0.00    -0.031 C 
ATOM      7  C   UNL A   1      41.198  29.388  33.884  1.00  0.00    -0.027 C 
BRANCH   7   8
ATOM      8  C   UNL A   1      41.517  28.179  33.051  1.00  0.00     0.054 C 
BRANCH   8   9
ATOM      9  C   UNL A   1      42.985  27.872  33.114  1.00  0.00    -0.027 C 
ATOM     10  C   UNL A   1      43.495  26.631  33.158  1.00  0.00    -0.027 C 
BRANCH  10  11
ATOM     11  C   UNL A   1      44.960  26.325  33.263  1.00  0.00     0.054 C 
BRANCH  11  12
ATOM     12  C   UNL A   1      45.680  27.438  33.971  1.00  0.00    -0.027 C 
ATOM     13  C   UNL A   1      46.347  27.290  35.126  1.00  0.00    -0.027 C 
BRANCH  13  14
ATOM     14  C   UNL A   1      47.043  28.408  35.847  1.00  0.00     0.054 C 
BRANCH  14  15
ATOM     15  C   UNL A   1      48.505  28.104  36.017  1.00  0.00    -0.027 C 
ATOM     16  C   UNL A   1      48.985  27.123  36.797  1.00  0.00    -0.031 C 
BRANCH  16  17
ATOM     17  C   UNL A   1      50.447  26.834  36.975  1.00  0.00     0.023 C 
ATOM     18  C   UNL A   1      51.028  26.159  35.743  1.00  0.00     0.008 C 
ENDBRANCH  16  17
ENDBRANCH  14  15
ENDBRANCH  13  14
ENDBRANCH  11  12
ENDBRANCH  10  11
ENDBRANCH   8   9
ENDBRANCH   7   8
ENDBRANCH   5   6
ENDBRANCH   4   5
ENDBRANCH   3   4
ENDBRANCH   1   2
BRANCH   1  19
ATOM     19  O   UNL A   1      38.374  34.749  33.814  1.00  0.00    -0.368 OA
BRANCH  19  20
ATOM     20  C   UNL A   1      37.468  34.859  32.723  1.00  0.00     0.260 C 
BRANCH  20  21
ATOM     21  C   UNL A   1      37.782  34.030  31.473  1.00  0.00     0.246 C 
ATOM     22  O   UNL A   1      38.713  34.311  30.717  1.00  0.00    -0.272 OA
ATOM     23  N   UNL A   1      37.017  32.932  31.200  1.00  0.00    -0.354 N 
ATOM     24  H   UNL A   1      37.273  32.415  30.402  1.00  0.00     0.163 HD
BRANCH  23  25
ATOM     25  C   UNL A   1      35.872  32.434  31.940  1.00  0.00     0.117 C 
BRANCH  25  26
ATOM     26  C   UNL A   1      34.591  32.467  31.115  1.00  0.00     0.042 C 
BRANCH  26  27
ATOM     27  C   UNL A   1      34.810  32.691  29.620  1.00  0.00     0.118 C 
BRANCH  27  28
ATOM     28  N   UNL A   1      34.127  31.707  28.791  1.00  0.00    -0.352 N 
ATOM     29  C   UNL A   1      34.607  30.579  28.174  1.00  0.00     0.251 C 
ATOM     30  H   UNL A   1      33.168  31.878  28.652  1.00  0.00     0.163 HD
ATOM     31  O   UNL A   1      33.884  29.978  27.378  1.00  0.00    -0.269 OA
BRANCH  29  32
ATOM     32  C   UNL A   1      35.979  30.093  28.436  1.00  0.00     0.039 A 
ATOM     33  C   UNL A   1      36.928  30.178  27.413  1.00  0.00     0.014 A 
ATOM     34  C   UNL A   1      36.331  29.531  29.665  1.00  0.00     0.014 A 
ATOM     35  C   UNL A   1      38.243  29.765  27.647  1.00  0.00     0.010 A 
ATOM     36  C   UNL A   1      37.658  29.192  29.922  1.00  0.00     0.010 A 
ATOM     37  C   UNL A   1      38.630  29.305  28.916  1.00  0.00    -0.014 A 
BRANCH  37  38
ATOM     38  C   UNL A   1      40.045  28.956  29.211  1.00  0.00     0.031 A 
ATOM     39  C   UNL A   1      40.979  29.981  29.800  1.00  0.00     0.074 A 
ATOM     40  C   UNL A   1      40.509  27.732  28.885  1.00  0.00     0.049 A 
ATOM     41  N   UNL A   1      42.255  29.875  30.067  1.00  0.00    -0.248 NA
ATOM     42  C   UNL A   1      40.412  31.305  30.105  1.00  0.00     0.031 C 
ATOM     43  C   UNL A   1      39.719  26.663  28.267  1.00  0.00     0.029 A 
ATOM     44  N   UNL A   1      41.761  27.182  29.016  1.00  0.00    -0.354 N 
ATOM     45  C   UNL A   1      42.649  31.118  30.546  1.00  0.00     0.074 A 
ATOM     46  C   UNL A   1      41.486  31.977  30.498  1.00  0.00     0.031 C 
ATOM     47  C   UNL A   1      40.498  25.584  28.090  1.00  0.00     0.029 A 
ATOM     48  C   UNL A   1      41.852  25.895  28.539  1.00  0.00     0.049 A 
ATOM     49  H   UNL A   1      42.522  27.664  29.414  1.00  0.00     0.167 HD
ATOM     50  C   UNL A   1      43.865  31.508  30.998  1.00  0.00     0.031 A 
ATOM     51  C   UNL A   1      42.908  25.060  28.454  1.00  0.00     0.031 A 
ATOM     52  C   UNL A   1      45.017  30.645  31.062  1.00  0.00     0.049 A 
ATOM     53  C   UNL A   1      44.247  25.518  28.963  1.00  0.00     0.074 A 
ATOM     54  C   UNL A   1      46.270  30.926  31.577  1.00  0.00     0.029 A 
ATOM     55  N   UNL A   1      45.061  29.343  30.590  1.00  0.00    -0.354 N 
ATOM     56  N   UNL A   1      44.575  26.671  29.496  1.00  0.00    -0.248 NA
ATOM     57  C   UNL A   1      45.357  24.558  28.873  1.00  0.00     0.031 C 
ATOM     58  C   UNL A   1      47.092  29.817  31.357  1.00  0.00     0.029 A 
ATOM     59  C   UNL A   1      46.331  28.820  30.770  1.00  0.00     0.049 A 
ATOM     60  H   UNL A   1      44.303  28.862  30.187  1.00  0.00     0.167 HD
ATOM     61  C   UNL A   1      45.922  26.564  29.831  1.00  0.00     0.074 A 
ATOM     62  C   UNL A   1      46.341  25.229  29.457  1.00  0.00     0.031 C 
ATOM     63  C   UNL A   1      46.736  27.488  30.397  1.00  0.00     0.031 A 
BRANCH  50  64
ATOM     64  C   UNL A   1      44.027  32.937  31.451  1.00  0.00    -0.014 A 
ATOM     65  C   UNL A   1      44.765  33.865  30.698  1.00  0.00     0.010 A 
ATOM     66  C   UNL A   1      43.366  33.373  32.616  1.00  0.00     0.010 A 
ATOM     67  C   UNL A   1      44.866  35.196  31.115  1.00  0.00     0.020 A 
ATOM     68  C   UNL A   1      43.441  34.708  33.021  1.00  0.00     0.020 A 
ATOM     69  C   UNL A   1      44.202  35.609  32.274  1.00  0.00     0.054 A 
BRANCH  69  70
ATOM     70  S   UNL A   1      44.316  37.351  32.767  1.00  0.00     0.124 S 
ATOM     71  O   UNL A   1      44.318  38.030  31.474  1.00  0.00    -0.237 OA
ATOM     72  O   UNL A   1      43.110  37.534  33.571  1.00  0.00    -0.237 OA
ATOM     73  O   UNL A   1      45.572  37.421  33.509  1.00  0.00    -0.744 OA
ENDBRANCH  69  70
ENDBRANCH  50  64
BRANCH  51  74
ATOM     74  C   UNL A   1      42.743  23.706  27.854  1.00  0.00    -0.014 A 
ATOM     75  C   UNL A   1      42.291  22.624  28.630  1.00  0.00     0.010 A 
ATOM     76  C   UNL A   1      43.048  23.492  26.496  1.00  0.00     0.010 A 
ATOM     77  C   UNL A   1      42.176  21.349  28.068  1.00  0.00     0.020 A 
ATOM     78  C   UNL A   1      42.903  22.226  25.923  1.00  0.00     0.020 A 
ATOM     79  C   UNL A   1      42.483  21.158  26.718  1.00  0.00     0.054 A 
BRANCH  79  80
ATOM     80  S   UNL A   1      42.295  19.501  26.002  1.00  0.00     0.124 S 
ATOM     81  O   UNL A   1      43.186  19.567  24.848  1.00  0.00    -0.237 OA
ATOM     82  O   UNL A   1      42.735  18.635  27.093  1.00  0.00    -0.237 OA
ATOM     83  O   UNL A   1      40.870  19.423  25.690  1.00  0.00    -0.744 OA
ENDBRANCH  79  80
ENDBRANCH  51  74
BRANCH  63  84
ATOM     84  C   UNL A   1      48.157  27.080  30.688  1.00  0.00    -0.014 A 
ATOM     85  C   UNL A   1      49.210  27.419  29.819  1.00  0.00     0.010 A 
ATOM     86  C   UNL A   1      48.448  26.392  31.880  1.00  0.00     0.010 A 
ATOM     87  C   UNL A   1      50.523  27.049  30.123  1.00  0.00     0.020 A 
ATOM     88  C   UNL A   1      49.763  26.049  32.203  1.00  0.00     0.020 A 
ATOM     89  C   UNL A   1      50.791  26.366  31.314  1.00  0.00     0.054 A 
BRANCH  89  90
ATOM     90  S   UNL A   1      52.509  25.936  31.706  1.00  0.00     0.124 S 
ATOM     91  O   UNL A   1      52.889  27.009  32.622  1.00  0.00    -0.237 OA
ATOM     92  O   UNL A   1      52.379  24.611  32.308  1.00  0.00    -0.237 OA
ATOM     93  O   UNL A   1      53.178  25.960  30.407  1.00  0.00    -0.744 OA
ENDBRANCH  89  90
ENDBRANCH  63  84
ENDBRANCH  37  38
ENDBRANCH  29  32
ENDBRANCH  27  28
ENDBRANCH  26  27
ENDBRANCH  25  26
ENDBRANCH  23  25
ENDBRANCH  20  21
ENDBRANCH  19  20
ENDBRANCH   1  19
TORSDOF 26
ENDMDL
MODEL 3
REMARK VINA RESULT:      -8.4      4.975      9.683
REMARK SMILES CC/C=C/C/C=C/C/C=C/C/C=C/CC/C=C/COCC(=O)NCCCNC(=O)c1ccc(-c2c3nc(c(-c4ccc(S(=O)(=O)[O-])cc4)c4ccc([nH]4)c(-c4ccc(S(=O)(=O)[O-])cc4)c4nc(c(-c5ccc(S(=O)(=O)[O-])cc5)c5ccc2[nH]5)C=C4)C=C3)cc1
REMARK SMILES IDX 18 1 17 2 16 3 15 4 14 5 13 6 12 7 11 8 10 9 9 10 8 11 7 12
REMARK SMILES IDX 6 13 5 14 4 15 3 16 2 17 1 18 19 19 20 20 21 21 22 22 23 23
REMARK SMILES IDX 24 25 25 26 26 27 27 28 28 29 29 31 30 32 31 33 89 34 32 35
REMARK SMILES IDX 88 36 33 37 34 38 35 39 82 40 36 41 87 42 81 43 83 44 37 45
REMARK SMILES IDX 86 46 80 47 79 48 38 50 68 51 49 52 67 53 50 54 53 55 66 56
REMARK SMILES IDX 84 57 51 58 52 59 65 61 85 62 54 63 39 64 40 65 48 66 41 67
REMARK SMILES IDX 47 68 42 69 43 70 44 71 45 72 46 73 69 74 70 75 78 76 71 77
REMARK SMILES IDX 77 78 72 79 73 80 74 81 75 82 76 83 55 84 56 85 64 86 57 87
REMARK SMILES IDX 63 88 58 89 59 90 60 91 61 92 62 93
REMARK H PARENT 23 24 27 30 83 49 53 60
REMARK Flexibility Score: inf
ROOT
ATOM      1  C   UNL A   1      38.049  33.903  34.809  1.00  0.00     0.188 C 
ENDROOT
BRANCH   1   2
ATOM      2  C   UNL A   1      39.277  33.077  35.038  1.00  0.00    -0.003 C 
ATOM      3  C   UNL A   1      39.888  32.394  34.059  1.00  0.00    -0.029 C 
BRANCH   3   4
ATOM      4  C   UNL A   1      41.021  31.429  34.270  1.00  0.00     0.031 C 
BRANCH   4   5
ATOM      5  C   UNL A   1      40.884  30.639  35.584  1.00  0.00     0.031 C 
BRANCH   5   6
ATOM      6  C   UNL A   1      42.150  30.620  36.396  1.00  0.00    -0.031 C 
ATOM      7  C   UNL A   1      43.166  31.483  36.237  1.00  0.00    -0.027 C 
BRANCH   7   8
ATOM      8  C   UNL A   1      44.449  31.413  37.018  1.00  0.00     0.054 C 
BRANCH   8   9
ATOM      9  C   UNL A   1      44.702  30.007  37.483  1.00  0.00    -0.027 C 
ATOM     10  C   UNL A   1      45.911  29.424  37.495  1.00  0.00    -0.027 C 
BRANCH  10  11
ATOM     11  C   UNL A   1      46.157  28.006  37.920  1.00  0.00     0.054 C 
BRANCH  11  12
ATOM     12  C   UNL A   1      44.940  27.162  37.665  1.00  0.00    -0.027 C 
ATOM     13  C   UNL A   1      44.881  26.181  36.751  1.00  0.00    -0.027 C 
BRANCH  13  14
ATOM     14  C   UNL A   1      43.657  25.356  36.478  1.00  0.00     0.054 C 
BRANCH  14  15
ATOM     15  C   UNL A   1      42.959  25.833  35.236  1.00  0.00    -0.027 C 
ATOM     16  C   UNL A   1      41.967  26.737  35.229  1.00  0.00    -0.031 C 
BRANCH  16  17
ATOM     17  C   UNL A   1      41.262  27.198  33.986  1.00  0.00     0.023 C 
ATOM     18  C   UNL A   1      42.141  28.133  33.170  1.00  0.00     0.008 C 
ENDBRANCH  16  17
ENDBRANCH  14  15
ENDBRANCH  13  14
ENDBRANCH  11  12
ENDBRANCH  10  11
ENDBRANCH   8   9
ENDBRANCH   7   8
ENDBRANCH   5   6
ENDBRANCH   4   5
ENDBRANCH   3   4
ENDBRANCH   1   2
BRANCH   1  19
ATOM     19  O   UNL A   1      38.310  34.917  33.836  1.00  0.00    -0.368 OA
BRANCH  19  20
ATOM     20  C   UNL A   1      37.374  34.946  32.765  1.00  0.00     0.260 C 
BRANCH  20  21
ATOM     21  C   UNL A   1      37.725  34.137  31.512  1.00  0.00     0.246 C 
ATOM     22  O   UNL A   1      38.674  34.434  30.785  1.00  0.00    -0.272 OA
ATOM     23  N   UNL A   1      36.975  33.038  31.204  1.00  0.00    -0.354 N 
ATOM     24  H   UNL A   1      37.255  32.534  30.406  1.00  0.00     0.163 HD
BRANCH  23  25
ATOM     25  C   UNL A   1      35.814  32.524  31.907  1.00  0.00     0.117 C 
BRANCH  25  26
ATOM     26  C   UNL A   1      34.585  32.439  31.010  1.00  0.00     0.042 C 
BRANCH  26  27
ATOM     27  C   UNL A   1      34.876  32.630  29.523  1.00  0.00     0.118 C 
BRANCH  27  28
ATOM     28  N   UNL A   1      34.195  31.656  28.681  1.00  0.00    -0.352 N 
ATOM     29  C   UNL A   1      34.670  30.524  28.067  1.00  0.00     0.251 C 
ATOM     30  H   UNL A   1      33.239  31.839  28.526  1.00  0.00     0.163 HD
ATOM     31  O   UNL A   1      33.953  29.935  27.259  1.00  0.00    -0.269 OA
BRANCH  29  32
ATOM     32  C   UNL A   1      36.032  30.021  28.349  1.00  0.00     0.039 A 
ATOM     33  C   UNL A   1      37.005  30.120  27.349  1.00  0.00     0.014 A 
ATOM     34  C   UNL A   1      36.353  29.431  29.573  1.00  0.00     0.014 A 
ATOM     35  C   UNL A   1      38.311  29.691  27.603  1.00  0.00     0.010 A 
ATOM     36  C   UNL A   1      37.671  29.075  29.852  1.00  0.00     0.010 A 
ATOM     37  C   UNL A   1      38.666  29.201  28.870  1.00  0.00    -0.014 A 
BRANCH  37  38
ATOM     38  C   UNL A   1      40.071  28.835  29.189  1.00  0.00     0.031 A 
ATOM     39  C   UNL A   1      41.004  29.845  29.804  1.00  0.00     0.074 A 
ATOM     40  C   UNL A   1      40.528  27.608  28.861  1.00  0.00     0.049 A 
ATOM     41  N   UNL A   1      42.275  29.722  30.094  1.00  0.00    -0.248 NA
ATOM     42  C   UNL A   1      40.447  31.172  30.109  1.00  0.00     0.031 C 
ATOM     43  C   UNL A   1      39.738  26.553  28.219  1.00  0.00     0.029 A 
ATOM     44  N   UNL A   1      41.771  27.043  29.011  1.00  0.00    -0.354 N 
ATOM     45  C   UNL A   1      42.672  30.957  30.592  1.00  0.00     0.074 A 
ATOM     46  C   UNL A   1      41.520  31.828  30.529  1.00  0.00     0.031 C 
ATOM     47  C   UNL A   1      40.509  25.467  28.048  1.00  0.00     0.029 A 
ATOM     48  C   UNL A   1      41.857  25.759  28.525  1.00  0.00     0.049 A 
ATOM     49  H   UNL A   1      42.529  27.514  29.427  1.00  0.00     0.167 HD
ATOM     50  C   UNL A   1      43.884  31.329  31.069  1.00  0.00     0.031 A 
ATOM     51  C   UNL A   1      42.905  24.914  28.453  1.00  0.00     0.031 A 
ATOM     52  C   UNL A   1      45.025  30.454  31.148  1.00  0.00     0.049 A 
ATOM     53  C   UNL A   1      44.240  25.353  28.991  1.00  0.00     0.074 A 
ATOM     54  C   UNL A   1      46.271  30.717  31.689  1.00  0.00     0.029 A 
ATOM     55  N   UNL A   1      45.064  29.155  30.666  1.00  0.00    -0.354 N 
ATOM     56  N   UNL A   1      44.570  26.498  29.540  1.00  0.00    -0.248 NA
ATOM     57  C   UNL A   1      45.341  24.381  28.914  1.00  0.00     0.031 C 
ATOM     58  C   UNL A   1      47.085  29.600  31.475  1.00  0.00     0.029 A 
ATOM     59  C   UNL A   1      46.325  28.616  30.865  1.00  0.00     0.049 A 
ATOM     60  H   UNL A   1      44.309  28.685  30.245  1.00  0.00     0.167 HD
ATOM     61  C   UNL A   1      45.909  26.373  29.899  1.00  0.00     0.074 A 
ATOM     62  C   UNL A   1      46.320  25.036  29.522  1.00  0.00     0.031 C 
ATOM     63  C   UNL A   1      46.722  27.283  30.488  1.00  0.00     0.031 A 
BRANCH  50  64
ATOM     64  C   UNL A   1      44.053  32.752  31.538  1.00  0.00    -0.014 A 
ATOM     65  C   UNL A   1      44.362  33.788  30.639  1.00  0.00     0.010 A 
ATOM     66  C   UNL A   1      43.825  33.067  32.891  1.00  0.00     0.010 A 
ATOM     67  C   UNL A   1      44.471  35.107  31.089  1.00  0.00     0.020 A 
ATOM     68  C   UNL A   1      43.906  34.389  33.340  1.00  0.00     0.020 A 
ATOM     69  C   UNL A   1      44.241  35.399  32.437  1.00  0.00     0.054 A 
BRANCH  69  70
ATOM     70  S   UNL A   1      44.348  37.125  32.983  1.00  0.00     0.124 S 
ATOM     71  O   UNL A   1      43.871  37.844  31.803  1.00  0.00    -0.237 OA
ATOM     72  O   UNL A   1      43.453  37.151  34.137  1.00  0.00    -0.237 OA
ATOM     73  O   UNL A   1      45.764  37.306  33.292  1.00  0.00    -0.744 OA
ENDBRANCH  69  70
ENDBRANCH  50  64
BRANCH  51  74
ATOM     74  C   UNL A   1      42.737  23.566  27.838  1.00  0.00    -0.014 A 
ATOM     75  C   UNL A   1      42.050  22.546  28.517  1.00  0.00     0.010 A 
ATOM     76  C   UNL A   1      43.276  23.298  26.566  1.00  0.00     0.010 A 
ATOM     77  C   UNL A   1      41.930  21.273  27.949  1.00  0.00     0.020 A 
ATOM     78  C   UNL A   1      43.129  22.037  25.981  1.00  0.00     0.020 A 
ATOM     79  C   UNL A   1      42.471  21.027  26.684  1.00  0.00     0.054 A 
BRANCH  79  80
ATOM     80  S   UNL A   1      42.276  19.378  25.953  1.00  0.00     0.124 S 
ATOM     81  O   UNL A   1      40.832  19.301  25.758  1.00  0.00    -0.237 OA
ATOM     82  O   UNL A   1      43.075  19.478  24.735  1.00  0.00    -0.237 OA
ATOM     83  O   UNL A   1      42.819  18.485  26.974  1.00  0.00    -0.744 OA
ENDBRANCH  79  80
ENDBRANCH  51  74
BRANCH  63  84
ATOM     84  C   UNL A   1      48.133  26.857  30.802  1.00  0.00    -0.014 A 
ATOM     85  C   UNL A   1      49.224  27.316  30.043  1.00  0.00     0.010 A 
ATOM     86  C   UNL A   1      48.373  26.026  31.912  1.00  0.00     0.010 A 
ATOM     87  C   UNL A   1      50.526  26.925  30.368  1.00  0.00     0.020 A 
ATOM     88  C   UNL A   1      49.675  25.659  32.260  1.00  0.00     0.020 A 
ATOM     89  C   UNL A   1      50.743  26.099  31.476  1.00  0.00     0.054 A 
BRANCH  89  90
ATOM     90  S   UNL A   1      52.445  25.641  31.904  1.00  0.00     0.124 S 
ATOM     91  O   UNL A   1      52.803  26.674  32.873  1.00  0.00    -0.237 OA
ATOM     92  O   UNL A   1      52.288  24.294  32.448  1.00  0.00    -0.237 OA
ATOM     93  O   UNL A   1      53.154  25.712  30.629  1.00  0.00    -0.744 OA
ENDBRANCH  89  90
ENDBRANCH  63  84
ENDBRANCH  37  38
ENDBRANCH  29  32
ENDBRANCH  27  28
ENDBRANCH  26  27
ENDBRANCH  25  26
ENDBRANCH  23  25
ENDBRANCH  20  21
ENDBRANCH  19  20
ENDBRANCH   1  19
TORSDOF 26
ENDMDL
