MODEL 1
REMARK VINA RESULT:     -12.3      0.000      0.000
REMARK SMILES CN1C(=O)[C@@H]2CC=CC[C@]2(C(=O)NCCCNC(=O)c2ccc(-c3c4nc(c(-c5ccc(S(=O)(=O)[O-])cc5)c5ccc([nH]5)c(-c5ccc(S(=O)(=O)[O-])cc5)c5nc(c(-c6ccc(S(=O)(=O)[O-])cc6)c6ccc3[nH]6)C=C5)C=C4)cc2)[C@H]1c1ccccc1
REMARK SMILES IDX 16 1 15 2 14 3 13 4 11 5 12 6 10 8 1 9 2 10 3 11 80 12 4 13
REMARK SMILES IDX 5 14 6 15 9 16 7 17 8 18 81 19 82 20 86 21 83 22 85 23 84 24
REMARK SMILES IDX 17 25 18 26 19 28 20 29 21 30 79 31 22 32 78 33 23 34 24 35
REMARK SMILES IDX 25 36 72 37 26 38 77 39 71 40 73 41 27 42 76 43 70 44 69 45
REMARK SMILES IDX 28 47 58 48 39 49 57 50 40 51 43 52 56 53 74 54 41 55 42 56
REMARK SMILES IDX 55 58 75 59 44 60 29 61 30 62 38 63 31 64 37 65 32 66 33 67
REMARK SMILES IDX 34 68 35 69 36 70 59 71 60 72 68 73 61 74 67 75 62 76 63 77
REMARK SMILES IDX 64 78 65 79 66 80 45 81 46 82 54 83 47 84 53 85 48 86 49 87
REMARK SMILES IDX 50 88 51 89 52 90
REMARK H PARENT 13 7 17 27 73 46 43 57
REMARK Flexibility Score: inf
ROOT
ATOM      1  C   UNL A   1      33.420  28.450  27.291  1.00  0.00     0.118 C 
ENDROOT
BRANCH   1   2
ATOM      2  C   UNL A   1      34.166  28.064  26.028  1.00  0.00     0.042 C 
BRANCH   2   3
ATOM      3  C   UNL A   1      33.295  27.799  24.820  1.00  0.00     0.117 C 
BRANCH   3   4
ATOM      4  N   UNL A   1      33.752  26.950  23.727  1.00  0.00    -0.355 N 
ATOM      5  C   UNL A   1      33.120  25.849  23.153  1.00  0.00     0.229 C 
ATOM      6  O   UNL A   1      33.369  25.593  21.973  1.00  0.00    -0.274 OA
ATOM      7  H   UNL A   1      34.627  27.187  23.341  1.00  0.00     0.163 HD
BRANCH   5   8
ATOM      8  C   UNL A   1      32.248  24.896  24.016  1.00  0.00     0.089 C 
ATOM      9  C   UNL A   1      32.562  21.623  25.838  1.00  0.00     0.147 C 
ATOM     10  N   UNL A   1      32.487  23.030  25.506  1.00  0.00    -0.337 N 
ATOM     11  C   UNL A   1      31.850  23.991  26.253  1.00  0.00     0.227 C 
ATOM     12  C   UNL A   1      33.022  23.548  24.284  1.00  0.00     0.131 C 
ATOM     13  O   UNL A   1      31.340  23.804  27.341  1.00  0.00    -0.275 OA
ATOM     14  C   UNL A   1      31.949  25.323  25.502  1.00  0.00     0.101 C 
ATOM     15  C   UNL A   1      30.739  26.194  25.841  1.00  0.00     0.041 C 
ATOM     16  C   UNL A   1      30.928  24.791  23.183  1.00  0.00     0.047 C 
ATOM     17  C   UNL A   1      29.714  26.313  24.776  1.00  0.00    -0.030 C 
ATOM     18  C   UNL A   1      29.794  25.688  23.599  1.00  0.00    -0.030 C 
BRANCH  12  19
ATOM     19  C   UNL A   1      34.564  23.647  24.385  1.00  0.00    -0.024 A 
ATOM     20  C   UNL A   1      35.422  23.086  23.424  1.00  0.00     0.006 A 
ATOM     21  C   UNL A   1      35.163  24.175  25.545  1.00  0.00     0.006 A 
ATOM     22  C   UNL A   1      36.773  22.866  23.696  1.00  0.00     0.000 A 
ATOM     23  C   UNL A   1      36.513  23.938  25.828  1.00  0.00     0.000 A 
ATOM     24  C   UNL A   1      37.308  23.249  24.919  1.00  0.00     0.000 A 
ENDBRANCH  12  19
ENDBRANCH   5   8
ENDBRANCH   3   4
ENDBRANCH   2   3
ENDBRANCH   1   2
BRANCH   1  25
ATOM     25  N   UNL A   1      33.502  29.876  27.626  1.00  0.00    -0.352 N 
ATOM     26  C   UNL A   1      34.500  30.645  28.178  1.00  0.00     0.251 C 
ATOM     27  H   UNL A   1      32.685  30.381  27.414  1.00  0.00     0.163 HD
ATOM     28  O   UNL A   1      34.245  31.797  28.521  1.00  0.00    -0.269 OA
BRANCH  26  29
ATOM     29  C   UNL A   1      35.858  30.098  28.371  1.00  0.00     0.039 A 
ATOM     30  C   UNL A   1      36.789  30.150  27.327  1.00  0.00     0.014 A 
ATOM     31  C   UNL A   1      36.218  29.526  29.586  1.00  0.00     0.014 A 
ATOM     32  C   UNL A   1      38.099  29.716  27.548  1.00  0.00     0.010 A 
ATOM     33  C   UNL A   1      37.547  29.250  29.852  1.00  0.00     0.010 A 
ATOM     34  C   UNL A   1      38.500  29.316  28.832  1.00  0.00    -0.014 A 
BRANCH  34  35
ATOM     35  C   UNL A   1      39.896  28.926  29.149  1.00  0.00     0.031 A 
ATOM     36  C   UNL A   1      40.828  29.940  29.763  1.00  0.00     0.074 A 
ATOM     37  C   UNL A   1      40.349  27.711  28.784  1.00  0.00     0.049 A 
ATOM     38  N   UNL A   1      42.113  29.850  29.990  1.00  0.00    -0.248 NA
ATOM     39  C   UNL A   1      40.251  31.250  30.123  1.00  0.00     0.031 C 
ATOM     40  C   UNL A   1      39.557  26.669  28.123  1.00  0.00     0.029 A 
ATOM     41  N   UNL A   1      41.593  27.148  28.908  1.00  0.00    -0.354 N 
ATOM     42  C   UNL A   1      42.497  31.093  30.480  1.00  0.00     0.074 A 
ATOM     43  C   UNL A   1      41.330  31.944  30.446  1.00  0.00     0.031 C 
ATOM     44  C   UNL A   1      40.322  25.581  27.941  1.00  0.00     0.029 A 
ATOM     45  C   UNL A   1      41.670  25.864  28.419  1.00  0.00     0.049 A 
ATOM     46  H   UNL A   1      42.360  27.618  29.308  1.00  0.00     0.167 HD
ATOM     47  C   UNL A   1      43.704  31.483  30.950  1.00  0.00     0.031 A 
ATOM     48  C   UNL A   1      42.712  25.013  28.359  1.00  0.00     0.031 A 
ATOM     49  C   UNL A   1      44.848  30.616  31.012  1.00  0.00     0.049 A 
ATOM     50  C   UNL A   1      44.042  25.462  28.901  1.00  0.00     0.074 A 
ATOM     51  C   UNL A   1      46.100  30.879  31.535  1.00  0.00     0.029 A 
ATOM     52  N   UNL A   1      44.874  29.312  30.539  1.00  0.00    -0.354 N 
ATOM     53  N   UNL A   1      44.366  26.619  29.429  1.00  0.00    -0.248 NA
ATOM     54  C   UNL A   1      45.139  24.490  28.851  1.00  0.00     0.031 C 
ATOM     55  C   UNL A   1      46.901  29.753  31.327  1.00  0.00     0.029 A 
ATOM     56  C   UNL A   1      46.128  28.765  30.737  1.00  0.00     0.049 A 
ATOM     57  H   UNL A   1      44.112  28.846  30.124  1.00  0.00     0.167 HD
ATOM     58  C   UNL A   1      45.701  26.501  29.803  1.00  0.00     0.074 A 
ATOM     59  C   UNL A   1      46.113  25.156  29.455  1.00  0.00     0.031 C 
ATOM     60  C   UNL A   1      46.512  27.421  30.382  1.00  0.00     0.031 A 
BRANCH  47  61
ATOM     61  C   UNL A   1      43.840  32.904  31.436  1.00  0.00    -0.014 A 
ATOM     62  C   UNL A   1      44.313  33.923  30.586  1.00  0.00     0.010 A 
ATOM     63  C   UNL A   1      43.466  33.233  32.751  1.00  0.00     0.010 A 
ATOM     64  C   UNL A   1      44.456  35.231  31.058  1.00  0.00     0.020 A 
ATOM     65  C   UNL A   1      43.573  34.547  33.215  1.00  0.00     0.020 A 
ATOM     66  C   UNL A   1      44.085  35.533  32.371  1.00  0.00     0.054 A 
BRANCH  66  67
ATOM     67  S   UNL A   1      44.257  37.246  32.945  1.00  0.00     0.124 S 
ATOM     68  O   UNL A   1      43.788  38.000  31.784  1.00  0.00    -0.237 OA
ATOM     69  O   UNL A   1      43.380  37.281  34.111  1.00  0.00    -0.237 OA
ATOM     70  O   UNL A   1      45.683  37.374  33.235  1.00  0.00    -0.744 OA
ENDBRANCH  66  67
ENDBRANCH  47  61
BRANCH  48  71
ATOM     71  C   UNL A   1      42.529  23.649  27.791  1.00  0.00    -0.014 A 
ATOM     72  C   UNL A   1      42.817  23.396  26.438  1.00  0.00     0.010 A 
ATOM     73  C   UNL A   1      42.087  22.588  28.603  1.00  0.00     0.010 A 
ATOM     74  C   UNL A   1      42.647  22.116  25.902  1.00  0.00     0.020 A 
ATOM     75  C   UNL A   1      41.946  21.299  28.079  1.00  0.00     0.020 A 
ATOM     76  C   UNL A   1      42.215  21.074  26.728  1.00  0.00     0.054 A 
BRANCH  76  77
ATOM     77  S   UNL A   1      42.049  19.411  26.022  1.00  0.00     0.124 S 
ATOM     78  O   UNL A   1      42.552  18.571  27.103  1.00  0.00    -0.237 OA
ATOM     79  O   UNL A   1      40.614  19.323  25.765  1.00  0.00    -0.237 OA
ATOM     80  O   UNL A   1      42.885  19.462  24.825  1.00  0.00    -0.744 OA
ENDBRANCH  76  77
ENDBRANCH  48  71
BRANCH  60  81
ATOM     81  C   UNL A   1      47.916  26.993  30.713  1.00  0.00    -0.014 A 
ATOM     82  C   UNL A   1      48.976  27.205  29.814  1.00  0.00     0.010 A 
ATOM     83  C   UNL A   1      48.185  26.427  31.973  1.00  0.00     0.010 A 
ATOM     84  C   UNL A   1      50.276  26.828  30.159  1.00  0.00     0.020 A 
ATOM     85  C   UNL A   1      49.488  26.080  32.333  1.00  0.00     0.020 A 
ATOM     86  C   UNL A   1      50.524  26.270  31.417  1.00  0.00     0.054 A 
BRANCH  86  87
ATOM     87  S   UNL A   1      52.228  25.835  31.854  1.00  0.00     0.124 S 
ATOM     88  O   UNL A   1      52.935  26.081  30.601  1.00  0.00    -0.237 OA
ATOM     89  O   UNL A   1      52.526  26.766  32.939  1.00  0.00    -0.237 OA
ATOM     90  O   UNL A   1      52.135  24.432  32.254  1.00  0.00    -0.744 OA
ENDBRANCH  86  87
ENDBRANCH  60  81
ENDBRANCH  34  35
ENDBRANCH  26  29
ENDBRANCH   1  25
TORSDOF 14
ENDMDL
MODEL 2
REMARK VINA RESULT:     -11.9      2.430      9.097
REMARK SMILES CN1C(=O)[C@@H]2CC=CC[C@]2(C(=O)NCCCNC(=O)c2ccc(-c3c4nc(c(-c5ccc(S(=O)(=O)[O-])cc5)c5ccc([nH]5)c(-c5ccc(S(=O)(=O)[O-])cc5)c5nc(c(-c6ccc(S(=O)(=O)[O-])cc6)c6ccc3[nH]6)C=C5)C=C4)cc2)[C@H]1c1ccccc1
REMARK SMILES IDX 16 1 15 2 14 3 13 4 11 5 12 6 10 8 1 9 2 10 3 11 80 12 4 13
REMARK SMILES IDX 5 14 6 15 9 16 7 17 8 18 81 19 82 20 86 21 83 22 85 23 84 24
REMARK SMILES IDX 17 25 18 26 19 28 20 29 21 30 79 31 22 32 78 33 23 34 24 35
REMARK SMILES IDX 25 36 72 37 26 38 77 39 71 40 73 41 27 42 76 43 70 44 69 45
REMARK SMILES IDX 28 47 58 48 39 49 57 50 40 51 43 52 56 53 74 54 41 55 42 56
REMARK SMILES IDX 55 58 75 59 44 60 29 61 30 62 38 63 31 64 37 65 32 66 33 67
REMARK SMILES IDX 34 68 35 69 36 70 59 71 60 72 68 73 61 74 67 75 62 76 63 77
REMARK SMILES IDX 64 78 65 79 66 80 45 81 46 82 54 83 47 84 53 85 48 86 49 87
REMARK SMILES IDX 50 88 51 89 52 90
REMARK H PARENT 13 7 17 27 73 46 43 57
REMARK Flexibility Score: inf
ROOT
ATOM      1  C   UNL A   1      37.125  23.642  24.786  1.00  0.00     0.118 C 
ENDROOT
BRANCH   1   2
ATOM      2  C   UNL A   1      36.036  24.143  25.717  1.00  0.00     0.042 C 
BRANCH   2   3
ATOM      3  C   UNL A   1      34.813  23.258  25.813  1.00  0.00     0.117 C 
BRANCH   3   4
ATOM      4  N   UNL A   1      33.599  23.713  26.479  1.00  0.00    -0.355 N 
ATOM      5  C   UNL A   1      32.333  23.924  25.936  1.00  0.00     0.229 C 
ATOM      6  O   UNL A   1      31.360  23.798  26.682  1.00  0.00    -0.274 OA
ATOM      7  H   UNL A   1      33.684  23.895  27.443  1.00  0.00     0.163 HD
BRANCH   5   8
ATOM      8  C   UNL A   1      32.170  24.445  24.482  1.00  0.00     0.089 C 
ATOM      9  C   UNL A   1      31.677  27.698  22.665  1.00  0.00     0.147 C 
ATOM     10  N   UNL A   1      32.245  26.501  23.246  1.00  0.00    -0.337 N 
ATOM     11  C   UNL A   1      33.202  25.708  22.660  1.00  0.00     0.227 C 
ATOM     12  C   UNL A   1      31.785  25.974  24.494  1.00  0.00     0.131 C 
ATOM     13  O   UNL A   1      33.766  25.956  21.611  1.00  0.00    -0.275 OA
ATOM     14  C   UNL A   1      33.459  24.509  23.580  1.00  0.00     0.101 C 
ATOM     15  C   UNL A   1      33.895  23.306  22.744  1.00  0.00     0.041 C 
ATOM     16  C   UNL A   1      31.111  23.462  23.884  1.00  0.00     0.047 C 
ATOM     17  C   UNL A   1      32.877  22.240  22.572  1.00  0.00    -0.030 C 
ATOM     18  C   UNL A   1      31.642  22.310  23.073  1.00  0.00    -0.030 C 
BRANCH  12  19
ATOM     19  C   UNL A   1      32.351  26.819  25.662  1.00  0.00    -0.024 A 
ATOM     20  C   UNL A   1      31.537  27.345  26.679  1.00  0.00     0.006 A 
ATOM     21  C   UNL A   1      33.701  27.222  25.651  1.00  0.00     0.006 A 
ATOM     22  C   UNL A   1      31.982  28.378  27.505  1.00  0.00     0.000 A 
ATOM     23  C   UNL A   1      34.143  28.271  26.465  1.00  0.00     0.000 A 
ATOM     24  C   UNL A   1      33.271  28.874  27.365  1.00  0.00     0.000 A 
ENDBRANCH  12  19
ENDBRANCH   5   8
ENDBRANCH   3   4
ENDBRANCH   2   3
ENDBRANCH   1   2
BRANCH   1  25
ATOM     25  N   UNL A   1      38.069  22.710  25.412  1.00  0.00    -0.352 N 
ATOM     26  C   UNL A   1      39.133  22.898  26.264  1.00  0.00     0.251 C 
ATOM     27  H   UNL A   1      37.911  21.768  25.177  1.00  0.00     0.163 HD
ATOM     28  O   UNL A   1      39.879  21.951  26.503  1.00  0.00    -0.269 OA
BRANCH  26  29
ATOM     29  C   UNL A   1      39.389  24.216  26.877  1.00  0.00     0.039 A 
ATOM     30  C   UNL A   1      38.971  24.473  28.188  1.00  0.00     0.014 A 
ATOM     31  C   UNL A   1      40.043  25.210  26.156  1.00  0.00     0.014 A 
ATOM     32  C   UNL A   1      39.300  25.690  28.792  1.00  0.00     0.010 A 
ATOM     33  C   UNL A   1      40.506  26.341  26.803  1.00  0.00     0.010 A 
ATOM     34  C   UNL A   1      40.120  26.609  28.120  1.00  0.00    -0.014 A 
BRANCH  34  35
ATOM     35  C   UNL A   1      40.574  27.878  28.739  1.00  0.00     0.031 A 
ATOM     36  C   UNL A   1      41.962  27.966  29.320  1.00  0.00     0.074 A 
ATOM     37  C   UNL A   1      39.707  28.901  28.878  1.00  0.00     0.049 A 
ATOM     38  N   UNL A   1      42.505  28.926  30.023  1.00  0.00    -0.248 NA
ATOM     39  C   UNL A   1      42.842  26.796  29.132  1.00  0.00     0.031 C 
ATOM     40  C   UNL A   1      38.317  28.908  28.413  1.00  0.00     0.029 A 
ATOM     41  N   UNL A   1      39.865  30.132  29.461  1.00  0.00    -0.354 N 
ATOM     42  C   UNL A   1      43.764  28.462  30.386  1.00  0.00     0.074 A 
ATOM     43  C   UNL A   1      43.878  27.108  29.895  1.00  0.00     0.031 C 
ATOM     44  C   UNL A   1      37.764  30.100  28.690  1.00  0.00     0.029 A 
ATOM     45  C   UNL A   1      38.739  30.921  29.399  1.00  0.00     0.049 A 
ATOM     46  H   UNL A   1      40.704  30.424  29.885  1.00  0.00     0.167 HD
ATOM     47  C   UNL A   1      44.753  29.114  31.039  1.00  0.00     0.031 A 
ATOM     48  C   UNL A   1      38.517  32.164  29.865  1.00  0.00     0.031 A 
ATOM     49  C   UNL A   1      44.641  30.474  31.491  1.00  0.00     0.049 A 
ATOM     50  C   UNL A   1      39.636  32.878  30.576  1.00  0.00     0.074 A 
ATOM     51  C   UNL A   1      45.601  31.261  32.098  1.00  0.00     0.029 A 
ATOM     52  N   UNL A   1      43.496  31.249  31.377  1.00  0.00    -0.354 N 
ATOM     53  N   UNL A   1      40.846  32.448  30.845  1.00  0.00    -0.248 NA
ATOM     54  C   UNL A   1      39.363  34.245  31.033  1.00  0.00     0.031 C 
ATOM     55  C   UNL A   1      45.019  32.495  32.403  1.00  0.00     0.029 A 
ATOM     56  C   UNL A   1      43.718  32.499  31.924  1.00  0.00     0.049 A 
ATOM     57  H   UNL A   1      42.651  30.953  30.968  1.00  0.00     0.167 HD
ATOM     58  C   UNL A   1      41.490  33.506  31.476  1.00  0.00     0.074 A 
ATOM     59  C   UNL A   1      40.539  34.598  31.534  1.00  0.00     0.031 C 
ATOM     60  C   UNL A   1      42.754  33.570  31.966  1.00  0.00     0.031 A 
BRANCH  47  61
ATOM     61  C   UNL A   1      46.036  28.366  31.295  1.00  0.00    -0.014 A 
ATOM     62  C   UNL A   1      46.242  27.659  32.496  1.00  0.00     0.010 A 
ATOM     63  C   UNL A   1      47.042  28.345  30.312  1.00  0.00     0.010 A 
ATOM     64  C   UNL A   1      47.446  26.989  32.728  1.00  0.00     0.020 A 
ATOM     65  C   UNL A   1      48.234  27.645  30.526  1.00  0.00     0.020 A 
ATOM     66  C   UNL A   1      48.435  26.988  31.740  1.00  0.00     0.054 A 
BRANCH  66  67
ATOM     67  S   UNL A   1      49.976  26.087  32.061  1.00  0.00     0.124 S 
ATOM     68  O   UNL A   1      50.640  26.156  30.761  1.00  0.00    -0.237 OA
ATOM     69  O   UNL A   1      50.592  26.876  33.123  1.00  0.00    -0.237 OA
ATOM     70  O   UNL A   1      49.524  24.756  32.458  1.00  0.00    -0.744 OA
ENDBRANCH  66  67
ENDBRANCH  47  61
BRANCH  48  71
ATOM     71  C   UNL A   1      37.197  32.818  29.650  1.00  0.00    -0.014 A 
ATOM     72  C   UNL A   1      36.308  32.999  30.725  1.00  0.00     0.010 A 
ATOM     73  C   UNL A   1      36.827  33.283  28.375  1.00  0.00     0.010 A 
ATOM     74  C   UNL A   1      35.068  33.612  30.525  1.00  0.00     0.020 A 
ATOM     75  C   UNL A   1      35.601  33.925  28.178  1.00  0.00     0.020 A 
ATOM     76  C   UNL A   1      34.723  34.075  29.253  1.00  0.00     0.054 A 
BRANCH  76  77
ATOM     77  S   UNL A   1      33.130  34.912  29.028  1.00  0.00     0.124 S 
ATOM     78  O   UNL A   1      32.507  34.104  27.985  1.00  0.00    -0.237 OA
ATOM     79  O   UNL A   1      32.530  34.805  30.356  1.00  0.00    -0.237 OA
ATOM     80  O   UNL A   1      33.507  36.266  28.632  1.00  0.00    -0.744 OA
ENDBRANCH  76  77
ENDBRANCH  48  71
BRANCH  60  81
ATOM     81  C   UNL A   1      43.195  34.876  32.569  1.00  0.00    -0.014 A 
ATOM     82  C   UNL A   1      43.751  35.896  31.778  1.00  0.00     0.010 A 
ATOM     83  C   UNL A   1      42.988  35.106  33.942  1.00  0.00     0.010 A 
ATOM     84  C   UNL A   1      44.121  37.112  32.356  1.00  0.00     0.020 A 
ATOM     85  C   UNL A   1      43.327  36.332  34.516  1.00  0.00     0.020 A 
ATOM     86  C   UNL A   1      43.906  37.322  33.721  1.00  0.00     0.054 A 
BRANCH  86  87
ATOM     87  S   UNL A   1      44.353  38.927  34.435  1.00  0.00     0.124 S 
ATOM     88  O   UNL A   1      44.218  38.671  35.866  1.00  0.00    -0.237 OA
ATOM     89  O   UNL A   1      45.719  39.120  33.956  1.00  0.00    -0.237 OA
ATOM     90  O   UNL A   1      43.365  39.845  33.870  1.00  0.00    -0.744 OA
ENDBRANCH  86  87
ENDBRANCH  60  81
ENDBRANCH  34  35
ENDBRANCH  26  29
ENDBRANCH   1  25
TORSDOF 14
ENDMDL
MODEL 3
REMARK VINA RESULT:     -11.4      2.944      4.349
REMARK SMILES CN1C(=O)[C@@H]2CC=CC[C@]2(C(=O)NCCCNC(=O)c2ccc(-c3c4nc(c(-c5ccc(S(=O)(=O)[O-])cc5)c5ccc([nH]5)c(-c5ccc(S(=O)(=O)[O-])cc5)c5nc(c(-c6ccc(S(=O)(=O)[O-])cc6)c6ccc3[nH]6)C=C5)C=C4)cc2)[C@H]1c1ccccc1
REMARK SMILES IDX 16 1 15 2 14 3 13 4 11 5 12 6 10 8 1 9 2 10 3 11 80 12 4 13
REMARK SMILES IDX 5 14 6 15 9 16 7 17 8 18 81 19 82 20 86 21 83 22 85 23 84 24
REMARK SMILES IDX 17 25 18 26 19 28 20 29 21 30 79 31 22 32 78 33 23 34 24 35
REMARK SMILES IDX 25 36 72 37 26 38 77 39 71 40 73 41 27 42 76 43 70 44 69 45
REMARK SMILES IDX 28 47 58 48 39 49 57 50 40 51 43 52 56 53 74 54 41 55 42 56
REMARK SMILES IDX 55 58 75 59 44 60 29 61 30 62 38 63 31 64 37 65 32 66 33 67
REMARK SMILES IDX 34 68 35 69 36 70 59 71 60 72 68 73 61 74 67 75 62 76 63 77
REMARK SMILES IDX 64 78 65 79 66 80 45 81 46 82 54 83 47 84 53 85 48 86 49 87
REMARK SMILES IDX 50 88 51 89 52 90
REMARK H PARENT 13 7 17 27 73 46 43 57
REMARK Flexibility Score: inf
ROOT
ATOM      1  C   UNL A   1      35.413  30.542  27.878  1.00  0.00     0.118 C 
ENDROOT
BRANCH   1   2
ATOM      2  C   UNL A   1      34.007  30.446  27.315  1.00  0.00     0.042 C 
BRANCH   2   3
ATOM      3  C   UNL A   1      33.710  29.183  26.536  1.00  0.00     0.117 C 
BRANCH   3   4
ATOM      4  N   UNL A   1      34.287  28.953  25.218  1.00  0.00    -0.355 N 
ATOM      5  C   UNL A   1      33.769  28.214  24.156  1.00  0.00     0.229 C 
ATOM      6  O   UNL A   1      34.099  28.540  23.014  1.00  0.00    -0.274 OA
ATOM      7  H   UNL A   1      35.160  29.376  25.055  1.00  0.00     0.163 HD
BRANCH   5   8
ATOM      8  C   UNL A   1      32.926  26.935  24.415  1.00  0.00     0.089 C 
ATOM      9  C   UNL A   1      29.324  25.934  24.807  1.00  0.00     0.147 C 
ATOM     10  N   UNL A   1      30.654  26.173  24.287  1.00  0.00    -0.337 N 
ATOM     11  C   UNL A   1      31.351  25.325  23.462  1.00  0.00     0.227 C 
ATOM     12  C   UNL A   1      31.418  27.322  24.667  1.00  0.00     0.131 C 
ATOM     13  O   UNL A   1      30.908  24.298  22.983  1.00  0.00    -0.275 OA
ATOM     14  C   UNL A   1      32.739  25.928  23.219  1.00  0.00     0.101 C 
ATOM     15  C   UNL A   1      33.748  24.808  22.968  1.00  0.00     0.041 C 
ATOM     16  C   UNL A   1      33.684  26.261  25.606  1.00  0.00     0.047 C 
ATOM     17  C   UNL A   1      34.685  24.525  24.084  1.00  0.00    -0.030 C 
ATOM     18  C   UNL A   1      34.654  25.165  25.255  1.00  0.00    -0.030 C 
BRANCH  12  19
ATOM     19  C   UNL A   1      30.893  28.573  23.922  1.00  0.00    -0.024 A 
ATOM     20  C   UNL A   1      30.658  29.797  24.571  1.00  0.00     0.006 A 
ATOM     21  C   UNL A   1      30.481  28.473  22.579  1.00  0.00     0.006 A 
ATOM     22  C   UNL A   1      29.864  30.787  23.989  1.00  0.00     0.000 A 
ATOM     23  C   UNL A   1      29.669  29.456  22.001  1.00  0.00     0.000 A 
ATOM     24  C   UNL A   1      29.330  30.596  22.722  1.00  0.00     0.000 A 
ENDBRANCH  12  19
ENDBRANCH   5   8
ENDBRANCH   3   4
ENDBRANCH   2   3
ENDBRANCH   1   2
BRANCH   1  25
ATOM     25  N   UNL A   1      35.473  30.561  29.344  1.00  0.00    -0.352 N 
ATOM     26  C   UNL A   1      36.393  30.076  30.244  1.00  0.00     0.251 C 
ATOM     27  H   UNL A   1      34.704  31.009  29.766  1.00  0.00     0.163 HD
ATOM     28  O   UNL A   1      36.112  30.069  31.439  1.00  0.00    -0.269 OA
BRANCH  26  29
ATOM     29  C   UNL A   1      37.698  29.558  29.786  1.00  0.00     0.039 A 
ATOM     30  C   UNL A   1      38.090  29.725  28.453  1.00  0.00     0.014 A 
ATOM     31  C   UNL A   1      38.541  28.898  30.674  1.00  0.00     0.014 A 
ATOM     32  C   UNL A   1      39.365  29.315  28.052  1.00  0.00     0.010 A 
ATOM     33  C   UNL A   1      39.853  28.641  30.319  1.00  0.00     0.010 A 
ATOM     34  C   UNL A   1      40.276  28.822  28.999  1.00  0.00    -0.014 A 
BRANCH  34  35
ATOM     35  C   UNL A   1      41.669  28.450  28.651  1.00  0.00     0.031 A 
ATOM     36  C   UNL A   1      42.736  29.515  28.625  1.00  0.00     0.074 A 
ATOM     37  C   UNL A   1      41.946  27.192  28.254  1.00  0.00     0.049 A 
ATOM     38  N   UNL A   1      43.976  29.432  28.218  1.00  0.00    -0.248 NA
ATOM     39  C   UNL A   1      42.345  30.868  29.066  1.00  0.00     0.031 C 
ATOM     40  C   UNL A   1      40.980  26.092  28.176  1.00  0.00     0.029 A 
ATOM     41  N   UNL A   1      43.121  26.628  27.830  1.00  0.00    -0.354 N 
ATOM     42  C   UNL A   1      44.493  30.718  28.321  1.00  0.00     0.074 A 
ATOM     43  C   UNL A   1      43.416  31.578  28.753  1.00  0.00     0.031 C 
ATOM     44  C   UNL A   1      41.611  24.978  27.774  1.00  0.00     0.029 A 
ATOM     45  C   UNL A   1      43.011  25.294  27.513  1.00  0.00     0.049 A 
ATOM     46  H   UNL A   1      43.965  27.130  27.758  1.00  0.00     0.167 HD
ATOM     47  C   UNL A   1      45.760  31.142  28.108  1.00  0.00     0.031 A 
ATOM     48  C   UNL A   1      43.933  24.425  27.058  1.00  0.00     0.031 A 
ATOM     49  C   UNL A   1      46.832  30.270  27.713  1.00  0.00     0.049 A 
ATOM     50  C   UNL A   1      45.340  24.914  26.843  1.00  0.00     0.074 A 
ATOM     51  C   UNL A   1      48.169  30.574  27.539  1.00  0.00     0.029 A 
ATOM     52  N   UNL A   1      46.685  28.919  27.436  1.00  0.00    -0.354 N 
ATOM     53  N   UNL A   1      45.827  26.121  27.017  1.00  0.00    -0.248 NA
ATOM     54  C   UNL A   1      46.322  23.925  26.385  1.00  0.00     0.031 C 
ATOM     55  C   UNL A   1      48.822  29.418  27.102  1.00  0.00     0.029 A 
ATOM     56  C   UNL A   1      47.904  28.379  27.070  1.00  0.00     0.049 A 
ATOM     57  H   UNL A   1      45.839  28.419  27.492  1.00  0.00     0.167 HD
ATOM     58  C   UNL A   1      47.182  26.027  26.717  1.00  0.00     0.074 A 
ATOM     59  C   UNL A   1      47.436  24.644  26.368  1.00  0.00     0.031 C 
ATOM     60  C   UNL A   1      48.130  26.997  26.729  1.00  0.00     0.031 A 
BRANCH  47  61
ATOM     61  C   UNL A   1      46.050  32.608  28.305  1.00  0.00    -0.014 A 
ATOM     62  C   UNL A   1      46.045  33.506  27.219  1.00  0.00     0.010 A 
ATOM     63  C   UNL A   1      46.306  33.104  29.596  1.00  0.00     0.010 A 
ATOM     64  C   UNL A   1      46.338  34.858  27.415  1.00  0.00     0.020 A 
ATOM     65  C   UNL A   1      46.564  34.463  29.800  1.00  0.00     0.020 A 
ATOM     66  C   UNL A   1      46.597  35.327  28.705  1.00  0.00     0.054 A 
BRANCH  66  67
ATOM     67  S   UNL A   1      46.947  37.093  28.929  1.00  0.00     0.124 S 
ATOM     68  O   UNL A   1      46.090  37.428  30.065  1.00  0.00    -0.237 OA
ATOM     69  O   UNL A   1      48.381  37.102  29.202  1.00  0.00    -0.237 OA
ATOM     70  O   UNL A   1      46.553  37.690  27.655  1.00  0.00    -0.744 OA
ENDBRANCH  66  67
ENDBRANCH  47  61
BRANCH  48  71
ATOM     71  C   UNL A   1      43.561  23.006  26.805  1.00  0.00    -0.014 A 
ATOM     72  C   UNL A   1      43.952  22.369  25.614  1.00  0.00     0.010 A 
ATOM     73  C   UNL A   1      42.833  22.275  27.762  1.00  0.00     0.010 A 
ATOM     74  C   UNL A   1      43.604  21.036  25.374  1.00  0.00     0.020 A 
ATOM     75  C   UNL A   1      42.511  20.932  27.539  1.00  0.00     0.020 A 
ATOM     76  C   UNL A   1      42.888  20.325  26.341  1.00  0.00     0.054 A 
BRANCH  76  77
ATOM     77  S   UNL A   1      42.491  18.583  26.029  1.00  0.00     0.124 S 
ATOM     78  O   UNL A   1      43.294  18.295  24.845  1.00  0.00    -0.237 OA
ATOM     79  O   UNL A   1      42.927  17.936  27.263  1.00  0.00    -0.237 OA
ATOM     80  O   UNL A   1      41.045  18.594  25.819  1.00  0.00    -0.744 OA
ENDBRANCH  76  77
ENDBRANCH  48  71
BRANCH  60  81
ATOM     81  C   UNL A   1      49.539  26.588  26.394  1.00  0.00    -0.014 A 
ATOM     82  C   UNL A   1      50.353  25.932  27.334  1.00  0.00     0.010 A 
ATOM     83  C   UNL A   1      50.030  26.807  25.093  1.00  0.00     0.010 A 
ATOM     84  C   UNL A   1      51.646  25.533  26.987  1.00  0.00     0.020 A 
ATOM     85  C   UNL A   1      51.309  26.381  24.735  1.00  0.00     0.020 A 
ATOM     86  C   UNL A   1      52.115  25.759  25.689  1.00  0.00     0.054 A 
BRANCH  86  87
ATOM     87  S   UNL A   1      53.779  25.187  25.255  1.00  0.00     0.124 S 
ATOM     88  O   UNL A   1      53.907  25.648  23.875  1.00  0.00    -0.237 OA
ATOM     89  O   UNL A   1      54.618  25.878  26.230  1.00  0.00    -0.237 OA
ATOM     90  O   UNL A   1      53.703  23.737  25.423  1.00  0.00    -0.744 OA
ENDBRANCH  86  87
ENDBRANCH  60  81
ENDBRANCH  34  35
ENDBRANCH  26  29
ENDBRANCH   1  25
TORSDOF 14
ENDMDL
