MODEL 1
REMARK VINA RESULT:     -10.3      0.000      0.000
REMARK SMILES CC[C@H](C)[C@@H](NC(=O)[C@@H]1CCCN1C(=O)C1CC1)C(=O)NCCCNC(=O)c1ccc(-c2c3nc(c(-c4ccc(S(=O)(=O)[O-])cc4)c4ccc([nH]4)c(-c4ccc(S(=O)(=O)[O-])cc4)c4nc(c(-c5ccc(S(=O)(=O)[O-])cc5)c5ccc2[nH]5)C=C4)C=C3)cc1
REMARK SMILES IDX 22 1 21 2 19 3 20 4 5 6 3 7 4 8 2 9 1 10 6 11 7 12 8 14 9 15
REMARK SMILES IDX 10 16 13 17 11 18 12 19 14 20 15 21 16 22 17 23 18 24 23 25
REMARK SMILES IDX 24 26 25 27 26 28 27 30 28 31 29 32 87 33 30 34 86 35 31 36
REMARK SMILES IDX 32 37 33 38 80 39 34 40 85 41 79 42 81 43 35 44 84 45 78 46
REMARK SMILES IDX 77 47 36 49 66 50 47 51 65 52 48 53 51 54 64 55 82 56 49 57
REMARK SMILES IDX 50 58 63 60 83 61 52 62 37 63 38 64 46 65 39 66 45 67 40 68
REMARK SMILES IDX 41 69 42 70 43 71 44 72 67 73 68 74 76 75 69 76 75 77 70 78
REMARK SMILES IDX 71 79 72 80 73 81 74 82 53 83 54 84 62 85 55 86 61 87 56 88
REMARK SMILES IDX 57 89 58 90 59 91 60 92
REMARK H PARENT 21 5 6 13 25 29 81 48 51 59
REMARK Flexibility Score: inf
ROOT
ATOM      1  C   UNL A   1      31.580  28.120  26.781  1.00  0.00     0.117 C 
ENDROOT
BRANCH   1   2
ATOM      2  N   UNL A   1      31.331  26.784  26.260  1.00  0.00    -0.354 N 
ATOM      3  C   UNL A   1      31.582  26.409  24.956  1.00  0.00     0.242 C 
ATOM      4  O   UNL A   1      32.694  26.575  24.450  1.00  0.00    -0.273 OA
ATOM      5  H   UNL A   1      30.964  26.108  26.875  1.00  0.00     0.163 HD
BRANCH   3   6
ATOM      6  C   UNL A   1      30.465  25.608  24.209  1.00  0.00     0.174 C 
BRANCH   6   7
ATOM      7  C   UNL A   1      29.460  26.466  23.363  1.00  0.00     0.018 C 
ATOM      8  C   UNL A   1      28.107  26.732  24.042  1.00  0.00     0.010 C 
BRANCH   7   9
ATOM      9  C   UNL A   1      30.065  27.840  22.933  1.00  0.00     0.002 C 
ATOM     10  C   UNL A   1      29.246  29.079  23.294  1.00  0.00     0.004 C 
ENDBRANCH   7   9
ENDBRANCH   6   7
BRANCH   6  11
ATOM     11  N   UNL A   1      30.679  24.217  23.694  1.00  0.00    -0.342 N 
ATOM     12  C   UNL A   1      31.547  23.182  23.714  1.00  0.00     0.243 C 
ATOM     13  H   UNL A   1      29.905  23.965  23.141  1.00  0.00     0.164 HD
ATOM     14  O   UNL A   1      31.457  22.448  22.711  1.00  0.00    -0.273 OA
BRANCH  12  15
ATOM     15  C   UNL A   1      32.393  22.639  24.887  1.00  0.00     0.174 C 
ATOM     16  C   UNL A   1      31.548  22.702  26.174  1.00  0.00     0.037 C 
ATOM     17  N   UNL A   1      33.628  23.303  25.204  1.00  0.00    -0.330 N 
ATOM     18  C   UNL A   1      32.368  23.464  27.206  1.00  0.00     0.024 C 
ATOM     19  C   UNL A   1      33.515  24.061  26.429  1.00  0.00     0.120 C 
BRANCH  17  20
ATOM     20  C   UNL A   1      34.604  23.540  24.286  1.00  0.00     0.226 C 
ATOM     21  O   UNL A   1      34.344  24.180  23.262  1.00  0.00    -0.275 OA
BRANCH  20  22
ATOM     22  C   UNL A   1      36.021  23.164  24.445  1.00  0.00     0.079 C 
ATOM     23  C   UNL A   1      36.686  21.827  24.404  1.00  0.00     0.014 C 
ATOM     24  C   UNL A   1      36.844  22.772  23.245  1.00  0.00     0.014 C 
ENDBRANCH  20  22
ENDBRANCH  17  20
ENDBRANCH  12  15
ENDBRANCH   6  11
ENDBRANCH   3   6
ENDBRANCH   1   2
BRANCH   1  25
ATOM     25  C   UNL A   1      33.002  28.246  27.348  1.00  0.00     0.042 C 
BRANCH  25  26
ATOM     26  C   UNL A   1      33.723  29.483  26.841  1.00  0.00     0.118 C 
BRANCH  26  27
ATOM     27  N   UNL A   1      33.748  30.662  27.707  1.00  0.00    -0.352 N 
ATOM     28  C   UNL A   1      34.788  31.026  28.554  1.00  0.00     0.251 C 
ATOM     29  H   UNL A   1      32.957  31.248  27.689  1.00  0.00     0.163 HD
ATOM     30  O   UNL A   1      34.701  31.977  29.321  1.00  0.00    -0.269 OA
BRANCH  28  31
ATOM     31  C   UNL A   1      36.001  30.167  28.550  1.00  0.00     0.039 A 
ATOM     32  C   UNL A   1      36.911  30.241  27.492  1.00  0.00     0.014 A 
ATOM     33  C   UNL A   1      36.327  29.463  29.705  1.00  0.00     0.014 A 
ATOM     34  C   UNL A   1      38.203  29.727  27.661  1.00  0.00     0.010 A 
ATOM     35  C   UNL A   1      37.646  29.101  29.927  1.00  0.00     0.010 A 
ATOM     36  C   UNL A   1      38.606  29.223  28.910  1.00  0.00    -0.014 A 
BRANCH  36  37
ATOM     37  C   UNL A   1      40.004  28.798  29.199  1.00  0.00     0.031 A 
ATOM     38  C   UNL A   1      40.959  29.785  29.825  1.00  0.00     0.074 A 
ATOM     39  C   UNL A   1      40.457  27.593  28.793  1.00  0.00     0.049 A 
ATOM     40  N   UNL A   1      42.254  29.697  29.991  1.00  0.00    -0.248 NA
ATOM     41  C   UNL A   1      40.389  31.073  30.261  1.00  0.00     0.031 C 
ATOM     42  C   UNL A   1      39.667  26.567  28.105  1.00  0.00     0.029 A 
ATOM     43  N   UNL A   1      41.708  27.029  28.891  1.00  0.00    -0.354 N 
ATOM     44  C   UNL A   1      42.653  30.933  30.489  1.00  0.00     0.074 A 
ATOM     45  C   UNL A   1      41.478  31.774  30.529  1.00  0.00     0.031 C 
ATOM     46  C   UNL A   1      40.438  25.489  27.884  1.00  0.00     0.029 A 
ATOM     47  C   UNL A   1      41.786  25.757  28.371  1.00  0.00     0.049 A 
ATOM     48  H   UNL A   1      42.476  27.492  29.295  1.00  0.00     0.167 HD
ATOM     49  C   UNL A   1      43.876  31.328  30.916  1.00  0.00     0.031 A 
ATOM     50  C   UNL A   1      42.826  24.901  28.298  1.00  0.00     0.031 A 
ATOM     51  C   UNL A   1      45.024  30.466  30.947  1.00  0.00     0.049 A 
ATOM     52  C   UNL A   1      44.159  25.327  28.851  1.00  0.00     0.074 A 
ATOM     53  C   UNL A   1      46.287  30.730  31.442  1.00  0.00     0.029 A 
ATOM     54  N   UNL A   1      45.037  29.159  30.483  1.00  0.00    -0.354 N 
ATOM     55  N   UNL A   1      44.503  26.480  29.375  1.00  0.00    -0.248 NA
ATOM     56  C   UNL A   1      45.241  24.333  28.819  1.00  0.00     0.031 C 
ATOM     57  C   UNL A   1      47.075  29.589  31.253  1.00  0.00     0.029 A 
ATOM     58  C   UNL A   1      46.287  28.602  30.680  1.00  0.00     0.049 A 
ATOM     59  H   UNL A   1      44.270  28.696  30.074  1.00  0.00     0.167 HD
ATOM     60  C   UNL A   1      45.832  26.340  29.760  1.00  0.00     0.074 A 
ATOM     61  C   UNL A   1      46.227  24.988  29.419  1.00  0.00     0.031 C 
ATOM     62  C   UNL A   1      46.652  27.249  30.343  1.00  0.00     0.031 A 
BRANCH  49  63
ATOM     63  C   UNL A   1      44.013  32.750  31.397  1.00  0.00    -0.014 A 
ATOM     64  C   UNL A   1      44.346  33.789  30.508  1.00  0.00     0.010 A 
ATOM     65  C   UNL A   1      43.823  33.051  32.758  1.00  0.00     0.010 A 
ATOM     66  C   UNL A   1      44.559  35.086  30.981  1.00  0.00     0.020 A 
ATOM     67  C   UNL A   1      44.000  34.355  33.229  1.00  0.00     0.020 A 
ATOM     68  C   UNL A   1      44.395  35.358  32.341  1.00  0.00     0.054 A 
BRANCH  68  69
ATOM     69  S   UNL A   1      44.690  37.047  32.932  1.00  0.00     0.124 S 
ATOM     70  O   UNL A   1      45.409  36.806  34.181  1.00  0.00    -0.237 OA
ATOM     71  O   UNL A   1      45.486  37.630  31.854  1.00  0.00    -0.237 OA
ATOM     72  O   UNL A   1      43.348  37.601  33.081  1.00  0.00    -0.744 OA
ENDBRANCH  68  69
ENDBRANCH  49  63
BRANCH  50  73
ATOM     73  C   UNL A   1      42.633  23.539  27.725  1.00  0.00    -0.014 A 
ATOM     74  C   UNL A   1      43.046  23.261  26.409  1.00  0.00     0.010 A 
ATOM     75  C   UNL A   1      42.065  22.507  28.493  1.00  0.00     0.010 A 
ATOM     76  C   UNL A   1      42.886  21.981  25.867  1.00  0.00     0.020 A 
ATOM     77  C   UNL A   1      41.927  21.219  27.962  1.00  0.00     0.020 A 
ATOM     78  C   UNL A   1      42.331  20.966  26.650  1.00  0.00     0.054 A 
BRANCH  78  79
ATOM     79  S   UNL A   1      42.199  19.295  25.951  1.00  0.00     0.124 S 
ATOM     80  O   UNL A   1      40.760  19.163  25.749  1.00  0.00    -0.237 OA
ATOM     81  O   UNL A   1      43.001  19.397  24.734  1.00  0.00    -0.237 OA
ATOM     82  O   UNL A   1      42.768  18.444  26.993  1.00  0.00    -0.744 OA
ENDBRANCH  78  79
ENDBRANCH  50  73
BRANCH  62  83
ATOM     83  C   UNL A   1      48.047  26.805  30.687  1.00  0.00    -0.014 A 
ATOM     84  C   UNL A   1      49.120  27.036  29.810  1.00  0.00     0.010 A 
ATOM     85  C   UNL A   1      48.294  26.218  31.942  1.00  0.00     0.010 A 
ATOM     86  C   UNL A   1      50.418  26.666  30.175  1.00  0.00     0.020 A 
ATOM     87  C   UNL A   1      49.593  25.870  32.319  1.00  0.00     0.020 A 
ATOM     88  C   UNL A   1      50.645  26.087  31.427  1.00  0.00     0.054 A 
BRANCH  88  89
ATOM     89  S   UNL A   1      52.345  25.670  31.901  1.00  0.00     0.124 S 
ATOM     90  O   UNL A   1      53.082  25.962  30.674  1.00  0.00    -0.237 OA
ATOM     91  O   UNL A   1      52.600  26.578  33.017  1.00  0.00    -0.237 OA
ATOM     92  O   UNL A   1      52.268  24.256  32.261  1.00  0.00    -0.744 OA
ENDBRANCH  88  89
ENDBRANCH  62  83
ENDBRANCH  36  37
ENDBRANCH  28  31
ENDBRANCH  26  27
ENDBRANCH  25  26
ENDBRANCH   1  25
TORSDOF 19
ENDMDL
MODEL 2
REMARK VINA RESULT:     -10.2      2.716      9.412
REMARK SMILES CC[C@H](C)[C@@H](NC(=O)[C@@H]1CCCN1C(=O)C1CC1)C(=O)NCCCNC(=O)c1ccc(-c2c3nc(c(-c4ccc(S(=O)(=O)[O-])cc4)c4ccc([nH]4)c(-c4ccc(S(=O)(=O)[O-])cc4)c4nc(c(-c5ccc(S(=O)(=O)[O-])cc5)c5ccc2[nH]5)C=C4)C=C3)cc1
REMARK SMILES IDX 22 1 21 2 19 3 20 4 5 6 3 7 4 8 2 9 1 10 6 11 7 12 8 14 9 15
REMARK SMILES IDX 10 16 13 17 11 18 12 19 14 20 15 21 16 22 17 23 18 24 23 25
REMARK SMILES IDX 24 26 25 27 26 28 27 30 28 31 29 32 87 33 30 34 86 35 31 36
REMARK SMILES IDX 32 37 33 38 80 39 34 40 85 41 79 42 81 43 35 44 84 45 78 46
REMARK SMILES IDX 77 47 36 49 66 50 47 51 65 52 48 53 51 54 64 55 82 56 49 57
REMARK SMILES IDX 50 58 63 60 83 61 52 62 37 63 38 64 46 65 39 66 45 67 40 68
REMARK SMILES IDX 41 69 42 70 43 71 44 72 67 73 68 74 76 75 69 76 75 77 70 78
REMARK SMILES IDX 71 79 72 80 73 81 74 82 53 83 54 84 62 85 55 86 61 87 56 88
REMARK SMILES IDX 57 89 58 90 59 91 60 92
REMARK H PARENT 21 5 6 13 25 29 81 48 51 59
REMARK Flexibility Score: inf
ROOT
ATOM      1  C   UNL A   1      34.841  22.649  25.808  1.00  0.00     0.117 C 
ENDROOT
BRANCH   1   2
ATOM      2  N   UNL A   1      34.245  23.456  24.753  1.00  0.00    -0.354 N 
ATOM      3  C   UNL A   1      33.851  24.768  24.920  1.00  0.00     0.242 C 
ATOM      4  O   UNL A   1      34.635  25.618  25.350  1.00  0.00    -0.273 OA
ATOM      5  H   UNL A   1      34.118  23.042  23.869  1.00  0.00     0.163 HD
BRANCH   3   6
ATOM      6  C   UNL A   1      32.440  25.171  24.379  1.00  0.00     0.174 C 
BRANCH   6   7
ATOM      7  C   UNL A   1      31.404  25.643  25.458  1.00  0.00     0.018 C 
ATOM      8  C   UNL A   1      29.950  25.726  24.965  1.00  0.00     0.010 C 
BRANCH   7   9
ATOM      9  C   UNL A   1      31.430  24.750  26.740  1.00  0.00     0.002 C 
ATOM     10  C   UNL A   1      30.773  23.375  26.616  1.00  0.00     0.004 C 
ENDBRANCH   7   9
ENDBRANCH   6   7
BRANCH   6  11
ATOM     11  N   UNL A   1      32.241  25.775  23.021  1.00  0.00    -0.342 N 
ATOM     12  C   UNL A   1      31.850  26.905  22.392  1.00  0.00     0.243 C 
ATOM     13  H   UNL A   1      32.483  25.106  22.341  1.00  0.00     0.164 HD
ATOM     14  O   UNL A   1      31.405  26.698  21.246  1.00  0.00    -0.273 OA
BRANCH  12  15
ATOM     15  C   UNL A   1      32.135  28.378  22.761  1.00  0.00     0.174 C 
ATOM     16  C   UNL A   1      33.313  28.417  23.753  1.00  0.00     0.037 C 
ATOM     17  N   UNL A   1      31.087  29.144  23.376  1.00  0.00    -0.330 N 
ATOM     18  C   UNL A   1      32.847  29.216  24.962  1.00  0.00     0.024 C 
ATOM     19  C   UNL A   1      31.358  29.372  24.777  1.00  0.00     0.120 C 
BRANCH  17  20
ATOM     20  C   UNL A   1      29.839  29.261  22.845  1.00  0.00     0.226 C 
ATOM     21  O   UNL A   1      28.901  28.619  23.329  1.00  0.00    -0.275 OA
BRANCH  20  22
ATOM     22  C   UNL A   1      29.467  30.185  21.758  1.00  0.00     0.079 C 
ATOM     23  C   UNL A   1      28.131  30.532  21.187  1.00  0.00     0.014 C 
ATOM     24  C   UNL A   1      28.840  31.519  22.074  1.00  0.00     0.014 C 
ENDBRANCH  20  22
ENDBRANCH  17  20
ENDBRANCH  12  15
ENDBRANCH   6  11
ENDBRANCH   3   6
ENDBRANCH   1   2
BRANCH   1  25
ATOM     25  C   UNL A   1      36.164  22.016  25.351  1.00  0.00     0.042 C 
BRANCH  25  26
ATOM     26  C   UNL A   1      37.363  22.902  25.640  1.00  0.00     0.118 C 
BRANCH  26  27
ATOM     27  N   UNL A   1      38.673  22.261  25.758  1.00  0.00    -0.352 N 
ATOM     28  C   UNL A   1      39.812  22.835  26.312  1.00  0.00     0.251 C 
ATOM     29  H   UNL A   1      38.755  21.342  25.413  1.00  0.00     0.163 HD
ATOM     30  O   UNL A   1      40.900  22.273  26.292  1.00  0.00    -0.269 OA
BRANCH  28  31
ATOM     31  C   UNL A   1      39.679  24.205  26.873  1.00  0.00     0.039 A 
ATOM     32  C   UNL A   1      39.136  24.392  28.147  1.00  0.00     0.014 A 
ATOM     33  C   UNL A   1      40.301  25.261  26.215  1.00  0.00     0.014 A 
ATOM     34  C   UNL A   1      39.350  25.607  28.811  1.00  0.00     0.010 A 
ATOM     35  C   UNL A   1      40.647  26.396  26.933  1.00  0.00     0.010 A 
ATOM     36  C   UNL A   1      40.176  26.590  28.241  1.00  0.00    -0.014 A 
BRANCH  36  37
ATOM     37  C   UNL A   1      40.563  27.839  28.955  1.00  0.00     0.031 A 
ATOM     38  C   UNL A   1      41.902  27.904  29.649  1.00  0.00     0.074 A 
ATOM     39  C   UNL A   1      39.685  28.854  29.097  1.00  0.00     0.049 A 
ATOM     40  N   UNL A   1      42.364  28.805  30.478  1.00  0.00    -0.248 NA
ATOM     41  C   UNL A   1      42.816  26.768  29.433  1.00  0.00     0.031 C 
ATOM     42  C   UNL A   1      38.326  28.895  28.546  1.00  0.00     0.029 A 
ATOM     43  N   UNL A   1      39.802  30.050  29.764  1.00  0.00    -0.354 N 
ATOM     44  C   UNL A   1      43.587  28.313  30.923  1.00  0.00     0.074 A 
ATOM     45  C   UNL A   1      43.759  27.006  30.330  1.00  0.00     0.031 C 
ATOM     46  C   UNL A   1      37.756  30.071  28.861  1.00  0.00     0.029 A 
ATOM     47  C   UNL A   1      38.685  30.851  29.671  1.00  0.00     0.049 A 
ATOM     48  H   UNL A   1      40.609  30.311  30.262  1.00  0.00     0.167 HD
ATOM     49  C   UNL A   1      44.508  28.905  31.720  1.00  0.00     0.031 A 
ATOM     50  C   UNL A   1      38.439  32.076  30.178  1.00  0.00     0.031 A 
ATOM     51  C   UNL A   1      44.368  30.235  32.244  1.00  0.00     0.049 A 
ATOM     52  C   UNL A   1      39.507  32.754  30.994  1.00  0.00     0.074 A 
ATOM     53  C   UNL A   1      45.276  30.968  32.985  1.00  0.00     0.029 A 
ATOM     54  N   UNL A   1      43.254  31.039  32.058  1.00  0.00    -0.354 N 
ATOM     55  N   UNL A   1      40.682  32.297  31.354  1.00  0.00    -0.248 NA
ATOM     56  C   UNL A   1      39.222  34.119  31.458  1.00  0.00     0.031 C 
ATOM     57  C   UNL A   1      44.698  32.211  33.271  1.00  0.00     0.029 A 
ATOM     58  C   UNL A   1      43.449  32.263  32.670  1.00  0.00     0.049 A 
ATOM     59  H   UNL A   1      42.443  30.777  31.563  1.00  0.00     0.167 HD
ATOM     60  C   UNL A   1      41.289  33.327  32.064  1.00  0.00     0.074 A 
ATOM     61  C   UNL A   1      40.355  34.436  32.073  1.00  0.00     0.031 C 
ATOM     62  C   UNL A   1      42.508  33.355  32.655  1.00  0.00     0.031 A 
BRANCH  49  63
ATOM     63  C   UNL A   1      45.748  28.114  32.047  1.00  0.00    -0.014 A 
ATOM     64  C   UNL A   1      45.930  27.542  33.320  1.00  0.00     0.010 A 
ATOM     65  C   UNL A   1      46.753  27.952  31.076  1.00  0.00     0.010 A 
ATOM     66  C   UNL A   1      47.123  26.889  33.640  1.00  0.00     0.020 A 
ATOM     67  C   UNL A   1      47.934  27.268  31.381  1.00  0.00     0.020 A 
ATOM     68  C   UNL A   1      48.121  26.766  32.670  1.00  0.00     0.054 A 
BRANCH  68  69
ATOM     69  S   UNL A   1      49.666  25.925  33.115  1.00  0.00     0.124 S 
ATOM     70  O   UNL A   1      49.207  24.557  33.342  1.00  0.00    -0.237 OA
ATOM     71  O   UNL A   1      50.492  26.120  31.926  1.00  0.00    -0.237 OA
ATOM     72  O   UNL A   1      50.117  26.638  34.306  1.00  0.00    -0.744 OA
ENDBRANCH  68  69
ENDBRANCH  49  63
BRANCH  50  73
ATOM     73  C   UNL A   1      37.149  32.760  29.883  1.00  0.00    -0.014 A 
ATOM     74  C   UNL A   1      36.142  32.824  30.865  1.00  0.00     0.010 A 
ATOM     75  C   UNL A   1      36.924  33.374  28.638  1.00  0.00     0.010 A 
ATOM     76  C   UNL A   1      34.934  33.479  30.605  1.00  0.00     0.020 A 
ATOM     77  C   UNL A   1      35.726  34.052  28.383  1.00  0.00     0.020 A 
ATOM     78  C   UNL A   1      34.736  34.093  29.366  1.00  0.00     0.054 A 
BRANCH  78  79
ATOM     79  S   UNL A   1      33.188  34.999  29.076  1.00  0.00     0.124 S 
ATOM     80  O   UNL A   1      33.675  36.271  28.553  1.00  0.00    -0.237 OA
ATOM     81  O   UNL A   1      32.496  34.143  28.117  1.00  0.00    -0.237 OA
ATOM     82  O   UNL A   1      32.575  35.059  30.402  1.00  0.00    -0.744 OA
ENDBRANCH  78  79
ENDBRANCH  50  73
BRANCH  62  83
ATOM     83  C   UNL A   1      42.925  34.633  33.329  1.00  0.00    -0.014 A 
ATOM     84  C   UNL A   1      43.054  34.709  34.726  1.00  0.00     0.010 A 
ATOM     85  C   UNL A   1      43.265  35.749  32.542  1.00  0.00     0.010 A 
ATOM     86  C   UNL A   1      43.497  35.890  35.328  1.00  0.00     0.020 A 
ATOM     87  C   UNL A   1      43.731  36.922  33.139  1.00  0.00     0.020 A 
ATOM     88  C   UNL A   1      43.834  36.988  34.530  1.00  0.00     0.054 A 
BRANCH  88  89
ATOM     89  S   UNL A   1      44.463  38.489  35.330  1.00  0.00     0.124 S 
ATOM     90  O   UNL A   1      43.776  38.456  36.618  1.00  0.00    -0.237 OA
ATOM     91  O   UNL A   1      45.903  38.247  35.380  1.00  0.00    -0.237 OA
ATOM     92  O   UNL A   1      44.048  39.562  34.428  1.00  0.00    -0.744 OA
ENDBRANCH  88  89
ENDBRANCH  62  83
ENDBRANCH  36  37
ENDBRANCH  28  31
ENDBRANCH  26  27
ENDBRANCH  25  26
ENDBRANCH   1  25
TORSDOF 19
ENDMDL
MODEL 3
REMARK VINA RESULT:     -10.2      4.695      9.733
REMARK SMILES CC[C@H](C)[C@@H](NC(=O)[C@@H]1CCCN1C(=O)C1CC1)C(=O)NCCCNC(=O)c1ccc(-c2c3nc(c(-c4ccc(S(=O)(=O)[O-])cc4)c4ccc([nH]4)c(-c4ccc(S(=O)(=O)[O-])cc4)c4nc(c(-c5ccc(S(=O)(=O)[O-])cc5)c5ccc2[nH]5)C=C4)C=C3)cc1
REMARK SMILES IDX 22 1 21 2 19 3 20 4 5 6 3 7 4 8 2 9 1 10 6 11 7 12 8 14 9 15
REMARK SMILES IDX 10 16 13 17 11 18 12 19 14 20 15 21 16 22 17 23 18 24 23 25
REMARK SMILES IDX 24 26 25 27 26 28 27 30 28 31 29 32 87 33 30 34 86 35 31 36
REMARK SMILES IDX 32 37 33 38 80 39 34 40 85 41 79 42 81 43 35 44 84 45 78 46
REMARK SMILES IDX 77 47 36 49 66 50 47 51 65 52 48 53 51 54 64 55 82 56 49 57
REMARK SMILES IDX 50 58 63 60 83 61 52 62 37 63 38 64 46 65 39 66 45 67 40 68
REMARK SMILES IDX 41 69 42 70 43 71 44 72 67 73 68 74 76 75 69 76 75 77 70 78
REMARK SMILES IDX 71 79 72 80 73 81 74 82 53 83 54 84 62 85 55 86 61 87 56 88
REMARK SMILES IDX 57 89 58 90 59 91 60 92
REMARK H PARENT 21 5 6 13 25 29 81 48 51 59
REMARK Flexibility Score: inf
ROOT
ATOM      1  C   UNL A   1      37.466  22.623  24.842  1.00  0.00     0.117 C 
ENDROOT
BRANCH   1   2
ATOM      2  N   UNL A   1      36.082  22.273  24.556  1.00  0.00    -0.354 N 
ATOM      3  C   UNL A   1      35.196  23.110  23.908  1.00  0.00     0.242 C 
ATOM      4  O   UNL A   1      35.471  23.597  22.809  1.00  0.00    -0.273 OA
ATOM      5  H   UNL A   1      35.760  21.386  24.839  1.00  0.00     0.163 HD
BRANCH   3   6
ATOM      6  C   UNL A   1      33.771  23.272  24.532  1.00  0.00     0.174 C 
BRANCH   6   7
ATOM      7  C   UNL A   1      33.119  21.961  25.096  1.00  0.00     0.018 C 
ATOM      8  C   UNL A   1      32.012  22.187  26.138  1.00  0.00     0.010 C 
BRANCH   7   9
ATOM      9  C   UNL A   1      32.542  21.049  23.966  1.00  0.00     0.002 C 
ATOM     10  C   UNL A   1      32.158  21.752  22.664  1.00  0.00     0.004 C 
ENDBRANCH   7   9
ENDBRANCH   6   7
BRANCH   6  11
ATOM     11  N   UNL A   1      33.332  24.529  25.221  1.00  0.00    -0.342 N 
ATOM     12  C   UNL A   1      33.446  25.875  25.183  1.00  0.00     0.243 C 
ATOM     13  H   UNL A   1      32.749  24.285  25.975  1.00  0.00     0.164 HD
ATOM     14  O   UNL A   1      33.269  26.412  26.293  1.00  0.00    -0.273 OA
BRANCH  12  15
ATOM     15  C   UNL A   1      33.473  26.818  23.960  1.00  0.00     0.174 C 
ATOM     16  C   UNL A   1      34.092  28.163  24.390  1.00  0.00     0.037 C 
ATOM     17  N   UNL A   1      32.228  27.152  23.326  1.00  0.00    -0.330 N 
ATOM     18  C   UNL A   1      33.106  29.252  23.989  1.00  0.00     0.024 C 
ATOM     19  C   UNL A   1      31.845  28.516  23.610  1.00  0.00     0.120 C 
BRANCH  17  20
ATOM     20  C   UNL A   1      31.337  26.217  22.895  1.00  0.00     0.226 C 
ATOM     21  O   UNL A   1      31.458  25.724  21.770  1.00  0.00    -0.275 OA
BRANCH  20  22
ATOM     22  C   UNL A   1      30.247  25.652  23.711  1.00  0.00     0.079 C 
ATOM     23  C   UNL A   1      29.793  25.981  25.096  1.00  0.00     0.014 C 
ATOM     24  C   UNL A   1      28.970  26.425  23.917  1.00  0.00     0.014 C 
ENDBRANCH  20  22
ENDBRANCH  17  20
ENDBRANCH  12  15
ENDBRANCH   6  11
ENDBRANCH   3   6
ENDBRANCH   1   2
BRANCH   1  25
ATOM     25  C   UNL A   1      37.556  23.855  25.754  1.00  0.00     0.042 C 
BRANCH  25  26
ATOM     26  C   UNL A   1      38.772  23.817  26.664  1.00  0.00     0.118 C 
BRANCH  26  27
ATOM     27  N   UNL A   1      40.077  24.111  26.073  1.00  0.00    -0.352 N 
ATOM     28  C   UNL A   1      40.852  25.236  26.331  1.00  0.00     0.251 C 
ATOM     29  H   UNL A   1      40.438  23.454  25.434  1.00  0.00     0.163 HD
ATOM     30  O   UNL A   1      41.893  25.462  25.727  1.00  0.00    -0.269 OA
BRANCH  28  31
ATOM     31  C   UNL A   1      40.330  26.206  27.328  1.00  0.00     0.039 A 
ATOM     32  C   UNL A   1      39.541  25.764  28.393  1.00  0.00     0.014 A 
ATOM     33  C   UNL A   1      40.818  27.510  27.313  1.00  0.00     0.014 A 
ATOM     34  C   UNL A   1      39.368  26.593  29.508  1.00  0.00     0.010 A 
ATOM     35  C   UNL A   1      40.778  28.260  28.478  1.00  0.00     0.010 A 
ATOM     36  C   UNL A   1      40.051  27.818  29.594  1.00  0.00    -0.014 A 
BRANCH  36  37
ATOM     37  C   UNL A   1      40.028  28.677  30.810  1.00  0.00     0.031 A 
ATOM     38  C   UNL A   1      39.026  29.804  30.896  1.00  0.00     0.074 A 
ATOM     39  C   UNL A   1      40.968  28.542  31.769  1.00  0.00     0.049 A 
ATOM     40  N   UNL A   1      38.949  30.781  31.762  1.00  0.00    -0.248 NA
ATOM     41  C   UNL A   1      38.019  29.877  29.823  1.00  0.00     0.031 C 
ATOM     42  C   UNL A   1      42.045  27.547  31.780  1.00  0.00     0.029 A 
ATOM     43  N   UNL A   1      41.176  29.259  32.924  1.00  0.00    -0.354 N 
ATOM     44  C   UNL A   1      37.930  31.610  31.302  1.00  0.00     0.074 A 
ATOM     45  C   UNL A   1      37.471  31.060  30.047  1.00  0.00     0.031 C 
ATOM     46  C   UNL A   1      42.769  27.690  32.903  1.00  0.00     0.029 A 
ATOM     47  C   UNL A   1      42.241  28.811  33.673  1.00  0.00     0.049 A 
ATOM     48  H   UNL A   1      40.616  30.023  33.191  1.00  0.00     0.167 HD
ATOM     49  C   UNL A   1      37.392  32.707  31.885  1.00  0.00     0.031 A 
ATOM     50  C   UNL A   1      42.734  29.251  34.849  1.00  0.00     0.031 A 
ATOM     51  C   UNL A   1      37.799  33.205  33.170  1.00  0.00     0.049 A 
ATOM     52  C   UNL A   1      42.071  30.421  35.524  1.00  0.00     0.074 A 
ATOM     53  C   UNL A   1      37.263  34.252  33.897  1.00  0.00     0.029 A 
ATOM     54  N   UNL A   1      38.829  32.671  33.929  1.00  0.00    -0.354 N 
ATOM     55  N   UNL A   1      41.069  31.155  35.102  1.00  0.00    -0.248 NA
ATOM     56  C   UNL A   1      42.595  30.814  36.839  1.00  0.00     0.031 C 
ATOM     57  C   UNL A   1      37.989  34.368  35.088  1.00  0.00     0.029 A 
ATOM     58  C   UNL A   1      38.947  33.365  35.118  1.00  0.00     0.049 A 
ATOM     59  H   UNL A   1      39.394  31.910  33.660  1.00  0.00     0.167 HD
ATOM     60  C   UNL A   1      40.824  32.079  36.112  1.00  0.00     0.074 A 
ATOM     61  C   UNL A   1      41.776  31.804  37.170  1.00  0.00     0.031 C 
ATOM     62  C   UNL A   1      39.895  33.065  36.161  1.00  0.00     0.031 A 
BRANCH  49  63
ATOM     63  C   UNL A   1      36.295  33.418  31.137  1.00  0.00    -0.014 A 
ATOM     64  C   UNL A   1      36.520  33.955  29.855  1.00  0.00     0.010 A 
ATOM     65  C   UNL A   1      35.026  33.567  31.726  1.00  0.00     0.010 A 
ATOM     66  C   UNL A   1      35.523  34.691  29.209  1.00  0.00     0.020 A 
ATOM     67  C   UNL A   1      34.014  34.272  31.066  1.00  0.00     0.020 A 
ATOM     68  C   UNL A   1      34.279  34.853  29.825  1.00  0.00     0.054 A 
BRANCH  68  69
ATOM     69  S   UNL A   1      33.007  35.823  28.972  1.00  0.00     0.124 S 
ATOM     70  O   UNL A   1      32.204  36.314  30.090  1.00  0.00    -0.237 OA
ATOM     71  O   UNL A   1      33.791  36.837  28.270  1.00  0.00    -0.237 OA
ATOM     72  O   UNL A   1      32.346  34.846  28.111  1.00  0.00    -0.744 OA
ENDBRANCH  68  69
ENDBRANCH  49  63
BRANCH  50  73
ATOM     73  C   UNL A   1      43.882  28.547  35.486  1.00  0.00    -0.014 A 
ATOM     74  C   UNL A   1      43.653  27.464  36.356  1.00  0.00     0.010 A 
ATOM     75  C   UNL A   1      45.207  28.930  35.211  1.00  0.00     0.010 A 
ATOM     76  C   UNL A   1      44.724  26.785  36.945  1.00  0.00     0.020 A 
ATOM     77  C   UNL A   1      46.282  28.236  35.780  1.00  0.00     0.020 A 
ATOM     78  C   UNL A   1      46.033  27.173  36.650  1.00  0.00     0.054 A 
BRANCH  78  79
ATOM     79  S   UNL A   1      47.409  26.231  37.370  1.00  0.00     0.124 S 
ATOM     80  O   UNL A   1      48.524  27.160  37.221  1.00  0.00    -0.237 OA
ATOM     81  O   UNL A   1      46.953  26.004  38.740  1.00  0.00    -0.237 OA
ATOM     82  O   UNL A   1      47.474  25.032  36.537  1.00  0.00    -0.744 OA
ENDBRANCH  78  79
ENDBRANCH  50  73
BRANCH  62  83
ATOM     83  C   UNL A   1      39.832  33.899  37.411  1.00  0.00    -0.014 A 
ATOM     84  C   UNL A   1      40.484  35.140  37.489  1.00  0.00     0.010 A 
ATOM     85  C   UNL A   1      39.044  33.463  38.492  1.00  0.00     0.010 A 
ATOM     86  C   UNL A   1      40.366  35.925  38.640  1.00  0.00     0.020 A 
ATOM     87  C   UNL A   1      38.904  34.255  39.633  1.00  0.00     0.020 A 
ATOM     88  C   UNL A   1      39.575  35.477  39.703  1.00  0.00     0.054 A 
BRANCH  88  89
ATOM     89  S   UNL A   1      39.389  36.540  41.161  1.00  0.00     0.124 S 
ATOM     90  O   UNL A   1      40.748  36.561  41.696  1.00  0.00    -0.237 OA
ATOM     91  O   UNL A   1      38.921  37.798  40.585  1.00  0.00    -0.237 OA
ATOM     92  O   UNL A   1      38.407  35.834  41.981  1.00  0.00    -0.744 OA
ENDBRANCH  88  89
ENDBRANCH  62  83
ENDBRANCH  36  37
ENDBRANCH  28  31
ENDBRANCH  26  27
ENDBRANCH  25  26
ENDBRANCH   1  25
TORSDOF 19
ENDMDL
