MODEL 1
REMARK VINA RESULT:      -9.7      0.000      0.000
REMARK SMILES COC[C@H](C)CC(=O)N[C@@H](C(=O)NCCCNC(=O)c1ccc(-c2c3nc(c(-c4ccc(S(=O)(=O)[O-])cc4)c4ccc([nH]4)c(-c4ccc(S(=O)(=O)[O-])cc4)c4nc(c(-c5ccc(S(=O)(=O)[O-])cc5)c5ccc2[nH]5)C=C4)C=C3)cc1)C(C)C
REMARK SMILES IDX 14 1 13 2 11 3 12 4 10 6 9 7 7 8 8 9 6 11 4 12 5 13 3 14
REMARK SMILES IDX 2 15 1 16 80 17 81 18 82 19 15 20 16 21 17 22 18 23 19 25
REMARK SMILES IDX 20 26 21 27 79 28 22 29 78 30 23 31 24 32 25 33 72 34 26 35
REMARK SMILES IDX 77 36 71 37 73 38 27 39 76 40 70 41 69 42 28 44 58 45 39 46
REMARK SMILES IDX 57 47 40 48 43 49 56 50 74 51 41 52 42 53 55 55 75 56 44 57
REMARK SMILES IDX 29 58 30 59 38 60 31 61 37 62 32 63 33 64 34 65 35 66 36 67
REMARK SMILES IDX 59 68 60 69 68 70 61 71 67 72 62 73 63 74 64 75 65 76 66 77
REMARK SMILES IDX 45 78 46 79 54 80 47 81 53 82 48 83 49 84 50 85 51 86 52 87
REMARK H PARENT 13 5 9 10 17 24 73 43 43 54
REMARK Flexibility Score: inf
ROOT
ATOM      1  C   UNL A   1      31.530  28.125  25.839  1.00  0.00     0.117 C 
ENDROOT
BRANCH   1   2
ATOM      2  N   UNL A   1      32.387  28.628  24.786  1.00  0.00    -0.354 N 
ATOM      3  C   UNL A   1      32.373  28.410  23.436  1.00  0.00     0.242 C 
ATOM      4  O   UNL A   1      33.111  29.145  22.771  1.00  0.00    -0.273 OA
ATOM      5  H   UNL A   1      33.101  29.232  25.094  1.00  0.00     0.163 HD
BRANCH   3   6
ATOM      6  C   UNL A   1      31.368  27.422  22.751  1.00  0.00     0.173 C 
BRANCH   6   7
ATOM      7  N   UNL A   1      31.936  26.825  21.549  1.00  0.00    -0.344 N 
ATOM      8  C   UNL A   1      32.556  25.619  21.390  1.00  0.00     0.221 C 
ATOM      9  O   UNL A   1      33.176  25.434  20.340  1.00  0.00    -0.275 OA
ATOM     10  H   UNL A   1      31.863  27.371  20.733  1.00  0.00     0.164 HD
BRANCH   8  11
ATOM     11  C   UNL A   1      32.483  24.516  22.449  1.00  0.00     0.105 C 
BRANCH  11  12
ATOM     12  C   UNL A   1      33.650  24.352  23.470  1.00  0.00     0.021 C 
ATOM     13  C   UNL A   1      33.238  24.757  24.894  1.00  0.00     0.010 C 
BRANCH  12  14
ATOM     14  C   UNL A   1      34.208  22.899  23.425  1.00  0.00     0.163 C 
BRANCH  14  15
ATOM     15  O   UNL A   1      35.470  22.746  24.075  1.00  0.00    -0.384 OA
ATOM     16  C   UNL A   1      36.595  22.952  23.226  1.00  0.00     0.194 C 
ENDBRANCH  14  15
ENDBRANCH  12  14
ENDBRANCH  11  12
ENDBRANCH   8  11
ENDBRANCH   6   7
BRANCH   6  17
ATOM     17  C   UNL A   1      29.975  28.074  22.543  1.00  0.00     0.015 C 
ATOM     18  C   UNL A   1      28.913  27.565  23.521  1.00  0.00     0.010 C 
ATOM     19  C   UNL A   1      30.095  29.602  22.718  1.00  0.00     0.010 C 
ENDBRANCH   6  17
ENDBRANCH   3   6
ENDBRANCH   1   2
BRANCH   1  20
ATOM     20  C   UNL A   1      32.204  28.050  27.193  1.00  0.00     0.042 C 
BRANCH  20  21
ATOM     21  C   UNL A   1      33.595  28.657  27.180  1.00  0.00     0.118 C 
BRANCH  21  22
ATOM     22  N   UNL A   1      33.623  30.033  27.673  1.00  0.00    -0.352 N 
ATOM     23  C   UNL A   1      34.626  30.727  28.315  1.00  0.00     0.251 C 
ATOM     24  H   UNL A   1      32.796  30.546  27.524  1.00  0.00     0.163 HD
ATOM     25  O   UNL A   1      34.393  31.839  28.784  1.00  0.00    -0.269 OA
BRANCH  23  26
ATOM     26  C   UNL A   1      35.964  30.116  28.468  1.00  0.00     0.039 A 
ATOM     27  C   UNL A   1      36.855  30.124  27.392  1.00  0.00     0.014 A 
ATOM     28  C   UNL A   1      36.357  29.578  29.693  1.00  0.00     0.014 A 
ATOM     29  C   UNL A   1      38.171  29.692  27.583  1.00  0.00     0.010 A 
ATOM     30  C   UNL A   1      37.693  29.281  29.915  1.00  0.00     0.010 A 
ATOM     31  C   UNL A   1      38.617  29.322  28.862  1.00  0.00    -0.014 A 
BRANCH  31  32
ATOM     32  C   UNL A   1      40.032  28.960  29.137  1.00  0.00     0.031 A 
ATOM     33  C   UNL A   1      40.956  29.972  29.764  1.00  0.00     0.074 A 
ATOM     34  C   UNL A   1      40.514  27.767  28.736  1.00  0.00     0.049 A 
ATOM     35  N   UNL A   1      42.243  29.891  29.986  1.00  0.00    -0.248 NA
ATOM     36  C   UNL A   1      40.363  31.263  30.150  1.00  0.00     0.031 C 
ATOM     37  C   UNL A   1      39.741  26.715  28.069  1.00  0.00     0.029 A 
ATOM     38  N   UNL A   1      41.777  27.237  28.829  1.00  0.00    -0.354 N 
ATOM     39  C   UNL A   1      42.615  31.130  30.498  1.00  0.00     0.074 A 
ATOM     40  C   UNL A   1      41.434  31.963  30.486  1.00  0.00     0.031 C 
ATOM     41  C   UNL A   1      40.531  25.649  27.864  1.00  0.00     0.029 A 
ATOM     42  C   UNL A   1      41.878  25.958  28.335  1.00  0.00     0.049 A 
ATOM     43  H   UNL A   1      42.539  27.727  29.214  1.00  0.00     0.167 HD
ATOM     44  C   UNL A   1      43.821  31.535  30.962  1.00  0.00     0.031 A 
ATOM     45  C   UNL A   1      42.933  25.123  28.272  1.00  0.00     0.031 A 
ATOM     46  C   UNL A   1      44.986  30.694  30.999  1.00  0.00     0.049 A 
ATOM     47  C   UNL A   1      44.263  25.584  28.800  1.00  0.00     0.074 A 
ATOM     48  C   UNL A   1      46.238  30.978  31.516  1.00  0.00     0.029 A 
ATOM     49  N   UNL A   1      45.042  29.401  30.498  1.00  0.00    -0.354 N 
ATOM     50  N   UNL A   1      44.581  26.736  29.339  1.00  0.00    -0.248 NA
ATOM     51  C   UNL A   1      45.376  24.627  28.716  1.00  0.00     0.031 C 
ATOM     52  C   UNL A   1      47.065  29.872  31.283  1.00  0.00     0.029 A 
ATOM     53  C   UNL A   1      46.312  28.881  30.672  1.00  0.00     0.049 A 
ATOM     54  H   UNL A   1      44.288  28.925  30.080  1.00  0.00     0.167 HD
ATOM     55  C   UNL A   1      45.923  26.635  29.687  1.00  0.00     0.074 A 
ATOM     56  C   UNL A   1      46.354  25.304  29.303  1.00  0.00     0.031 C 
ATOM     57  C   UNL A   1      46.724  27.556  30.279  1.00  0.00     0.031 A 
BRANCH  44  58
ATOM     58  C   UNL A   1      43.925  32.956  31.454  1.00  0.00    -0.014 A 
ATOM     59  C   UNL A   1      44.301  34.003  30.589  1.00  0.00     0.010 A 
ATOM     60  C   UNL A   1      43.675  33.247  32.807  1.00  0.00     0.010 A 
ATOM     61  C   UNL A   1      44.506  35.292  31.086  1.00  0.00     0.020 A 
ATOM     62  C   UNL A   1      43.843  34.544  33.299  1.00  0.00     0.020 A 
ATOM     63  C   UNL A   1      44.289  35.552  32.441  1.00  0.00     0.054 A 
BRANCH  63  64
ATOM     64  S   UNL A   1      44.599  37.225  33.068  1.00  0.00     0.124 S 
ATOM     65  O   UNL A   1      45.767  37.014  33.919  1.00  0.00    -0.237 OA
ATOM     66  O   UNL A   1      44.843  37.987  31.846  1.00  0.00    -0.237 OA
ATOM     67  O   UNL A   1      43.366  37.564  33.774  1.00  0.00    -0.744 OA
ENDBRANCH  63  64
ENDBRANCH  44  58
BRANCH  45  68
ATOM     68  C   UNL A   1      42.751  23.743  27.743  1.00  0.00    -0.014 A 
ATOM     69  C   UNL A   1      42.358  22.708  28.609  1.00  0.00     0.010 A 
ATOM     70  C   UNL A   1      42.916  23.465  26.374  1.00  0.00     0.010 A 
ATOM     71  C   UNL A   1      42.132  21.419  28.117  1.00  0.00     0.020 A 
ATOM     72  C   UNL A   1      42.667  22.182  25.874  1.00  0.00     0.020 A 
ATOM     73  C   UNL A   1      42.280  21.166  26.751  1.00  0.00     0.054 A 
BRANCH  73  74
ATOM     74  S   UNL A   1      41.897  19.505  26.126  1.00  0.00     0.124 S 
ATOM     75  O   UNL A   1      42.743  19.424  24.940  1.00  0.00    -0.237 OA
ATOM     76  O   UNL A   1      42.291  18.652  27.245  1.00  0.00    -0.237 OA
ATOM     77  O   UNL A   1      40.461  19.559  25.869  1.00  0.00    -0.744 OA
ENDBRANCH  73  74
ENDBRANCH  45  68
BRANCH  57  78
ATOM     78  C   UNL A   1      48.143  27.150  30.576  1.00  0.00    -0.014 A 
ATOM     79  C   UNL A   1      49.188  27.435  29.680  1.00  0.00     0.010 A 
ATOM     80  C   UNL A   1      48.439  26.526  31.803  1.00  0.00     0.010 A 
ATOM     81  C   UNL A   1      50.501  27.077  29.992  1.00  0.00     0.020 A 
ATOM     82  C   UNL A   1      49.755  26.192  32.130  1.00  0.00     0.020 A 
ATOM     83  C   UNL A   1      50.777  26.458  31.216  1.00  0.00     0.054 A 
BRANCH  83  84
ATOM     84  S   UNL A   1      52.497  26.049  31.621  1.00  0.00     0.124 S 
ATOM     85  O   UNL A   1      53.162  26.224  30.332  1.00  0.00    -0.237 OA
ATOM     86  O   UNL A   1      52.831  27.042  32.640  1.00  0.00    -0.237 OA
ATOM     87  O   UNL A   1      52.422  24.672  32.102  1.00  0.00    -0.744 OA
ENDBRANCH  83  84
ENDBRANCH  57  78
ENDBRANCH  31  32
ENDBRANCH  23  26
ENDBRANCH  21  22
ENDBRANCH  20  21
ENDBRANCH   1  20
TORSDOF 19
ENDMDL
MODEL 2
REMARK VINA RESULT:      -9.6      5.044     10.057
REMARK SMILES COC[C@H](C)CC(=O)N[C@@H](C(=O)NCCCNC(=O)c1ccc(-c2c3nc(c(-c4ccc(S(=O)(=O)[O-])cc4)c4ccc([nH]4)c(-c4ccc(S(=O)(=O)[O-])cc4)c4nc(c(-c5ccc(S(=O)(=O)[O-])cc5)c5ccc2[nH]5)C=C4)C=C3)cc1)C(C)C
REMARK SMILES IDX 14 1 13 2 11 3 12 4 10 6 9 7 7 8 8 9 6 11 4 12 5 13 3 14
REMARK SMILES IDX 2 15 1 16 80 17 81 18 82 19 15 20 16 21 17 22 18 23 19 25
REMARK SMILES IDX 20 26 21 27 79 28 22 29 78 30 23 31 24 32 25 33 72 34 26 35
REMARK SMILES IDX 77 36 71 37 73 38 27 39 76 40 70 41 69 42 28 44 58 45 39 46
REMARK SMILES IDX 57 47 40 48 43 49 56 50 74 51 41 52 42 53 55 55 75 56 44 57
REMARK SMILES IDX 29 58 30 59 38 60 31 61 37 62 32 63 33 64 34 65 35 66 36 67
REMARK SMILES IDX 59 68 60 69 68 70 61 71 67 72 62 73 63 74 64 75 65 76 66 77
REMARK SMILES IDX 45 78 46 79 54 80 47 81 53 82 48 83 49 84 50 85 51 86 52 87
REMARK H PARENT 13 5 9 10 17 24 73 43 43 54
REMARK Flexibility Score: inf
ROOT
ATOM      1  C   UNL A   1      36.883  22.661  25.413  1.00  0.00     0.117 C 
ENDROOT
BRANCH   1   2
ATOM      2  N   UNL A   1      36.064  22.154  26.495  1.00  0.00    -0.354 N 
ATOM      3  C   UNL A   1      34.706  22.101  26.643  1.00  0.00     0.242 C 
ATOM      4  O   UNL A   1      34.301  21.422  27.594  1.00  0.00    -0.273 OA
ATOM      5  H   UNL A   1      36.572  21.785  27.253  1.00  0.00     0.163 HD
BRANCH   3   6
ATOM      6  C   UNL A   1      33.717  22.706  25.589  1.00  0.00     0.173 C 
BRANCH   6   7
ATOM      7  N   UNL A   1      32.445  23.076  26.196  1.00  0.00    -0.344 N 
ATOM      8  C   UNL A   1      31.899  24.313  26.381  1.00  0.00     0.221 C 
ATOM      9  O   UNL A   1      30.930  24.399  27.139  1.00  0.00    -0.275 OA
ATOM     10  H   UNL A   1      31.899  22.323  26.520  1.00  0.00     0.164 HD
BRANCH   8  11
ATOM     11  C   UNL A   1      32.439  25.559  25.672  1.00  0.00     0.105 C 
BRANCH  11  12
ATOM     12  C   UNL A   1      31.948  26.971  26.119  1.00  0.00     0.021 C 
ATOM     13  C   UNL A   1      33.063  27.788  26.790  1.00  0.00     0.010 C 
BRANCH  12  14
ATOM     14  C   UNL A   1      31.324  27.732  24.913  1.00  0.00     0.163 C 
BRANCH  14  15
ATOM     15  O   UNL A   1      30.138  27.125  24.399  1.00  0.00    -0.384 OA
ATOM     16  C   UNL A   1      29.780  27.555  23.089  1.00  0.00     0.194 C 
ENDBRANCH  14  15
ENDBRANCH  12  14
ENDBRANCH  11  12
ENDBRANCH   8  11
ENDBRANCH   6   7
BRANCH   6  17
ATOM     17  C   UNL A   1      33.588  21.798  24.338  1.00  0.00     0.015 C 
ATOM     18  C   UNL A   1      32.561  20.675  24.505  1.00  0.00     0.010 C 
ATOM     19  C   UNL A   1      33.168  22.654  23.125  1.00  0.00     0.010 C 
ENDBRANCH   6  17
ENDBRANCH   3   6
ENDBRANCH   1   2
BRANCH   1  20
ATOM     20  C   UNL A   1      37.515  24.007  25.703  1.00  0.00     0.042 C 
BRANCH  20  21
ATOM     21  C   UNL A   1      38.653  23.907  26.701  1.00  0.00     0.118 C 
BRANCH  21  22
ATOM     22  N   UNL A   1      39.956  24.227  26.118  1.00  0.00    -0.352 N 
ATOM     23  C   UNL A   1      40.797  25.293  26.354  1.00  0.00     0.251 C 
ATOM     24  H   UNL A   1      40.283  23.581  25.451  1.00  0.00     0.163 HD
ATOM     25  O   UNL A   1      41.787  25.455  25.643  1.00  0.00    -0.269 OA
BRANCH  23  26
ATOM     26  C   UNL A   1      40.486  26.253  27.435  1.00  0.00     0.039 A 
ATOM     27  C   UNL A   1      39.649  25.864  28.485  1.00  0.00     0.014 A 
ATOM     28  C   UNL A   1      41.062  27.522  27.437  1.00  0.00     0.014 A 
ATOM     29  C   UNL A   1      39.483  26.712  29.584  1.00  0.00     0.010 A 
ATOM     30  C   UNL A   1      41.007  28.298  28.586  1.00  0.00     0.010 A 
ATOM     31  C   UNL A   1      40.208  27.911  29.670  1.00  0.00    -0.014 A 
BRANCH  31  32
ATOM     32  C   UNL A   1      40.149  28.792  30.866  1.00  0.00     0.031 A 
ATOM     33  C   UNL A   1      39.125  29.896  30.934  1.00  0.00     0.074 A 
ATOM     34  C   UNL A   1      41.072  28.669  31.841  1.00  0.00     0.049 A 
ATOM     35  N   UNL A   1      38.978  30.834  31.834  1.00  0.00    -0.248 NA
ATOM     36  C   UNL A   1      38.168  29.983  29.818  1.00  0.00     0.031 C 
ATOM     37  C   UNL A   1      42.150  27.678  31.875  1.00  0.00     0.029 A 
ATOM     38  N   UNL A   1      41.251  29.389  32.996  1.00  0.00    -0.354 N 
ATOM     39  C   UNL A   1      37.944  31.641  31.372  1.00  0.00     0.074 A 
ATOM     40  C   UNL A   1      37.549  31.122  30.082  1.00  0.00     0.031 C 
ATOM     41  C   UNL A   1      42.843  27.818  33.017  1.00  0.00     0.029 A 
ATOM     42  C   UNL A   1      42.293  28.939  33.772  1.00  0.00     0.049 A 
ATOM     43  H   UNL A   1      40.687  30.156  33.246  1.00  0.00     0.167 HD
ATOM     44  C   UNL A   1      37.353  32.700  31.974  1.00  0.00     0.031 A 
ATOM     45  C   UNL A   1      42.752  29.375  34.961  1.00  0.00     0.031 A 
ATOM     46  C   UNL A   1      37.729  33.194  33.270  1.00  0.00     0.049 A 
ATOM     47  C   UNL A   1      42.081  30.546  35.621  1.00  0.00     0.074 A 
ATOM     48  C   UNL A   1      37.150  34.214  34.006  1.00  0.00     0.029 A 
ATOM     49  N   UNL A   1      38.782  32.702  34.027  1.00  0.00    -0.354 N 
ATOM     50  N   UNL A   1      41.062  31.257  35.198  1.00  0.00    -0.248 NA
ATOM     51  C   UNL A   1      42.617  30.970  36.921  1.00  0.00     0.031 C 
ATOM     52  C   UNL A   1      37.885  34.369  35.186  1.00  0.00     0.029 A 
ATOM     53  C   UNL A   1      38.887  33.410  35.211  1.00  0.00     0.049 A 
ATOM     54  H   UNL A   1      39.371  31.958  33.760  1.00  0.00     0.167 HD
ATOM     55  C   UNL A   1      40.815  32.194  36.195  1.00  0.00     0.074 A 
ATOM     56  C   UNL A   1      41.787  31.954  37.244  1.00  0.00     0.031 C 
ATOM     57  C   UNL A   1      39.864  33.161  36.241  1.00  0.00     0.031 A 
BRANCH  44  58
ATOM     58  C   UNL A   1      36.247  33.390  31.217  1.00  0.00    -0.014 A 
ATOM     59  C   UNL A   1      36.412  33.772  29.871  1.00  0.00     0.010 A 
ATOM     60  C   UNL A   1      35.038  33.692  31.868  1.00  0.00     0.010 A 
ATOM     61  C   UNL A   1      35.423  34.513  29.219  1.00  0.00     0.020 A 
ATOM     62  C   UNL A   1      34.031  34.402  31.206  1.00  0.00     0.020 A 
ATOM     63  C   UNL A   1      34.244  34.836  29.896  1.00  0.00     0.054 A 
BRANCH  63  64
ATOM     64  S   UNL A   1      32.994  35.831  29.040  1.00  0.00     0.124 S 
ATOM     65  O   UNL A   1      33.817  36.840  28.377  1.00  0.00    -0.237 OA
ATOM     66  O   UNL A   1      32.358  34.859  28.155  1.00  0.00    -0.237 OA
ATOM     67  O   UNL A   1      32.148  36.330  30.122  1.00  0.00    -0.744 OA
ENDBRANCH  63  64
ENDBRANCH  44  58
BRANCH  45  68
ATOM     68  C   UNL A   1      43.871  28.653  35.628  1.00  0.00    -0.014 A 
ATOM     69  C   UNL A   1      45.170  29.189  35.592  1.00  0.00     0.010 A 
ATOM     70  C   UNL A   1      43.641  27.463  36.343  1.00  0.00     0.010 A 
ATOM     71  C   UNL A   1      46.220  28.551  36.259  1.00  0.00     0.020 A 
ATOM     72  C   UNL A   1      44.684  26.835  37.032  1.00  0.00     0.020 A 
ATOM     73  C   UNL A   1      45.968  27.382  36.982  1.00  0.00     0.054 A 
BRANCH  73  74
ATOM     74  S   UNL A   1      47.331  26.620  37.909  1.00  0.00     0.124 S 
ATOM     75  O   UNL A   1      48.492  27.323  37.374  1.00  0.00    -0.237 OA
ATOM     76  O   UNL A   1      46.982  26.934  39.293  1.00  0.00    -0.237 OA
ATOM     77  O   UNL A   1      47.236  25.206  37.556  1.00  0.00    -0.744 OA
ENDBRANCH  73  74
ENDBRANCH  45  68
BRANCH  57  78
ATOM     78  C   UNL A   1      39.807  34.016  37.479  1.00  0.00    -0.014 A 
ATOM     79  C   UNL A   1      40.508  35.231  37.561  1.00  0.00     0.010 A 
ATOM     80  C   UNL A   1      38.987  33.620  38.553  1.00  0.00     0.010 A 
ATOM     81  C   UNL A   1      40.413  36.023  38.708  1.00  0.00     0.020 A 
ATOM     82  C   UNL A   1      38.869  34.423  39.689  1.00  0.00     0.020 A 
ATOM     83  C   UNL A   1      39.593  35.614  39.765  1.00  0.00     0.054 A 
BRANCH  83  84
ATOM     84  S   UNL A   1      39.447  36.684  41.222  1.00  0.00     0.124 S 
ATOM     85  O   UNL A   1      40.833  36.773  41.673  1.00  0.00    -0.237 OA
ATOM     86  O   UNL A   1      38.888  37.913  40.663  1.00  0.00    -0.237 OA
ATOM     87  O   UNL A   1      38.549  35.945  42.106  1.00  0.00    -0.744 OA
ENDBRANCH  83  84
ENDBRANCH  57  78
ENDBRANCH  31  32
ENDBRANCH  23  26
ENDBRANCH  21  22
ENDBRANCH  20  21
ENDBRANCH   1  20
TORSDOF 19
ENDMDL
MODEL 3
REMARK VINA RESULT:      -9.3      2.668      3.415
REMARK SMILES COC[C@H](C)CC(=O)N[C@@H](C(=O)NCCCNC(=O)c1ccc(-c2c3nc(c(-c4ccc(S(=O)(=O)[O-])cc4)c4ccc([nH]4)c(-c4ccc(S(=O)(=O)[O-])cc4)c4nc(c(-c5ccc(S(=O)(=O)[O-])cc5)c5ccc2[nH]5)C=C4)C=C3)cc1)C(C)C
REMARK SMILES IDX 14 1 13 2 11 3 12 4 10 6 9 7 7 8 8 9 6 11 4 12 5 13 3 14
REMARK SMILES IDX 2 15 1 16 80 17 81 18 82 19 15 20 16 21 17 22 18 23 19 25
REMARK SMILES IDX 20 26 21 27 79 28 22 29 78 30 23 31 24 32 25 33 72 34 26 35
REMARK SMILES IDX 77 36 71 37 73 38 27 39 76 40 70 41 69 42 28 44 58 45 39 46
REMARK SMILES IDX 57 47 40 48 43 49 56 50 74 51 41 52 42 53 55 55 75 56 44 57
REMARK SMILES IDX 29 58 30 59 38 60 31 61 37 62 32 63 33 64 34 65 35 66 36 67
REMARK SMILES IDX 59 68 60 69 68 70 61 71 67 72 62 73 63 74 64 75 65 76 66 77
REMARK SMILES IDX 45 78 46 79 54 80 47 81 53 82 48 83 49 84 50 85 51 86 52 87
REMARK H PARENT 13 5 9 10 17 24 73 43 43 54
REMARK Flexibility Score: inf
ROOT
ATOM      1  C   UNL A   1      33.581  28.987  26.230  1.00  0.00     0.117 C 
ENDROOT
BRANCH   1   2
ATOM      2  N   UNL A   1      34.076  29.133  24.877  1.00  0.00    -0.354 N 
ATOM      3  C   UNL A   1      33.673  28.552  23.706  1.00  0.00     0.242 C 
ATOM      4  O   UNL A   1      34.162  29.033  22.678  1.00  0.00    -0.273 OA
ATOM      5  H   UNL A   1      34.831  29.757  24.783  1.00  0.00     0.163 HD
BRANCH   3   6
ATOM      6  C   UNL A   1      32.540  27.470  23.647  1.00  0.00     0.173 C 
BRANCH   6   7
ATOM      7  N   UNL A   1      32.606  26.691  22.417  1.00  0.00    -0.344 N 
ATOM      8  C   UNL A   1      32.922  25.375  22.240  1.00  0.00     0.221 C 
ATOM      9  O   UNL A   1      33.155  24.996  21.090  1.00  0.00    -0.275 OA
ATOM     10  H   UNL A   1      32.392  27.186  21.593  1.00  0.00     0.164 HD
BRANCH   8  11
ATOM     11  C   UNL A   1      32.971  24.382  23.406  1.00  0.00     0.105 C 
BRANCH  11  12
ATOM     12  C   UNL A   1      34.340  23.775  23.841  1.00  0.00     0.021 C 
ATOM     13  C   UNL A   1      35.032  24.618  24.923  1.00  0.00     0.010 C 
BRANCH  12  14
ATOM     14  C   UNL A   1      34.157  22.297  24.293  1.00  0.00     0.163 C 
BRANCH  14  15
ATOM     15  O   UNL A   1      33.013  22.085  25.123  1.00  0.00    -0.384 OA
ATOM     16  C   UNL A   1      32.230  20.950  24.763  1.00  0.00     0.194 C 
ENDBRANCH  14  15
ENDBRANCH  12  14
ENDBRANCH  11  12
ENDBRANCH   8  11
ENDBRANCH   6   7
BRANCH   6  17
ATOM     17  C   UNL A   1      31.146  28.085  23.940  1.00  0.00     0.015 C 
ATOM     18  C   UNL A   1      30.691  29.092  22.881  1.00  0.00     0.010 C 
ATOM     19  C   UNL A   1      30.095  26.957  24.012  1.00  0.00     0.010 C 
ENDBRANCH   6  17
ENDBRANCH   3   6
ENDBRANCH   1   2
BRANCH   1  20
ATOM     20  C   UNL A   1      34.655  28.640  27.240  1.00  0.00     0.042 C 
BRANCH  20  21
ATOM     21  C   UNL A   1      35.541  29.827  27.570  1.00  0.00     0.118 C 
BRANCH  21  22
ATOM     22  N   UNL A   1      35.393  30.286  28.951  1.00  0.00    -0.352 N 
ATOM     23  C   UNL A   1      36.335  30.433  29.945  1.00  0.00     0.251 C 
ATOM     24  H   UNL A   1      34.474  30.527  29.212  1.00  0.00     0.163 HD
ATOM     25  O   UNL A   1      35.975  30.694  31.091  1.00  0.00    -0.269 OA
BRANCH  23  26
ATOM     26  C   UNL A   1      37.768  30.242  29.636  1.00  0.00     0.039 A 
ATOM     27  C   UNL A   1      38.675  30.016  30.675  1.00  0.00     0.014 A 
ATOM     28  C   UNL A   1      38.210  30.235  28.314  1.00  0.00     0.014 A 
ATOM     29  C   UNL A   1      39.998  29.678  30.374  1.00  0.00     0.010 A 
ATOM     30  C   UNL A   1      39.480  29.766  28.016  1.00  0.00     0.010 A 
ATOM     31  C   UNL A   1      40.397  29.492  29.041  1.00  0.00    -0.014 A 
BRANCH  31  32
ATOM     32  C   UNL A   1      41.761  29.027  28.676  1.00  0.00     0.031 A 
ATOM     33  C   UNL A   1      42.907  30.005  28.662  1.00  0.00     0.074 A 
ATOM     34  C   UNL A   1      41.953  27.758  28.262  1.00  0.00     0.049 A 
ATOM     35  N   UNL A   1      44.143  29.824  28.272  1.00  0.00    -0.248 NA
ATOM     36  C   UNL A   1      42.613  31.379  29.102  1.00  0.00     0.031 C 
ATOM     37  C   UNL A   1      40.919  26.723  28.177  1.00  0.00     0.029 A 
ATOM     38  N   UNL A   1      43.091  27.123  27.830  1.00  0.00    -0.354 N 
ATOM     39  C   UNL A   1      44.757  31.068  28.382  1.00  0.00     0.074 A 
ATOM     40  C   UNL A   1      43.741  32.004  28.807  1.00  0.00     0.031 C 
ATOM     41  C   UNL A   1      41.480  25.571  27.774  1.00  0.00     0.029 A 
ATOM     42  C   UNL A   1      42.900  25.796  27.522  1.00  0.00     0.049 A 
ATOM     43  H   UNL A   1      43.961  27.574  27.749  1.00  0.00     0.167 HD
ATOM     44  C   UNL A   1      46.054  31.401  28.177  1.00  0.00     0.031 A 
ATOM     45  C   UNL A   1      43.770  24.863  27.091  1.00  0.00     0.031 A 
ATOM     46  C   UNL A   1      47.068  30.461  27.783  1.00  0.00     0.049 A 
ATOM     47  C   UNL A   1      45.208  25.246  26.877  1.00  0.00     0.074 A 
ATOM     48  C   UNL A   1      48.425  30.675  27.619  1.00  0.00     0.029 A 
ATOM     49  N   UNL A   1      46.834  29.125  27.492  1.00  0.00    -0.354 N 
ATOM     50  N   UNL A   1      45.784  26.412  27.048  1.00  0.00    -0.248 NA
ATOM     51  C   UNL A   1      46.114  24.185  26.417  1.00  0.00     0.031 C 
ATOM     52  C   UNL A   1      49.003  29.478  27.181  1.00  0.00     0.029 A 
ATOM     53  C   UNL A   1      48.016  28.506  27.127  1.00  0.00     0.049 A 
ATOM     54  H   UNL A   1      45.955  28.682  27.538  1.00  0.00     0.167 HD
ATOM     55  C   UNL A   1      47.127  26.219  26.745  1.00  0.00     0.074 A 
ATOM     56  C   UNL A   1      47.278  24.821  26.388  1.00  0.00     0.031 C 
ATOM     57  C   UNL A   1      48.145  27.115  26.770  1.00  0.00     0.031 A 
BRANCH  44  58
ATOM     58  C   UNL A   1      46.429  32.848  28.370  1.00  0.00    -0.014 A 
ATOM     59  C   UNL A   1      46.806  33.343  29.634  1.00  0.00     0.010 A 
ATOM     60  C   UNL A   1      46.372  33.735  27.280  1.00  0.00     0.010 A 
ATOM     61  C   UNL A   1      47.037  34.708  29.820  1.00  0.00     0.020 A 
ATOM     62  C   UNL A   1      46.639  35.096  27.456  1.00  0.00     0.020 A 
ATOM     63  C   UNL A   1      46.938  35.579  28.732  1.00  0.00     0.054 A 
BRANCH  63  64
ATOM     64  S   UNL A   1      47.205  37.351  29.008  1.00  0.00     0.124 S 
ATOM     65  O   UNL A   1      48.253  37.650  28.034  1.00  0.00    -0.237 OA
ATOM     66  O   UNL A   1      45.894  37.924  28.714  1.00  0.00    -0.237 OA
ATOM     67  O   UNL A   1      47.615  37.426  30.408  1.00  0.00    -0.744 OA
ENDBRANCH  63  64
ENDBRANCH  44  58
BRANCH  45  68
ATOM     68  C   UNL A   1      43.310  23.460  26.897  1.00  0.00    -0.014 A 
ATOM     69  C   UNL A   1      43.095  22.968  25.598  1.00  0.00     0.010 A 
ATOM     70  C   UNL A   1      43.136  22.597  27.994  1.00  0.00     0.010 A 
ATOM     71  C   UNL A   1      42.715  21.638  25.397  1.00  0.00     0.020 A 
ATOM     72  C   UNL A   1      42.780  21.259  27.795  1.00  0.00     0.020 A 
ATOM     73  C   UNL A   1      42.568  20.789  26.497  1.00  0.00     0.054 A 
BRANCH  73  74
ATOM     74  S   UNL A   1      42.157  19.046  26.203  1.00  0.00     0.124 S 
ATOM     75  O   UNL A   1      40.756  19.127  25.802  1.00  0.00    -0.237 OA
ATOM     76  O   UNL A   1      43.097  18.676  25.147  1.00  0.00    -0.237 OA
ATOM     77  O   UNL A   1      42.403  18.413  27.496  1.00  0.00    -0.744 OA
ENDBRANCH  73  74
ENDBRANCH  45  68
BRANCH  57  78
ATOM     78  C   UNL A   1      49.521  26.608  26.428  1.00  0.00    -0.014 A 
ATOM     79  C   UNL A   1      50.067  26.783  25.145  1.00  0.00     0.010 A 
ATOM     80  C   UNL A   1      50.300  25.999  27.430  1.00  0.00     0.010 A 
ATOM     81  C   UNL A   1      51.358  26.333  24.861  1.00  0.00     0.020 A 
ATOM     82  C   UNL A   1      51.602  25.573  27.157  1.00  0.00     0.020 A 
ATOM     83  C   UNL A   1      52.118  25.731  25.870  1.00  0.00     0.054 A 
BRANCH  83  84
ATOM     84  S   UNL A   1      53.811  25.201  25.490  1.00  0.00     0.124 S 
ATOM     85  O   UNL A   1      53.583  23.946  24.778  1.00  0.00    -0.237 OA
ATOM     86  O   UNL A   1      54.318  26.303  24.676  1.00  0.00    -0.237 OA
ATOM     87  O   UNL A   1      54.435  25.067  26.804  1.00  0.00    -0.744 OA
ENDBRANCH  83  84
ENDBRANCH  57  78
ENDBRANCH  31  32
ENDBRANCH  23  26
ENDBRANCH  21  22
ENDBRANCH  20  21
ENDBRANCH   1  20
TORSDOF 19
ENDMDL
