MODEL 1
REMARK VINA RESULT:     -11.5      0.000      0.000
REMARK SMILES C/C(=C(\C#N)C(=O)NCCCNC(=O)c1ccc(-c2c3nc(c(-c4ccc(S(=O)(=O)[O-])cc4)c4ccc([nH]4)c(-c4ccc(S(=O)(=O)[O-])cc4)c4nc(c(-c5ccc(S(=O)(=O)[O-])cc5)c5ccc2[nH]5)C=C4)C=C3)cc1)c1cccc2ccccc12
REMARK SMILES IDX 11 1 10 2 9 3 8 4 6 5 7 6 3 8 1 9 2 10 75 11 76 12 84 13
REMARK SMILES IDX 77 14 79 15 83 16 78 17 80 18 82 19 81 20 4 21 5 22 12 23
REMARK SMILES IDX 13 24 14 26 15 27 16 28 74 29 17 30 73 31 18 32 19 33 20 34
REMARK SMILES IDX 67 35 21 36 72 37 66 38 68 39 22 40 71 41 65 42 64 43 23 45
REMARK SMILES IDX 53 46 34 47 52 48 35 49 38 50 51 51 69 52 36 53 37 54 50 56
REMARK SMILES IDX 70 57 39 58 24 59 25 60 33 61 26 62 32 63 27 64 28 65 29 66
REMARK SMILES IDX 30 67 31 68 54 69 55 70 63 71 56 72 62 73 57 74 58 75 59 76
REMARK SMILES IDX 60 77 61 78 40 79 41 80 49 81 42 82 48 83 43 84 44 85 45 86
REMARK SMILES IDX 46 87 47 88
REMARK H PARENT 8 7 12 25 68 44 38 55
REMARK Flexibility Score: inf
ROOT
ATOM      1  C   UNL A   1      33.963  28.886  26.043  1.00  0.00     0.118 C 
ENDROOT
BRANCH   1   2
ATOM      2  C   UNL A   1      33.320  27.800  26.901  1.00  0.00     0.042 C 
BRANCH   2   3
ATOM      3  C   UNL A   1      31.803  27.905  26.920  1.00  0.00     0.118 C 
BRANCH   3   4
ATOM      4  N   UNL A   1      31.148  26.607  26.907  1.00  0.00    -0.351 N 
ATOM      5  C   UNL A   1      31.015  25.588  26.016  1.00  0.00     0.262 C 
ATOM      6  O   UNL A   1      30.675  24.535  26.560  1.00  0.00    -0.268 OA
ATOM      7  H   UNL A   1      30.684  26.420  27.756  1.00  0.00     0.163 HD
BRANCH   5   8
ATOM      8  C   UNL A   1      31.312  25.687  24.516  1.00  0.00     0.120 C 
ATOM      9  C   UNL A   1      32.857  25.585  22.540  1.00  0.00     0.046 C 
ATOM     10  C   UNL A   1      32.455  25.196  23.940  1.00  0.00    -0.020 C 
BRANCH  10  11
ATOM     11  C   UNL A   1      33.410  24.276  24.682  1.00  0.00    -0.013 A 
ATOM     12  C   UNL A   1      34.521  24.908  25.276  1.00  0.00     0.009 A 
ATOM     13  C   UNL A   1      33.373  22.835  24.703  1.00  0.00    -0.011 A 
ATOM     14  C   UNL A   1      35.687  24.201  25.555  1.00  0.00     0.001 A 
ATOM     15  C   UNL A   1      34.600  22.143  24.912  1.00  0.00    -0.018 A 
ATOM     16  C   UNL A   1      32.225  22.007  24.584  1.00  0.00     0.009 A 
ATOM     17  C   UNL A   1      35.752  22.843  25.278  1.00  0.00     0.009 A 
ATOM     18  C   UNL A   1      34.679  20.744  24.804  1.00  0.00     0.009 A 
ATOM     19  C   UNL A   1      32.298  20.606  24.622  1.00  0.00     0.001 A 
ATOM     20  C   UNL A   1      33.531  19.974  24.678  1.00  0.00     0.001 A 
ENDBRANCH  10  11
BRANCH   8  21
ATOM     21  C   UNL A   1      30.342  26.598  23.782  1.00  0.00     0.105 C 
ATOM     22  N   UNL A   1      29.536  27.354  23.174  1.00  0.00    -0.192 NA
ENDBRANCH   8  21
ENDBRANCH   5   8
ENDBRANCH   3   4
ENDBRANCH   2   3
ENDBRANCH   1   2
BRANCH   1  23
ATOM     23  N   UNL A   1      33.836  30.210  26.651  1.00  0.00    -0.352 N 
ATOM     24  C   UNL A   1      34.558  30.786  27.667  1.00  0.00     0.251 C 
ATOM     25  H   UNL A   1      33.122  30.774  26.274  1.00  0.00     0.163 HD
ATOM     26  O   UNL A   1      34.127  31.779  28.239  1.00  0.00    -0.269 OA
BRANCH  24  27
ATOM     27  C   UNL A   1      35.858  30.205  28.046  1.00  0.00     0.039 A 
ATOM     28  C   UNL A   1      36.912  30.210  27.130  1.00  0.00     0.014 A 
ATOM     29  C   UNL A   1      36.021  29.642  29.313  1.00  0.00     0.014 A 
ATOM     30  C   UNL A   1      38.155  29.707  27.514  1.00  0.00     0.010 A 
ATOM     31  C   UNL A   1      37.278  29.224  29.722  1.00  0.00     0.010 A 
ATOM     32  C   UNL A   1      38.356  29.244  28.824  1.00  0.00    -0.014 A 
BRANCH  32  33
ATOM     33  C   UNL A   1      39.675  28.758  29.295  1.00  0.00     0.031 A 
ATOM     34  C   UNL A   1      40.584  29.698  30.044  1.00  0.00     0.074 A 
ATOM     35  C   UNL A   1      40.095  27.524  28.953  1.00  0.00     0.049 A 
ATOM     36  N   UNL A   1      41.827  29.524  30.407  1.00  0.00    -0.248 NA
ATOM     37  C   UNL A   1      40.033  31.018  30.402  1.00  0.00     0.031 C 
ATOM     38  C   UNL A   1      39.315  26.540  28.196  1.00  0.00     0.029 A 
ATOM     39  N   UNL A   1      41.291  26.891  29.180  1.00  0.00    -0.354 N 
ATOM     40  C   UNL A   1      42.218  30.721  30.997  1.00  0.00     0.074 A 
ATOM     41  C   UNL A   1      41.094  31.625  30.916  1.00  0.00     0.031 C 
ATOM     42  C   UNL A   1      40.048  25.426  28.036  1.00  0.00     0.029 A 
ATOM     43  C   UNL A   1      41.364  25.632  28.629  1.00  0.00     0.049 A 
ATOM     44  H   UNL A   1      42.027  27.299  29.691  1.00  0.00     0.167 HD
ATOM     45  C   UNL A   1      43.405  31.031  31.566  1.00  0.00     0.031 A 
ATOM     46  C   UNL A   1      42.386  24.755  28.586  1.00  0.00     0.031 A 
ATOM     47  C   UNL A   1      44.502  30.109  31.678  1.00  0.00     0.049 A 
ATOM     48  C   UNL A   1      43.695  25.131  29.229  1.00  0.00     0.074 A 
ATOM     49  C   UNL A   1      45.716  30.298  32.317  1.00  0.00     0.029 A 
ATOM     50  N   UNL A   1      44.523  28.832  31.141  1.00  0.00    -0.354 N 
ATOM     51  N   UNL A   1      44.016  26.236  29.859  1.00  0.00    -0.248 NA
ATOM     52  C   UNL A   1      44.779  24.140  29.164  1.00  0.00     0.031 C 
ATOM     53  C   UNL A   1      46.496  29.158  32.108  1.00  0.00     0.029 A 
ATOM     54  C   UNL A   1      45.741  28.233  31.405  1.00  0.00     0.049 A 
ATOM     55  H   UNL A   1      43.782  28.415  30.645  1.00  0.00     0.167 HD
ATOM     56  C   UNL A   1      45.323  26.054  30.301  1.00  0.00     0.074 A 
ATOM     57  C   UNL A   1      45.729  24.731  29.875  1.00  0.00     0.031 C 
ATOM     58  C   UNL A   1      46.116  26.903  30.996  1.00  0.00     0.031 A 
BRANCH  45  59
ATOM     59  C   UNL A   1      43.596  32.421  32.110  1.00  0.00    -0.014 A 
ATOM     60  C   UNL A   1      44.016  33.478  31.284  1.00  0.00     0.010 A 
ATOM     61  C   UNL A   1      43.252  32.692  33.447  1.00  0.00     0.010 A 
ATOM     62  C   UNL A   1      44.098  34.779  31.789  1.00  0.00     0.020 A 
ATOM     63  C   UNL A   1      43.305  33.994  33.948  1.00  0.00     0.020 A 
ATOM     64  C   UNL A   1      43.733  35.030  33.115  1.00  0.00     0.054 A 
BRANCH  64  65
ATOM     65  S   UNL A   1      43.771  36.741  33.718  1.00  0.00     0.124 S 
ATOM     66  O   UNL A   1      44.121  37.479  32.506  1.00  0.00    -0.237 OA
ATOM     67  O   UNL A   1      42.407  36.938  34.200  1.00  0.00    -0.237 OA
ATOM     68  O   UNL A   1      44.800  36.722  34.754  1.00  0.00    -0.744 OA
ENDBRANCH  64  65
ENDBRANCH  45  59
BRANCH  46  69
ATOM     69  C   UNL A   1      42.230  23.440  27.901  1.00  0.00    -0.014 A 
ATOM     70  C   UNL A   1      41.677  22.340  28.582  1.00  0.00     0.010 A 
ATOM     71  C   UNL A   1      42.674  23.267  26.578  1.00  0.00     0.010 A 
ATOM     72  C   UNL A   1      41.621  21.083  27.972  1.00  0.00     0.020 A 
ATOM     73  C   UNL A   1      42.587  22.021  25.952  1.00  0.00     0.020 A 
ATOM     74  C   UNL A   1      42.084  20.931  26.662  1.00  0.00     0.054 A 
BRANCH  74  75
ATOM     75  S   UNL A   1      42.014  19.287  25.895  1.00  0.00     0.124 S 
ATOM     76  O   UNL A   1      42.502  18.430  26.971  1.00  0.00    -0.237 OA
ATOM     77  O   UNL A   1      40.597  19.151  25.569  1.00  0.00    -0.237 OA
ATOM     78  O   UNL A   1      42.903  19.412  24.742  1.00  0.00    -0.744 OA
ENDBRANCH  74  75
ENDBRANCH  46  69
BRANCH  58  79
ATOM     79  C   UNL A   1      47.479  26.416  31.407  1.00  0.00    -0.014 A 
ATOM     80  C   UNL A   1      47.699  25.827  32.665  1.00  0.00     0.010 A 
ATOM     81  C   UNL A   1      48.535  26.469  30.478  1.00  0.00     0.010 A 
ATOM     82  C   UNL A   1      48.958  25.318  32.991  1.00  0.00     0.020 A 
ATOM     83  C   UNL A   1      49.784  25.931  30.789  1.00  0.00     0.020 A 
ATOM     84  C   UNL A   1      49.991  25.366  32.048  1.00  0.00     0.054 A 
BRANCH  84  85
ATOM     85  S   UNL A   1      51.593  24.632  32.473  1.00  0.00     0.124 S 
ATOM     86  O   UNL A   1      51.681  24.899  33.905  1.00  0.00    -0.237 OA
ATOM     87  O   UNL A   1      51.410  23.230  32.104  1.00  0.00    -0.237 OA
ATOM     88  O   UNL A   1      52.544  25.368  31.642  1.00  0.00    -0.744 OA
ENDBRANCH  84  85
ENDBRANCH  58  79
ENDBRANCH  32  33
ENDBRANCH  24  27
ENDBRANCH   1  23
TORSDOF 15
ENDMDL
MODEL 2
REMARK VINA RESULT:     -11.2      0.856      1.562
REMARK SMILES C/C(=C(\C#N)C(=O)NCCCNC(=O)c1ccc(-c2c3nc(c(-c4ccc(S(=O)(=O)[O-])cc4)c4ccc([nH]4)c(-c4ccc(S(=O)(=O)[O-])cc4)c4nc(c(-c5ccc(S(=O)(=O)[O-])cc5)c5ccc2[nH]5)C=C4)C=C3)cc1)c1cccc2ccccc12
REMARK SMILES IDX 11 1 10 2 9 3 8 4 6 5 7 6 3 8 1 9 2 10 75 11 76 12 84 13
REMARK SMILES IDX 77 14 79 15 83 16 78 17 80 18 82 19 81 20 4 21 5 22 12 23
REMARK SMILES IDX 13 24 14 26 15 27 16 28 74 29 17 30 73 31 18 32 19 33 20 34
REMARK SMILES IDX 67 35 21 36 72 37 66 38 68 39 22 40 71 41 65 42 64 43 23 45
REMARK SMILES IDX 53 46 34 47 52 48 35 49 38 50 51 51 69 52 36 53 37 54 50 56
REMARK SMILES IDX 70 57 39 58 24 59 25 60 33 61 26 62 32 63 27 64 28 65 29 66
REMARK SMILES IDX 30 67 31 68 54 69 55 70 63 71 56 72 62 73 57 74 58 75 59 76
REMARK SMILES IDX 60 77 61 78 40 79 41 80 49 81 42 82 48 83 43 84 44 85 45 86
REMARK SMILES IDX 46 87 47 88
REMARK H PARENT 8 7 12 25 68 44 38 55
REMARK Flexibility Score: inf
ROOT
ATOM      1  C   UNL A   1      34.031  28.760  25.998  1.00  0.00     0.118 C 
ENDROOT
BRANCH   1   2
ATOM      2  C   UNL A   1      32.829  27.834  26.165  1.00  0.00     0.042 C 
BRANCH   2   3
ATOM      3  C   UNL A   1      33.220  26.366  26.093  1.00  0.00     0.118 C 
BRANCH   3   4
ATOM      4  N   UNL A   1      32.071  25.482  25.982  1.00  0.00    -0.351 N 
ATOM      5  C   UNL A   1      31.422  24.844  24.971  1.00  0.00     0.262 C 
ATOM      6  O   UNL A   1      30.716  23.919  25.380  1.00  0.00    -0.268 OA
ATOM      7  H   UNL A   1      31.658  25.302  26.858  1.00  0.00     0.163 HD
BRANCH   5   8
ATOM      8  C   UNL A   1      31.582  25.166  23.482  1.00  0.00     0.120 C 
ATOM      9  C   UNL A   1      32.772  24.985  21.278  1.00  0.00     0.046 C 
ATOM     10  C   UNL A   1      32.398  24.456  22.639  1.00  0.00    -0.020 C 
BRANCH  10  11
ATOM     11  C   UNL A   1      33.015  23.124  23.035  1.00  0.00    -0.013 A 
ATOM     12  C   UNL A   1      32.243  21.985  22.732  1.00  0.00     0.009 A 
ATOM     13  C   UNL A   1      34.213  22.929  23.813  1.00  0.00    -0.011 A 
ATOM     14  C   UNL A   1      32.416  20.792  23.428  1.00  0.00     0.001 A 
ATOM     15  C   UNL A   1      34.322  21.732  24.575  1.00  0.00    -0.018 A 
ATOM     16  C   UNL A   1      35.343  23.788  23.873  1.00  0.00     0.009 A 
ATOM     17  C   UNL A   1      33.389  20.705  24.414  1.00  0.00     0.009 A 
ATOM     18  C   UNL A   1      35.385  21.528  25.470  1.00  0.00     0.009 A 
ATOM     19  C   UNL A   1      36.467  23.502  24.663  1.00  0.00     0.001 A 
ATOM     20  C   UNL A   1      36.466  22.399  25.503  1.00  0.00     0.001 A 
ENDBRANCH  10  11
BRANCH   8  21
ATOM     21  C   UNL A   1      30.949  26.492  23.094  1.00  0.00     0.105 C 
ATOM     22  N   UNL A   1      30.423  27.593  22.774  1.00  0.00    -0.192 NA
ENDBRANCH   8  21
ENDBRANCH   5   8
ENDBRANCH   3   4
ENDBRANCH   2   3
ENDBRANCH   1   2
BRANCH   1  23
ATOM     23  N   UNL A   1      33.844  30.030  26.697  1.00  0.00    -0.352 N 
ATOM     24  C   UNL A   1      34.562  30.581  27.730  1.00  0.00     0.251 C 
ATOM     25  H   UNL A   1      33.088  30.573  26.379  1.00  0.00     0.163 HD
ATOM     26  O   UNL A   1      34.091  31.506  28.379  1.00  0.00    -0.269 OA
BRANCH  24  27
ATOM     27  C   UNL A   1      35.905  30.056  28.035  1.00  0.00     0.039 A 
ATOM     28  C   UNL A   1      36.911  30.128  27.070  1.00  0.00     0.014 A 
ATOM     29  C   UNL A   1      36.156  29.480  29.282  1.00  0.00     0.014 A 
ATOM     30  C   UNL A   1      38.194  29.678  27.383  1.00  0.00     0.010 A 
ATOM     31  C   UNL A   1      37.450  29.115  29.621  1.00  0.00     0.010 A 
ATOM     32  C   UNL A   1      38.480  29.202  28.673  1.00  0.00    -0.014 A 
BRANCH  32  33
ATOM     33  C   UNL A   1      39.843  28.773  29.070  1.00  0.00     0.031 A 
ATOM     34  C   UNL A   1      40.773  29.767  29.714  1.00  0.00     0.074 A 
ATOM     35  C   UNL A   1      40.274  27.536  28.751  1.00  0.00     0.049 A 
ATOM     36  N   UNL A   1      42.043  29.642  29.996  1.00  0.00    -0.248 NA
ATOM     37  C   UNL A   1      40.210  31.086  30.055  1.00  0.00     0.031 C 
ATOM     38  C   UNL A   1      39.473  26.500  28.091  1.00  0.00     0.029 A 
ATOM     39  N   UNL A   1      41.500  26.944  28.920  1.00  0.00    -0.354 N 
ATOM     40  C   UNL A   1      42.438  30.873  30.508  1.00  0.00     0.074 A 
ATOM     41  C   UNL A   1      41.285  31.742  30.468  1.00  0.00     0.031 C 
ATOM     42  C   UNL A   1      40.225  25.399  27.927  1.00  0.00     0.029 A 
ATOM     43  C   UNL A   1      41.572  25.666  28.417  1.00  0.00     0.049 A 
ATOM     44  H   UNL A   1      42.258  27.394  29.360  1.00  0.00     0.167 HD
ATOM     45  C   UNL A   1      43.652  31.238  30.979  1.00  0.00     0.031 A 
ATOM     46  C   UNL A   1      42.613  24.814  28.340  1.00  0.00     0.031 A 
ATOM     47  C   UNL A   1      44.781  30.351  31.051  1.00  0.00     0.049 A 
ATOM     48  C   UNL A   1      43.953  25.252  28.873  1.00  0.00     0.074 A 
ATOM     49  C   UNL A   1      46.029  30.599  31.595  1.00  0.00     0.029 A 
ATOM     50  N   UNL A   1      44.802  29.053  30.567  1.00  0.00    -0.354 N 
ATOM     51  N   UNL A   1      44.284  26.392  29.433  1.00  0.00    -0.248 NA
ATOM     52  C   UNL A   1      45.058  24.287  28.773  1.00  0.00     0.031 C 
ATOM     53  C   UNL A   1      46.826  29.472  31.380  1.00  0.00     0.029 A 
ATOM     54  C   UNL A   1      46.052  28.498  30.770  1.00  0.00     0.049 A 
ATOM     55  H   UNL A   1      44.041  28.595  30.142  1.00  0.00     0.167 HD
ATOM     56  C   UNL A   1      45.622  26.263  29.789  1.00  0.00     0.074 A 
ATOM     57  C   UNL A   1      46.037  24.934  29.391  1.00  0.00     0.031 C 
ATOM     58  C   UNL A   1      46.437  27.162  30.392  1.00  0.00     0.031 A 
BRANCH  45  59
ATOM     59  C   UNL A   1      43.840  32.655  31.450  1.00  0.00    -0.014 A 
ATOM     60  C   UNL A   1      44.214  33.678  30.561  1.00  0.00     0.010 A 
ATOM     61  C   UNL A   1      43.538  32.984  32.784  1.00  0.00     0.010 A 
ATOM     62  C   UNL A   1      44.292  35.002  31.001  1.00  0.00     0.020 A 
ATOM     63  C   UNL A   1      43.587  34.309  33.221  1.00  0.00     0.020 A 
ATOM     64  C   UNL A   1      43.969  35.310  32.326  1.00  0.00     0.054 A 
BRANCH  64  65
ATOM     65  S   UNL A   1      44.001  37.048  32.846  1.00  0.00     0.124 S 
ATOM     66  O   UNL A   1      43.776  37.745  31.581  1.00  0.00    -0.237 OA
ATOM     67  O   UNL A   1      42.899  37.113  33.802  1.00  0.00    -0.237 OA
ATOM     68  O   UNL A   1      45.332  37.215  33.421  1.00  0.00    -0.744 OA
ENDBRANCH  64  65
ENDBRANCH  45  59
BRANCH  46  69
ATOM     69  C   UNL A   1      42.449  23.467  27.722  1.00  0.00    -0.014 A 
ATOM     70  C   UNL A   1      42.040  22.369  28.500  1.00  0.00     0.010 A 
ATOM     71  C   UNL A   1      42.743  23.265  26.362  1.00  0.00     0.010 A 
ATOM     72  C   UNL A   1      41.981  21.088  27.944  1.00  0.00     0.020 A 
ATOM     73  C   UNL A   1      42.650  21.992  25.792  1.00  0.00     0.020 A 
ATOM     74  C   UNL A   1      42.294  20.907  26.594  1.00  0.00     0.054 A 
BRANCH  74  75
ATOM     75  S   UNL A   1      42.223  19.233  25.895  1.00  0.00     0.124 S 
ATOM     76  O   UNL A   1      42.728  18.423  27.000  1.00  0.00    -0.237 OA
ATOM     77  O   UNL A   1      40.803  19.078  25.593  1.00  0.00    -0.237 OA
ATOM     78  O   UNL A   1      43.097  19.314  24.727  1.00  0.00    -0.744 OA
ENDBRANCH  74  75
ENDBRANCH  46  69
BRANCH  58  79
ATOM     79  C   UNL A   1      47.838  26.729  30.726  1.00  0.00    -0.014 A 
ATOM     80  C   UNL A   1      48.912  26.985  29.856  1.00  0.00     0.010 A 
ATOM     81  C   UNL A   1      48.092  26.134  31.977  1.00  0.00     0.010 A 
ATOM     82  C   UNL A   1      50.214  26.635  30.226  1.00  0.00     0.020 A 
ATOM     83  C   UNL A   1      49.394  25.815  32.361  1.00  0.00     0.020 A 
ATOM     84  C   UNL A   1      50.447  26.059  31.479  1.00  0.00     0.054 A 
BRANCH  84  85
ATOM     85  S   UNL A   1      52.154  25.684  31.961  1.00  0.00     0.124 S 
ATOM     86  O   UNL A   1      52.062  24.276  32.338  1.00  0.00    -0.237 OA
ATOM     87  O   UNL A   1      52.900  25.959  30.736  1.00  0.00    -0.237 OA
ATOM     88  O   UNL A   1      52.415  26.607  33.063  1.00  0.00    -0.744 OA
ENDBRANCH  84  85
ENDBRANCH  58  79
ENDBRANCH  32  33
ENDBRANCH  24  27
ENDBRANCH   1  23
TORSDOF 15
ENDMDL
MODEL 3
REMARK VINA RESULT:     -11.0      2.624      9.149
REMARK SMILES C/C(=C(\C#N)C(=O)NCCCNC(=O)c1ccc(-c2c3nc(c(-c4ccc(S(=O)(=O)[O-])cc4)c4ccc([nH]4)c(-c4ccc(S(=O)(=O)[O-])cc4)c4nc(c(-c5ccc(S(=O)(=O)[O-])cc5)c5ccc2[nH]5)C=C4)C=C3)cc1)c1cccc2ccccc12
REMARK SMILES IDX 11 1 10 2 9 3 8 4 6 5 7 6 3 8 1 9 2 10 75 11 76 12 84 13
REMARK SMILES IDX 77 14 79 15 83 16 78 17 80 18 82 19 81 20 4 21 5 22 12 23
REMARK SMILES IDX 13 24 14 26 15 27 16 28 74 29 17 30 73 31 18 32 19 33 20 34
REMARK SMILES IDX 67 35 21 36 72 37 66 38 68 39 22 40 71 41 65 42 64 43 23 45
REMARK SMILES IDX 53 46 34 47 52 48 35 49 38 50 51 51 69 52 36 53 37 54 50 56
REMARK SMILES IDX 70 57 39 58 24 59 25 60 33 61 26 62 32 63 27 64 28 65 29 66
REMARK SMILES IDX 30 67 31 68 54 69 55 70 63 71 56 72 62 73 57 74 58 75 59 76
REMARK SMILES IDX 60 77 61 78 40 79 41 80 49 81 42 82 48 83 43 84 44 85 45 86
REMARK SMILES IDX 46 87 47 88
REMARK H PARENT 8 7 12 25 68 44 38 55
REMARK Flexibility Score: inf
ROOT
ATOM      1  C   UNL A   1      36.516  23.224  26.121  1.00  0.00     0.118 C 
ENDROOT
BRANCH   1   2
ATOM      2  C   UNL A   1      35.594  22.879  24.955  1.00  0.00     0.042 C 
BRANCH   2   3
ATOM      3  C   UNL A   1      35.151  24.115  24.187  1.00  0.00     0.118 C 
BRANCH   3   4
ATOM      4  N   UNL A   1      34.780  25.217  25.061  1.00  0.00    -0.351 N 
ATOM      5  C   UNL A   1      33.821  26.182  25.064  1.00  0.00     0.262 C 
ATOM      6  O   UNL A   1      33.666  26.681  26.181  1.00  0.00    -0.268 OA
ATOM      7  H   UNL A   1      35.372  25.280  25.845  1.00  0.00     0.163 HD
BRANCH   5   8
ATOM      8  C   UNL A   1      32.968  26.578  23.855  1.00  0.00     0.120 C 
ATOM      9  C   UNL A   1      31.305  26.077  22.042  1.00  0.00     0.046 C 
ATOM     10  C   UNL A   1      31.912  25.831  23.399  1.00  0.00    -0.020 C 
BRANCH  10  11
ATOM     11  C   UNL A   1      31.320  24.684  24.203  1.00  0.00    -0.013 A 
ATOM     12  C   UNL A   1      30.479  25.062  25.268  1.00  0.00     0.009 A 
ATOM     13  C   UNL A   1      31.653  23.288  24.080  1.00  0.00    -0.011 A 
ATOM     14  C   UNL A   1      30.261  24.213  26.349  1.00  0.00     0.001 A 
ATOM     15  C   UNL A   1      31.492  22.463  25.230  1.00  0.00    -0.018 A 
ATOM     16  C   UNL A   1      32.087  22.611  22.909  1.00  0.00     0.009 A 
ATOM     17  C   UNL A   1      30.850  22.957  26.368  1.00  0.00     0.009 A 
ATOM     18  C   UNL A   1      31.928  21.128  25.240  1.00  0.00     0.009 A 
ATOM     19  C   UNL A   1      32.383  21.239  22.895  1.00  0.00     0.001 A 
ATOM     20  C   UNL A   1      32.355  20.509  24.073  1.00  0.00     0.001 A 
ENDBRANCH  10  11
BRANCH   8  21
ATOM     21  C   UNL A   1      33.562  27.735  23.068  1.00  0.00     0.105 C 
ATOM     22  N   UNL A   1      34.054  28.694  22.414  1.00  0.00    -0.192 NA
ENDBRANCH   8  21
ENDBRANCH   5   8
ENDBRANCH   3   4
ENDBRANCH   2   3
ENDBRANCH   1   2
BRANCH   1  23
ATOM     23  N   UNL A   1      37.716  22.389  26.135  1.00  0.00    -0.352 N 
ATOM     24  C   UNL A   1      39.032  22.740  26.306  1.00  0.00     0.251 C 
ATOM     25  H   UNL A   1      37.555  21.427  26.001  1.00  0.00     0.163 HD
ATOM     26  O   UNL A   1      39.922  21.957  25.999  1.00  0.00    -0.269 OA
BRANCH  24  27
ATOM     27  C   UNL A   1      39.357  24.061  26.875  1.00  0.00     0.039 A 
ATOM     28  C   UNL A   1      38.988  24.357  28.188  1.00  0.00     0.014 A 
ATOM     29  C   UNL A   1      40.019  25.008  26.091  1.00  0.00     0.014 A 
ATOM     30  C   UNL A   1      39.346  25.589  28.738  1.00  0.00     0.010 A 
ATOM     31  C   UNL A   1      40.450  26.194  26.666  1.00  0.00     0.010 A 
ATOM     32  C   UNL A   1      40.111  26.500  27.992  1.00  0.00    -0.014 A 
BRANCH  32  33
ATOM     33  C   UNL A   1      40.567  27.794  28.556  1.00  0.00     0.031 A 
ATOM     34  C   UNL A   1      41.954  27.900  29.133  1.00  0.00     0.074 A 
ATOM     35  C   UNL A   1      39.703  28.825  28.650  1.00  0.00     0.049 A 
ATOM     36  N   UNL A   1      42.492  28.883  29.805  1.00  0.00    -0.248 NA
ATOM     37  C   UNL A   1      42.842  26.736  28.960  1.00  0.00     0.031 C 
ATOM     38  C   UNL A   1      38.321  28.823  28.160  1.00  0.00     0.029 A 
ATOM     39  N   UNL A   1      39.852  30.069  29.209  1.00  0.00    -0.354 N 
ATOM     40  C   UNL A   1      43.759  28.442  30.169  1.00  0.00     0.074 A 
ATOM     41  C   UNL A   1      43.901  27.093  29.673  1.00  0.00     0.031 C 
ATOM     42  C   UNL A   1      37.758  30.013  28.427  1.00  0.00     0.029 A 
ATOM     43  C   UNL A   1      38.715  30.841  29.152  1.00  0.00     0.049 A 
ATOM     44  H   UNL A   1      40.695  30.380  29.612  1.00  0.00     0.167 HD
ATOM     45  C   UNL A   1      44.722  29.110  30.846  1.00  0.00     0.031 A 
ATOM     46  C   UNL A   1      38.466  32.068  29.650  1.00  0.00     0.031 A 
ATOM     47  C   UNL A   1      44.584  30.467  31.299  1.00  0.00     0.049 A 
ATOM     48  C   UNL A   1      39.559  32.785  30.399  1.00  0.00     0.074 A 
ATOM     49  C   UNL A   1      45.533  31.263  31.914  1.00  0.00     0.029 A 
ATOM     50  N   UNL A   1      43.430  31.227  31.188  1.00  0.00    -0.354 N 
ATOM     51  N   UNL A   1      40.781  32.383  30.657  1.00  0.00    -0.248 NA
ATOM     52  C   UNL A   1      39.243  34.124  30.918  1.00  0.00     0.031 C 
ATOM     53  C   UNL A   1      44.933  32.483  32.236  1.00  0.00     0.029 A 
ATOM     54  C   UNL A   1      43.634  32.472  31.754  1.00  0.00     0.049 A 
ATOM     55  H   UNL A   1      42.592  30.925  30.769  1.00  0.00     0.167 HD
ATOM     56  C   UNL A   1      41.391  33.437  31.329  1.00  0.00     0.074 A 
ATOM     57  C   UNL A   1      40.408  34.495  31.431  1.00  0.00     0.031 C 
ATOM     58  C   UNL A   1      42.651  33.523  31.820  1.00  0.00     0.031 A 
BRANCH  45  59
ATOM     59  C   UNL A   1      46.010  28.394  31.150  1.00  0.00    -0.014 A 
ATOM     60  C   UNL A   1      46.134  27.558  32.274  1.00  0.00     0.010 A 
ATOM     61  C   UNL A   1      47.079  28.482  30.240  1.00  0.00     0.010 A 
ATOM     62  C   UNL A   1      47.309  26.831  32.486  1.00  0.00     0.020 A 
ATOM     63  C   UNL A   1      48.244  27.736  30.433  1.00  0.00     0.020 A 
ATOM     64  C   UNL A   1      48.352  26.918  31.559  1.00  0.00     0.054 A 
BRANCH  64  65
ATOM     65  S   UNL A   1      49.831  25.900  31.819  1.00  0.00     0.124 S 
ATOM     66  O   UNL A   1      49.486  25.173  33.039  1.00  0.00    -0.237 OA
ATOM     67  O   UNL A   1      49.880  25.095  30.602  1.00  0.00    -0.237 OA
ATOM     68  O   UNL A   1      50.906  26.878  31.961  1.00  0.00    -0.744 OA
ENDBRANCH  64  65
ENDBRANCH  45  59
BRANCH  46  69
ATOM     69  C   UNL A   1      37.127  32.700  29.477  1.00  0.00    -0.014 A 
ATOM     70  C   UNL A   1      36.857  33.510  28.359  1.00  0.00     0.010 A 
ATOM     71  C   UNL A   1      36.127  32.532  30.452  1.00  0.00     0.010 A 
ATOM     72  C   UNL A   1      35.637  34.182  28.247  1.00  0.00     0.020 A 
ATOM     73  C   UNL A   1      34.891  33.173  30.326  1.00  0.00     0.020 A 
ATOM     74  C   UNL A   1      34.664  34.014  29.236  1.00  0.00     0.054 A 
BRANCH  74  75
ATOM     75  S   UNL A   1      33.090  34.905  29.077  1.00  0.00     0.124 S 
ATOM     76  O   UNL A   1      33.532  36.218  28.616  1.00  0.00    -0.237 OA
ATOM     77  O   UNL A   1      32.369  34.099  28.096  1.00  0.00    -0.237 OA
ATOM     78  O   UNL A   1      32.540  34.869  30.430  1.00  0.00    -0.744 OA
ENDBRANCH  74  75
ENDBRANCH  46  69
BRANCH  58  79
ATOM     79  C   UNL A   1      43.073  34.822  32.449  1.00  0.00    -0.014 A 
ATOM     80  C   UNL A   1      43.657  35.851  31.688  1.00  0.00     0.010 A 
ATOM     81  C   UNL A   1      42.796  35.047  33.811  1.00  0.00     0.010 A 
ATOM     82  C   UNL A   1      43.973  37.074  32.286  1.00  0.00     0.020 A 
ATOM     83  C   UNL A   1      43.080  36.279  34.401  1.00  0.00     0.020 A 
ATOM     84  C   UNL A   1      43.675  37.282  33.637  1.00  0.00     0.054 A 
BRANCH  84  85
ATOM     85  S   UNL A   1      44.029  38.904  34.366  1.00  0.00     0.124 S 
ATOM     86  O   UNL A   1      42.918  39.710  33.870  1.00  0.00    -0.237 OA
ATOM     87  O   UNL A   1      44.010  38.621  35.799  1.00  0.00    -0.237 OA
ATOM     88  O   UNL A   1      45.341  39.250  33.824  1.00  0.00    -0.744 OA
ENDBRANCH  84  85
ENDBRANCH  58  79
ENDBRANCH  32  33
ENDBRANCH  24  27
ENDBRANCH   1  23
TORSDOF 15
ENDMDL
