MODEL 1
REMARK VINA RESULT:     -11.2      0.000      0.000
REMARK SMILES CC(C)[C@@H](C(=O)NCCCNC(=O)c1ccc(-c2c3nc(c(-c4ccc(S(=O)(=O)[O-])cc4)c4ccc([nH]4)c(-c4ccc(S(=O)(=O)[O-])cc4)c4nc(c(-c5ccc(S(=O)(=O)[O-])cc5)c5ccc2[nH]5)C=C4)C=C3)cc1)N1C(=O)/C(=C\c2ccc([N+](=O)[O-])cc2)SC1=S
REMARK SMILES IDX 9 1 8 2 7 3 5 4 6 5 4 7 2 8 1 9 3 10 74 11 75 12 89 13 76 14
REMARK SMILES IDX 77 15 88 16 90 17 78 18 79 19 80 20 87 21 81 22 86 23 82 24
REMARK SMILES IDX 83 25 84 26 85 27 10 28 11 29 12 30 13 32 14 33 15 34 73 35
REMARK SMILES IDX 16 36 72 37 17 38 18 39 19 40 66 41 20 42 71 43 65 44 67 45
REMARK SMILES IDX 21 46 70 47 64 48 63 49 22 51 52 52 33 53 51 54 34 55 37 56
REMARK SMILES IDX 50 57 68 58 35 59 36 60 49 62 69 63 38 64 23 65 24 66 32 67
REMARK SMILES IDX 25 68 31 69 26 70 27 71 28 72 29 73 30 74 53 75 54 76 62 77
REMARK SMILES IDX 55 78 61 79 56 80 57 81 58 82 59 83 60 84 39 85 40 86 48 87
REMARK SMILES IDX 41 88 47 89 42 90 43 91 44 92 45 93 46 94
REMARK H PARENT 7 6 11 31 67 50 37 61
REMARK Flexibility Score: inf
ROOT
ATOM      1  C   UNL A   1      38.658  20.136  25.354  1.00  0.00     0.042 C 
ENDROOT
BRANCH   1   2
ATOM      2  C   UNL A   1      37.842  21.425  25.256  1.00  0.00     0.117 C 
BRANCH   2   3
ATOM      3  N   UNL A   1      37.382  21.708  23.910  1.00  0.00    -0.354 N 
ATOM      4  C   UNL A   1      36.632  22.724  23.411  1.00  0.00     0.243 C 
ATOM      5  O   UNL A   1      36.909  23.015  22.237  1.00  0.00    -0.273 OA
ATOM      6  H   UNL A   1      37.661  21.045  23.239  1.00  0.00     0.163 HD
BRANCH   4   7
ATOM      7  C   UNL A   1      35.602  23.565  24.245  1.00  0.00     0.184 C 
BRANCH   7   8
ATOM      8  C   UNL A   1      35.623  23.590  25.807  1.00  0.00     0.015 C 
ATOM      9  C   UNL A   1      36.862  24.159  26.465  1.00  0.00     0.010 C 
ATOM     10  C   UNL A   1      34.401  24.355  26.347  1.00  0.00     0.010 C 
ENDBRANCH   7   8
BRANCH   7  11
ATOM     11  N   UNL A   1      34.259  23.056  23.817  1.00  0.00    -0.280 N 
ATOM     12  C   UNL A   1      33.919  21.756  24.183  1.00  0.00     0.266 C 
ATOM     13  C   UNL A   1      33.296  23.769  23.144  1.00  0.00     0.149 C 
ATOM     14  O   UNL A   1      34.614  21.020  24.865  1.00  0.00    -0.268 OA
ATOM     15  C   UNL A   1      32.561  21.402  23.691  1.00  0.00     0.081 C 
ATOM     16  S   UNL A   1      31.823  22.806  23.010  1.00  0.00    -0.054 SA
ATOM     17  S   UNL A   1      33.384  25.326  22.551  1.00  0.00    -0.052 S 
ATOM     18  C   UNL A   1      31.976  20.193  23.683  1.00  0.00     0.029 C 
BRANCH  18  19
ATOM     19  C   UNL A   1      32.617  18.918  24.037  1.00  0.00    -0.024 A 
ATOM     20  C   UNL A   1      32.570  18.512  25.379  1.00  0.00     0.015 A 
ATOM     21  C   UNL A   1      33.232  18.082  23.097  1.00  0.00     0.015 A 
ATOM     22  C   UNL A   1      33.061  17.261  25.766  1.00  0.00     0.086 A 
ATOM     23  C   UNL A   1      33.701  16.816  23.464  1.00  0.00     0.086 A 
ATOM     24  C   UNL A   1      33.602  16.405  24.798  1.00  0.00     0.269 A 
BRANCH  24  25
ATOM     25  N   UNL A   1      34.054  15.065  25.188  1.00  0.00     0.062 N 
ATOM     26  O   UNL A   1      33.187  14.201  25.385  1.00  0.00    -0.258 OA
ATOM     27  O   UNL A   1      35.272  14.878  25.306  1.00  0.00    -0.258 OA
ENDBRANCH  24  25
ENDBRANCH  18  19
ENDBRANCH   7  11
ENDBRANCH   4   7
ENDBRANCH   2   3
ENDBRANCH   1   2
BRANCH   1  28
ATOM     28  C   UNL A   1      39.669  20.107  26.495  1.00  0.00     0.118 C 
BRANCH  28  29
ATOM     29  N   UNL A   1      40.828  19.298  26.168  1.00  0.00    -0.352 N 
ATOM     30  C   UNL A   1      42.114  19.693  25.878  1.00  0.00     0.251 C 
ATOM     31  H   UNL A   1      40.673  18.326  26.152  1.00  0.00     0.163 HD
ATOM     32  O   UNL A   1      42.881  18.889  25.353  1.00  0.00    -0.269 OA
BRANCH  30  33
ATOM     33  C   UNL A   1      42.574  21.072  26.174  1.00  0.00     0.039 A 
ATOM     34  C   UNL A   1      42.846  21.421  27.501  1.00  0.00     0.014 A 
ATOM     35  C   UNL A   1      42.692  22.036  25.170  1.00  0.00     0.014 A 
ATOM     36  C   UNL A   1      43.280  22.715  27.808  1.00  0.00     0.010 A 
ATOM     37  C   UNL A   1      43.211  23.296  25.464  1.00  0.00     0.010 A 
ATOM     38  C   UNL A   1      43.496  23.659  26.789  1.00  0.00    -0.014 A 
BRANCH  38  39
ATOM     39  C   UNL A   1      43.997  25.026  27.096  1.00  0.00     0.031 A 
ATOM     40  C   UNL A   1      45.453  25.365  26.901  1.00  0.00     0.074 A 
ATOM     41  C   UNL A   1      43.154  25.951  27.600  1.00  0.00     0.049 A 
ATOM     42  N   UNL A   1      46.079  26.487  27.152  1.00  0.00    -0.248 NA
ATOM     43  C   UNL A   1      46.327  24.300  26.381  1.00  0.00     0.031 C 
ATOM     44  C   UNL A   1      41.732  25.738  27.880  1.00  0.00     0.029 A 
ATOM     45  N   UNL A   1      43.371  27.255  27.974  1.00  0.00    -0.354 N 
ATOM     46  C   UNL A   1      47.417  26.255  26.845  1.00  0.00     0.074 A 
ATOM     47  C   UNL A   1      47.520  24.873  26.432  1.00  0.00     0.031 C 
ATOM     48  C   UNL A   1      41.200  26.875  28.355  1.00  0.00     0.029 A 
ATOM     49  C   UNL A   1      42.248  27.886  28.459  1.00  0.00     0.049 A 
ATOM     50  H   UNL A   1      44.248  27.697  27.902  1.00  0.00     0.167 HD
ATOM     51  C   UNL A   1      48.461  27.117  26.887  1.00  0.00     0.031 A 
ATOM     52  C   UNL A   1      42.080  29.132  28.946  1.00  0.00     0.031 A 
ATOM     53  C   UNL A   1      48.350  28.497  27.280  1.00  0.00     0.049 A 
ATOM     54  C   UNL A   1      43.255  30.070  28.980  1.00  0.00     0.074 A 
ATOM     55  C   UNL A   1      49.336  29.470  27.281  1.00  0.00     0.029 A 
ATOM     56  N   UNL A   1      47.193  29.100  27.747  1.00  0.00    -0.354 N 
ATOM     57  N   UNL A   1      44.492  29.855  28.601  1.00  0.00    -0.248 NA
ATOM     58  C   UNL A   1      43.010  31.425  29.494  1.00  0.00     0.031 C 
ATOM     59  C   UNL A   1      48.790  30.642  27.813  1.00  0.00     0.029 A 
ATOM     60  C   UNL A   1      47.448  30.421  28.072  1.00  0.00     0.049 A 
ATOM     61  H   UNL A   1      46.320  28.654  27.834  1.00  0.00     0.167 HD
ATOM     62  C   UNL A   1      45.166  31.054  28.806  1.00  0.00     0.074 A 
ATOM     63  C   UNL A   1      44.195  31.996  29.323  1.00  0.00     0.031 C 
ATOM     64  C   UNL A   1      46.472  31.349  28.586  1.00  0.00     0.031 A 
BRANCH  51  65
ATOM     65  C   UNL A   1      49.824  26.594  26.509  1.00  0.00    -0.014 A 
ATOM     66  C   UNL A   1      50.317  26.713  25.197  1.00  0.00     0.010 A 
ATOM     67  C   UNL A   1      50.653  26.037  27.501  1.00  0.00     0.010 A 
ATOM     68  C   UNL A   1      51.599  26.255  24.879  1.00  0.00     0.020 A 
ATOM     69  C   UNL A   1      51.946  25.606  27.193  1.00  0.00     0.020 A 
ATOM     70  C   UNL A   1      52.406  25.707  25.879  1.00  0.00     0.054 A 
BRANCH  70  71
ATOM     71  S   UNL A   1      54.081  25.162  25.443  1.00  0.00     0.124 S 
ATOM     72  O   UNL A   1      54.719  25.071  26.754  1.00  0.00    -0.237 OA
ATOM     73  O   UNL A   1      53.837  23.888  24.772  1.00  0.00    -0.237 OA
ATOM     74  O   UNL A   1      54.582  26.231  24.582  1.00  0.00    -0.744 OA
ENDBRANCH  70  71
ENDBRANCH  51  65
BRANCH  52  75
ATOM     75  C   UNL A   1      40.744  29.563  29.447  1.00  0.00    -0.014 A 
ATOM     76  C   UNL A   1      40.520  29.766  30.821  1.00  0.00     0.010 A 
ATOM     77  C   UNL A   1      39.684  29.772  28.546  1.00  0.00     0.010 A 
ATOM     78  C   UNL A   1      39.256  30.145  31.285  1.00  0.00     0.020 A 
ATOM     79  C   UNL A   1      38.429  30.184  29.002  1.00  0.00     0.020 A 
ATOM     80  C   UNL A   1      38.219  30.353  30.372  1.00  0.00     0.054 A 
BRANCH  80  81
ATOM     81  S   UNL A   1      36.598  30.884  30.992  1.00  0.00     0.124 S 
ATOM     82  O   UNL A   1      36.070  29.649  31.559  1.00  0.00    -0.237 OA
ATOM     83  O   UNL A   1      36.955  31.923  31.955  1.00  0.00    -0.237 OA
ATOM     84  O   UNL A   1      35.915  31.365  29.793  1.00  0.00    -0.744 OA
ENDBRANCH  80  81
ENDBRANCH  52  75
BRANCH  64  85
ATOM     85  C   UNL A   1      46.924  32.758  28.866  1.00  0.00    -0.014 A 
ATOM     86  C   UNL A   1      47.470  33.120  30.110  1.00  0.00     0.010 A 
ATOM     87  C   UNL A   1      46.854  33.723  27.842  1.00  0.00     0.010 A 
ATOM     88  C   UNL A   1      47.906  34.429  30.336  1.00  0.00     0.020 A 
ATOM     89  C   UNL A   1      47.319  35.023  28.054  1.00  0.00     0.020 A 
ATOM     90  C   UNL A   1      47.829  35.371  29.306  1.00  0.00     0.054 A 
BRANCH  90  91
ATOM     91  S   UNL A   1      48.441  37.051  29.612  1.00  0.00     0.124 S 
ATOM     92  O   UNL A   1      47.432  37.580  30.527  1.00  0.00    -0.237 OA
ATOM     93  O   UNL A   1      49.757  36.809  30.199  1.00  0.00    -0.237 OA
ATOM     94  O   UNL A   1      48.459  37.662  28.285  1.00  0.00    -0.744 OA
ENDBRANCH  90  91
ENDBRANCH  64  85
ENDBRANCH  38  39
ENDBRANCH  30  33
ENDBRANCH  28  29
ENDBRANCH   1  28
TORSDOF 17
ENDMDL
MODEL 2
REMARK VINA RESULT:     -11.1      5.426     10.323
REMARK SMILES CC(C)[C@@H](C(=O)NCCCNC(=O)c1ccc(-c2c3nc(c(-c4ccc(S(=O)(=O)[O-])cc4)c4ccc([nH]4)c(-c4ccc(S(=O)(=O)[O-])cc4)c4nc(c(-c5ccc(S(=O)(=O)[O-])cc5)c5ccc2[nH]5)C=C4)C=C3)cc1)N1C(=O)/C(=C\c2ccc([N+](=O)[O-])cc2)SC1=S
REMARK SMILES IDX 9 1 8 2 7 3 5 4 6 5 4 7 2 8 1 9 3 10 74 11 75 12 89 13 76 14
REMARK SMILES IDX 77 15 88 16 90 17 78 18 79 19 80 20 87 21 81 22 86 23 82 24
REMARK SMILES IDX 83 25 84 26 85 27 10 28 11 29 12 30 13 32 14 33 15 34 73 35
REMARK SMILES IDX 16 36 72 37 17 38 18 39 19 40 66 41 20 42 71 43 65 44 67 45
REMARK SMILES IDX 21 46 70 47 64 48 63 49 22 51 52 52 33 53 51 54 34 55 37 56
REMARK SMILES IDX 50 57 68 58 35 59 36 60 49 62 69 63 38 64 23 65 24 66 32 67
REMARK SMILES IDX 25 68 31 69 26 70 27 71 28 72 29 73 30 74 53 75 54 76 62 77
REMARK SMILES IDX 55 78 61 79 56 80 57 81 58 82 59 83 60 84 39 85 40 86 48 87
REMARK SMILES IDX 41 88 47 89 42 90 43 91 44 92 45 93 46 94
REMARK H PARENT 7 6 11 31 67 50 37 61
REMARK Flexibility Score: inf
ROOT
ATOM      1  C   UNL A   1      32.805  28.374  26.977  1.00  0.00     0.042 C 
ENDROOT
BRANCH   1   2
ATOM      2  C   UNL A   1      32.810  26.875  26.676  1.00  0.00     0.117 C 
BRANCH   2   3
ATOM      3  N   UNL A   1      31.507  26.257  26.832  1.00  0.00    -0.354 N 
ATOM      4  C   UNL A   1      30.519  26.005  25.935  1.00  0.00     0.243 C 
ATOM      5  O   UNL A   1      29.854  24.992  26.202  1.00  0.00    -0.273 OA
ATOM      6  H   UNL A   1      31.303  25.969  27.750  1.00  0.00     0.163 HD
BRANCH   4   7
ATOM      7  C   UNL A   1      30.293  26.809  24.608  1.00  0.00     0.184 C 
BRANCH   7   8
ATOM      8  C   UNL A   1      28.980  26.675  23.769  1.00  0.00     0.015 C 
ATOM      9  C   UNL A   1      27.731  26.259  24.518  1.00  0.00     0.010 C 
ATOM     10  C   UNL A   1      28.679  27.994  23.032  1.00  0.00     0.010 C 
ENDBRANCH   7   8
BRANCH   7  11
ATOM     11  N   UNL A   1      31.438  26.417  23.724  1.00  0.00    -0.280 N 
ATOM     12  C   UNL A   1      31.624  25.058  23.482  1.00  0.00     0.266 C 
ATOM     13  C   UNL A   1      32.294  27.273  23.075  1.00  0.00     0.149 C 
ATOM     14  O   UNL A   1      30.897  24.170  23.897  1.00  0.00    -0.268 OA
ATOM     15  C   UNL A   1      32.792  24.832  22.588  1.00  0.00     0.081 C 
ATOM     16  S   UNL A   1      33.372  26.355  22.021  1.00  0.00    -0.054 SA
ATOM     17  S   UNL A   1      32.356  28.938  23.159  1.00  0.00    -0.052 S 
ATOM     18  C   UNL A   1      33.388  23.666  22.289  1.00  0.00     0.029 C 
BRANCH  18  19
ATOM     19  C   UNL A   1      33.096  22.361  22.902  1.00  0.00    -0.024 A 
ATOM     20  C   UNL A   1      32.263  21.479  22.198  1.00  0.00     0.015 A 
ATOM     21  C   UNL A   1      33.638  21.951  24.127  1.00  0.00     0.015 A 
ATOM     22  C   UNL A   1      32.033  20.183  22.669  1.00  0.00     0.086 A 
ATOM     23  C   UNL A   1      33.441  20.647  24.595  1.00  0.00     0.086 A 
ATOM     24  C   UNL A   1      32.647  19.763  23.855  1.00  0.00     0.269 A 
BRANCH  24  25
ATOM     25  N   UNL A   1      32.465  18.382  24.315  1.00  0.00     0.062 N 
ATOM     26  O   UNL A   1      32.045  18.212  25.470  1.00  0.00    -0.258 OA
ATOM     27  O   UNL A   1      32.750  17.469  23.529  1.00  0.00    -0.258 OA
ENDBRANCH  24  25
ENDBRANCH  18  19
ENDBRANCH   7  11
ENDBRANCH   4   7
ENDBRANCH   2   3
ENDBRANCH   1   2
BRANCH   1  28
ATOM     28  C   UNL A   1      34.039  29.125  26.492  1.00  0.00     0.118 C 
BRANCH  28  29
ATOM     29  N   UNL A   1      33.926  30.554  26.722  1.00  0.00    -0.352 N 
ATOM     30  C   UNL A   1      34.595  31.347  27.625  1.00  0.00     0.251 C 
ATOM     31  H   UNL A   1      33.277  31.023  26.149  1.00  0.00     0.163 HD
ATOM     32  O   UNL A   1      34.164  32.473  27.865  1.00  0.00    -0.269 OA
BRANCH  30  33
ATOM     33  C   UNL A   1      35.811  30.856  28.318  1.00  0.00     0.039 A 
ATOM     34  C   UNL A   1      37.029  31.499  28.081  1.00  0.00     0.014 A 
ATOM     35  C   UNL A   1      35.774  29.740  29.159  1.00  0.00     0.014 A 
ATOM     36  C   UNL A   1      38.192  31.055  28.720  1.00  0.00     0.010 A 
ATOM     37  C   UNL A   1      36.913  29.355  29.865  1.00  0.00     0.010 A 
ATOM     38  C   UNL A   1      38.141  29.996  29.643  1.00  0.00    -0.014 A 
BRANCH  38  39
ATOM     39  C   UNL A   1      39.361  29.539  30.362  1.00  0.00     0.031 A 
ATOM     40  C   UNL A   1      39.802  30.230  31.628  1.00  0.00     0.074 A 
ATOM     41  C   UNL A   1      40.104  28.536  29.851  1.00  0.00     0.049 A 
ATOM     42  N   UNL A   1      40.857  29.999  32.368  1.00  0.00    -0.248 NA
ATOM     43  C   UNL A   1      38.966  31.340  32.113  1.00  0.00     0.031 C 
ATOM     44  C   UNL A   1      39.814  27.814  28.609  1.00  0.00     0.029 A 
ATOM     45  N   UNL A   1      41.261  27.952  30.307  1.00  0.00    -0.354 N 
ATOM     46  C   UNL A   1      40.823  30.947  33.387  1.00  0.00     0.074 A 
ATOM     47  C   UNL A   1      39.669  31.783  33.145  1.00  0.00     0.031 C 
ATOM     48  C   UNL A   1      40.749  26.871  28.417  1.00  0.00     0.029 A 
ATOM     49  C   UNL A   1      41.733  26.947  29.493  1.00  0.00     0.049 A 
ATOM     50  H   UNL A   1      41.710  28.228  31.138  1.00  0.00     0.167 HD
ATOM     51  C   UNL A   1      41.665  31.097  34.437  1.00  0.00     0.031 A 
ATOM     52  C   UNL A   1      42.838  26.181  29.591  1.00  0.00     0.031 A 
ATOM     53  C   UNL A   1      42.802  30.250  34.685  1.00  0.00     0.049 A 
ATOM     54  C   UNL A   1      43.756  26.368  30.768  1.00  0.00     0.074 A 
ATOM     55  C   UNL A   1      43.670  30.274  35.763  1.00  0.00     0.029 A 
ATOM     56  N   UNL A   1      43.234  29.234  33.846  1.00  0.00    -0.354 N 
ATOM     57  N   UNL A   1      43.655  27.212  31.766  1.00  0.00    -0.248 NA
ATOM     58  C   UNL A   1      44.931  25.488  30.840  1.00  0.00     0.031 C 
ATOM     59  C   UNL A   1      44.666  29.318  35.542  1.00  0.00     0.029 A 
ATOM     60  C   UNL A   1      44.376  28.648  34.365  1.00  0.00     0.049 A 
ATOM     61  H   UNL A   1      42.793  28.969  33.007  1.00  0.00     0.167 HD
ATOM     62  C   UNL A   1      44.738  26.947  32.598  1.00  0.00     0.074 A 
ATOM     63  C   UNL A   1      45.469  25.851  31.997  1.00  0.00     0.031 C 
ATOM     64  C   UNL A   1      45.095  27.557  33.756  1.00  0.00     0.031 A 
BRANCH  51  65
ATOM     65  C   UNL A   1      41.402  32.229  35.398  1.00  0.00    -0.014 A 
ATOM     66  C   UNL A   1      41.976  33.500  35.209  1.00  0.00     0.010 A 
ATOM     67  C   UNL A   1      40.509  32.037  36.468  1.00  0.00     0.010 A 
ATOM     68  C   UNL A   1      41.687  34.545  36.091  1.00  0.00     0.020 A 
ATOM     69  C   UNL A   1      40.195  33.087  37.335  1.00  0.00     0.020 A 
ATOM     70  C   UNL A   1      40.796  34.333  37.147  1.00  0.00     0.054 A 
BRANCH  70  71
ATOM     71  S   UNL A   1      40.408  35.721  38.248  1.00  0.00     0.124 S 
ATOM     72  O   UNL A   1      41.721  36.041  38.804  1.00  0.00    -0.237 OA
ATOM     73  O   UNL A   1      39.857  36.713  37.329  1.00  0.00    -0.237 OA
ATOM     74  O   UNL A   1      39.452  35.156  39.198  1.00  0.00    -0.744 OA
ENDBRANCH  70  71
ENDBRANCH  51  65
BRANCH  52  75
ATOM     75  C   UNL A   1      43.140  25.171  28.539  1.00  0.00    -0.014 A 
ATOM     76  C   UNL A   1      42.656  23.854  28.640  1.00  0.00     0.010 A 
ATOM     77  C   UNL A   1      43.921  25.525  27.422  1.00  0.00     0.010 A 
ATOM     78  C   UNL A   1      42.967  22.907  27.660  1.00  0.00     0.020 A 
ATOM     79  C   UNL A   1      44.206  24.589  26.424  1.00  0.00     0.020 A 
ATOM     80  C   UNL A   1      43.739  23.281  26.557  1.00  0.00     0.054 A 
BRANCH  80  81
ATOM     81  S   UNL A   1      44.096  22.045  25.277  1.00  0.00     0.124 S 
ATOM     82  O   UNL A   1      45.548  21.938  25.355  1.00  0.00    -0.237 OA
ATOM     83  O   UNL A   1      43.347  20.881  25.745  1.00  0.00    -0.237 OA
ATOM     84  O   UNL A   1      43.578  22.659  24.056  1.00  0.00    -0.744 OA
ENDBRANCH  80  81
ENDBRANCH  52  75
BRANCH  64  85
ATOM     85  C   UNL A   1      46.309  27.031  34.475  1.00  0.00    -0.014 A 
ATOM     86  C   UNL A   1      47.588  27.568  34.245  1.00  0.00     0.010 A 
ATOM     87  C   UNL A   1      46.156  26.018  35.442  1.00  0.00     0.010 A 
ATOM     88  C   UNL A   1      48.695  27.079  34.943  1.00  0.00     0.020 A 
ATOM     89  C   UNL A   1      47.255  25.550  36.165  1.00  0.00     0.020 A 
ATOM     90  C   UNL A   1      48.522  26.074  35.900  1.00  0.00     0.054 A 
BRANCH  90  91
ATOM     91  S   UNL A   1      49.969  25.488  36.823  1.00  0.00     0.124 S 
ATOM     92  O   UNL A   1      51.020  25.549  35.811  1.00  0.00    -0.237 OA
ATOM     93  O   UNL A   1      50.077  26.466  37.902  1.00  0.00    -0.237 OA
ATOM     94  O   UNL A   1      49.589  24.141  37.246  1.00  0.00    -0.744 OA
ENDBRANCH  90  91
ENDBRANCH  64  85
ENDBRANCH  38  39
ENDBRANCH  30  33
ENDBRANCH  28  29
ENDBRANCH   1  28
TORSDOF 17
ENDMDL
MODEL 3
REMARK VINA RESULT:     -11.0      4.076     10.078
REMARK SMILES CC(C)[C@@H](C(=O)NCCCNC(=O)c1ccc(-c2c3nc(c(-c4ccc(S(=O)(=O)[O-])cc4)c4ccc([nH]4)c(-c4ccc(S(=O)(=O)[O-])cc4)c4nc(c(-c5ccc(S(=O)(=O)[O-])cc5)c5ccc2[nH]5)C=C4)C=C3)cc1)N1C(=O)/C(=C\c2ccc([N+](=O)[O-])cc2)SC1=S
REMARK SMILES IDX 9 1 8 2 7 3 5 4 6 5 4 7 2 8 1 9 3 10 74 11 75 12 89 13 76 14
REMARK SMILES IDX 77 15 88 16 90 17 78 18 79 19 80 20 87 21 81 22 86 23 82 24
REMARK SMILES IDX 83 25 84 26 85 27 10 28 11 29 12 30 13 32 14 33 15 34 73 35
REMARK SMILES IDX 16 36 72 37 17 38 18 39 19 40 66 41 20 42 71 43 65 44 67 45
REMARK SMILES IDX 21 46 70 47 64 48 63 49 22 51 52 52 33 53 51 54 34 55 37 56
REMARK SMILES IDX 50 57 68 58 35 59 36 60 49 62 69 63 38 64 23 65 24 66 32 67
REMARK SMILES IDX 25 68 31 69 26 70 27 71 28 72 29 73 30 74 53 75 54 76 62 77
REMARK SMILES IDX 55 78 61 79 56 80 57 81 58 82 59 83 60 84 39 85 40 86 48 87
REMARK SMILES IDX 41 88 47 89 42 90 43 91 44 92 45 93 46 94
REMARK H PARENT 7 6 11 31 67 50 37 61
REMARK Flexibility Score: inf
ROOT
ATOM      1  C   UNL A   1      34.043  31.572  27.971  1.00  0.00     0.042 C 
ENDROOT
BRANCH   1   2
ATOM      2  C   UNL A   1      33.648  30.484  26.974  1.00  0.00     0.117 C 
BRANCH   2   3
ATOM      3  N   UNL A   1      32.351  29.896  27.253  1.00  0.00    -0.354 N 
ATOM      4  C   UNL A   1      31.926  28.607  27.239  1.00  0.00     0.243 C 
ATOM      5  O   UNL A   1      31.026  28.372  28.060  1.00  0.00    -0.273 OA
ATOM      6  H   UNL A   1      31.655  30.548  27.495  1.00  0.00     0.163 HD
BRANCH   4   7
ATOM      7  C   UNL A   1      32.576  27.464  26.383  1.00  0.00     0.184 C 
BRANCH   7   8
ATOM      8  C   UNL A   1      33.763  27.733  25.403  1.00  0.00     0.015 C 
ATOM      9  C   UNL A   1      35.098  28.083  26.026  1.00  0.00     0.010 C 
ATOM     10  C   UNL A   1      33.973  26.524  24.471  1.00  0.00     0.010 C 
ENDBRANCH   7   8
BRANCH   7  11
ATOM     11  N   UNL A   1      31.443  26.898  25.581  1.00  0.00    -0.280 N 
ATOM     12  C   UNL A   1      30.865  27.723  24.619  1.00  0.00     0.266 C 
ATOM     13  C   UNL A   1      30.953  25.617  25.657  1.00  0.00     0.149 C 
ATOM     14  O   UNL A   1      31.242  28.851  24.350  1.00  0.00    -0.268 OA
ATOM     15  C   UNL A   1      29.764  27.019  23.907  1.00  0.00     0.081 C 
ATOM     16  S   UNL A   1      29.735  25.367  24.404  1.00  0.00    -0.054 SA
ATOM     17  S   UNL A   1      31.404  24.395  26.699  1.00  0.00    -0.052 S 
ATOM     18  C   UNL A   1      28.862  27.543  23.061  1.00  0.00     0.029 C 
BRANCH  18  19
ATOM     19  C   UNL A   1      28.682  28.972  22.762  1.00  0.00    -0.024 A 
ATOM     20  C   UNL A   1      27.734  29.683  23.512  1.00  0.00     0.015 A 
ATOM     21  C   UNL A   1      29.434  29.653  21.797  1.00  0.00     0.015 A 
ATOM     22  C   UNL A   1      27.590  31.065  23.357  1.00  0.00     0.086 A 
ATOM     23  C   UNL A   1      29.321  31.041  21.651  1.00  0.00     0.086 A 
ATOM     24  C   UNL A   1      28.406  31.744  22.443  1.00  0.00     0.269 A 
BRANCH  24  25
ATOM     25  N   UNL A   1      28.307  33.203  22.328  1.00  0.00     0.062 N 
ATOM     26  O   UNL A   1      27.674  33.661  21.366  1.00  0.00    -0.258 OA
ATOM     27  O   UNL A   1      28.868  33.890  23.192  1.00  0.00    -0.258 OA
ENDBRANCH  24  25
ENDBRANCH  18  19
ENDBRANCH   7  11
ENDBRANCH   4   7
ENDBRANCH   2   3
ENDBRANCH   1   2
BRANCH   1  28
ATOM     28  C   UNL A   1      35.445  31.426  28.551  1.00  0.00     0.118 C 
BRANCH  28  29
ATOM     29  N   UNL A   1      35.417  31.209  29.985  1.00  0.00    -0.352 N 
ATOM     30  C   UNL A   1      36.319  30.547  30.785  1.00  0.00     0.251 C 
ATOM     31  H   UNL A   1      34.639  31.590  30.454  1.00  0.00     0.163 HD
ATOM     32  O   UNL A   1      35.984  30.225  31.923  1.00  0.00    -0.269 OA
BRANCH  30  33
ATOM     33  C   UNL A   1      37.675  30.207  30.287  1.00  0.00     0.039 A 
ATOM     34  C   UNL A   1      38.704  30.009  31.213  1.00  0.00     0.014 A 
ATOM     35  C   UNL A   1      37.955  30.132  28.920  1.00  0.00     0.014 A 
ATOM     36  C   UNL A   1      39.992  29.690  30.769  1.00  0.00     0.010 A 
ATOM     37  C   UNL A   1      39.215  29.725  28.483  1.00  0.00     0.010 A 
ATOM     38  C   UNL A   1      40.255  29.515  29.400  1.00  0.00    -0.014 A 
BRANCH  38  39
ATOM     39  C   UNL A   1      41.609  29.135  28.916  1.00  0.00     0.031 A 
ATOM     40  C   UNL A   1      42.696  30.174  28.799  1.00  0.00     0.074 A 
ATOM     41  C   UNL A   1      41.852  27.865  28.532  1.00  0.00     0.049 A 
ATOM     42  N   UNL A   1      43.923  30.040  28.361  1.00  0.00    -0.248 NA
ATOM     43  C   UNL A   1      42.356  31.549  29.203  1.00  0.00     0.031 C 
ATOM     44  C   UNL A   1      40.876  26.773  28.551  1.00  0.00     0.029 A 
ATOM     45  N   UNL A   1      42.993  27.276  28.043  1.00  0.00    -0.354 N 
ATOM     46  C   UNL A   1      44.488  31.310  28.413  1.00  0.00     0.074 A 
ATOM     47  C   UNL A   1      43.458  32.210  28.883  1.00  0.00     0.031 C 
ATOM     48  C   UNL A   1      41.464  25.646  28.120  1.00  0.00     0.029 A 
ATOM     49  C   UNL A   1      42.845  25.940  27.750  1.00  0.00     0.049 A 
ATOM     50  H   UNL A   1      43.838  27.766  27.913  1.00  0.00     0.167 HD
ATOM     51  C   UNL A   1      45.753  31.691  28.114  1.00  0.00     0.031 A 
ATOM     52  C   UNL A   1      43.716  25.051  27.229  1.00  0.00     0.031 A 
ATOM     53  C   UNL A   1      46.781  30.788  27.666  1.00  0.00     0.049 A 
ATOM     54  C   UNL A   1      45.115  25.499  26.906  1.00  0.00     0.074 A 
ATOM     55  C   UNL A   1      48.113  31.065  27.411  1.00  0.00     0.029 A 
ATOM     56  N   UNL A   1      46.593  29.441  27.399  1.00  0.00    -0.354 N 
ATOM     57  N   UNL A   1      45.653  26.687  27.047  1.00  0.00    -0.248 NA
ATOM     58  C   UNL A   1      46.030  24.484  26.367  1.00  0.00     0.031 C 
ATOM     59  C   UNL A   1      48.714  29.900  26.925  1.00  0.00     0.029 A 
ATOM     60  C   UNL A   1      47.777  28.881  26.949  1.00  0.00     0.049 A 
ATOM     61  H   UNL A   1      45.745  28.955  27.513  1.00  0.00     0.167 HD
ATOM     62  C   UNL A   1      46.976  26.555  26.640  1.00  0.00     0.074 A 
ATOM     63  C   UNL A   1      47.162  25.169  26.267  1.00  0.00     0.031 C 
ATOM     64  C   UNL A   1      47.949  27.498  26.580  1.00  0.00     0.031 A 
BRANCH  51  65
ATOM     65  C   UNL A   1      46.101  33.152  28.247  1.00  0.00    -0.014 A 
ATOM     66  C   UNL A   1      46.032  34.026  27.147  1.00  0.00     0.010 A 
ATOM     67  C   UNL A   1      46.436  33.673  29.511  1.00  0.00     0.010 A 
ATOM     68  C   UNL A   1      46.324  35.384  27.302  1.00  0.00     0.020 A 
ATOM     69  C   UNL A   1      46.699  35.035  29.676  1.00  0.00     0.020 A 
ATOM     70  C   UNL A   1      46.653  35.881  28.567  1.00  0.00     0.054 A 
BRANCH  70  71
ATOM     71  S   UNL A   1      46.982  37.656  28.744  1.00  0.00     0.124 S 
ATOM     72  O   UNL A   1      46.239  38.214  27.616  1.00  0.00    -0.237 OA
ATOM     73  O   UNL A   1      46.434  37.951  30.065  1.00  0.00    -0.237 OA
ATOM     74  O   UNL A   1      48.436  37.753  28.639  1.00  0.00    -0.744 OA
ENDBRANCH  70  71
ENDBRANCH  51  65
BRANCH  52  75
ATOM     75  C   UNL A   1      43.285  23.648  26.974  1.00  0.00    -0.014 A 
ATOM     76  C   UNL A   1      43.083  22.749  28.037  1.00  0.00     0.010 A 
ATOM     77  C   UNL A   1      43.074  23.201  25.656  1.00  0.00     0.010 A 
ATOM     78  C   UNL A   1      42.705  21.427  27.786  1.00  0.00     0.020 A 
ATOM     79  C   UNL A   1      42.663  21.889  25.403  1.00  0.00     0.020 A 
ATOM     80  C   UNL A   1      42.495  21.006  26.470  1.00  0.00     0.054 A 
BRANCH  80  81
ATOM     81  S   UNL A   1      41.964  19.297  26.170  1.00  0.00     0.124 S 
ATOM     82  O   UNL A   1      40.540  19.464  25.901  1.00  0.00    -0.237 OA
ATOM     83  O   UNL A   1      42.784  18.908  25.026  1.00  0.00    -0.237 OA
ATOM     84  O   UNL A   1      42.289  18.614  27.421  1.00  0.00    -0.744 OA
ENDBRANCH  80  81
ENDBRANCH  52  75
BRANCH  64  85
ATOM     85  C   UNL A   1      49.318  27.058  26.131  1.00  0.00    -0.014 A 
ATOM     86  C   UNL A   1      49.734  27.206  24.795  1.00  0.00     0.010 A 
ATOM     87  C   UNL A   1      50.224  26.541  27.077  1.00  0.00     0.010 A 
ATOM     88  C   UNL A   1      51.018  26.814  24.409  1.00  0.00     0.020 A 
ATOM     89  C   UNL A   1      51.519  26.178  26.700  1.00  0.00     0.020 A 
ATOM     90  C   UNL A   1      51.903  26.304  25.364  1.00  0.00     0.054 A 
BRANCH  90  91
ATOM     91  S   UNL A   1      53.578  25.842  24.844  1.00  0.00     0.124 S 
ATOM     92  O   UNL A   1      53.694  26.520  23.555  1.00  0.00    -0.237 OA
ATOM     93  O   UNL A   1      54.407  26.385  25.917  1.00  0.00    -0.237 OA
ATOM     94  O   UNL A   1      53.532  24.383  24.777  1.00  0.00    -0.744 OA
ENDBRANCH  90  91
ENDBRANCH  64  85
ENDBRANCH  38  39
ENDBRANCH  30  33
ENDBRANCH  28  29
ENDBRANCH   1  28
TORSDOF 17
ENDMDL
