MODEL 1
REMARK VINA RESULT:     -11.4      0.000      0.000
REMARK SMILES CCc1cc(OC(F)(F)F)cc2c1O[C@@H](C(F)(F)F)C(C(=O)NCCCNC(=O)c1ccc(-c3c4nc(c(-c5ccc(S(=O)(=O)[O-])cc5)c5ccc([nH]5)c(-c5ccc(S(=O)(=O)[O-])cc5)c5nc(c(-c6ccc(S(=O)(=O)[O-])cc6)c6ccc3[nH]6)C=C5)C=C4)cc1)=C2
REMARK SMILES IDX 25 1 24 2 23 3 21 4 22 5 20 7 3 8 4 9 13 10 5 11 12 12 14 13
REMARK SMILES IDX 11 14 90 15 15 16 2 17 1 18 6 19 7 20 8 21 9 22 10 23 16 24
REMARK SMILES IDX 17 25 18 26 19 27 26 28 27 29 28 30 29 32 30 33 31 34 89 35
REMARK SMILES IDX 32 36 88 37 33 38 34 39 35 40 82 41 36 42 87 43 81 44 83 45
REMARK SMILES IDX 37 46 86 47 80 48 79 49 38 51 68 52 49 53 67 54 50 55 53 56
REMARK SMILES IDX 66 57 84 58 51 59 52 60 65 62 85 63 54 64 39 65 40 66 48 67
REMARK SMILES IDX 41 68 47 69 42 70 43 71 44 72 45 73 46 74 69 75 70 76 78 77
REMARK SMILES IDX 71 78 77 79 72 80 73 81 74 82 75 83 76 84 55 85 56 86 64 87
REMARK SMILES IDX 57 88 63 89 58 90 59 91 60 92 61 93 62 94
REMARK H PARENT 23 6 27 31 83 50 53 61
REMARK Flexibility Score: inf
ROOT
ATOM      1  C   UNL A   1      36.591  23.757  24.105  1.00  0.00     0.042 C 
ENDROOT
BRANCH   1   2
ATOM      2  C   UNL A   1      35.418  22.905  23.613  1.00  0.00     0.118 C 
BRANCH   2   3
ATOM      3  N   UNL A   1      34.678  22.353  24.737  1.00  0.00    -0.352 N 
ATOM      4  C   UNL A   1      33.708  22.860  25.540  1.00  0.00     0.251 C 
ATOM      5  O   UNL A   1      33.358  22.198  26.514  1.00  0.00    -0.270 OA
ATOM      6  H   UNL A   1      34.931  21.428  24.961  1.00  0.00     0.163 HD
BRANCH   4   7
ATOM      7  C   UNL A   1      33.004  24.132  25.243  1.00  0.00     0.067 C 
ATOM      8  C   UNL A   1      30.950  27.602  24.015  1.00  0.00    -0.002 A 
ATOM      9  C   UNL A   1      31.425  28.851  24.479  1.00  0.00     0.054 A 
ATOM     10  C   UNL A   1      31.627  26.443  24.423  1.00  0.00     0.131 A 
ATOM     11  C   UNL A   1      32.525  28.945  25.332  1.00  0.00     0.130 A 
ATOM     12  C   UNL A   1      32.714  26.527  25.299  1.00  0.00     0.021 A 
ATOM     13  O   UNL A   1      31.266  25.247  23.873  1.00  0.00    -0.475 OA
ATOM     14  C   UNL A   1      33.156  27.774  25.751  1.00  0.00     0.058 A 
ATOM     15  C   UNL A   1      33.448  25.323  25.666  1.00  0.00     0.025 C 
ATOM     16  C   UNL A   1      31.643  24.025  24.569  1.00  0.00     0.314 C 
BRANCH   8  17
ATOM     17  C   UNL A   1      29.762  27.648  23.073  1.00  0.00     0.036 C 
ATOM     18  C   UNL A   1      28.994  28.951  22.896  1.00  0.00     0.009 C 
ENDBRANCH   8  17
BRANCH  11  19
ATOM     19  O   UNL A   1      33.094  30.090  25.811  1.00  0.00    -0.406 OA
BRANCH  19  20
ATOM     20  C   UNL A   1      32.470  30.733  26.909  1.00  0.00     0.573 C 
ATOM     21  F   UNL A   1      33.380  31.354  27.692  1.00  0.00    -0.132 F 
ATOM     22  F   UNL A   1      31.554  31.631  26.490  1.00  0.00    -0.132 F 
ATOM     23  F   UNL A   1      31.840  29.803  27.660  1.00  0.00    -0.132 F 
ENDBRANCH  19  20
ENDBRANCH  11  19
BRANCH  16  24
ATOM     24  C   UNL A   1      31.445  22.867  23.564  1.00  0.00     0.429 C 
ATOM     25  F   UNL A   1      30.265  22.926  22.911  1.00  0.00    -0.167 F 
ATOM     26  F   UNL A   1      32.396  22.911  22.587  1.00  0.00    -0.167 F 
ATOM     27  F   UNL A   1      31.550  21.652  24.148  1.00  0.00    -0.167 F 
ENDBRANCH  16  24
ENDBRANCH   4   7
ENDBRANCH   2   3
ENDBRANCH   1   2
BRANCH   1  28
ATOM     28  C   UNL A   1      36.809  23.674  25.614  1.00  0.00     0.118 C 
BRANCH  28  29
ATOM     29  N   UNL A   1      37.827  22.696  25.960  1.00  0.00    -0.352 N 
ATOM     30  C   UNL A   1      39.084  22.883  26.480  1.00  0.00     0.251 C 
ATOM     31  H   UNL A   1      37.578  21.758  25.796  1.00  0.00     0.163 HD
ATOM     32  O   UNL A   1      39.880  21.948  26.473  1.00  0.00    -0.269 OA
BRANCH  30  33
ATOM     33  C   UNL A   1      39.486  24.194  27.038  1.00  0.00     0.039 A 
ATOM     34  C   UNL A   1      39.149  24.493  28.361  1.00  0.00     0.014 A 
ATOM     35  C   UNL A   1      40.138  25.148  26.251  1.00  0.00     0.014 A 
ATOM     36  C   UNL A   1      39.503  25.729  28.908  1.00  0.00     0.010 A 
ATOM     37  C   UNL A   1      40.548  26.354  26.816  1.00  0.00     0.010 A 
ATOM     38  C   UNL A   1      40.225  26.662  28.146  1.00  0.00    -0.014 A 
BRANCH  38  39
ATOM     39  C   UNL A   1      40.650  27.962  28.723  1.00  0.00     0.031 A 
ATOM     40  C   UNL A   1      42.036  28.132  29.281  1.00  0.00     0.074 A 
ATOM     41  C   UNL A   1      39.761  28.971  28.811  1.00  0.00     0.049 A 
ATOM     42  N   UNL A   1      42.567  29.173  29.870  1.00  0.00    -0.248 NA
ATOM     43  C   UNL A   1      42.934  26.970  29.189  1.00  0.00     0.031 C 
ATOM     44  C   UNL A   1      38.370  28.912  28.356  1.00  0.00     0.029 A 
ATOM     45  N   UNL A   1      39.891  30.234  29.329  1.00  0.00    -0.354 N 
ATOM     46  C   UNL A   1      43.849  28.786  30.241  1.00  0.00     0.074 A 
ATOM     47  C   UNL A   1      43.999  27.400  29.849  1.00  0.00     0.031 C 
ATOM     48  C   UNL A   1      37.779  30.092  28.603  1.00  0.00     0.029 A 
ATOM     49  C   UNL A   1      38.736  30.976  29.264  1.00  0.00     0.049 A 
ATOM     50  H   UNL A   1      40.731  30.578  29.710  1.00  0.00     0.167 HD
ATOM     51  C   UNL A   1      44.819  29.517  30.842  1.00  0.00     0.031 A 
ATOM     52  C   UNL A   1      38.468  32.225  29.693  1.00  0.00     0.031 A 
ATOM     53  C   UNL A   1      44.666  30.895  31.228  1.00  0.00     0.049 A 
ATOM     54  C   UNL A   1      39.560  33.029  30.336  1.00  0.00     0.074 A 
ATOM     55  C   UNL A   1      45.609  31.747  31.777  1.00  0.00     0.029 A 
ATOM     56  N   UNL A   1      43.489  31.623  31.112  1.00  0.00    -0.354 N 
ATOM     57  N   UNL A   1      40.793  32.673  30.605  1.00  0.00    -0.248 NA
ATOM     58  C   UNL A   1      39.231  34.408  30.719  1.00  0.00     0.031 C 
ATOM     59  C   UNL A   1      44.988  32.974  32.040  1.00  0.00     0.029 A 
ATOM     60  C   UNL A   1      43.674  32.904  31.604  1.00  0.00     0.049 A 
ATOM     61  H   UNL A   1      42.648  31.279  30.736  1.00  0.00     0.167 HD
ATOM     62  C   UNL A   1      41.394  33.789  31.175  1.00  0.00     0.074 A 
ATOM     63  C   UNL A   1      40.392  34.837  31.197  1.00  0.00     0.031 C 
ATOM     64  C   UNL A   1      42.662  33.932  31.636  1.00  0.00     0.031 A 
BRANCH  51  65
ATOM     65  C   UNL A   1      46.122  28.820  31.138  1.00  0.00    -0.014 A 
ATOM     66  C   UNL A   1      47.168  28.798  30.197  1.00  0.00     0.010 A 
ATOM     67  C   UNL A   1      46.299  28.163  32.369  1.00  0.00     0.010 A 
ATOM     68  C   UNL A   1      48.336  28.072  30.451  1.00  0.00     0.020 A 
ATOM     69  C   UNL A   1      47.478  27.462  32.640  1.00  0.00     0.020 A 
ATOM     70  C   UNL A   1      48.477  27.396  31.666  1.00  0.00     0.054 A 
BRANCH  70  71
ATOM     71  S   UNL A   1      49.986  26.434  31.960  1.00  0.00     0.124 S 
ATOM     72  O   UNL A   1      50.107  26.505  33.413  1.00  0.00    -0.237 OA
ATOM     73  O   UNL A   1      49.641  25.121  31.422  1.00  0.00    -0.237 OA
ATOM     74  O   UNL A   1      51.010  27.160  31.213  1.00  0.00    -0.744 OA
ENDBRANCH  70  71
ENDBRANCH  51  65
BRANCH  52  75
ATOM     75  C   UNL A   1      37.102  32.778  29.498  1.00  0.00    -0.014 A 
ATOM     76  C   UNL A   1      36.214  32.885  30.582  1.00  0.00     0.010 A 
ATOM     77  C   UNL A   1      36.716  33.281  28.241  1.00  0.00     0.010 A 
ATOM     78  C   UNL A   1      34.969  33.498  30.416  1.00  0.00     0.020 A 
ATOM     79  C   UNL A   1      35.480  33.913  28.078  1.00  0.00     0.020 A 
ATOM     80  C   UNL A   1      34.614  34.018  29.167  1.00  0.00     0.054 A 
BRANCH  80  81
ATOM     81  S   UNL A   1      33.043  34.911  29.006  1.00  0.00     0.124 S 
ATOM     82  O   UNL A   1      32.513  34.844  30.364  1.00  0.00    -0.237 OA
ATOM     83  O   UNL A   1      33.475  36.233  28.557  1.00  0.00    -0.237 OA
ATOM     84  O   UNL A   1      32.311  34.134  28.007  1.00  0.00    -0.744 OA
ENDBRANCH  80  81
ENDBRANCH  52  75
BRANCH  64  85
ATOM     85  C   UNL A   1      43.046  35.277  32.194  1.00  0.00    -0.014 A 
ATOM     86  C   UNL A   1      43.705  36.231  31.400  1.00  0.00     0.010 A 
ATOM     87  C   UNL A   1      42.692  35.608  33.515  1.00  0.00     0.010 A 
ATOM     88  C   UNL A   1      44.030  37.485  31.927  1.00  0.00     0.020 A 
ATOM     89  C   UNL A   1      42.993  36.869  34.037  1.00  0.00     0.020 A 
ATOM     90  C   UNL A   1      43.672  37.795  33.243  1.00  0.00     0.054 A 
BRANCH  90  91
ATOM     91  S   UNL A   1      44.065  39.443  33.890  1.00  0.00     0.124 S 
ATOM     92  O   UNL A   1      44.398  39.153  35.281  1.00  0.00    -0.237 OA
ATOM     93  O   UNL A   1      45.183  39.862  33.048  1.00  0.00    -0.237 OA
ATOM     94  O   UNL A   1      42.828  40.196  33.689  1.00  0.00    -0.744 OA
ENDBRANCH  90  91
ENDBRANCH  64  85
ENDBRANCH  38  39
ENDBRANCH  30  33
ENDBRANCH  28  29
ENDBRANCH   1  28
TORSDOF 17
ENDMDL
MODEL 2
REMARK VINA RESULT:     -11.1      3.460      4.208
REMARK SMILES CCc1cc(OC(F)(F)F)cc2c1O[C@@H](C(F)(F)F)C(C(=O)NCCCNC(=O)c1ccc(-c3c4nc(c(-c5ccc(S(=O)(=O)[O-])cc5)c5ccc([nH]5)c(-c5ccc(S(=O)(=O)[O-])cc5)c5nc(c(-c6ccc(S(=O)(=O)[O-])cc6)c6ccc3[nH]6)C=C5)C=C4)cc1)=C2
REMARK SMILES IDX 25 1 24 2 23 3 21 4 22 5 20 7 3 8 4 9 13 10 5 11 12 12 14 13
REMARK SMILES IDX 11 14 90 15 15 16 2 17 1 18 6 19 7 20 8 21 9 22 10 23 16 24
REMARK SMILES IDX 17 25 18 26 19 27 26 28 27 29 28 30 29 32 30 33 31 34 89 35
REMARK SMILES IDX 32 36 88 37 33 38 34 39 35 40 82 41 36 42 87 43 81 44 83 45
REMARK SMILES IDX 37 46 86 47 80 48 79 49 38 51 68 52 49 53 67 54 50 55 53 56
REMARK SMILES IDX 66 57 84 58 51 59 52 60 65 62 85 63 54 64 39 65 40 66 48 67
REMARK SMILES IDX 41 68 47 69 42 70 43 71 44 72 45 73 46 74 69 75 70 76 78 77
REMARK SMILES IDX 71 78 77 79 72 80 73 81 74 82 75 83 76 84 55 85 56 86 64 87
REMARK SMILES IDX 57 88 63 89 58 90 59 91 60 92 61 93 62 94
REMARK H PARENT 23 6 27 31 83 50 53 61
REMARK Flexibility Score: inf
ROOT
ATOM      1  C   UNL A   1      39.080  22.215  26.227  1.00  0.00     0.042 C 
ENDROOT
BRANCH   1   2
ATOM      2  C   UNL A   1      37.664  22.739  25.967  1.00  0.00     0.118 C 
BRANCH   2   3
ATOM      3  N   UNL A   1      37.411  22.844  24.539  1.00  0.00    -0.352 N 
ATOM      4  C   UNL A   1      36.295  23.126  23.819  1.00  0.00     0.251 C 
ATOM      5  O   UNL A   1      36.349  23.008  22.598  1.00  0.00    -0.270 OA
ATOM      6  H   UNL A   1      38.205  22.675  23.983  1.00  0.00     0.163 HD
BRANCH   4   7
ATOM      7  C   UNL A   1      35.051  23.647  24.438  1.00  0.00     0.067 C 
ATOM      8  C   UNL A   1      31.312  24.842  25.975  1.00  0.00    -0.002 A 
ATOM      9  C   UNL A   1      31.081  26.227  26.149  1.00  0.00     0.054 A 
ATOM     10  C   UNL A   1      32.556  24.437  25.468  1.00  0.00     0.131 A 
ATOM     11  C   UNL A   1      32.056  27.177  25.843  1.00  0.00     0.130 A 
ATOM     12  C   UNL A   1      33.549  25.381  25.184  1.00  0.00     0.021 A 
ATOM     13  O   UNL A   1      32.741  23.120  25.165  1.00  0.00    -0.475 OA
ATOM     14  C   UNL A   1      33.296  26.743  25.376  1.00  0.00     0.058 A 
ATOM     15  C   UNL A   1      34.813  24.956  24.599  1.00  0.00     0.025 C 
ATOM     16  C   UNL A   1      34.105  22.623  25.050  1.00  0.00     0.314 C 
BRANCH   8  17
ATOM     17  C   UNL A   1      30.156  23.924  26.323  1.00  0.00     0.036 C 
ATOM     18  C   UNL A   1      30.344  22.849  27.385  1.00  0.00     0.009 C 
ENDBRANCH   8  17
BRANCH  11  19
ATOM     19  O   UNL A   1      31.933  28.533  25.933  1.00  0.00    -0.406 OA
BRANCH  19  20
ATOM     20  C   UNL A   1      32.041  29.127  27.215  1.00  0.00     0.573 C 
ATOM     21  F   UNL A   1      31.930  30.472  27.141  1.00  0.00    -0.132 F 
ATOM     22  F   UNL A   1      31.099  28.646  28.053  1.00  0.00    -0.132 F 
ATOM     23  F   UNL A   1      33.255  28.837  27.731  1.00  0.00    -0.132 F 
ENDBRANCH  19  20
ENDBRANCH  11  19
BRANCH  16  24
ATOM     24  C   UNL A   1      34.014  21.246  24.354  1.00  0.00     0.429 C 
ATOM     25  F   UNL A   1      35.154  20.527  24.447  1.00  0.00    -0.167 F 
ATOM     26  F   UNL A   1      33.056  20.473  24.939  1.00  0.00    -0.167 F 
ATOM     27  F   UNL A   1      33.679  21.348  23.047  1.00  0.00    -0.167 F 
ENDBRANCH  16  24
ENDBRANCH   4   7
ENDBRANCH   2   3
ENDBRANCH   1   2
BRANCH   1  28
ATOM     28  C   UNL A   1      39.962  23.203  26.987  1.00  0.00     0.118 C 
BRANCH  28  29
ATOM     29  N   UNL A   1      41.121  23.602  26.205  1.00  0.00    -0.352 N 
ATOM     30  C   UNL A   1      41.822  24.783  26.213  1.00  0.00     0.251 C 
ATOM     31  H   UNL A   1      41.454  22.924  25.574  1.00  0.00     0.163 HD
ATOM     32  O   UNL A   1      42.617  25.014  25.307  1.00  0.00    -0.269 OA
BRANCH  30  33
ATOM     33  C   UNL A   1      41.620  25.775  27.293  1.00  0.00     0.039 A 
ATOM     34  C   UNL A   1      40.612  25.549  28.234  1.00  0.00     0.014 A 
ATOM     35  C   UNL A   1      42.377  26.950  27.350  1.00  0.00     0.014 A 
ATOM     36  C   UNL A   1      40.390  26.477  29.255  1.00  0.00     0.010 A 
ATOM     37  C   UNL A   1      42.200  27.842  28.405  1.00  0.00     0.010 A 
ATOM     38  C   UNL A   1      41.197  27.621  29.362  1.00  0.00    -0.014 A 
BRANCH  38  39
ATOM     39  C   UNL A   1      41.008  28.595  30.466  1.00  0.00     0.031 A 
ATOM     40  C   UNL A   1      41.853  28.515  31.707  1.00  0.00     0.074 A 
ATOM     41  C   UNL A   1      40.022  29.510  30.381  1.00  0.00     0.049 A 
ATOM     42  N   UNL A   1      41.796  29.243  32.793  1.00  0.00    -0.248 NA
ATOM     43  C   UNL A   1      42.878  27.460  31.743  1.00  0.00     0.031 C 
ATOM     44  C   UNL A   1      39.100  29.655  29.253  1.00  0.00     0.029 A 
ATOM     45  N   UNL A   1      39.623  30.479  31.267  1.00  0.00    -0.354 N 
ATOM     46  C   UNL A   1      42.758  28.721  33.651  1.00  0.00     0.074 A 
ATOM     47  C   UNL A   1      43.351  27.586  32.974  1.00  0.00     0.031 C 
ATOM     48  C   UNL A   1      38.249  30.661  29.510  1.00  0.00     0.029 A 
ATOM     49  C   UNL A   1      38.544  31.210  30.831  1.00  0.00     0.049 A 
ATOM     50  H   UNL A   1      40.067  30.636  32.131  1.00  0.00     0.167 HD
ATOM     51  C   UNL A   1      43.123  29.150  34.883  1.00  0.00     0.031 A 
ATOM     52  C   UNL A   1      37.858  32.205  31.427  1.00  0.00     0.031 A 
ATOM     53  C   UNL A   1      42.531  30.280  35.550  1.00  0.00     0.049 A 
ATOM     54  C   UNL A   1      38.290  32.684  32.783  1.00  0.00     0.074 A 
ATOM     55  C   UNL A   1      42.877  30.841  36.768  1.00  0.00     0.029 A 
ATOM     56  N   UNL A   1      41.462  31.018  35.059  1.00  0.00    -0.354 N 
ATOM     57  N   UNL A   1      39.257  32.230  33.545  1.00  0.00    -0.248 NA
ATOM     58  C   UNL A   1      37.553  33.819  33.352  1.00  0.00     0.031 C 
ATOM     59  C   UNL A   1      41.984  31.887  37.035  1.00  0.00     0.029 A 
ATOM     60  C   UNL A   1      41.119  32.012  35.960  1.00  0.00     0.049 A 
ATOM     61  H   UNL A   1      41.015  30.858  34.197  1.00  0.00     0.167 HD
ATOM     62  C   UNL A   1      39.254  33.034  34.678  1.00  0.00     0.074 A 
ATOM     63  C   UNL A   1      38.200  34.012  34.494  1.00  0.00     0.031 C 
ATOM     64  C   UNL A   1      40.054  32.968  35.772  1.00  0.00     0.031 A 
BRANCH  51  65
ATOM     65  C   UNL A   1      44.200  28.370  35.592  1.00  0.00    -0.014 A 
ATOM     66  C   UNL A   1      45.561  28.681  35.418  1.00  0.00     0.010 A 
ATOM     67  C   UNL A   1      43.847  27.300  36.433  1.00  0.00     0.010 A 
ATOM     68  C   UNL A   1      46.550  27.891  36.012  1.00  0.00     0.020 A 
ATOM     69  C   UNL A   1      44.833  26.526  37.054  1.00  0.00     0.020 A 
ATOM     70  C   UNL A   1      46.180  26.810  36.815  1.00  0.00     0.054 A 
BRANCH  70  71
ATOM     71  S   UNL A   1      47.481  25.780  37.548  1.00  0.00     0.124 S 
ATOM     72  O   UNL A   1      47.474  26.234  38.936  1.00  0.00    -0.237 OA
ATOM     73  O   UNL A   1      46.982  24.426  37.329  1.00  0.00    -0.237 OA
ATOM     74  O   UNL A   1      48.673  26.133  36.783  1.00  0.00    -0.744 OA
ENDBRANCH  70  71
ENDBRANCH  51  65
BRANCH  52  75
ATOM     75  C   UNL A   1      36.705  32.816  30.714  1.00  0.00    -0.014 A 
ATOM     76  C   UNL A   1      35.388  32.487  31.076  1.00  0.00     0.010 A 
ATOM     77  C   UNL A   1      36.923  33.795  29.728  1.00  0.00     0.010 A 
ATOM     78  C   UNL A   1      34.307  33.137  30.473  1.00  0.00     0.020 A 
ATOM     79  C   UNL A   1      35.845  34.463  29.139  1.00  0.00     0.020 A 
ATOM     80  C   UNL A   1      34.543  34.129  29.516  1.00  0.00     0.054 A 
BRANCH  80  81
ATOM     81  S   UNL A   1      33.130  35.039  28.833  1.00  0.00     0.124 S 
ATOM     82  O   UNL A   1      32.332  35.304  30.026  1.00  0.00    -0.237 OA
ATOM     83  O   UNL A   1      33.768  36.204  28.225  1.00  0.00    -0.237 OA
ATOM     84  O   UNL A   1      32.544  34.095  27.882  1.00  0.00    -0.744 OA
ENDBRANCH  80  81
ENDBRANCH  52  75
BRANCH  64  85
ATOM     85  C   UNL A   1      39.831  33.991  36.853  1.00  0.00    -0.014 A 
ATOM     86  C   UNL A   1      39.086  33.680  38.004  1.00  0.00     0.010 A 
ATOM     87  C   UNL A   1      40.422  35.263  36.739  1.00  0.00     0.010 A 
ATOM     88  C   UNL A   1      38.912  34.635  39.011  1.00  0.00     0.020 A 
ATOM     89  C   UNL A   1      40.271  36.211  37.755  1.00  0.00     0.020 A 
ATOM     90  C   UNL A   1      39.505  35.895  38.879  1.00  0.00     0.054 A 
BRANCH  90  91
ATOM     91  S   UNL A   1      39.302  37.100  40.219  1.00  0.00     0.124 S 
ATOM     92  O   UNL A   1      40.685  37.345  40.620  1.00  0.00    -0.237 OA
ATOM     93  O   UNL A   1      38.634  38.214  39.552  1.00  0.00    -0.237 OA
ATOM     94  O   UNL A   1      38.484  36.390  41.201  1.00  0.00    -0.744 OA
ENDBRANCH  90  91
ENDBRANCH  64  85
ENDBRANCH  38  39
ENDBRANCH  30  33
ENDBRANCH  28  29
ENDBRANCH   1  28
TORSDOF 17
ENDMDL
MODEL 3
REMARK VINA RESULT:     -10.9      3.625      8.834
REMARK SMILES CCc1cc(OC(F)(F)F)cc2c1O[C@@H](C(F)(F)F)C(C(=O)NCCCNC(=O)c1ccc(-c3c4nc(c(-c5ccc(S(=O)(=O)[O-])cc5)c5ccc([nH]5)c(-c5ccc(S(=O)(=O)[O-])cc5)c5nc(c(-c6ccc(S(=O)(=O)[O-])cc6)c6ccc3[nH]6)C=C5)C=C4)cc1)=C2
REMARK SMILES IDX 25 1 24 2 23 3 21 4 22 5 20 7 3 8 4 9 13 10 5 11 12 12 14 13
REMARK SMILES IDX 11 14 90 15 15 16 2 17 1 18 6 19 7 20 8 21 9 22 10 23 16 24
REMARK SMILES IDX 17 25 18 26 19 27 26 28 27 29 28 30 29 32 30 33 31 34 89 35
REMARK SMILES IDX 32 36 88 37 33 38 34 39 35 40 82 41 36 42 87 43 81 44 83 45
REMARK SMILES IDX 37 46 86 47 80 48 79 49 38 51 68 52 49 53 67 54 50 55 53 56
REMARK SMILES IDX 66 57 84 58 51 59 52 60 65 62 85 63 54 64 39 65 40 66 48 67
REMARK SMILES IDX 41 68 47 69 42 70 43 71 44 72 45 73 46 74 69 75 70 76 78 77
REMARK SMILES IDX 71 78 77 79 72 80 73 81 74 82 75 83 76 84 55 85 56 86 64 87
REMARK SMILES IDX 57 88 63 89 58 90 59 91 60 92 61 93 62 94
REMARK H PARENT 23 6 27 31 83 50 53 61
REMARK Flexibility Score: inf
ROOT
ATOM      1  C   UNL A   1      37.827  24.084  26.280  1.00  0.00     0.042 C 
ENDROOT
BRANCH   1   2
ATOM      2  C   UNL A   1      37.254  22.951  25.423  1.00  0.00     0.118 C 
BRANCH   2   3
ATOM      3  N   UNL A   1      36.187  22.263  26.131  1.00  0.00    -0.352 N 
ATOM      4  C   UNL A   1      34.887  22.575  26.369  1.00  0.00     0.251 C 
ATOM      5  O   UNL A   1      34.247  21.851  27.128  1.00  0.00    -0.270 OA
ATOM      6  H   UNL A   1      36.460  21.398  26.515  1.00  0.00     0.163 HD
BRANCH   4   7
ATOM      7  C   UNL A   1      34.195  23.699  25.691  1.00  0.00     0.067 C 
ATOM      8  C   UNL A   1      32.352  26.724  23.406  1.00  0.00    -0.002 A 
ATOM      9  C   UNL A   1      32.429  28.054  23.885  1.00  0.00     0.054 A 
ATOM     10  C   UNL A   1      32.960  25.712  24.164  1.00  0.00     0.131 A 
ATOM     11  C   UNL A   1      33.074  28.365  25.082  1.00  0.00     0.130 A 
ATOM     12  C   UNL A   1      33.586  26.013  25.379  1.00  0.00     0.021 A 
ATOM     13  O   UNL A   1      33.014  24.451  23.646  1.00  0.00    -0.475 OA
ATOM     14  C   UNL A   1      33.637  27.334  25.832  1.00  0.00     0.058 A 
ATOM     15  C   UNL A   1      34.268  24.965  26.126  1.00  0.00     0.025 C 
ATOM     16  C   UNL A   1      33.244  23.339  24.558  1.00  0.00     0.314 C 
BRANCH   8  17
ATOM     17  C   UNL A   1      31.644  26.533  22.078  1.00  0.00     0.036 C 
ATOM     18  C   UNL A   1      32.407  25.946  20.899  1.00  0.00     0.009 C 
ENDBRANCH   8  17
BRANCH  11  19
ATOM     19  O   UNL A   1      33.243  29.608  25.620  1.00  0.00    -0.406 OA
BRANCH  19  20
ATOM     20  C   UNL A   1      32.142  30.199  26.289  1.00  0.00     0.573 C 
ATOM     21  F   UNL A   1      31.587  29.337  27.170  1.00  0.00    -0.132 F 
ATOM     22  F   UNL A   1      32.514  31.323  26.937  1.00  0.00    -0.132 F 
ATOM     23  F   UNL A   1      31.201  30.526  25.377  1.00  0.00    -0.132 F 
ENDBRANCH  19  20
ENDBRANCH  11  19
BRANCH  16  24
ATOM     24  C   UNL A   1      33.622  22.123  23.683  1.00  0.00     0.429 C 
ATOM     25  F   UNL A   1      32.918  22.056  22.532  1.00  0.00    -0.167 F 
ATOM     26  F   UNL A   1      34.928  22.195  23.297  1.00  0.00    -0.167 F 
ATOM     27  F   UNL A   1      33.481  20.948  24.339  1.00  0.00    -0.167 F 
ENDBRANCH  16  24
ENDBRANCH   4   7
ENDBRANCH   2   3
ENDBRANCH   1   2
BRANCH   1  28
ATOM     28  C   UNL A   1      39.174  23.743  26.912  1.00  0.00     0.118 C 
BRANCH  28  29
ATOM     29  N   UNL A   1      40.285  24.233  26.112  1.00  0.00    -0.352 N 
ATOM     30  C   UNL A   1      40.968  25.422  26.191  1.00  0.00     0.251 C 
ATOM     31  H   UNL A   1      40.594  23.620  25.407  1.00  0.00     0.163 HD
ATOM     32  O   UNL A   1      41.712  25.747  25.271  1.00  0.00    -0.269 OA
BRANCH  30  33
ATOM     33  C   UNL A   1      40.808  26.310  27.364  1.00  0.00     0.039 A 
ATOM     34  C   UNL A   1      39.932  25.927  28.383  1.00  0.00     0.014 A 
ATOM     35  C   UNL A   1      41.471  27.539  27.440  1.00  0.00     0.014 A 
ATOM     36  C   UNL A   1      39.751  26.754  29.495  1.00  0.00     0.010 A 
ATOM     37  C   UNL A   1      41.341  28.332  28.578  1.00  0.00     0.010 A 
ATOM     38  C   UNL A   1      40.471  27.953  29.612  1.00  0.00    -0.014 A 
BRANCH  38  39
ATOM     39  C   UNL A   1      40.327  28.823  30.807  1.00  0.00     0.031 A 
ATOM     40  C   UNL A   1      39.282  29.903  30.841  1.00  0.00     0.074 A 
ATOM     41  C   UNL A   1      41.189  28.687  31.833  1.00  0.00     0.049 A 
ATOM     42  N   UNL A   1      39.043  30.791  31.773  1.00  0.00    -0.248 NA
ATOM     43  C   UNL A   1      38.408  30.018  29.664  1.00  0.00     0.031 C 
ATOM     44  C   UNL A   1      42.281  27.713  31.896  1.00  0.00     0.029 A 
ATOM     45  N   UNL A   1      41.292  29.381  33.012  1.00  0.00    -0.354 N 
ATOM     46  C   UNL A   1      38.011  31.585  31.285  1.00  0.00     0.074 A 
ATOM     47  C   UNL A   1      37.701  31.099  29.956  1.00  0.00     0.031 C 
ATOM     48  C   UNL A   1      42.936  27.864  33.058  1.00  0.00     0.029 A 
ATOM     49  C   UNL A   1      42.333  28.964  33.806  1.00  0.00     0.049 A 
ATOM     50  H   UNL A   1      40.678  30.108  33.266  1.00  0.00     0.167 HD
ATOM     51  C   UNL A   1      37.372  32.616  31.888  1.00  0.00     0.031 A 
ATOM     52  C   UNL A   1      42.766  29.419  34.999  1.00  0.00     0.031 A 
ATOM     53  C   UNL A   1      37.683  33.093  33.210  1.00  0.00     0.049 A 
ATOM     54  C   UNL A   1      42.032  30.546  35.664  1.00  0.00     0.074 A 
ATOM     55  C   UNL A   1      37.048  34.083  33.941  1.00  0.00     0.029 A 
ATOM     56  N   UNL A   1      38.723  32.620  33.998  1.00  0.00    -0.354 N 
ATOM     57  N   UNL A   1      41.004  31.232  35.222  1.00  0.00    -0.248 NA
ATOM     58  C   UNL A   1      42.502  30.951  36.995  1.00  0.00     0.031 C 
ATOM     59  C   UNL A   1      37.737  34.242  35.150  1.00  0.00     0.029 A 
ATOM     60  C   UNL A   1      38.766  33.314  35.195  1.00  0.00     0.049 A 
ATOM     61  H   UNL A   1      39.340  31.897  33.742  1.00  0.00     0.167 HD
ATOM     62  C   UNL A   1      40.695  32.140  36.227  1.00  0.00     0.074 A 
ATOM     63  C   UNL A   1      41.634  31.905  37.306  1.00  0.00     0.031 C 
ATOM     64  C   UNL A   1      39.719  33.082  36.253  1.00  0.00     0.031 A 
BRANCH  51  65
ATOM     65  C   UNL A   1      36.287  33.307  31.102  1.00  0.00    -0.014 A 
ATOM     66  C   UNL A   1      36.541  33.849  29.829  1.00  0.00     0.010 A 
ATOM     67  C   UNL A   1      34.998  33.429  31.651  1.00  0.00     0.010 A 
ATOM     68  C   UNL A   1      35.548  34.564  29.152  1.00  0.00     0.020 A 
ATOM     69  C   UNL A   1      33.993  34.118  30.964  1.00  0.00     0.020 A 
ATOM     70  C   UNL A   1      34.284  34.706  29.731  1.00  0.00     0.054 A 
BRANCH  70  71
ATOM     71  S   UNL A   1      33.023  35.666  28.850  1.00  0.00     0.124 S 
ATOM     72  O   UNL A   1      32.419  34.650  27.992  1.00  0.00    -0.237 OA
ATOM     73  O   UNL A   1      32.176  36.157  29.933  1.00  0.00    -0.237 OA
ATOM     74  O   UNL A   1      33.794  36.693  28.153  1.00  0.00    -0.744 OA
ENDBRANCH  70  71
ENDBRANCH  51  65
BRANCH  52  75
ATOM     75  C   UNL A   1      43.946  28.774  35.632  1.00  0.00    -0.014 A 
ATOM     76  C   UNL A   1      43.805  27.570  36.344  1.00  0.00     0.010 A 
ATOM     77  C   UNL A   1      45.231  29.319  35.451  1.00  0.00     0.010 A 
ATOM     78  C   UNL A   1      44.929  26.914  36.852  1.00  0.00     0.020 A 
ATOM     79  C   UNL A   1      46.359  28.653  35.939  1.00  0.00     0.020 A 
ATOM     80  C   UNL A   1      46.201  27.455  36.637  1.00  0.00     0.054 A 
BRANCH  80  81
ATOM     81  S   UNL A   1      47.654  26.527  37.204  1.00  0.00     0.124 S 
ATOM     82  O   UNL A   1      47.199  26.006  38.489  1.00  0.00    -0.237 OA
ATOM     83  O   UNL A   1      47.830  25.537  36.144  1.00  0.00    -0.237 OA
ATOM     84  O   UNL A   1      48.701  27.544  37.274  1.00  0.00    -0.744 OA
ENDBRANCH  80  81
ENDBRANCH  52  75
BRANCH  64  85
ATOM     85  C   UNL A   1      39.606  33.925  37.496  1.00  0.00    -0.014 A 
ATOM     86  C   UNL A   1      38.824  33.508  38.587  1.00  0.00     0.010 A 
ATOM     87  C   UNL A   1      40.336  35.123  37.591  1.00  0.00     0.010 A 
ATOM     88  C   UNL A   1      38.753  34.290  39.744  1.00  0.00     0.020 A 
ATOM     89  C   UNL A   1      40.287  35.896  38.755  1.00  0.00     0.020 A 
ATOM     90  C   UNL A   1      39.485  35.480  39.820  1.00  0.00     0.054 A 
BRANCH  90  91
ATOM     91  S   UNL A   1      39.411  36.455  41.347  1.00  0.00     0.124 S 
ATOM     92  O   UNL A   1      38.475  35.680  42.157  1.00  0.00    -0.237 OA
ATOM     93  O   UNL A   1      40.798  36.444  41.804  1.00  0.00    -0.237 OA
ATOM     94  O   UNL A   1      38.919  37.758  40.902  1.00  0.00    -0.744 OA
ENDBRANCH  90  91
ENDBRANCH  64  85
ENDBRANCH  38  39
ENDBRANCH  30  33
ENDBRANCH  28  29
ENDBRANCH   1  28
TORSDOF 17
ENDMDL
