MODEL 1
REMARK VINA RESULT:     -13.5      0.000      0.000
REMARK SMILES Cc1nc2nc(CNC(=O)OC(C)(C)C)nn2c(C)c1CCC(=O)NCCCNC(=O)c1ccc(-c2c3nc(c(-c4ccc(S(=O)(=O)[O-])cc4)c4ccc([nH]4)c(-c4ccc(S(=O)(=O)[O-])cc4)c4nc(c(-c5ccc(S(=O)(=O)[O-])cc5)c5ccc2[nH]5)C=C4)C=C3)cc1
REMARK SMILES IDX 23 1 24 2 25 3 22 5 21 6 20 7 1 8 2 9 3 10 4 11 18 12 5 13
REMARK SMILES IDX 17 14 19 15 6 16 16 17 7 18 8 19 9 20 10 22 11 23 12 24
REMARK SMILES IDX 13 25 14 26 15 27 26 28 27 29 28 30 29 31 30 32 31 34 32 35
REMARK SMILES IDX 33 36 91 37 34 38 90 39 35 40 36 41 37 42 84 43 38 44 89 45
REMARK SMILES IDX 83 46 85 47 39 48 88 49 82 50 81 51 40 53 70 54 51 55 69 56
REMARK SMILES IDX 52 57 55 58 68 59 86 60 53 61 54 62 67 64 87 65 56 66 41 67
REMARK SMILES IDX 42 68 50 69 43 70 49 71 44 72 45 73 46 74 47 75 48 76 71 77
REMARK SMILES IDX 72 78 80 79 73 80 79 81 74 82 75 83 76 84 77 85 78 86 57 87
REMARK SMILES IDX 58 88 66 89 59 90 65 91 60 92 61 93 62 94 63 95 64 96
REMARK H PARENT 25 4 8 21 29 33 85 52 55 63
REMARK Flexibility Score: inf
ROOT
ATOM      1  C   UNL A   1      38.063  22.145  25.417  1.00  0.00     0.220 C 
ATOM      2  O   UNL A   1      37.951  23.340  25.706  1.00  0.00    -0.275 OA
ATOM      3  N   UNL A   1      39.204  21.488  25.802  1.00  0.00    -0.356 N 
ATOM      4  H   UNL A   1      39.866  22.094  26.207  1.00  0.00     0.163 HD
ENDROOT
BRANCH   1   5
ATOM      5  C   UNL A   1      36.944  21.476  24.630  1.00  0.00     0.105 C 
BRANCH   5   6
ATOM      6  C   UNL A   1      35.894  20.766  25.522  1.00  0.00     0.049 C 
BRANCH   6   7
ATOM      7  C   UNL A   1      34.511  21.273  25.223  1.00  0.00    -0.005 A 
ATOM      8  C   UNL A   1      33.875  18.917  24.264  1.00  0.00     0.067 C 
ATOM      9  C   UNL A   1      33.572  20.407  24.408  1.00  0.00     0.046 A 
ATOM     10  N   UNL A   1      32.509  20.875  23.823  1.00  0.00    -0.216 NA
ATOM     11  C   UNL A   1      32.399  22.242  23.800  1.00  0.00     0.252 A 
ATOM     12  C   UNL A   1      34.107  22.555  25.445  1.00  0.00     0.048 A 
ATOM     13  N   UNL A   1      31.914  22.972  22.840  1.00  0.00    -0.192 NA
ATOM     14  N   UNL A   1      33.158  23.106  24.571  1.00  0.00    -0.201 N 
ATOM     15  C   UNL A   1      34.716  23.519  26.402  1.00  0.00     0.067 C 
ATOM     16  C   UNL A   1      32.405  24.275  22.882  1.00  0.00     0.172 A 
ATOM     17  N   UNL A   1      33.095  24.424  24.043  1.00  0.00    -0.148 NA
BRANCH  16  18
ATOM     18  C   UNL A   1      32.038  25.497  21.717  1.00  0.00     0.199 C 
BRANCH  18  19
ATOM     19  N   UNL A   1      31.308  26.999  21.924  1.00  0.00    -0.314 N 
ATOM     20  C   UNL A   1      30.904  28.108  22.737  1.00  0.00     0.408 C 
ATOM     21  H   UNL A   1      31.001  27.241  21.022  1.00  0.00     0.167 HD
ATOM     22  O   UNL A   1      30.441  29.094  22.132  1.00  0.00    -0.225 OA
BRANCH  20  23
ATOM     23  O   UNL A   1      30.966  28.128  24.107  1.00  0.00    -0.444 OA
BRANCH  23  24
ATOM     24  C   UNL A   1      31.782  28.918  25.122  1.00  0.00     0.106 C 
ATOM     25  C   UNL A   1      33.284  28.923  24.815  1.00  0.00     0.056 C 
ATOM     26  C   UNL A   1      31.262  30.349  25.304  1.00  0.00     0.056 C 
ATOM     27  C   UNL A   1      31.653  28.260  26.541  1.00  0.00     0.056 C 
ENDBRANCH  23  24
ENDBRANCH  20  23
ENDBRANCH  18  19
ENDBRANCH  16  18
ENDBRANCH   6   7
ENDBRANCH   5   6
ENDBRANCH   1   5
BRANCH   3  28
ATOM     28  C   UNL A   1      39.687  20.065  25.752  1.00  0.00     0.117 C 
BRANCH  28  29
ATOM     29  C   UNL A   1      41.011  19.775  26.544  1.00  0.00     0.042 C 
BRANCH  29  30
ATOM     30  C   UNL A   1      42.193  18.767  26.112  1.00  0.00     0.118 C 
BRANCH  30  31
ATOM     31  N   UNL A   1      43.627  19.345  25.385  1.00  0.00    -0.352 N 
ATOM     32  C   UNL A   1      44.534  20.563  25.021  1.00  0.00     0.251 C 
ATOM     33  H   UNL A   1      44.093  18.549  25.039  1.00  0.00     0.163 HD
ATOM     34  O   UNL A   1      45.511  20.224  24.329  1.00  0.00    -0.269 OA
BRANCH  32  35
ATOM     35  C   UNL A   1      44.489  22.241  25.414  1.00  0.00     0.039 A 
ATOM     36  C   UNL A   1      45.159  22.885  26.472  1.00  0.00     0.014 A 
ATOM     37  C   UNL A   1      43.709  23.199  24.775  1.00  0.00     0.014 A 
ATOM     38  C   UNL A   1      44.639  23.969  27.230  1.00  0.00     0.010 A 
ATOM     39  C   UNL A   1      43.084  24.246  25.536  1.00  0.00     0.010 A 
ATOM     40  C   UNL A   1      43.438  24.546  26.861  1.00  0.00    -0.014 A 
BRANCH  40  41
ATOM     41  C   UNL A   1      42.919  25.735  27.600  1.00  0.00     0.031 A 
ATOM     42  C   UNL A   1      43.931  26.790  27.404  1.00  0.00     0.074 A 
ATOM     43  C   UNL A   1      41.804  26.080  28.304  1.00  0.00     0.049 A 
ATOM     44  N   UNL A   1      44.933  27.020  28.187  1.00  0.00    -0.248 NA
ATOM     45  C   UNL A   1      44.039  27.363  26.056  1.00  0.00     0.031 C 
ATOM     46  C   UNL A   1      40.551  25.356  28.536  1.00  0.00     0.029 A 
ATOM     47  N   UNL A   1      41.538  27.286  28.935  1.00  0.00    -0.354 N 
ATOM     48  C   UNL A   1      45.703  27.916  27.474  1.00  0.00     0.074 A 
ATOM     49  C   UNL A   1      45.300  27.785  26.097  1.00  0.00     0.031 C 
ATOM     50  C   UNL A   1      39.603  26.212  29.011  1.00  0.00     0.029 A 
ATOM     51  C   UNL A   1      40.193  27.524  29.239  1.00  0.00     0.049 A 
ATOM     52  H   UNL A   1      42.249  27.931  29.154  1.00  0.00     0.167 HD
ATOM     53  C   UNL A   1      46.326  28.959  28.077  1.00  0.00     0.031 A 
ATOM     54  C   UNL A   1      39.608  28.706  29.613  1.00  0.00     0.031 A 
ATOM     55  C   UNL A   1      46.364  28.818  29.509  1.00  0.00     0.049 A 
ATOM     56  C   UNL A   1      40.679  29.574  30.162  1.00  0.00     0.074 A 
ATOM     57  C   UNL A   1      46.822  27.845  30.376  1.00  0.00     0.029 A 
ATOM     58  N   UNL A   1      45.499  29.604  30.237  1.00  0.00    -0.354 N 
ATOM     59  N   UNL A   1      41.272  29.348  31.298  1.00  0.00    -0.248 NA
ATOM     60  C   UNL A   1      41.392  30.444  29.242  1.00  0.00     0.031 C 
ATOM     61  C   UNL A   1      45.878  27.818  31.441  1.00  0.00     0.029 A 
ATOM     62  C   UNL A   1      44.933  28.818  31.207  1.00  0.00     0.049 A 
ATOM     63  H   UNL A   1      45.318  30.560  30.086  1.00  0.00     0.167 HD
ATOM     64  C   UNL A   1      42.603  29.644  31.054  1.00  0.00     0.074 A 
ATOM     65  C   UNL A   1      42.604  30.393  29.798  1.00  0.00     0.031 C 
ATOM     66  C   UNL A   1      43.601  29.012  31.737  1.00  0.00     0.031 A 
BRANCH  53  67
ATOM     67  C   UNL A   1      46.474  30.284  27.381  1.00  0.00    -0.014 A 
ATOM     68  C   UNL A   1      47.751  30.849  27.270  1.00  0.00     0.010 A 
ATOM     69  C   UNL A   1      45.371  31.106  27.049  1.00  0.00     0.010 A 
ATOM     70  C   UNL A   1      47.909  32.184  26.884  1.00  0.00     0.020 A 
ATOM     71  C   UNL A   1      45.517  32.412  26.606  1.00  0.00     0.020 A 
ATOM     72  C   UNL A   1      46.789  32.955  26.557  1.00  0.00     0.054 A 
BRANCH  72  73
ATOM     73  S   UNL A   1      46.995  34.696  26.138  1.00  0.00     0.124 S 
ATOM     74  O   UNL A   1      47.856  34.618  24.963  1.00  0.00    -0.237 OA
ATOM     75  O   UNL A   1      45.617  35.114  25.893  1.00  0.00    -0.237 OA
ATOM     76  O   UNL A   1      47.613  35.266  27.334  1.00  0.00    -0.744 OA
ENDBRANCH  72  73
ENDBRANCH  53  67
BRANCH  54  77
ATOM     77  C   UNL A   1      38.252  29.279  29.310  1.00  0.00    -0.014 A 
ATOM     78  C   UNL A   1      37.402  29.781  30.329  1.00  0.00     0.010 A 
ATOM     79  C   UNL A   1      37.914  29.622  27.988  1.00  0.00     0.010 A 
ATOM     80  C   UNL A   1      36.319  30.644  30.041  1.00  0.00     0.020 A 
ATOM     81  C   UNL A   1      36.836  30.475  27.692  1.00  0.00     0.020 A 
ATOM     82  C   UNL A   1      36.059  31.008  28.720  1.00  0.00     0.054 A 
BRANCH  82  83
ATOM     83  S   UNL A   1      34.794  32.269  28.351  1.00  0.00     0.124 S 
ATOM     84  O   UNL A   1      34.384  32.707  29.682  1.00  0.00    -0.237 OA
ATOM     85  O   UNL A   1      35.537  33.250  27.565  1.00  0.00    -0.237 OA
ATOM     86  O   UNL A   1      33.778  31.529  27.604  1.00  0.00    -0.744 OA
ENDBRANCH  82  83
ENDBRANCH  54  77
BRANCH  66  87
ATOM     87  C   UNL A   1      43.268  28.255  33.002  1.00  0.00    -0.014 A 
ATOM     88  C   UNL A   1      42.939  26.886  33.050  1.00  0.00     0.010 A 
ATOM     89  C   UNL A   1      43.465  28.937  34.218  1.00  0.00     0.010 A 
ATOM     90  C   UNL A   1      42.804  26.225  34.282  1.00  0.00     0.020 A 
ATOM     91  C   UNL A   1      43.354  28.281  35.444  1.00  0.00     0.020 A 
ATOM     92  C   UNL A   1      43.021  26.928  35.472  1.00  0.00     0.054 A 
BRANCH  92  93
ATOM     93  S   UNL A   1      42.913  26.056  37.061  1.00  0.00     0.124 S 
ATOM     94  O   UNL A   1      43.445  27.039  38.000  1.00  0.00    -0.237 OA
ATOM     95  O   UNL A   1      41.482  25.781  37.180  1.00  0.00    -0.237 OA
ATOM     96  O   UNL A   1      43.749  24.872  36.866  1.00  0.00    -0.744 OA
ENDBRANCH  92  93
ENDBRANCH  66  87
ENDBRANCH  40  41
ENDBRANCH  32  35
ENDBRANCH  30  31
ENDBRANCH  29  30
ENDBRANCH  28  29
ENDBRANCH   3  28
TORSDOF 19
ENDMDL
MODEL 2
REMARK VINA RESULT:     -12.7      2.836      9.681
REMARK SMILES Cc1nc2nc(CNC(=O)OC(C)(C)C)nn2c(C)c1CCC(=O)NCCCNC(=O)c1ccc(-c2c3nc(c(-c4ccc(S(=O)(=O)[O-])cc4)c4ccc([nH]4)c(-c4ccc(S(=O)(=O)[O-])cc4)c4nc(c(-c5ccc(S(=O)(=O)[O-])cc5)c5ccc2[nH]5)C=C4)C=C3)cc1
REMARK SMILES IDX 23 1 24 2 25 3 22 5 21 6 20 7 1 8 2 9 3 10 4 11 18 12 5 13
REMARK SMILES IDX 17 14 19 15 6 16 16 17 7 18 8 19 9 20 10 22 11 23 12 24
REMARK SMILES IDX 13 25 14 26 15 27 26 28 27 29 28 30 29 31 30 32 31 34 32 35
REMARK SMILES IDX 33 36 91 37 34 38 90 39 35 40 36 41 37 42 84 43 38 44 89 45
REMARK SMILES IDX 83 46 85 47 39 48 88 49 82 50 81 51 40 53 70 54 51 55 69 56
REMARK SMILES IDX 52 57 55 58 68 59 86 60 53 61 54 62 67 64 87 65 56 66 41 67
REMARK SMILES IDX 42 68 50 69 43 70 49 71 44 72 45 73 46 74 47 75 48 76 71 77
REMARK SMILES IDX 72 78 80 79 73 80 79 81 74 82 75 83 76 84 77 85 78 86 57 87
REMARK SMILES IDX 58 88 66 89 59 90 65 91 60 92 61 93 62 94 63 95 64 96
REMARK H PARENT 25 4 8 21 29 33 85 52 55 63
REMARK Flexibility Score: inf
ROOT
ATOM      1  C   UNL A   1      32.495  29.410  27.151  1.00  0.00     0.220 C 
ATOM      2  O   UNL A   1      31.433  29.125  27.713  1.00  0.00    -0.275 OA
ATOM      3  N   UNL A   1      33.336  30.302  27.766  1.00  0.00    -0.356 N 
ATOM      4  H   UNL A   1      32.938  30.692  28.579  1.00  0.00     0.163 HD
ENDROOT
BRANCH   1   5
ATOM      5  C   UNL A   1      32.799  28.778  25.799  1.00  0.00     0.105 C 
BRANCH   5   6
ATOM      6  C   UNL A   1      32.430  29.680  24.594  1.00  0.00     0.049 C 
BRANCH   6   7
ATOM      7  C   UNL A   1      32.229  28.857  23.353  1.00  0.00    -0.005 A 
ATOM      8  C   UNL A   1      29.645  29.265  23.523  1.00  0.00     0.067 C 
ATOM      9  C   UNL A   1      30.820  28.483  22.941  1.00  0.00     0.046 A 
ATOM     10  N   UNL A   1      30.560  27.521  22.105  1.00  0.00    -0.216 NA
ATOM     11  C   UNL A   1      31.623  26.715  21.780  1.00  0.00     0.252 A 
ATOM     12  C   UNL A   1      33.238  28.231  22.686  1.00  0.00     0.048 A 
ATOM     13  N   UNL A   1      31.595  25.434  21.566  1.00  0.00    -0.192 NA
ATOM     14  N   UNL A   1      32.948  27.016  22.045  1.00  0.00    -0.201 N 
ATOM     15  C   UNL A   1      34.681  28.591  22.728  1.00  0.00     0.067 C 
ATOM     16  C   UNL A   1      32.840  24.847  21.779  1.00  0.00     0.172 A 
ATOM     17  N   UNL A   1      33.747  25.843  21.958  1.00  0.00    -0.148 NA
BRANCH  16  18
ATOM     18  C   UNL A   1      33.156  23.152  21.665  1.00  0.00     0.199 C 
BRANCH  18  19
ATOM     19  N   UNL A   1      32.960  21.940  22.815  1.00  0.00    -0.314 N 
ATOM     20  C   UNL A   1      32.922  21.475  24.171  1.00  0.00     0.408 C 
ATOM     21  H   UNL A   1      32.774  21.134  22.282  1.00  0.00     0.167 HD
ATOM     22  O   UNL A   1      32.543  20.300  24.339  1.00  0.00    -0.225 OA
BRANCH  20  23
ATOM     23  O   UNL A   1      33.301  22.222  25.256  1.00  0.00    -0.444 OA
BRANCH  23  24
ATOM     24  C   UNL A   1      32.656  23.353  26.046  1.00  0.00     0.106 C 
ATOM     25  C   UNL A   1      32.249  22.942  27.466  1.00  0.00     0.056 C 
ATOM     26  C   UNL A   1      33.527  24.615  26.077  1.00  0.00     0.056 C 
ATOM     27  C   UNL A   1      31.324  23.802  25.348  1.00  0.00     0.056 C 
ENDBRANCH  23  24
ENDBRANCH  20  23
ENDBRANCH  18  19
ENDBRANCH  16  18
ENDBRANCH   6   7
ENDBRANCH   5   6
ENDBRANCH   1   5
BRANCH   3  28
ATOM     28  C   UNL A   1      34.718  30.828  27.498  1.00  0.00     0.117 C 
BRANCH  28  29
ATOM     29  C   UNL A   1      34.897  32.377  27.680  1.00  0.00     0.042 C 
BRANCH  29  30
ATOM     30  C   UNL A   1      34.082  33.330  28.695  1.00  0.00     0.118 C 
BRANCH  30  31
ATOM     31  N   UNL A   1      34.183  33.111  30.386  1.00  0.00    -0.352 N 
ATOM     32  C   UNL A   1      34.878  32.410  31.596  1.00  0.00     0.251 C 
ATOM     33  H   UNL A   1      33.488  33.692  30.774  1.00  0.00     0.163 HD
ATOM     34  O   UNL A   1      34.320  32.683  32.674  1.00  0.00    -0.269 OA
BRANCH  32  35
ATOM     35  C   UNL A   1      36.263  31.394  31.749  1.00  0.00     0.039 A 
ATOM     36  C   UNL A   1      37.543  31.765  32.206  1.00  0.00     0.014 A 
ATOM     37  C   UNL A   1      36.332  30.060  31.362  1.00  0.00     0.014 A 
ATOM     38  C   UNL A   1      38.770  31.254  31.702  1.00  0.00     0.010 A 
ATOM     39  C   UNL A   1      37.527  29.546  30.752  1.00  0.00     0.010 A 
ATOM     40  C   UNL A   1      38.754  30.229  30.775  1.00  0.00    -0.014 A 
BRANCH  40  41
ATOM     41  C   UNL A   1      40.035  29.631  30.297  1.00  0.00     0.031 A 
ATOM     42  C   UNL A   1      40.855  29.440  31.507  1.00  0.00     0.074 A 
ATOM     43  C   UNL A   1      40.571  29.196  29.121  1.00  0.00     0.049 A 
ATOM     44  N   UNL A   1      41.693  30.299  31.986  1.00  0.00    -0.248 NA
ATOM     45  C   UNL A   1      40.424  28.391  32.441  1.00  0.00     0.031 C 
ATOM     46  C   UNL A   1      39.983  29.071  27.784  1.00  0.00     0.029 A 
ATOM     47  N   UNL A   1      41.836  28.668  28.908  1.00  0.00    -0.354 N 
ATOM     48  C   UNL A   1      42.021  29.779  33.222  1.00  0.00     0.074 A 
ATOM     49  C   UNL A   1      40.966  28.859  33.562  1.00  0.00     0.031 C 
ATOM     50  C   UNL A   1      40.777  28.288  27.001  1.00  0.00     0.029 A 
ATOM     51  C   UNL A   1      41.995  27.945  27.720  1.00  0.00     0.049 A 
ATOM     52  H   UNL A   1      42.571  28.793  29.550  1.00  0.00     0.167 HD
ATOM     53  C   UNL A   1      43.287  29.829  33.704  1.00  0.00     0.031 A 
ATOM     54  C   UNL A   1      43.024  27.108  27.373  1.00  0.00     0.031 A 
ATOM     55  C   UNL A   1      44.118  30.743  32.964  1.00  0.00     0.049 A 
ATOM     56  C   UNL A   1      44.196  27.484  28.201  1.00  0.00     0.074 A 
ATOM     57  C   UNL A   1      44.029  32.080  32.629  1.00  0.00     0.029 A 
ATOM     58  N   UNL A   1      45.036  30.192  32.099  1.00  0.00    -0.354 N 
ATOM     59  N   UNL A   1      44.860  28.592  28.041  1.00  0.00    -0.248 NA
ATOM     60  C   UNL A   1      44.361  26.832  29.489  1.00  0.00     0.031 C 
ATOM     61  C   UNL A   1      44.548  32.171  31.308  1.00  0.00     0.029 A 
ATOM     62  C   UNL A   1      44.991  30.903  30.929  1.00  0.00     0.049 A 
ATOM     63  H   UNL A   1      45.622  29.423  32.288  1.00  0.00     0.167 HD
ATOM     64  C   UNL A   1      45.135  29.015  29.332  1.00  0.00     0.074 A 
ATOM     65  C   UNL A   1      44.878  27.851  30.178  1.00  0.00     0.031 C 
ATOM     66  C   UNL A   1      45.266  30.342  29.624  1.00  0.00     0.031 A 
BRANCH  53  67
ATOM     67  C   UNL A   1      43.846  28.710  34.540  1.00  0.00    -0.014 A 
ATOM     68  C   UNL A   1      44.282  27.543  33.899  1.00  0.00     0.010 A 
ATOM     69  C   UNL A   1      43.731  28.671  35.949  1.00  0.00     0.010 A 
ATOM     70  C   UNL A   1      44.551  26.384  34.635  1.00  0.00     0.020 A 
ATOM     71  C   UNL A   1      44.052  27.547  36.696  1.00  0.00     0.020 A 
ATOM     72  C   UNL A   1      44.431  26.396  36.028  1.00  0.00     0.054 A 
BRANCH  72  73
ATOM     73  S   UNL A   1      44.700  24.877  36.961  1.00  0.00     0.124 S 
ATOM     74  O   UNL A   1      43.699  23.990  36.377  1.00  0.00    -0.237 OA
ATOM     75  O   UNL A   1      46.091  24.568  36.641  1.00  0.00    -0.237 OA
ATOM     76  O   UNL A   1      44.456  25.276  38.345  1.00  0.00    -0.744 OA
ENDBRANCH  72  73
ENDBRANCH  53  67
BRANCH  54  77
ATOM     77  C   UNL A   1      43.038  25.832  26.578  1.00  0.00    -0.014 A 
ATOM     78  C   UNL A   1      43.848  25.674  25.424  1.00  0.00     0.010 A 
ATOM     79  C   UNL A   1      42.491  24.657  27.126  1.00  0.00     0.010 A 
ATOM     80  C   UNL A   1      44.156  24.397  24.899  1.00  0.00     0.020 A 
ATOM     81  C   UNL A   1      42.788  23.385  26.606  1.00  0.00     0.020 A 
ATOM     82  C   UNL A   1      43.643  23.255  25.513  1.00  0.00     0.054 A 
BRANCH  82  83
ATOM     83  S   UNL A   1      44.186  21.601  24.968  1.00  0.00     0.124 S 
ATOM     84  O   UNL A   1      44.338  21.775  23.527  1.00  0.00    -0.237 OA
ATOM     85  O   UNL A   1      45.426  21.408  25.714  1.00  0.00    -0.237 OA
ATOM     86  O   UNL A   1      43.086  20.727  25.372  1.00  0.00    -0.744 OA
ENDBRANCH  82  83
ENDBRANCH  54  77
BRANCH  66  87
ATOM     87  C   UNL A   1      45.470  31.331  28.499  1.00  0.00    -0.014 A 
ATOM     88  C   UNL A   1      44.434  31.867  27.710  1.00  0.00     0.010 A 
ATOM     89  C   UNL A   1      46.765  31.865  28.355  1.00  0.00     0.010 A 
ATOM     90  C   UNL A   1      44.692  32.902  26.797  1.00  0.00     0.020 A 
ATOM     91  C   UNL A   1      47.023  32.909  27.465  1.00  0.00     0.020 A 
ATOM     92  C   UNL A   1      45.986  33.422  26.687  1.00  0.00     0.054 A 
BRANCH  92  93
ATOM     93  S   UNL A   1      46.305  34.805  25.556  1.00  0.00     0.124 S 
ATOM     94  O   UNL A   1      45.351  34.562  24.479  1.00  0.00    -0.237 OA
ATOM     95  O   UNL A   1      46.029  35.973  26.391  1.00  0.00    -0.237 OA
ATOM     96  O   UNL A   1      47.710  34.638  25.187  1.00  0.00    -0.744 OA
ENDBRANCH  92  93
ENDBRANCH  66  87
ENDBRANCH  40  41
ENDBRANCH  32  35
ENDBRANCH  30  31
ENDBRANCH  29  30
ENDBRANCH  28  29
ENDBRANCH   3  28
TORSDOF 19
ENDMDL
MODEL 3
REMARK VINA RESULT:     -11.6      8.313     15.356
REMARK SMILES Cc1nc2nc(CNC(=O)OC(C)(C)C)nn2c(C)c1CCC(=O)NCCCNC(=O)c1ccc(-c2c3nc(c(-c4ccc(S(=O)(=O)[O-])cc4)c4ccc([nH]4)c(-c4ccc(S(=O)(=O)[O-])cc4)c4nc(c(-c5ccc(S(=O)(=O)[O-])cc5)c5ccc2[nH]5)C=C4)C=C3)cc1
REMARK SMILES IDX 23 1 24 2 25 3 22 5 21 6 20 7 1 8 2 9 3 10 4 11 18 12 5 13
REMARK SMILES IDX 17 14 19 15 6 16 16 17 7 18 8 19 9 20 10 22 11 23 12 24
REMARK SMILES IDX 13 25 14 26 15 27 26 28 27 29 28 30 29 31 30 32 31 34 32 35
REMARK SMILES IDX 33 36 91 37 34 38 90 39 35 40 36 41 37 42 84 43 38 44 89 45
REMARK SMILES IDX 83 46 85 47 39 48 88 49 82 50 81 51 40 53 70 54 51 55 69 56
REMARK SMILES IDX 52 57 55 58 68 59 86 60 53 61 54 62 67 64 87 65 56 66 41 67
REMARK SMILES IDX 42 68 50 69 43 70 49 71 44 72 45 73 46 74 47 75 48 76 71 77
REMARK SMILES IDX 72 78 80 79 73 80 79 81 74 82 75 83 76 84 77 85 78 86 57 87
REMARK SMILES IDX 58 88 66 89 59 90 65 91 60 92 61 93 62 94 63 95 64 96
REMARK H PARENT 25 4 8 21 29 33 85 52 55 63
REMARK Flexibility Score: inf
ROOT
ATOM      1  C   UNL A   1      46.310  37.743  27.048  1.00  0.00     0.220 C 
ATOM      2  O   UNL A   1      45.923  36.570  27.048  1.00  0.00    -0.275 OA
ATOM      3  N   UNL A   1      47.533  38.023  27.602  1.00  0.00    -0.356 N 
ATOM      4  H   UNL A   1      47.940  37.234  28.030  1.00  0.00     0.163 HD
ENDROOT
BRANCH   1   5
ATOM      5  C   UNL A   1      45.401  38.813  26.459  1.00  0.00     0.105 C 
BRANCH   5   6
ATOM      6  C   UNL A   1      44.601  39.605  27.525  1.00  0.00     0.049 C 
BRANCH   6   7
ATOM      7  C   UNL A   1      43.621  40.538  26.871  1.00  0.00    -0.005 A 
ATOM      8  C   UNL A   1      41.671  38.902  27.500  1.00  0.00     0.067 C 
ATOM      9  C   UNL A   1      42.188  40.083  26.682  1.00  0.00     0.046 A 
ATOM     10  N   UNL A   1      41.369  40.657  25.851  1.00  0.00    -0.216 NA
ATOM     11  C   UNL A   1      41.935  41.563  24.991  1.00  0.00     0.252 A 
ATOM     12  C   UNL A   1      43.976  41.688  26.233  1.00  0.00     0.048 A 
ATOM     13  N   UNL A   1      41.609  41.774  23.751  1.00  0.00    -0.192 NA
ATOM     14  N   UNL A   1      43.206  42.094  25.132  1.00  0.00    -0.201 N 
ATOM     15  C   UNL A   1      45.226  42.466  26.448  1.00  0.00     0.067 C 
ATOM     16  C   UNL A   1      42.659  42.337  23.028  1.00  0.00     0.172 A 
ATOM     17  N   UNL A   1      43.640  42.670  23.907  1.00  0.00    -0.148 NA
BRANCH  16  18
ATOM     18  C   UNL A   1      42.609  42.679  21.335  1.00  0.00     0.199 C 
BRANCH  18  19
ATOM     19  N   UNL A   1      43.763  43.405  20.348  1.00  0.00    -0.314 N 
ATOM     20  C   UNL A   1      44.160  44.066  19.140  1.00  0.00     0.408 C 
ATOM     21  H   UNL A   1      44.595  43.346  20.871  1.00  0.00     0.167 HD
ATOM     22  O   UNL A   1      45.325  44.506  19.110  1.00  0.00    -0.225 OA
BRANCH  20  23
ATOM     23  O   UNL A   1      43.360  44.205  18.034  1.00  0.00    -0.444 OA
BRANCH  23  24
ATOM     24  C   UNL A   1      42.264  45.183  17.632  1.00  0.00     0.106 C 
ATOM     25  C   UNL A   1      40.885  44.803  18.182  1.00  0.00     0.056 C 
ATOM     26  C   UNL A   1      42.612  46.632  17.996  1.00  0.00     0.056 C 
ATOM     27  C   UNL A   1      42.099  45.190  16.071  1.00  0.00     0.056 C 
ENDBRANCH  23  24
ENDBRANCH  20  23
ENDBRANCH  18  19
ENDBRANCH  16  18
ENDBRANCH   6   7
ENDBRANCH   5   6
ENDBRANCH   1   5
BRANCH   3  28
ATOM     28  C   UNL A   1      48.402  39.245  27.715  1.00  0.00     0.117 C 
BRANCH  28  29
ATOM     29  C   UNL A   1      47.874  40.358  28.688  1.00  0.00     0.042 C 
BRANCH  29  30
ATOM     30  C   UNL A   1      47.071  40.134  30.068  1.00  0.00     0.118 C 
BRANCH  30  31
ATOM     31  N   UNL A   1      47.211  38.673  30.944  1.00  0.00    -0.352 N 
ATOM     32  C   UNL A   1      46.535  37.605  31.861  1.00  0.00     0.251 C 
ATOM     33  H   UNL A   1      48.137  38.366  30.810  1.00  0.00     0.163 HD
ATOM     34  O   UNL A   1      47.345  36.743  32.244  1.00  0.00    -0.269 OA
BRANCH  32  35
ATOM     35  C   UNL A   1      44.917  37.352  32.402  1.00  0.00     0.039 A 
ATOM     36  C   UNL A   1      44.391  37.648  33.675  1.00  0.00     0.014 A 
ATOM     37  C   UNL A   1      43.907  36.738  31.669  1.00  0.00     0.014 A 
ATOM     38  C   UNL A   1      43.418  36.869  34.358  1.00  0.00     0.010 A 
ATOM     39  C   UNL A   1      42.974  35.860  32.320  1.00  0.00     0.010 A 
ATOM     40  C   UNL A   1      42.828  35.796  33.716  1.00  0.00    -0.014 A 
BRANCH  40  41
ATOM     41  C   UNL A   1      41.748  35.018  34.392  1.00  0.00     0.031 A 
ATOM     42  C   UNL A   1      41.890  33.637  33.896  1.00  0.00     0.074 A 
ATOM     43  C   UNL A   1      40.779  35.236  35.326  1.00  0.00     0.049 A 
ATOM     44  N   UNL A   1      41.288  33.148  32.862  1.00  0.00    -0.248 NA
ATOM     45  C   UNL A   1      43.064  32.884  34.356  1.00  0.00     0.031 C 
ATOM     46  C   UNL A   1      40.479  36.415  36.143  1.00  0.00     0.029 A 
ATOM     47  N   UNL A   1      39.847  34.330  35.809  1.00  0.00    -0.354 N 
ATOM     48  C   UNL A   1      41.911  31.932  32.668  1.00  0.00     0.074 A 
ATOM     49  C   UNL A   1      43.175  32.015  33.354  1.00  0.00     0.031 C 
ATOM     50  C   UNL A   1      39.643  36.070  37.163  1.00  0.00     0.029 A 
ATOM     51  C   UNL A   1      39.238  34.679  37.020  1.00  0.00     0.049 A 
ATOM     52  H   UNL A   1      39.629  33.497  35.332  1.00  0.00     0.167 HD
ATOM     53  C   UNL A   1      41.218  30.825  32.302  1.00  0.00     0.031 A 
ATOM     54  C   UNL A   1      38.495  33.881  37.852  1.00  0.00     0.031 A 
ATOM     55  C   UNL A   1      39.893  31.140  31.835  1.00  0.00     0.049 A 
ATOM     56  C   UNL A   1      37.982  32.752  37.038  1.00  0.00     0.074 A 
ATOM     57  C   UNL A   1      39.381  31.970  30.857  1.00  0.00     0.029 A 
ATOM     58  N   UNL A   1      38.849  30.863  32.688  1.00  0.00    -0.354 N 
ATOM     59  N   UNL A   1      37.067  32.887  36.122  1.00  0.00    -0.248 NA
ATOM     60  C   UNL A   1      38.798  31.554  36.941  1.00  0.00     0.031 C 
ATOM     61  C   UNL A   1      38.188  32.511  31.412  1.00  0.00     0.029 A 
ATOM     62  C   UNL A   1      37.994  31.934  32.668  1.00  0.00     0.049 A 
ATOM     63  H   UNL A   1      38.736  30.041  33.219  1.00  0.00     0.167 HD
ATOM     64  C   UNL A   1      37.493  32.066  35.090  1.00  0.00     0.074 A 
ATOM     65  C   UNL A   1      38.517  31.207  35.683  1.00  0.00     0.031 C 
ATOM     66  C   UNL A   1      37.183  32.350  33.792  1.00  0.00     0.031 A 
BRANCH  53  67
ATOM     67  C   UNL A   1      41.605  29.464  32.810  1.00  0.00    -0.014 A 
ATOM     68  C   UNL A   1      41.104  29.039  34.048  1.00  0.00     0.010 A 
ATOM     69  C   UNL A   1      42.635  28.688  32.228  1.00  0.00     0.010 A 
ATOM     70  C   UNL A   1      41.639  27.915  34.686  1.00  0.00     0.020 A 
ATOM     71  C   UNL A   1      43.134  27.538  32.822  1.00  0.00     0.020 A 
ATOM     72  C   UNL A   1      42.652  27.176  34.067  1.00  0.00     0.054 A 
BRANCH  72  73
ATOM     73  S   UNL A   1      43.392  25.777  34.932  1.00  0.00     0.124 S 
ATOM     74  O   UNL A   1      43.797  26.389  36.193  1.00  0.00    -0.237 OA
ATOM     75  O   UNL A   1      42.274  24.841  35.006  1.00  0.00    -0.237 OA
ATOM     76  O   UNL A   1      44.486  25.369  34.052  1.00  0.00    -0.744 OA
ENDBRANCH  72  73
ENDBRANCH  53  67
BRANCH  54  77
ATOM     77  C   UNL A   1      38.386  33.844  39.351  1.00  0.00    -0.014 A 
ATOM     78  C   UNL A   1      38.755  34.949  40.160  1.00  0.00     0.010 A 
ATOM     79  C   UNL A   1      37.625  32.838  39.974  1.00  0.00     0.010 A 
ATOM     80  C   UNL A   1      38.318  35.073  41.499  1.00  0.00     0.020 A 
ATOM     81  C   UNL A   1      37.191  32.951  41.307  1.00  0.00     0.020 A 
ATOM     82  C   UNL A   1      37.512  34.080  42.057  1.00  0.00     0.054 A 
BRANCH  82  83
ATOM     83  S   UNL A   1      36.782  34.319  43.711  1.00  0.00     0.124 S 
ATOM     84  O   UNL A   1      35.349  34.261  43.438  1.00  0.00    -0.237 OA
ATOM     85  O   UNL A   1      37.325  33.194  44.467  1.00  0.00    -0.237 OA
ATOM     86  O   UNL A   1      37.280  35.631  44.121  1.00  0.00    -0.744 OA
ENDBRANCH  82  83
ENDBRANCH  54  77
BRANCH  66  87
ATOM     87  C   UNL A   1      36.087  33.347  33.493  1.00  0.00    -0.014 A 
ATOM     88  C   UNL A   1      36.263  34.744  33.470  1.00  0.00     0.010 A 
ATOM     89  C   UNL A   1      34.858  32.820  33.049  1.00  0.00     0.010 A 
ATOM     90  C   UNL A   1      35.233  35.588  33.023  1.00  0.00     0.020 A 
ATOM     91  C   UNL A   1      33.840  33.652  32.583  1.00  0.00     0.020 A 
ATOM     92  C   UNL A   1      34.029  35.033  32.575  1.00  0.00     0.054 A 
BRANCH  92  93
ATOM     93  S   UNL A   1      32.725  36.120  31.933  1.00  0.00     0.124 S 
ATOM     94  O   UNL A   1      32.901  36.012  30.489  1.00  0.00    -0.237 OA
ATOM     95  O   UNL A   1      31.507  35.512  32.467  1.00  0.00    -0.237 OA
ATOM     96  O   UNL A   1      33.052  37.429  32.499  1.00  0.00    -0.744 OA
ENDBRANCH  92  93
ENDBRANCH  66  87
ENDBRANCH  40  41
ENDBRANCH  32  35
ENDBRANCH  30  31
ENDBRANCH  29  30
ENDBRANCH  28  29
ENDBRANCH   3  28
TORSDOF 19
ENDMDL
