MODEL 1
REMARK VINA RESULT:     -11.5      0.000      0.000
REMARK SMILES [NH3+][C@H]1COC[C@@H]1C(=O)NC1(CC(=O)NCCCNC(=O)c2ccc(-c3c4nc(c(-c5ccc(S(=O)(=O)[O-])cc5)c5ccc([nH]5)c(-c5ccc(S(=O)(=O)[O-])cc5)c5nc(c(-c6ccc(S(=O)(=O)[O-])cc6)c6ccc3[nH]6)C=C5)C=C4)cc2)CCC1
REMARK SMILES IDX 15 1 14 2 12 3 13 4 11 6 10 7 81 8 83 9 82 10 9 11 7 12 8 13
REMARK SMILES IDX 6 15 2 16 3 17 4 18 5 19 1 20 16 24 17 25 18 26 19 27 20 29
REMARK SMILES IDX 21 30 22 31 80 32 23 33 79 34 24 35 25 36 26 37 73 38 27 39
REMARK SMILES IDX 78 40 72 41 74 42 28 43 77 44 71 45 70 46 29 48 59 49 40 50
REMARK SMILES IDX 58 51 41 52 44 53 57 54 75 55 42 56 43 57 56 59 76 60 45 61
REMARK SMILES IDX 30 62 31 63 39 64 32 65 38 66 33 67 34 68 35 69 36 70 37 71
REMARK SMILES IDX 60 72 61 73 69 74 62 75 68 76 63 77 64 78 65 79 66 80 67 81
REMARK SMILES IDX 46 82 47 83 55 84 48 85 54 86 49 87 50 88 51 89 52 90 53 91
REMARK H PARENT 14 5 9 14 1 21 1 22 1 23 18 28 74 47 44 58
REMARK Flexibility Score: inf
ROOT
ATOM      1  C   UNL A   1      37.741  22.323  25.759  1.00  0.00     0.117 C 
ENDROOT
BRANCH   1   2
ATOM      2  N   UNL A   1      37.411  22.427  24.359  1.00  0.00    -0.356 N 
ATOM      3  C   UNL A   1      36.268  22.734  23.719  1.00  0.00     0.222 C 
ATOM      4  O   UNL A   1      36.396  23.023  22.522  1.00  0.00    -0.275 OA
ATOM      5  H   UNL A   1      38.166  22.236  23.756  1.00  0.00     0.163 HD
BRANCH   3   6
ATOM      6  C   UNL A   1      34.912  22.832  24.368  1.00  0.00     0.128 C 
BRANCH   6   7
ATOM      7  C   UNL A   1      33.922  23.997  24.194  1.00  0.00     0.049 C 
ATOM      8  C   UNL A   1      34.189  25.006  25.400  1.00  0.00     0.029 C 
ATOM      9  C   UNL A   1      32.470  23.906  24.819  1.00  0.00     0.029 C 
ATOM     10  C   UNL A   1      33.052  24.326  26.174  1.00  0.00     0.005 C 
BRANCH   7  11
ATOM     11  N   UNL A   1      33.886  24.812  22.936  1.00  0.00    -0.350 N 
ATOM     12  C   UNL A   1      33.524  26.043  22.481  1.00  0.00     0.232 C 
ATOM     13  O   UNL A   1      33.595  26.202  21.257  1.00  0.00    -0.274 OA
ATOM     14  H   UNL A   1      34.244  24.278  22.190  1.00  0.00     0.164 HD
BRANCH  12  15
ATOM     15  C   UNL A   1      33.034  27.146  23.378  1.00  0.00     0.164 C 
ATOM     16  C   UNL A   1      31.525  27.041  23.565  1.00  0.00     0.221 C 
ATOM     17  C   UNL A   1      30.996  28.118  22.613  1.00  0.00     0.225 C 
ATOM     18  O   UNL A   1      31.985  29.150  22.572  1.00  0.00    -0.374 OA
ATOM     19  C   UNL A   1      33.260  28.531  22.780  1.00  0.00     0.180 C 
BRANCH  16  20
ATOM     20  N   UNL A   1      31.072  27.298  24.945  1.00  0.00    -0.352 N 
ATOM     21  H   UNL A   1      30.102  27.611  24.931  1.00  0.00     0.344 HD
ATOM     22  H   UNL A   1      31.656  28.022  25.365  1.00  0.00     0.344 HD
ATOM     23  H   UNL A   1      31.146  26.442  25.492  1.00  0.00     0.344 HD
ENDBRANCH  16  20
ENDBRANCH  12  15
ENDBRANCH   7  11
ENDBRANCH   6   7
ENDBRANCH   3   6
ENDBRANCH   1   2
BRANCH   1  24
ATOM     24  C   UNL A   1      38.310  23.622  26.323  1.00  0.00     0.042 C 
BRANCH  24  25
ATOM     25  C   UNL A   1      39.712  23.494  26.912  1.00  0.00     0.118 C 
BRANCH  25  26
ATOM     26  N   UNL A   1      40.733  24.108  26.081  1.00  0.00    -0.352 N 
ATOM     27  C   UNL A   1      41.251  25.376  26.083  1.00  0.00     0.251 C 
ATOM     28  H   UNL A   1      41.118  23.511  25.399  1.00  0.00     0.163 HD
ATOM     29  O   UNL A   1      41.915  25.744  25.112  1.00  0.00    -0.269 OA
BRANCH  27  30
ATOM     30  C   UNL A   1      41.019  26.302  27.211  1.00  0.00     0.039 A 
ATOM     31  C   UNL A   1      41.716  27.515  27.240  1.00  0.00     0.014 A 
ATOM     32  C   UNL A   1      40.190  25.957  28.280  1.00  0.00     0.014 A 
ATOM     33  C   UNL A   1      41.552  28.388  28.318  1.00  0.00     0.010 A 
ATOM     34  C   UNL A   1      39.952  26.869  29.305  1.00  0.00     0.010 A 
ATOM     35  C   UNL A   1      40.654  28.081  29.352  1.00  0.00    -0.014 A 
BRANCH  35  36
ATOM     36  C   UNL A   1      40.484  28.985  30.519  1.00  0.00     0.031 A 
ATOM     37  C   UNL A   1      41.367  28.825  31.731  1.00  0.00     0.074 A 
ATOM     38  C   UNL A   1      39.513  29.919  30.507  1.00  0.00     0.049 A 
ATOM     39  N   UNL A   1      41.350  29.490  32.858  1.00  0.00    -0.248 NA
ATOM     40  C   UNL A   1      42.381  27.758  31.683  1.00  0.00     0.031 C 
ATOM     41  C   UNL A   1      38.562  30.141  29.415  1.00  0.00     0.029 A 
ATOM     42  N   UNL A   1      39.167  30.859  31.444  1.00  0.00    -0.354 N 
ATOM     43  C   UNL A   1      42.326  28.905  33.658  1.00  0.00     0.074 A 
ATOM     44  C   UNL A   1      42.879  27.797  32.910  1.00  0.00     0.031 C 
ATOM     45  C   UNL A   1      37.764  31.175  29.731  1.00  0.00     0.029 A 
ATOM     46  C   UNL A   1      38.126  31.668  31.056  1.00  0.00     0.049 A 
ATOM     47  H   UNL A   1      39.623  30.947  32.312  1.00  0.00     0.167 HD
ATOM     48  C   UNL A   1      42.745  29.268  34.895  1.00  0.00     0.031 A 
ATOM     49  C   UNL A   1      37.533  32.697  31.692  1.00  0.00     0.031 A 
ATOM     50  C   UNL A   1      42.218  30.390  35.623  1.00  0.00     0.049 A 
ATOM     51  C   UNL A   1      38.046  33.113  33.043  1.00  0.00     0.074 A 
ATOM     52  C   UNL A   1      42.609  30.879  36.857  1.00  0.00     0.029 A 
ATOM     53  N   UNL A   1      41.190  31.206  35.176  1.00  0.00    -0.354 N 
ATOM     54  N   UNL A   1      39.006  32.578  33.760  1.00  0.00    -0.248 NA
ATOM     55  C   UNL A   1      37.411  34.284  33.659  1.00  0.00     0.031 C 
ATOM     56  C   UNL A   1      41.795  31.973  37.171  1.00  0.00     0.029 A 
ATOM     57  C   UNL A   1      40.930  32.194  36.111  1.00  0.00     0.049 A 
ATOM     58  H   UNL A   1      40.715  31.100  34.321  1.00  0.00     0.167 HD
ATOM     59  C   UNL A   1      39.110  33.367  34.900  1.00  0.00     0.074 A 
ATOM     60  C   UNL A   1      38.125  34.423  34.767  1.00  0.00     0.031 C 
ATOM     61  C   UNL A   1      39.946  33.233  35.960  1.00  0.00     0.031 A 
BRANCH  48  62
ATOM     62  C   UNL A   1      43.834  28.442  35.529  1.00  0.00    -0.014 A 
ATOM     63  C   UNL A   1      43.530  27.287  36.275  1.00  0.00     0.010 A 
ATOM     64  C   UNL A   1      45.181  28.811  35.363  1.00  0.00     0.010 A 
ATOM     65  C   UNL A   1      44.547  26.547  36.883  1.00  0.00     0.020 A 
ATOM     66  C   UNL A   1      46.203  28.054  35.945  1.00  0.00     0.020 A 
ATOM     67  C   UNL A   1      45.878  26.938  36.718  1.00  0.00     0.054 A 
BRANCH  67  68
ATOM     68  S   UNL A   1      47.180  25.951  37.506  1.00  0.00     0.124 S 
ATOM     69  O   UNL A   1      46.815  26.046  38.917  1.00  0.00    -0.237 OA
ATOM     70  O   UNL A   1      46.998  24.635  36.898  1.00  0.00    -0.237 OA
ATOM     71  O   UNL A   1      48.412  26.641  37.132  1.00  0.00    -0.744 OA
ENDBRANCH  67  68
ENDBRANCH  48  62
BRANCH  49  72
ATOM     72  C   UNL A   1      36.418  33.432  31.036  1.00  0.00    -0.014 A 
ATOM     73  C   UNL A   1      35.245  33.730  31.750  1.00  0.00     0.010 A 
ATOM     74  C   UNL A   1      36.532  33.853  29.699  1.00  0.00     0.010 A 
ATOM     75  C   UNL A   1      34.196  34.421  31.134  1.00  0.00     0.020 A 
ATOM     76  C   UNL A   1      35.496  34.566  29.088  1.00  0.00     0.020 A 
ATOM     77  C   UNL A   1      34.330  34.835  29.807  1.00  0.00     0.054 A 
BRANCH  77  78
ATOM     78  S   UNL A   1      32.981  35.779  29.044  1.00  0.00     0.124 S 
ATOM     79  O   UNL A   1      33.704  36.856  28.375  1.00  0.00    -0.237 OA
ATOM     80  O   UNL A   1      32.360  34.791  28.165  1.00  0.00    -0.237 OA
ATOM     81  O   UNL A   1      32.162  36.185  30.185  1.00  0.00    -0.744 OA
ENDBRANCH  77  78
ENDBRANCH  49  72
BRANCH  61  82
ATOM     82  C   UNL A   1      39.856  34.279  37.037  1.00  0.00    -0.014 A 
ATOM     83  C   UNL A   1      40.518  35.514  36.916  1.00  0.00     0.010 A 
ATOM     84  C   UNL A   1      39.074  34.028  38.180  1.00  0.00     0.010 A 
ATOM     85  C   UNL A   1      40.439  36.459  37.941  1.00  0.00     0.020 A 
ATOM     86  C   UNL A   1      38.971  34.982  39.195  1.00  0.00     0.020 A 
ATOM     87  C   UNL A   1      39.672  36.184  39.077  1.00  0.00     0.054 A 
BRANCH  87  88
ATOM     88  S   UNL A   1      39.574  37.429  40.392  1.00  0.00     0.124 S 
ATOM     89  O   UNL A   1      40.979  37.782  40.580  1.00  0.00    -0.237 OA
ATOM     90  O   UNL A   1      38.741  38.468  39.791  1.00  0.00    -0.237 OA
ATOM     91  O   UNL A   1      38.957  36.710  41.504  1.00  0.00    -0.744 OA
ENDBRANCH  87  88
ENDBRANCH  61  82
ENDBRANCH  35  36
ENDBRANCH  27  30
ENDBRANCH  25  26
ENDBRANCH  24  25
ENDBRANCH   1  24
TORSDOF 17
ENDMDL
MODEL 2
REMARK VINA RESULT:     -11.5      4.486     10.432
REMARK SMILES [NH3+][C@H]1COC[C@@H]1C(=O)NC1(CC(=O)NCCCNC(=O)c2ccc(-c3c4nc(c(-c5ccc(S(=O)(=O)[O-])cc5)c5ccc([nH]5)c(-c5ccc(S(=O)(=O)[O-])cc5)c5nc(c(-c6ccc(S(=O)(=O)[O-])cc6)c6ccc3[nH]6)C=C5)C=C4)cc2)CCC1
REMARK SMILES IDX 15 1 14 2 12 3 13 4 11 6 10 7 81 8 83 9 82 10 9 11 7 12 8 13
REMARK SMILES IDX 6 15 2 16 3 17 4 18 5 19 1 20 16 24 17 25 18 26 19 27 20 29
REMARK SMILES IDX 21 30 22 31 80 32 23 33 79 34 24 35 25 36 26 37 73 38 27 39
REMARK SMILES IDX 78 40 72 41 74 42 28 43 77 44 71 45 70 46 29 48 59 49 40 50
REMARK SMILES IDX 58 51 41 52 44 53 57 54 75 55 42 56 43 57 56 59 76 60 45 61
REMARK SMILES IDX 30 62 31 63 39 64 32 65 38 66 33 67 34 68 35 69 36 70 37 71
REMARK SMILES IDX 60 72 61 73 69 74 62 75 68 76 63 77 64 78 65 79 66 80 67 81
REMARK SMILES IDX 46 82 47 83 55 84 48 85 54 86 49 87 50 88 51 89 52 90 53 91
REMARK H PARENT 14 5 9 14 1 21 1 22 1 23 18 28 74 47 44 58
REMARK Flexibility Score: inf
ROOT
ATOM      1  C   UNL A   1      31.501  27.288  25.751  1.00  0.00     0.117 C 
ENDROOT
BRANCH   1   2
ATOM      2  N   UNL A   1      31.259  26.126  26.572  1.00  0.00    -0.356 N 
ATOM      3  C   UNL A   1      31.320  24.807  26.313  1.00  0.00     0.222 C 
ATOM      4  O   UNL A   1      31.342  24.075  27.311  1.00  0.00    -0.275 OA
ATOM      5  H   UNL A   1      31.002  26.338  27.498  1.00  0.00     0.163 HD
BRANCH   3   6
ATOM      6  C   UNL A   1      31.448  24.198  24.941  1.00  0.00     0.128 C 
BRANCH   6   7
ATOM      7  C   UNL A   1      32.585  23.270  24.480  1.00  0.00     0.049 C 
ATOM      8  C   UNL A   1      33.552  24.151  23.568  1.00  0.00     0.029 C 
ATOM      9  C   UNL A   1      32.420  22.403  23.166  1.00  0.00     0.029 C 
ATOM     10  C   UNL A   1      32.802  23.632  22.333  1.00  0.00     0.005 C 
BRANCH   7  11
ATOM     11  N   UNL A   1      33.450  22.543  25.466  1.00  0.00    -0.350 N 
ATOM     12  C   UNL A   1      34.758  22.355  25.792  1.00  0.00     0.232 C 
ATOM     13  O   UNL A   1      34.974  21.520  26.677  1.00  0.00    -0.274 OA
ATOM     14  H   UNL A   1      32.880  22.029  26.083  1.00  0.00     0.164 HD
BRANCH  12  15
ATOM     15  C   UNL A   1      35.891  23.076  25.115  1.00  0.00     0.164 C 
ATOM     16  C   UNL A   1      36.622  22.134  24.166  1.00  0.00     0.221 C 
ATOM     17  C   UNL A   1      37.869  21.752  24.970  1.00  0.00     0.225 C 
ATOM     18  O   UNL A   1      38.187  22.879  25.791  1.00  0.00    -0.374 OA
ATOM     19  C   UNL A   1      36.957  23.546  26.099  1.00  0.00     0.180 C 
BRANCH  16  20
ATOM     20  N   UNL A   1      37.001  22.751  22.881  1.00  0.00    -0.352 N 
ATOM     21  H   UNL A   1      36.851  23.759  22.931  1.00  0.00     0.344 HD
ATOM     22  H   UNL A   1      36.427  22.360  22.134  1.00  0.00     0.344 HD
ATOM     23  H   UNL A   1      37.984  22.562  22.690  1.00  0.00     0.344 HD
ENDBRANCH  16  20
ENDBRANCH  12  15
ENDBRANCH   7  11
ENDBRANCH   6   7
ENDBRANCH   3   6
ENDBRANCH   1   2
BRANCH   1  24
ATOM     24  C   UNL A   1      32.944  27.773  25.837  1.00  0.00     0.042 C 
BRANCH  24  25
ATOM     25  C   UNL A   1      33.375  28.231  27.227  1.00  0.00     0.118 C 
BRANCH  25  26
ATOM     26  N   UNL A   1      33.364  29.677  27.375  1.00  0.00    -0.352 N 
ATOM     27  C   UNL A   1      34.291  30.533  27.907  1.00  0.00     0.251 C 
ATOM     28  H   UNL A   1      32.551  30.116  27.036  1.00  0.00     0.163 HD
ATOM     29  O   UNL A   1      33.948  31.688  28.168  1.00  0.00    -0.269 OA
BRANCH  27  30
ATOM     30  C   UNL A   1      35.676  30.097  28.183  1.00  0.00     0.039 A 
ATOM     31  C   UNL A   1      36.008  29.684  29.478  1.00  0.00     0.014 A 
ATOM     32  C   UNL A   1      36.671  30.168  27.206  1.00  0.00     0.014 A 
ATOM     33  C   UNL A   1      37.320  29.313  29.777  1.00  0.00     0.010 A 
ATOM     34  C   UNL A   1      37.955  29.704  27.478  1.00  0.00     0.010 A 
ATOM     35  C   UNL A   1      38.303  29.302  28.775  1.00  0.00    -0.014 A 
BRANCH  35  36
ATOM     36  C   UNL A   1      39.709  28.934  29.079  1.00  0.00     0.031 A 
ATOM     37  C   UNL A   1      40.621  29.930  29.749  1.00  0.00     0.074 A 
ATOM     38  C   UNL A   1      40.178  27.723  28.718  1.00  0.00     0.049 A 
ATOM     39  N   UNL A   1      41.886  29.810  30.063  1.00  0.00    -0.248 NA
ATOM     40  C   UNL A   1      40.047  31.245  30.080  1.00  0.00     0.031 C 
ATOM     41  C   UNL A   1      39.410  26.689  28.019  1.00  0.00     0.029 A 
ATOM     42  N   UNL A   1      41.416  27.157  28.890  1.00  0.00    -0.354 N 
ATOM     43  C   UNL A   1      42.261  31.037  30.601  1.00  0.00     0.074 A 
ATOM     44  C   UNL A   1      41.107  31.905  30.520  1.00  0.00     0.031 C 
ATOM     45  C   UNL A   1      40.183  25.603  27.855  1.00  0.00     0.029 A 
ATOM     46  C   UNL A   1      41.507  25.873  28.407  1.00  0.00     0.049 A 
ATOM     47  H   UNL A   1      42.167  27.625  29.320  1.00  0.00     0.167 HD
ATOM     48  C   UNL A   1      43.450  31.406  31.137  1.00  0.00     0.031 A 
ATOM     49  C   UNL A   1      42.539  25.007  28.414  1.00  0.00     0.031 A 
ATOM     50  C   UNL A   1      44.586  30.530  31.247  1.00  0.00     0.049 A 
ATOM     51  C   UNL A   1      43.834  25.421  29.057  1.00  0.00     0.074 A 
ATOM     52  C   UNL A   1      45.818  30.784  31.823  1.00  0.00     0.029 A 
ATOM     53  N   UNL A   1      44.623  29.225  30.779  1.00  0.00    -0.354 N 
ATOM     54  N   UNL A   1      44.152  26.569  29.606  1.00  0.00    -0.248 NA
ATOM     55  C   UNL A   1      44.901  24.413  29.100  1.00  0.00     0.031 C 
ATOM     56  C   UNL A   1      46.613  29.642  31.675  1.00  0.00     0.029 A 
ATOM     57  C   UNL A   1      45.858  28.661  31.050  1.00  0.00     0.049 A 
ATOM     58  H   UNL A   1      43.881  28.767  30.323  1.00  0.00     0.167 HD
ATOM     59  C   UNL A   1      45.446  26.412  30.088  1.00  0.00     0.074 A 
ATOM     60  C   UNL A   1      45.844  25.053  29.777  1.00  0.00     0.031 C 
ATOM     61  C   UNL A   1      46.234  27.309  30.732  1.00  0.00     0.031 A 
BRANCH  48  62
ATOM     62  C   UNL A   1      43.573  32.817  31.649  1.00  0.00    -0.014 A 
ATOM     63  C   UNL A   1      43.341  33.121  33.004  1.00  0.00     0.010 A 
ATOM     64  C   UNL A   1      43.945  33.852  30.772  1.00  0.00     0.010 A 
ATOM     65  C   UNL A   1      43.429  34.439  33.460  1.00  0.00     0.020 A 
ATOM     66  C   UNL A   1      44.064  35.167  31.232  1.00  0.00     0.020 A 
ATOM     67  C   UNL A   1      43.785  35.455  32.570  1.00  0.00     0.054 A 
BRANCH  67  68
ATOM     68  S   UNL A   1      43.906  37.155  33.191  1.00  0.00     0.124 S 
ATOM     69  O   UNL A   1      45.152  37.107  33.952  1.00  0.00    -0.237 OA
ATOM     70  O   UNL A   1      43.951  37.945  31.963  1.00  0.00    -0.237 OA
ATOM     71  O   UNL A   1      42.693  37.320  33.989  1.00  0.00    -0.744 OA
ENDBRANCH  67  68
ENDBRANCH  48  62
BRANCH  49  72
ATOM     72  C   UNL A   1      42.371  23.648  27.832  1.00  0.00    -0.014 A 
ATOM     73  C   UNL A   1      42.725  23.398  26.495  1.00  0.00     0.010 A 
ATOM     74  C   UNL A   1      41.874  22.593  28.618  1.00  0.00     0.010 A 
ATOM     75  C   UNL A   1      42.568  22.121  25.948  1.00  0.00     0.020 A 
ATOM     76  C   UNL A   1      41.739  21.309  28.081  1.00  0.00     0.020 A 
ATOM     77  C   UNL A   1      42.076  21.085  26.745  1.00  0.00     0.054 A 
BRANCH  77  78
ATOM     78  S   UNL A   1      41.933  19.422  26.031  1.00  0.00     0.124 S 
ATOM     79  O   UNL A   1      42.794  19.520  24.858  1.00  0.00    -0.237 OA
ATOM     80  O   UNL A   1      42.426  18.570  27.111  1.00  0.00    -0.237 OA
ATOM     81  O   UNL A   1      40.504  19.294  25.753  1.00  0.00    -0.744 OA
ENDBRANCH  77  78
ENDBRANCH  49  72
BRANCH  61  82
ATOM     82  C   UNL A   1      47.589  26.832  31.177  1.00  0.00    -0.014 A 
ATOM     83  C   UNL A   1      47.757  26.125  32.382  1.00  0.00     0.010 A 
ATOM     84  C   UNL A   1      48.709  27.075  30.361  1.00  0.00     0.010 A 
ATOM     85  C   UNL A   1      49.029  25.714  32.786  1.00  0.00     0.020 A 
ATOM     86  C   UNL A   1      49.979  26.642  30.749  1.00  0.00     0.020 A 
ATOM     87  C   UNL A   1      50.133  25.982  31.971  1.00  0.00     0.054 A 
BRANCH  87  88
ATOM     88  S   UNL A   1      51.775  25.430  32.508  1.00  0.00     0.124 S 
ATOM     89  O   UNL A   1      51.777  24.032  32.084  1.00  0.00    -0.237 OA
ATOM     90  O   UNL A   1      52.671  26.313  31.767  1.00  0.00    -0.237 OA
ATOM     91  O   UNL A   1      51.755  25.642  33.953  1.00  0.00    -0.744 OA
ENDBRANCH  87  88
ENDBRANCH  61  82
ENDBRANCH  35  36
ENDBRANCH  27  30
ENDBRANCH  25  26
ENDBRANCH  24  25
ENDBRANCH   1  24
TORSDOF 17
ENDMDL
MODEL 3
REMARK VINA RESULT:     -11.4      4.893     12.088
REMARK SMILES [NH3+][C@H]1COC[C@@H]1C(=O)NC1(CC(=O)NCCCNC(=O)c2ccc(-c3c4nc(c(-c5ccc(S(=O)(=O)[O-])cc5)c5ccc([nH]5)c(-c5ccc(S(=O)(=O)[O-])cc5)c5nc(c(-c6ccc(S(=O)(=O)[O-])cc6)c6ccc3[nH]6)C=C5)C=C4)cc2)CCC1
REMARK SMILES IDX 15 1 14 2 12 3 13 4 11 6 10 7 81 8 83 9 82 10 9 11 7 12 8 13
REMARK SMILES IDX 6 15 2 16 3 17 4 18 5 19 1 20 16 24 17 25 18 26 19 27 20 29
REMARK SMILES IDX 21 30 22 31 80 32 23 33 79 34 24 35 25 36 26 37 73 38 27 39
REMARK SMILES IDX 78 40 72 41 74 42 28 43 77 44 71 45 70 46 29 48 59 49 40 50
REMARK SMILES IDX 58 51 41 52 44 53 57 54 75 55 42 56 43 57 56 59 76 60 45 61
REMARK SMILES IDX 30 62 31 63 39 64 32 65 38 66 33 67 34 68 35 69 36 70 37 71
REMARK SMILES IDX 60 72 61 73 69 74 62 75 68 76 63 77 64 78 65 79 66 80 67 81
REMARK SMILES IDX 46 82 47 83 55 84 48 85 54 86 49 87 50 88 51 89 52 90 53 91
REMARK H PARENT 14 5 9 14 1 21 1 22 1 23 18 28 74 47 44 58
REMARK Flexibility Score: inf
ROOT
ATOM      1  C   UNL A   1      34.115  34.759  29.990  1.00  0.00     0.117 C 
ENDROOT
BRANCH   1   2
ATOM      2  N   UNL A   1      33.981  33.958  31.183  1.00  0.00    -0.356 N 
ATOM      3  C   UNL A   1      34.816  33.719  32.211  1.00  0.00     0.222 C 
ATOM      4  O   UNL A   1      34.286  33.224  33.215  1.00  0.00    -0.275 OA
ATOM      5  H   UNL A   1      33.114  33.498  31.259  1.00  0.00     0.163 HD
BRANCH   3   6
ATOM      6  C   UNL A   1      36.276  34.088  32.244  1.00  0.00     0.128 C 
BRANCH   6   7
ATOM      7  C   UNL A   1      37.417  33.266  31.620  1.00  0.00     0.049 C 
ATOM      8  C   UNL A   1      38.738  34.149  31.748  1.00  0.00     0.029 C 
ATOM      9  C   UNL A   1      37.710  33.365  30.067  1.00  0.00     0.029 C 
ATOM     10  C   UNL A   1      38.496  34.656  30.320  1.00  0.00     0.005 C 
BRANCH   7  11
ATOM     11  N   UNL A   1      37.755  31.892  32.116  1.00  0.00    -0.350 N 
ATOM     12  C   UNL A   1      38.293  31.257  33.193  1.00  0.00     0.232 C 
ATOM     13  O   UNL A   1      38.468  30.041  33.064  1.00  0.00    -0.274 OA
ATOM     14  H   UNL A   1      37.504  31.227  31.435  1.00  0.00     0.164 HD
BRANCH  12  15
ATOM     15  C   UNL A   1      38.690  31.966  34.459  1.00  0.00     0.164 C 
ATOM     16  C   UNL A   1      39.274  30.974  35.458  1.00  0.00     0.221 C 
ATOM     17  C   UNL A   1      38.105  30.745  36.422  1.00  0.00     0.225 C 
ATOM     18  O   UNL A   1      37.361  31.965  36.459  1.00  0.00    -0.374 OA
ATOM     19  C   UNL A   1      37.499  32.592  35.178  1.00  0.00     0.180 C 
BRANCH  16  20
ATOM     20  N   UNL A   1      40.455  31.477  36.183  1.00  0.00    -0.352 N 
ATOM     21  H   UNL A   1      40.239  32.384  36.597  1.00  0.00     0.344 HD
ATOM     22  H   UNL A   1      41.235  31.577  35.533  1.00  0.00     0.344 HD
ATOM     23  H   UNL A   1      40.708  30.819  36.919  1.00  0.00     0.344 HD
ENDBRANCH  16  20
ENDBRANCH  12  15
ENDBRANCH   7  11
ENDBRANCH   6   7
ENDBRANCH   3   6
ENDBRANCH   1   2
BRANCH   1  24
ATOM     24  C   UNL A   1      33.877  33.953  28.716  1.00  0.00     0.042 C 
BRANCH  24  25
ATOM     25  C   UNL A   1      34.788  32.739  28.559  1.00  0.00     0.118 C 
BRANCH  25  26
ATOM     26  N   UNL A   1      34.058  31.523  28.241  1.00  0.00    -0.352 N 
ATOM     27  C   UNL A   1      34.501  30.264  27.933  1.00  0.00     0.251 C 
ATOM     28  H   UNL A   1      33.079  31.620  28.249  1.00  0.00     0.163 HD
ATOM     29  O   UNL A   1      33.706  29.462  27.439  1.00  0.00    -0.269 OA
BRANCH  27  30
ATOM     30  C   UNL A   1      35.903  29.859  28.169  1.00  0.00     0.039 A 
ATOM     31  C   UNL A   1      36.277  29.437  29.449  1.00  0.00     0.014 A 
ATOM     32  C   UNL A   1      36.872  29.970  27.169  1.00  0.00     0.014 A 
ATOM     33  C   UNL A   1      37.605  29.095  29.711  1.00  0.00     0.010 A 
ATOM     34  C   UNL A   1      38.174  29.535  27.403  1.00  0.00     0.010 A 
ATOM     35  C   UNL A   1      38.563  29.123  28.685  1.00  0.00    -0.014 A 
BRANCH  35  36
ATOM     36  C   UNL A   1      39.986  28.787  28.949  1.00  0.00     0.031 A 
ATOM     37  C   UNL A   1      40.897  29.809  29.581  1.00  0.00     0.074 A 
ATOM     38  C   UNL A   1      40.467  27.582  28.586  1.00  0.00     0.049 A 
ATOM     39  N   UNL A   1      42.173  29.718  29.857  1.00  0.00    -0.248 NA
ATOM     40  C   UNL A   1      40.306  31.116  29.915  1.00  0.00     0.031 C 
ATOM     41  C   UNL A   1      39.700  26.525  27.923  1.00  0.00     0.029 A 
ATOM     42  N   UNL A   1      41.721  27.043  28.726  1.00  0.00    -0.354 N 
ATOM     43  C   UNL A   1      42.539  30.958  30.369  1.00  0.00     0.074 A 
ATOM     44  C   UNL A   1      41.366  31.802  30.315  1.00  0.00     0.031 C 
ATOM     45  C   UNL A   1      40.490  25.453  27.746  1.00  0.00     0.029 A 
ATOM     46  C   UNL A   1      41.824  25.756  28.254  1.00  0.00     0.049 A 
ATOM     47  H   UNL A   1      42.475  27.531  29.128  1.00  0.00     0.167 HD
ATOM     48  C   UNL A   1      43.737  31.356  30.865  1.00  0.00     0.031 A 
ATOM     49  C   UNL A   1      42.873  24.911  28.239  1.00  0.00     0.031 A 
ATOM     50  C   UNL A   1      44.893  30.505  30.949  1.00  0.00     0.049 A 
ATOM     51  C   UNL A   1      44.179  25.358  28.837  1.00  0.00     0.074 A 
ATOM     52  C   UNL A   1      46.137  30.790  31.484  1.00  0.00     0.029 A 
ATOM     53  N   UNL A   1      44.942  29.196  30.494  1.00  0.00    -0.354 N 
ATOM     54  N   UNL A   1      44.489  26.518  29.364  1.00  0.00    -0.248 NA
ATOM     55  C   UNL A   1      45.267  24.372  28.857  1.00  0.00     0.031 C 
ATOM     56  C   UNL A   1      46.949  29.662  31.323  1.00  0.00     0.029 A 
ATOM     57  C   UNL A   1      46.196  28.660  30.733  1.00  0.00     0.049 A 
ATOM     58  H   UNL A   1      44.196  28.718  30.066  1.00  0.00     0.167 HD
ATOM     59  C   UNL A   1      45.800  26.393  29.807  1.00  0.00     0.074 A 
ATOM     60  C   UNL A   1      46.217  25.038  29.499  1.00  0.00     0.031 C 
ATOM     61  C   UNL A   1      46.590  27.312  30.417  1.00  0.00     0.031 A 
BRANCH  48  62
ATOM     62  C   UNL A   1      43.846  32.775  31.358  1.00  0.00    -0.014 A 
ATOM     63  C   UNL A   1      44.095  33.838  30.470  1.00  0.00     0.010 A 
ATOM     64  C   UNL A   1      43.678  33.056  32.727  1.00  0.00     0.010 A 
ATOM     65  C   UNL A   1      44.224  35.145  30.945  1.00  0.00     0.020 A 
ATOM     66  C   UNL A   1      43.777  34.368  33.201  1.00  0.00     0.020 A 
ATOM     67  C   UNL A   1      44.070  35.402  32.310  1.00  0.00     0.054 A 
BRANCH  67  68
ATOM     68  S   UNL A   1      44.227  37.110  32.898  1.00  0.00     0.124 S 
ATOM     69  O   UNL A   1      43.034  37.253  33.728  1.00  0.00    -0.237 OA
ATOM     70  O   UNL A   1      45.496  37.086  33.622  1.00  0.00    -0.237 OA
ATOM     71  O   UNL A   1      44.231  37.901  31.670  1.00  0.00    -0.744 OA
ENDBRANCH  67  68
ENDBRANCH  48  62
BRANCH  49  72
ATOM     72  C   UNL A   1      42.716  23.543  27.677  1.00  0.00    -0.014 A 
ATOM     73  C   UNL A   1      43.102  23.268  26.354  1.00  0.00     0.010 A 
ATOM     74  C   UNL A   1      42.195  22.503  28.467  1.00  0.00     0.010 A 
ATOM     75  C   UNL A   1      42.955  21.982  25.824  1.00  0.00     0.020 A 
ATOM     76  C   UNL A   1      42.069  21.210  27.950  1.00  0.00     0.020 A 
ATOM     77  C   UNL A   1      42.439  20.962  26.627  1.00  0.00     0.054 A 
BRANCH  77  78
ATOM     78  S   UNL A   1      42.308  19.287  25.939  1.00  0.00     0.124 S 
ATOM     79  O   UNL A   1      42.829  18.469  27.029  1.00  0.00    -0.237 OA
ATOM     80  O   UNL A   1      40.875  19.162  25.680  1.00  0.00    -0.237 OA
ATOM     81  O   UNL A   1      43.144  19.345  24.742  1.00  0.00    -0.744 OA
ENDBRANCH  77  78
ENDBRANCH  49  72
BRANCH  61  82
ATOM     82  C   UNL A   1      47.967  26.867  30.825  1.00  0.00    -0.014 A 
ATOM     83  C   UNL A   1      49.081  27.075  29.991  1.00  0.00     0.010 A 
ATOM     84  C   UNL A   1      48.151  26.253  32.078  1.00  0.00     0.010 A 
ATOM     85  C   UNL A   1      50.346  26.630  30.382  1.00  0.00     0.020 A 
ATOM     86  C   UNL A   1      49.420  25.832  32.483  1.00  0.00     0.020 A 
ATOM     87  C   UNL A   1      50.506  26.005  31.622  1.00  0.00     0.054 A 
BRANCH  87  88
ATOM     88  S   UNL A   1      52.159  25.446  32.116  1.00  0.00     0.124 S 
ATOM     89  O   UNL A   1      52.923  25.639  30.886  1.00  0.00    -0.237 OA
ATOM     90  O   UNL A   1      52.492  26.352  33.212  1.00  0.00    -0.237 OA
ATOM     91  O   UNL A   1      51.951  24.054  32.508  1.00  0.00    -0.744 OA
ENDBRANCH  87  88
ENDBRANCH  61  82
ENDBRANCH  35  36
ENDBRANCH  27  30
ENDBRANCH  25  26
ENDBRANCH  24  25
ENDBRANCH   1  24
TORSDOF 17
ENDMDL
