MODEL 1
REMARK VINA RESULT:     -13.6      0.000      0.000
REMARK SMILES C[C@@H](Oc1ccc(/C=C2\C(=O)[NH+]=C(NCCCNC(=O)c3ccc(-c4c5nc(c(-c6ccc(S(=O)(=O)[O-])cc6)c6ccc([nH]6)c(-c6ccc(S(=O)(=O)[O-])cc6)c6nc(c(-c7ccc(S(=O)(=O)[O-])cc7)c7ccc4[nH]7)C=C6)C=C5)cc3)N(c3ccc4c(c3)OCO4)C2=O)cc1)C(=O)[O-]
REMARK SMILES IDX 16 1 15 2 14 3 8 4 9 5 10 6 91 7 11 8 12 9 81 10 92 11 13 12
REMARK SMILES IDX 7 15 4 16 5 17 94 18 6 19 93 20 3 21 2 22 1 23 95 24 96 25
REMARK SMILES IDX 97 26 82 27 83 28 87 29 84 30 86 31 85 32 88 33 90 34 89 35
REMARK SMILES IDX 17 36 18 37 19 38 20 40 21 41 22 42 80 43 23 44 79 45 24 46
REMARK SMILES IDX 25 47 26 48 73 49 27 50 78 51 72 52 74 53 28 54 77 55 71 56
REMARK SMILES IDX 70 57 29 59 59 60 40 61 58 62 41 63 44 64 57 65 75 66 42 67
REMARK SMILES IDX 43 68 56 70 76 71 45 72 30 73 31 74 39 75 32 76 38 77 33 78
REMARK SMILES IDX 34 79 35 80 36 81 37 82 60 83 61 84 69 85 62 86 68 87 63 88
REMARK SMILES IDX 64 89 65 90 66 91 67 92 46 93 47 94 55 95 48 96 54 97 49 98
REMARK SMILES IDX 50 99 51 100 52 101 53 102
REMARK H PARENT 12 13 14 14 18 39 74 58 44 69
REMARK Flexibility Score: inf
ROOT
ATOM      1  C   UNL A   1      37.657  23.367  25.687  1.00  0.00     0.059 C 
ENDROOT
BRANCH   1   2
ATOM      2  C   UNL A   1      36.437  24.239  25.424  1.00  0.00     0.199 C 
BRANCH   2   3
ATOM      3  N   UNL A   1      35.233  23.434  25.342  1.00  0.00    -0.277 N 
ATOM      4  C   UNL A   1      30.578  25.561  23.954  1.00  0.00     0.031 C 
ATOM      5  C   UNL A   1      31.547  25.036  24.729  1.00  0.00     0.138 C 
ATOM      6  C   UNL A   1      32.546  25.779  25.514  1.00  0.00     0.321 C 
ATOM      7  C   UNL A   1      31.626  23.564  24.789  1.00  0.00     0.328 C 
ATOM      8  O   UNL A   1      32.279  26.820  26.092  1.00  0.00    -0.250 OA
ATOM      9  N   UNL A   1      33.791  25.219  25.513  1.00  0.00    -0.210 N 
ATOM     10  N   UNL A   1      32.887  23.085  25.128  1.00  0.00    -0.162 N 
ATOM     11  O   UNL A   1      30.649  22.864  24.525  1.00  0.00    -0.249 OA
ATOM     12  C   UNL A   1      33.958  23.944  25.349  1.00  0.00     0.366 C 
ATOM     13  H   UNL A   1      34.579  25.795  25.639  1.00  0.00     0.270 HD
ATOM     14  H   UNL A   1      35.336  22.456  25.278  1.00  0.00     0.260 HD
BRANCH   4  15
ATOM     15  C   UNL A   1      30.278  26.961  23.623  1.00  0.00    -0.024 A 
ATOM     16  C   UNL A   1      29.539  29.568  22.864  1.00  0.00     0.120 A 
ATOM     17  C   UNL A   1      30.884  29.218  22.945  1.00  0.00     0.047 A 
ATOM     18  C   UNL A   1      28.562  28.608  23.106  1.00  0.00     0.047 A 
ATOM     19  C   UNL A   1      31.251  27.917  23.310  1.00  0.00     0.012 A 
ATOM     20  C   UNL A   1      28.929  27.320  23.498  1.00  0.00     0.012 A 
BRANCH  16  21
ATOM     21  O   UNL A   1      29.229  30.813  22.397  1.00  0.00    -0.485 OA
BRANCH  21  22
ATOM     22  C   UNL A   1      28.808  31.738  23.410  1.00  0.00     0.216 C 
ATOM     23  C   UNL A   1      27.377  31.470  23.868  1.00  0.00     0.059 C 
BRANCH  22  24
ATOM     24  C   UNL A   1      28.839  33.140  22.813  1.00  0.00     0.082 C 
ATOM     25  O   UNL A   1      29.405  34.112  23.294  1.00  0.00    -0.546 OA
ATOM     26  O   UNL A   1      28.081  33.288  21.705  1.00  0.00    -0.546 OA
ENDBRANCH  22  24
ENDBRANCH  21  22
ENDBRANCH  16  21
ENDBRANCH   4  15
BRANCH  10  27
ATOM     27  C   UNL A   1      33.054  21.676  25.099  1.00  0.00     0.115 A 
ATOM     28  C   UNL A   1      33.187  20.956  26.306  1.00  0.00     0.048 A 
ATOM     29  C   UNL A   1      32.949  21.008  23.872  1.00  0.00     0.094 A 
ATOM     30  C   UNL A   1      33.157  19.557  26.295  1.00  0.00     0.054 A 
ATOM     31  C   UNL A   1      32.910  19.635  23.901  1.00  0.00     0.169 A 
ATOM     32  C   UNL A   1      32.994  18.929  25.079  1.00  0.00     0.166 A 
ATOM     33  O   UNL A   1      32.730  18.829  22.820  1.00  0.00    -0.453 OA
ATOM     34  O   UNL A   1      32.851  17.590  24.879  1.00  0.00    -0.454 OA
ATOM     35  C   UNL A   1      32.489  17.571  23.482  1.00  0.00     0.468 C 
ENDBRANCH  10  27
ENDBRANCH   2   3
ENDBRANCH   1   2
BRANCH   1  36
ATOM     36  C   UNL A   1      38.641  23.960  26.690  1.00  0.00     0.119 C 
BRANCH  36  37
ATOM     37  N   UNL A   1      39.974  24.151  26.136  1.00  0.00    -0.352 N 
ATOM     38  C   UNL A   1      40.914  25.121  26.377  1.00  0.00     0.251 C 
ATOM     39  H   UNL A   1      40.247  23.470  25.478  1.00  0.00     0.163 HD
ATOM     40  O   UNL A   1      41.909  25.170  25.659  1.00  0.00    -0.269 OA
BRANCH  38  41
ATOM     41  C   UNL A   1      40.738  26.107  27.468  1.00  0.00     0.039 A 
ATOM     42  C   UNL A   1      39.784  25.840  28.453  1.00  0.00     0.014 A 
ATOM     43  C   UNL A   1      41.461  27.302  27.510  1.00  0.00     0.014 A 
ATOM     44  C   UNL A   1      39.595  26.743  29.502  1.00  0.00     0.010 A 
ATOM     45  C   UNL A   1      41.333  28.160  28.603  1.00  0.00     0.010 A 
ATOM     46  C   UNL A   1      40.394  27.895  29.608  1.00  0.00    -0.014 A 
BRANCH  46  47
ATOM     47  C   UNL A   1      40.259  28.797  30.783  1.00  0.00     0.031 A 
ATOM     48  C   UNL A   1      41.138  28.634  31.995  1.00  0.00     0.074 A 
ATOM     49  C   UNL A   1      39.319  29.764  30.760  1.00  0.00     0.049 A 
ATOM     50  N   UNL A   1      41.191  29.372  33.076  1.00  0.00    -0.248 NA
ATOM     51  C   UNL A   1      42.061  27.489  32.008  1.00  0.00     0.031 C 
ATOM     52  C   UNL A   1      38.364  29.988  29.671  1.00  0.00     0.029 A 
ATOM     53  N   UNL A   1      39.019  30.747  31.670  1.00  0.00    -0.354 N 
ATOM     54  C   UNL A   1      42.145  28.779  33.896  1.00  0.00     0.074 A 
ATOM     55  C   UNL A   1      42.604  27.590  33.212  1.00  0.00     0.031 C 
ATOM     56  C   UNL A   1      37.623  31.071  29.952  1.00  0.00     0.029 A 
ATOM     57  C   UNL A   1      38.017  31.594  31.254  1.00  0.00     0.049 A 
ATOM     58  H   UNL A   1      39.477  30.838  32.536  1.00  0.00     0.167 HD
ATOM     59  C   UNL A   1      42.614  29.197  35.097  1.00  0.00     0.031 A 
ATOM     60  C   UNL A   1      37.480  32.676  31.849  1.00  0.00     0.031 A 
ATOM     61  C   UNL A   1      42.152  30.380  35.777  1.00  0.00     0.049 A 
ATOM     62  C   UNL A   1      38.020  33.123  33.180  1.00  0.00     0.074 A 
ATOM     63  C   UNL A   1      42.599  30.917  36.972  1.00  0.00     0.029 A 
ATOM     64  N   UNL A   1      41.134  31.209  35.327  1.00  0.00    -0.354 N 
ATOM     65  N   UNL A   1      38.978  32.590  33.902  1.00  0.00    -0.248 NA
ATOM     66  C   UNL A   1      37.420  34.329  33.764  1.00  0.00     0.031 C 
ATOM     67  C   UNL A   1      41.811  32.033  37.275  1.00  0.00     0.029 A 
ATOM     68  C   UNL A   1      40.921  32.235  36.233  1.00  0.00     0.049 A 
ATOM     69  H   UNL A   1      40.635  31.085  34.488  1.00  0.00     0.167 HD
ATOM     70  C   UNL A   1      39.115  33.416  35.014  1.00  0.00     0.074 A 
ATOM     71  C   UNL A   1      38.160  34.494  34.851  1.00  0.00     0.031 C 
ATOM     72  C   UNL A   1      39.955  33.294  36.072  1.00  0.00     0.031 A 
BRANCH  59  73
ATOM     73  C   UNL A   1      43.681  28.362  35.761  1.00  0.00    -0.014 A 
ATOM     74  C   UNL A   1      45.048  28.646  35.581  1.00  0.00     0.010 A 
ATOM     75  C   UNL A   1      43.313  27.307  36.618  1.00  0.00     0.010 A 
ATOM     76  C   UNL A   1      46.024  27.867  36.209  1.00  0.00     0.020 A 
ATOM     77  C   UNL A   1      44.286  26.546  37.274  1.00  0.00     0.020 A 
ATOM     78  C   UNL A   1      45.637  26.822  37.051  1.00  0.00     0.054 A 
BRANCH  78  79
ATOM     79  S   UNL A   1      46.927  25.846  37.873  1.00  0.00     0.124 S 
ATOM     80  O   UNL A   1      47.908  26.872  38.216  1.00  0.00    -0.237 OA
ATOM     81  O   UNL A   1      46.212  25.258  39.002  1.00  0.00    -0.237 OA
ATOM     82  O   UNL A   1      47.352  24.898  36.846  1.00  0.00    -0.744 OA
ENDBRANCH  78  79
ENDBRANCH  59  73
BRANCH  60  83
ATOM     83  C   UNL A   1      36.385  33.428  31.176  1.00  0.00    -0.014 A 
ATOM     84  C   UNL A   1      36.582  34.002  29.908  1.00  0.00     0.010 A 
ATOM     85  C   UNL A   1      35.130  33.563  31.799  1.00  0.00     0.010 A 
ATOM     86  C   UNL A   1      35.554  34.718  29.285  1.00  0.00     0.020 A 
ATOM     87  C   UNL A   1      34.090  34.248  31.165  1.00  0.00     0.020 A 
ATOM     88  C   UNL A   1      34.313  34.833  29.917  1.00  0.00     0.054 A 
BRANCH  88  89
ATOM     89  S   UNL A   1      32.979  35.723  29.070  1.00  0.00     0.124 S 
ATOM     90  O   UNL A   1      33.714  36.756  28.348  1.00  0.00    -0.237 OA
ATOM     91  O   UNL A   1      32.378  34.678  28.245  1.00  0.00    -0.237 OA
ATOM     92  O   UNL A   1      32.138  36.202  30.166  1.00  0.00    -0.744 OA
ENDBRANCH  88  89
ENDBRANCH  60  83
BRANCH  72  93
ATOM     93  C   UNL A   1      39.899  34.377  37.119  1.00  0.00    -0.014 A 
ATOM     94  C   UNL A   1      39.117  34.238  38.282  1.00  0.00     0.010 A 
ATOM     95  C   UNL A   1      40.640  35.559  36.933  1.00  0.00     0.010 A 
ATOM     96  C   UNL A   1      39.024  35.287  39.201  1.00  0.00     0.020 A 
ATOM     97  C   UNL A   1      40.578  36.594  37.868  1.00  0.00     0.020 A 
ATOM     98  C   UNL A   1      39.749  36.463  38.982  1.00  0.00     0.054 A 
BRANCH  98  99
ATOM     99  S   UNL A   1      39.600  37.816  40.181  1.00  0.00     0.124 S 
ATOM    100  O   UNL A   1      39.179  37.108  41.386  1.00  0.00    -0.237 OA
ATOM    101  O   UNL A   1      40.954  38.365  40.214  1.00  0.00    -0.237 OA
ATOM    102  O   UNL A   1      38.593  38.693  39.589  1.00  0.00    -0.744 OA
ENDBRANCH  98  99
ENDBRANCH  72  93
ENDBRANCH  46  47
ENDBRANCH  38  41
ENDBRANCH  36  37
ENDBRANCH   1  36
TORSDOF 17
ENDMDL
MODEL 2
REMARK VINA RESULT:     -13.3      6.001      8.005
REMARK SMILES C[C@@H](Oc1ccc(/C=C2\C(=O)[NH+]=C(NCCCNC(=O)c3ccc(-c4c5nc(c(-c6ccc(S(=O)(=O)[O-])cc6)c6ccc([nH]6)c(-c6ccc(S(=O)(=O)[O-])cc6)c6nc(c(-c7ccc(S(=O)(=O)[O-])cc7)c7ccc4[nH]7)C=C6)C=C5)cc3)N(c3ccc4c(c3)OCO4)C2=O)cc1)C(=O)[O-]
REMARK SMILES IDX 16 1 15 2 14 3 8 4 9 5 10 6 91 7 11 8 12 9 81 10 92 11 13 12
REMARK SMILES IDX 7 15 4 16 5 17 94 18 6 19 93 20 3 21 2 22 1 23 95 24 96 25
REMARK SMILES IDX 97 26 82 27 83 28 87 29 84 30 86 31 85 32 88 33 90 34 89 35
REMARK SMILES IDX 17 36 18 37 19 38 20 40 21 41 22 42 80 43 23 44 79 45 24 46
REMARK SMILES IDX 25 47 26 48 73 49 27 50 78 51 72 52 74 53 28 54 77 55 71 56
REMARK SMILES IDX 70 57 29 59 59 60 40 61 58 62 41 63 44 64 57 65 75 66 42 67
REMARK SMILES IDX 43 68 56 70 76 71 45 72 30 73 31 74 39 75 32 76 38 77 33 78
REMARK SMILES IDX 34 79 35 80 36 81 37 82 60 83 61 84 69 85 62 86 68 87 63 88
REMARK SMILES IDX 64 89 65 90 66 91 67 92 46 93 47 94 55 95 48 96 54 97 49 98
REMARK SMILES IDX 50 99 51 100 52 101 53 102
REMARK H PARENT 12 13 14 14 18 39 74 58 44 69
REMARK Flexibility Score: inf
ROOT
ATOM      1  C   UNL A   1      38.110  19.882  25.207  1.00  0.00     0.059 C 
ENDROOT
BRANCH   1   2
ATOM      2  C   UNL A   1      37.166  20.932  24.637  1.00  0.00     0.199 C 
BRANCH   2   3
ATOM      3  N   UNL A   1      35.785  20.505  24.754  1.00  0.00    -0.277 N 
ATOM      4  C   UNL A   1      31.830  24.020  25.118  1.00  0.00     0.031 C 
ATOM      5  C   UNL A   1      32.733  23.090  25.486  1.00  0.00     0.138 C 
ATOM      6  C   UNL A   1      34.058  23.335  26.080  1.00  0.00     0.321 C 
ATOM      7  C   UNL A   1      32.365  21.680  25.261  1.00  0.00     0.328 C 
ATOM      8  O   UNL A   1      34.257  24.231  26.884  1.00  0.00    -0.250 OA
ATOM      9  N   UNL A   1      35.038  22.497  25.633  1.00  0.00    -0.210 N 
ATOM     10  N   UNL A   1      33.458  20.828  25.144  1.00  0.00    -0.162 N 
ATOM     11  O   UNL A   1      31.186  21.339  25.161  1.00  0.00    -0.249 OA
ATOM     12  C   UNL A   1      34.763  21.303  25.206  1.00  0.00     0.366 C 
ATOM     13  H   UNL A   1      35.973  22.804  25.634  1.00  0.00     0.270 HD
ATOM     14  H   UNL A   1      35.564  19.582  24.492  1.00  0.00     0.260 HD
BRANCH   4  15
ATOM     15  C   UNL A   1      31.914  25.488  25.137  1.00  0.00    -0.024 A 
ATOM     16  C   UNL A   1      32.290  28.275  25.134  1.00  0.00     0.120 A 
ATOM     17  C   UNL A   1      31.460  27.684  26.081  1.00  0.00     0.047 A 
ATOM     18  C   UNL A   1      32.976  27.478  24.225  1.00  0.00     0.047 A 
ATOM     19  C   UNL A   1      31.283  26.295  26.091  1.00  0.00     0.012 A 
ATOM     20  C   UNL A   1      32.778  26.096  24.217  1.00  0.00     0.012 A 
BRANCH  16  21
ATOM     21  O   UNL A   1      32.519  29.618  25.233  1.00  0.00    -0.485 OA
BRANCH  21  22
ATOM     22  C   UNL A   1      32.239  30.173  26.527  1.00  0.00     0.216 C 
ATOM     23  C   UNL A   1      31.370  31.424  26.436  1.00  0.00     0.059 C 
BRANCH  22  24
ATOM     24  C   UNL A   1      33.562  30.584  27.163  1.00  0.00     0.082 C 
ATOM     25  O   UNL A   1      34.536  29.862  27.322  1.00  0.00    -0.546 OA
ATOM     26  O   UNL A   1      33.572  31.839  27.661  1.00  0.00    -0.546 OA
ENDBRANCH  22  24
ENDBRANCH  21  22
ENDBRANCH  16  21
ENDBRANCH   4  15
BRANCH  10  27
ATOM     27  C   UNL A   1      33.171  19.476  24.822  1.00  0.00     0.115 A 
ATOM     28  C   UNL A   1      33.260  19.035  23.483  1.00  0.00     0.048 A 
ATOM     29  C   UNL A   1      32.933  18.568  25.862  1.00  0.00     0.094 A 
ATOM     30  C   UNL A   1      33.169  17.671  23.186  1.00  0.00     0.054 A 
ATOM     31  C   UNL A   1      32.862  17.236  25.536  1.00  0.00     0.169 A 
ATOM     32  C   UNL A   1      32.994  16.796  24.238  1.00  0.00     0.166 A 
ATOM     33  O   UNL A   1      32.719  16.214  26.422  1.00  0.00    -0.453 OA
ATOM     34  O   UNL A   1      32.973  15.438  24.158  1.00  0.00    -0.454 OA
ATOM     35  C   UNL A   1      33.000  15.093  25.559  1.00  0.00     0.468 C 
ENDBRANCH  10  27
ENDBRANCH   2   3
ENDBRANCH   1   2
BRANCH   1  36
ATOM     36  C   UNL A   1      39.240  20.455  26.054  1.00  0.00     0.119 C 
BRANCH  36  37
ATOM     37  N   UNL A   1      40.407  19.587  26.110  1.00  0.00    -0.352 N 
ATOM     38  C   UNL A   1      41.741  19.886  26.235  1.00  0.00     0.251 C 
ATOM     39  H   UNL A   1      40.207  18.624  26.048  1.00  0.00     0.163 HD
ATOM     40  O   UNL A   1      42.564  18.985  26.087  1.00  0.00    -0.269 OA
BRANCH  38  41
ATOM     41  C   UNL A   1      42.196  21.265  26.524  1.00  0.00     0.039 A 
ATOM     42  C   UNL A   1      42.447  21.613  27.854  1.00  0.00     0.014 A 
ATOM     43  C   UNL A   1      42.336  22.225  25.519  1.00  0.00     0.014 A 
ATOM     44  C   UNL A   1      42.886  22.902  28.165  1.00  0.00     0.010 A 
ATOM     45  C   UNL A   1      42.857  23.484  25.820  1.00  0.00     0.010 A 
ATOM     46  C   UNL A   1      43.131  23.840  27.147  1.00  0.00    -0.014 A 
BRANCH  46  47
ATOM     47  C   UNL A   1      43.696  25.176  27.478  1.00  0.00     0.031 A 
ATOM     48  C   UNL A   1      45.146  25.493  27.218  1.00  0.00     0.074 A 
ATOM     49  C   UNL A   1      42.894  26.106  28.034  1.00  0.00     0.049 A 
ATOM     50  N   UNL A   1      45.783  26.624  27.391  1.00  0.00    -0.248 NA
ATOM     51  C   UNL A   1      45.995  24.400  26.722  1.00  0.00     0.031 C 
ATOM     52  C   UNL A   1      41.487  25.904  28.391  1.00  0.00     0.029 A 
ATOM     53  N   UNL A   1      43.140  27.411  28.384  1.00  0.00    -0.354 N 
ATOM     54  C   UNL A   1      47.103  26.378  27.030  1.00  0.00     0.074 A 
ATOM     55  C   UNL A   1      47.188  24.976  26.684  1.00  0.00     0.031 C 
ATOM     56  C   UNL A   1      40.982  27.057  28.858  1.00  0.00     0.029 A 
ATOM     57  C   UNL A   1      42.035  28.066  28.875  1.00  0.00     0.049 A 
ATOM     58  H   UNL A   1      44.022  27.836  28.293  1.00  0.00     0.167 HD
ATOM     59  C   UNL A   1      48.144  27.243  26.970  1.00  0.00     0.031 A 
ATOM     60  C   UNL A   1      41.879  29.340  29.285  1.00  0.00     0.031 A 
ATOM     61  C   UNL A   1      48.058  28.638  27.319  1.00  0.00     0.049 A 
ATOM     62  C   UNL A   1      43.049  30.281  29.204  1.00  0.00     0.074 A 
ATOM     63  C   UNL A   1      49.042  29.608  27.244  1.00  0.00     0.029 A 
ATOM     64  N   UNL A   1      46.923  29.263  27.816  1.00  0.00    -0.354 N 
ATOM     65  N   UNL A   1      44.271  30.046  28.785  1.00  0.00    -0.248 NA
ATOM     66  C   UNL A   1      42.811  31.666  29.631  1.00  0.00     0.031 C 
ATOM     67  C   UNL A   1      48.522  30.803  27.752  1.00  0.00     0.029 A 
ATOM     68  C   UNL A   1      47.191  30.597  28.076  1.00  0.00     0.049 A 
ATOM     69  H   UNL A   1      46.055  28.823  27.964  1.00  0.00     0.167 HD
ATOM     70  C   UNL A   1      44.940  31.262  28.873  1.00  0.00     0.074 A 
ATOM     71  C   UNL A   1      43.978  32.232  29.357  1.00  0.00     0.031 C 
ATOM     72  C   UNL A   1      46.232  31.551  28.577  1.00  0.00     0.031 A 
BRANCH  59  73
ATOM     73  C   UNL A   1      49.478  26.702  26.515  1.00  0.00    -0.014 A 
ATOM     74  C   UNL A   1      50.348  26.055  27.413  1.00  0.00     0.010 A 
ATOM     75  C   UNL A   1      49.848  26.798  25.160  1.00  0.00     0.010 A 
ATOM     76  C   UNL A   1      51.576  25.552  26.976  1.00  0.00     0.020 A 
ATOM     77  C   UNL A   1      51.062  26.267  24.712  1.00  0.00     0.020 A 
ATOM     78  C   UNL A   1      51.926  25.662  25.627  1.00  0.00     0.054 A 
BRANCH  78  79
ATOM     79  S   UNL A   1      53.515  24.977  25.084  1.00  0.00     0.124 S 
ATOM     80  O   UNL A   1      53.287  23.540  25.221  1.00  0.00    -0.237 OA
ATOM     81  O   UNL A   1      53.623  25.467  23.713  1.00  0.00    -0.237 OA
ATOM     82  O   UNL A   1      54.478  25.545  26.024  1.00  0.00    -0.744 OA
ENDBRANCH  78  79
ENDBRANCH  59  73
BRANCH  60  83
ATOM     83  C   UNL A   1      40.555  29.804  29.783  1.00  0.00    -0.014 A 
ATOM     84  C   UNL A   1      39.523  30.129  28.885  1.00  0.00     0.010 A 
ATOM     85  C   UNL A   1      40.316  29.912  31.166  1.00  0.00     0.010 A 
ATOM     86  C   UNL A   1      38.286  30.576  29.359  1.00  0.00     0.020 A 
ATOM     87  C   UNL A   1      39.070  30.326  31.643  1.00  0.00     0.020 A 
ATOM     88  C   UNL A   1      38.066  30.668  30.736  1.00  0.00     0.054 A 
BRANCH  88  89
ATOM     89  S   UNL A   1      36.437  31.204  31.328  1.00  0.00     0.124 S 
ATOM     90  O   UNL A   1      35.726  31.453  30.079  1.00  0.00    -0.237 OA
ATOM     91  O   UNL A   1      35.986  30.046  32.096  1.00  0.00    -0.237 OA
ATOM     92  O   UNL A   1      36.738  32.392  32.126  1.00  0.00    -0.744 OA
ENDBRANCH  88  89
ENDBRANCH  60  83
BRANCH  72  93
ATOM     93  C   UNL A   1      46.667  32.985  28.739  1.00  0.00    -0.014 A 
ATOM     94  C   UNL A   1      46.432  33.945  27.736  1.00  0.00     0.010 A 
ATOM     95  C   UNL A   1      47.327  33.379  29.919  1.00  0.00     0.010 A 
ATOM     96  C   UNL A   1      46.911  35.250  27.880  1.00  0.00     0.020 A 
ATOM     97  C   UNL A   1      47.773  34.693  30.082  1.00  0.00     0.020 A 
ATOM     98  C   UNL A   1      47.587  35.613  29.049  1.00  0.00     0.054 A 
BRANCH  98  99
ATOM     99  S   UNL A   1      48.211  37.308  29.207  1.00  0.00     0.124 S 
ATOM    100  O   UNL A   1      47.853  37.885  27.914  1.00  0.00    -0.237 OA
ATOM    101  O   UNL A   1      47.464  37.821  30.353  1.00  0.00    -0.237 OA
ATOM    102  O   UNL A   1      49.644  37.130  29.434  1.00  0.00    -0.744 OA
ENDBRANCH  98  99
ENDBRANCH  72  93
ENDBRANCH  46  47
ENDBRANCH  38  41
ENDBRANCH  36  37
ENDBRANCH   1  36
TORSDOF 17
ENDMDL
MODEL 3
REMARK VINA RESULT:     -13.0      5.888      7.774
REMARK SMILES C[C@@H](Oc1ccc(/C=C2\C(=O)[NH+]=C(NCCCNC(=O)c3ccc(-c4c5nc(c(-c6ccc(S(=O)(=O)[O-])cc6)c6ccc([nH]6)c(-c6ccc(S(=O)(=O)[O-])cc6)c6nc(c(-c7ccc(S(=O)(=O)[O-])cc7)c7ccc4[nH]7)C=C6)C=C5)cc3)N(c3ccc4c(c3)OCO4)C2=O)cc1)C(=O)[O-]
REMARK SMILES IDX 16 1 15 2 14 3 8 4 9 5 10 6 91 7 11 8 12 9 81 10 92 11 13 12
REMARK SMILES IDX 7 15 4 16 5 17 94 18 6 19 93 20 3 21 2 22 1 23 95 24 96 25
REMARK SMILES IDX 97 26 82 27 83 28 87 29 84 30 86 31 85 32 88 33 90 34 89 35
REMARK SMILES IDX 17 36 18 37 19 38 20 40 21 41 22 42 80 43 23 44 79 45 24 46
REMARK SMILES IDX 25 47 26 48 73 49 27 50 78 51 72 52 74 53 28 54 77 55 71 56
REMARK SMILES IDX 70 57 29 59 59 60 40 61 58 62 41 63 44 64 57 65 75 66 42 67
REMARK SMILES IDX 43 68 56 70 76 71 45 72 30 73 31 74 39 75 32 76 38 77 33 78
REMARK SMILES IDX 34 79 35 80 36 81 37 82 60 83 61 84 69 85 62 86 68 87 63 88
REMARK SMILES IDX 64 89 65 90 66 91 67 92 46 93 47 94 55 95 48 96 54 97 49 98
REMARK SMILES IDX 50 99 51 100 52 101 53 102
REMARK H PARENT 12 13 14 14 18 39 74 58 44 69
REMARK Flexibility Score: inf
ROOT
ATOM      1  C   UNL A   1      37.693  20.673  24.933  1.00  0.00     0.059 C 
ENDROOT
BRANCH   1   2
ATOM      2  C   UNL A   1      36.634  21.751  24.750  1.00  0.00     0.199 C 
BRANCH   2   3
ATOM      3  N   UNL A   1      35.307  21.169  24.683  1.00  0.00    -0.277 N 
ATOM      4  C   UNL A   1      31.000  24.181  23.970  1.00  0.00     0.031 C 
ATOM      5  C   UNL A   1      31.916  23.411  24.590  1.00  0.00     0.138 C 
ATOM      6  C   UNL A   1      33.079  23.875  25.363  1.00  0.00     0.321 C 
ATOM      7  C   UNL A   1      31.746  21.950  24.472  1.00  0.00     0.328 C 
ATOM      8  O   UNL A   1      33.035  24.862  26.080  1.00  0.00    -0.250 OA
ATOM      9  N   UNL A   1      34.207  23.127  25.187  1.00  0.00    -0.210 N 
ATOM     10  N   UNL A   1      32.926  21.234  24.640  1.00  0.00    -0.162 N 
ATOM     11  O   UNL A   1      30.648  21.457  24.217  1.00  0.00    -0.249 OA
ATOM     12  C   UNL A   1      34.142  21.873  24.862  1.00  0.00     0.366 C 
ATOM     13  H   UNL A   1      35.089  23.547  25.308  1.00  0.00     0.270 HD
ATOM     14  H   UNL A   1      35.236  20.204  24.498  1.00  0.00     0.260 HD
BRANCH   4  15
ATOM     15  C   UNL A   1      30.923  25.642  23.832  1.00  0.00    -0.024 A 
ATOM     16  C   UNL A   1      30.555  28.419  23.566  1.00  0.00     0.120 A 
ATOM     17  C   UNL A   1      31.553  27.774  22.843  1.00  0.00     0.047 A 
ATOM     18  C   UNL A   1      29.705  27.677  24.379  1.00  0.00     0.047 A 
ATOM     19  C   UNL A   1      31.728  26.390  22.965  1.00  0.00     0.012 A 
ATOM     20  C   UNL A   1      29.897  26.302  24.522  1.00  0.00     0.012 A 
BRANCH  16  21
ATOM     21  O   UNL A   1      30.351  29.748  23.330  1.00  0.00    -0.485 OA
BRANCH  21  22
ATOM     22  C   UNL A   1      29.049  30.066  22.815  1.00  0.00     0.216 C 
ATOM     23  C   UNL A   1      29.100  30.470  21.344  1.00  0.00     0.059 C 
BRANCH  22  24
ATOM     24  C   UNL A   1      28.508  31.258  23.596  1.00  0.00     0.082 C 
ATOM     25  O   UNL A   1      29.170  32.188  24.033  1.00  0.00    -0.546 OA
ATOM     26  O   UNL A   1      27.190  31.181  23.881  1.00  0.00    -0.546 OA
ENDBRANCH  22  24
ENDBRANCH  21  22
ENDBRANCH  16  21
ENDBRANCH   4  15
BRANCH  10  27
ATOM     27  C   UNL A   1      32.847  19.832  24.434  1.00  0.00     0.115 A 
ATOM     28  C   UNL A   1      32.736  19.317  23.124  1.00  0.00     0.048 A 
ATOM     29  C   UNL A   1      33.016  18.977  25.531  1.00  0.00     0.094 A 
ATOM     30  C   UNL A   1      32.852  17.940  22.900  1.00  0.00     0.054 A 
ATOM     31  C   UNL A   1      33.140  17.634  25.272  1.00  0.00     0.169 A 
ATOM     32  C   UNL A   1      33.077  17.130  23.993  1.00  0.00     0.166 A 
ATOM     33  O   UNL A   1      33.390  16.672  26.202  1.00  0.00    -0.453 OA
ATOM     34  O   UNL A   1      33.306  15.789  23.965  1.00  0.00    -0.454 OA
ATOM     35  C   UNL A   1      33.695  15.560  25.336  1.00  0.00     0.468 C 
ENDBRANCH  10  27
ENDBRANCH   2   3
ENDBRANCH   1   2
BRANCH   1  36
ATOM     36  C   UNL A   1      38.915  21.129  25.721  1.00  0.00     0.119 C 
BRANCH  36  37
ATOM     37  N   UNL A   1      39.863  20.053  25.976  1.00  0.00    -0.352 N 
ATOM     38  C   UNL A   1      41.193  20.092  26.309  1.00  0.00     0.251 C 
ATOM     39  H   UNL A   1      39.486  19.147  25.897  1.00  0.00     0.163 HD
ATOM     40  O   UNL A   1      41.832  19.043  26.309  1.00  0.00    -0.269 OA
BRANCH  38  41
ATOM     41  C   UNL A   1      41.864  21.368  26.648  1.00  0.00     0.039 A 
ATOM     42  C   UNL A   1      42.144  22.264  25.612  1.00  0.00     0.014 A 
ATOM     43  C   UNL A   1      42.260  21.674  27.952  1.00  0.00     0.014 A 
ATOM     44  C   UNL A   1      42.768  23.481  25.893  1.00  0.00     0.010 A 
ATOM     45  C   UNL A   1      42.804  22.925  28.245  1.00  0.00     0.010 A 
ATOM     46  C   UNL A   1      43.072  23.841  27.218  1.00  0.00    -0.014 A 
BRANCH  46  47
ATOM     47  C   UNL A   1      43.641  25.181  27.520  1.00  0.00     0.031 A 
ATOM     48  C   UNL A   1      45.089  25.491  27.243  1.00  0.00     0.074 A 
ATOM     49  C   UNL A   1      42.845  26.122  28.066  1.00  0.00     0.049 A 
ATOM     50  N   UNL A   1      45.729  26.624  27.391  1.00  0.00    -0.248 NA
ATOM     51  C   UNL A   1      45.933  24.388  26.760  1.00  0.00     0.031 C 
ATOM     52  C   UNL A   1      41.440  25.929  28.438  1.00  0.00     0.029 A 
ATOM     53  N   UNL A   1      43.095  27.433  28.391  1.00  0.00    -0.354 N 
ATOM     54  C   UNL A   1      47.046  26.370  27.024  1.00  0.00     0.074 A 
ATOM     55  C   UNL A   1      47.126  24.962  26.702  1.00  0.00     0.031 C 
ATOM     56  C   UNL A   1      40.941  27.090  28.889  1.00  0.00     0.029 A 
ATOM     57  C   UNL A   1      41.995  28.098  28.879  1.00  0.00     0.049 A 
ATOM     58  H   UNL A   1      43.977  27.855  28.285  1.00  0.00     0.167 HD
ATOM     59  C   UNL A   1      48.088  27.232  26.940  1.00  0.00     0.031 A 
ATOM     60  C   UNL A   1      41.844  29.379  29.268  1.00  0.00     0.031 A 
ATOM     61  C   UNL A   1      48.006  28.633  27.266  1.00  0.00     0.049 A 
ATOM     62  C   UNL A   1      43.015  30.317  29.162  1.00  0.00     0.074 A 
ATOM     63  C   UNL A   1      48.991  29.601  27.166  1.00  0.00     0.029 A 
ATOM     64  N   UNL A   1      46.876  29.269  27.761  1.00  0.00    -0.354 N 
ATOM     65  N   UNL A   1      44.233  30.072  28.737  1.00  0.00    -0.248 NA
ATOM     66  C   UNL A   1      42.782  31.709  29.566  1.00  0.00     0.031 C 
ATOM     67  C   UNL A   1      48.477  30.805  27.657  1.00  0.00     0.029 A 
ATOM     68  C   UNL A   1      47.148  30.607  27.995  1.00  0.00     0.049 A 
ATOM     69  H   UNL A   1      46.009  28.833  27.923  1.00  0.00     0.167 HD
ATOM     70  C   UNL A   1      44.904  31.289  28.798  1.00  0.00     0.074 A 
ATOM     71  C   UNL A   1      43.948  32.268  29.273  1.00  0.00     0.031 C 
ATOM     72  C   UNL A   1      46.194  31.571  28.486  1.00  0.00     0.031 A 
BRANCH  59  73
ATOM     73  C   UNL A   1      49.417  26.681  26.485  1.00  0.00    -0.014 A 
ATOM     74  C   UNL A   1      49.823  26.774  25.140  1.00  0.00     0.010 A 
ATOM     75  C   UNL A   1      50.296  26.106  27.422  1.00  0.00     0.010 A 
ATOM     76  C   UNL A   1      51.060  26.265  24.735  1.00  0.00     0.020 A 
ATOM     77  C   UNL A   1      51.549  25.626  27.027  1.00  0.00     0.020 A 
ATOM     78  C   UNL A   1      51.916  25.694  25.681  1.00  0.00     0.054 A 
BRANCH  78  79
ATOM     79  S   UNL A   1      53.526  25.067  25.129  1.00  0.00     0.124 S 
ATOM     80  O   UNL A   1      54.438  25.710  26.072  1.00  0.00    -0.237 OA
ATOM     81  O   UNL A   1      53.377  23.624  25.285  1.00  0.00    -0.237 OA
ATOM     82  O   UNL A   1      53.627  25.535  23.749  1.00  0.00    -0.744 OA
ENDBRANCH  78  79
ENDBRANCH  59  73
BRANCH  60  83
ATOM     83  C   UNL A   1      40.525  29.854  29.769  1.00  0.00    -0.014 A 
ATOM     84  C   UNL A   1      40.290  30.000  31.148  1.00  0.00     0.010 A 
ATOM     85  C   UNL A   1      39.496  30.174  28.864  1.00  0.00     0.010 A 
ATOM     86  C   UNL A   1      39.045  30.434  31.613  1.00  0.00     0.020 A 
ATOM     87  C   UNL A   1      38.262  30.641  29.324  1.00  0.00     0.020 A 
ATOM     88  C   UNL A   1      38.040  30.756  30.697  1.00  0.00     0.054 A 
BRANCH  88  89
ATOM     89  S   UNL A   1      36.449  31.364  31.321  1.00  0.00     0.124 S 
ATOM     90  O   UNL A   1      35.706  31.596  30.086  1.00  0.00    -0.237 OA
ATOM     91  O   UNL A   1      35.985  30.247  32.140  1.00  0.00    -0.237 OA
ATOM     92  O   UNL A   1      36.812  32.566  32.069  1.00  0.00    -0.744 OA
ENDBRANCH  88  89
ENDBRANCH  60  83
BRANCH  72  93
ATOM     93  C   UNL A   1      46.632  33.007  28.620  1.00  0.00    -0.014 A 
ATOM     94  C   UNL A   1      46.443  33.935  27.579  1.00  0.00     0.010 A 
ATOM     95  C   UNL A   1      47.249  33.435  29.811  1.00  0.00     0.010 A 
ATOM     96  C   UNL A   1      46.925  35.242  27.700  1.00  0.00     0.020 A 
ATOM     97  C   UNL A   1      47.698  34.750  29.950  1.00  0.00     0.020 A 
ATOM     98  C   UNL A   1      47.558  35.638  28.882  1.00  0.00     0.054 A 
BRANCH  98  99
ATOM     99  S   UNL A   1      48.187  37.334  29.010  1.00  0.00     0.124 S 
ATOM    100  O   UNL A   1      46.957  38.103  29.173  1.00  0.00    -0.237 OA
ATOM    101  O   UNL A   1      49.049  37.268  30.189  1.00  0.00    -0.237 OA
ATOM    102  O   UNL A   1      48.888  37.540  27.745  1.00  0.00    -0.744 OA
ENDBRANCH  98  99
ENDBRANCH  72  93
ENDBRANCH  46  47
ENDBRANCH  38  41
ENDBRANCH  36  37
ENDBRANCH   1  36
TORSDOF 17
ENDMDL
