MODEL 1
REMARK VINA RESULT:      -8.6      0.000      0.000
REMARK SMILES CCOC(=O)[C@H](c1ccccc1)N1C(=O)/C(=C/c2ccc(C(=O)NCCCNC(=O)c3ccc(-c4c5nc(c(-c6ccc(S(=O)(=O)[O-])cc6)c6ccc([nH]6)c(-c6ccc(S(=O)(=O)[O-])cc6)c6nc(c(-c7ccc(S(=O)(=O)[O-])cc7)c7ccc4[nH]7)C=C6)C=C5)cc3)cc2)SC1=S
REMARK SMILES IDX 25 1 24 2 22 3 23 4 21 6 18 7 19 8 92 9 20 10 91 11 17 12
REMARK SMILES IDX 13 13 14 14 94 15 15 16 16 17 93 18 95 19 6 20 4 21 5 22
REMARK SMILES IDX 3 23 2 24 1 25 7 26 8 27 12 28 9 29 11 30 10 31 26 32 27 33
REMARK SMILES IDX 28 34 29 35 30 37 31 38 32 39 90 40 33 41 89 42 34 43 35 44
REMARK SMILES IDX 36 45 83 46 37 47 88 48 82 49 84 50 38 51 87 52 81 53 80 54
REMARK SMILES IDX 39 56 69 57 50 58 68 59 51 60 54 61 67 62 85 63 52 64 53 65
REMARK SMILES IDX 66 67 86 68 55 69 40 70 41 71 49 72 42 73 48 74 43 75 44 76
REMARK SMILES IDX 45 77 46 78 47 79 70 80 71 81 79 82 72 83 78 84 73 85 74 86
REMARK SMILES IDX 75 87 76 88 77 89 56 90 57 91 65 92 58 93 64 94 59 95 60 96
REMARK SMILES IDX 61 97 62 98 63 99
REMARK H PARENT 24 5 28 36 84 55 54 66
REMARK Flexibility Score: inf
ROOT
ATOM      1  C   UNL A   1      42.962  23.360  26.123  1.00  0.00     0.118 C 
ENDROOT
BRANCH   1   2
ATOM      2  N   UNL A   1      44.150  23.556  25.308  1.00  0.00    -0.352 N 
ATOM      3  C   UNL A   1      44.915  24.669  25.063  1.00  0.00     0.251 C 
ATOM      4  O   UNL A   1      45.936  24.537  24.389  1.00  0.00    -0.269 OA
ATOM      5  H   UNL A   1      44.463  22.743  24.849  1.00  0.00     0.163 HD
BRANCH   3   6
ATOM      6  C   UNL A   1      44.587  26.004  25.629  1.00  0.00     0.039 A 
ATOM      7  C   UNL A   1      43.924  28.580  26.539  1.00  0.00    -0.024 A 
ATOM      8  C   UNL A   1      43.149  27.972  25.551  1.00  0.00     0.009 A 
ATOM      9  C   UNL A   1      44.987  27.875  27.111  1.00  0.00     0.009 A 
ATOM     10  C   UNL A   1      43.484  26.690  25.096  1.00  0.00     0.014 A 
ATOM     11  C   UNL A   1      45.295  26.587  26.681  1.00  0.00     0.014 A 
BRANCH   7  12
ATOM     12  C   UNL A   1      43.626  29.903  27.079  1.00  0.00     0.029 C 
ATOM     13  N   UNL A   1      45.099  33.117  27.829  1.00  0.00    -0.274 N 
ATOM     14  C   UNL A   1      44.162  32.112  27.991  1.00  0.00     0.267 C 
ATOM     15  C   UNL A   1      46.164  32.792  27.005  1.00  0.00     0.149 C 
ATOM     16  O   UNL A   1      43.209  32.090  28.758  1.00  0.00    -0.268 OA
ATOM     17  C   UNL A   1      44.476  30.936  27.145  1.00  0.00     0.081 C 
ATOM     18  S   UNL A   1      46.016  31.124  26.433  1.00  0.00    -0.054 SA
ATOM     19  S   UNL A   1      47.448  33.748  26.524  1.00  0.00    -0.052 S 
BRANCH  13  20
ATOM     20  C   UNL A   1      45.002  34.389  28.600  1.00  0.00     0.232 C 
BRANCH  20  21
ATOM     21  C   UNL A   1      44.493  35.612  27.792  1.00  0.00     0.333 C 
ATOM     22  O   UNL A   1      44.921  35.951  26.692  1.00  0.00    -0.249 OA
BRANCH  21  23
ATOM     23  O   UNL A   1      43.685  36.411  28.551  1.00  0.00    -0.464 OA
BRANCH  23  24
ATOM     24  C   UNL A   1      42.327  36.542  28.089  1.00  0.00     0.229 C 
ATOM     25  C   UNL A   1      41.459  35.363  28.514  1.00  0.00     0.049 C 
ENDBRANCH  23  24
ENDBRANCH  21  23
ENDBRANCH  20  21
BRANCH  20  26
ATOM     26  C   UNL A   1      46.214  34.733  29.470  1.00  0.00    -0.014 A 
ATOM     27  C   UNL A   1      46.762  36.029  29.484  1.00  0.00     0.006 A 
ATOM     28  C   UNL A   1      46.788  33.764  30.308  1.00  0.00     0.006 A 
ATOM     29  C   UNL A   1      47.870  36.340  30.268  1.00  0.00     0.000 A 
ATOM     30  C   UNL A   1      47.880  34.087  31.120  1.00  0.00     0.000 A 
ATOM     31  C   UNL A   1      48.426  35.369  31.091  1.00  0.00     0.000 A 
ENDBRANCH  20  26
ENDBRANCH  13  20
ENDBRANCH   7  12
ENDBRANCH   3   6
ENDBRANCH   1   2
BRANCH   1  32
ATOM     32  C   UNL A   1      42.241  22.066  25.749  1.00  0.00     0.042 C 
BRANCH  32  33
ATOM     33  C   UNL A   1      41.070  21.742  26.670  1.00  0.00     0.118 C 
BRANCH  33  34
ATOM     34  N   UNL A   1      39.790  21.957  26.012  1.00  0.00    -0.352 N 
ATOM     35  C   UNL A   1      38.902  22.995  26.136  1.00  0.00     0.251 C 
ATOM     36  H   UNL A   1      39.520  21.250  25.382  1.00  0.00     0.163 HD
ATOM     37  O   UNL A   1      37.769  22.872  25.678  1.00  0.00    -0.269 OA
BRANCH  35  38
ATOM     38  C   UNL A   1      39.296  24.247  26.819  1.00  0.00     0.039 A 
ATOM     39  C   UNL A   1      38.915  24.437  28.150  1.00  0.00     0.014 A 
ATOM     40  C   UNL A   1      39.995  25.251  26.142  1.00  0.00     0.014 A 
ATOM     41  C   UNL A   1      39.279  25.609  28.816  1.00  0.00     0.010 A 
ATOM     42  C   UNL A   1      40.420  26.385  26.828  1.00  0.00     0.010 A 
ATOM     43  C   UNL A   1      40.058  26.581  28.169  1.00  0.00    -0.014 A 
BRANCH  43  44
ATOM     44  C   UNL A   1      40.502  27.808  28.877  1.00  0.00     0.031 A 
ATOM     45  C   UNL A   1      41.861  27.863  29.524  1.00  0.00     0.074 A 
ATOM     46  C   UNL A   1      39.656  28.852  28.989  1.00  0.00     0.049 A 
ATOM     47  N   UNL A   1      42.401  28.824  30.228  1.00  0.00    -0.248 NA
ATOM     48  C   UNL A   1      42.715  26.673  29.380  1.00  0.00     0.031 C 
ATOM     49  C   UNL A   1      38.301  28.906  28.436  1.00  0.00     0.029 A 
ATOM     50  N   UNL A   1      39.809  30.066  29.610  1.00  0.00    -0.354 N 
ATOM     51  C   UNL A   1      43.645  28.349  30.628  1.00  0.00     0.074 A 
ATOM     52  C   UNL A   1      43.762  26.997  30.126  1.00  0.00     0.031 C 
ATOM     53  C   UNL A   1      37.759  30.102  28.716  1.00  0.00     0.029 A 
ATOM     54  C   UNL A   1      38.707  30.882  29.505  1.00  0.00     0.049 A 
ATOM     55  H   UNL A   1      40.630  30.328  30.085  1.00  0.00     0.167 HD
ATOM     56  C   UNL A   1      44.608  28.986  31.336  1.00  0.00     0.031 A 
ATOM     57  C   UNL A   1      38.481  32.116  29.996  1.00  0.00     0.031 A 
ATOM     58  C   UNL A   1      44.490  30.335  31.823  1.00  0.00     0.049 A 
ATOM     59  C   UNL A   1      39.562  32.797  30.790  1.00  0.00     0.074 A 
ATOM     60  C   UNL A   1      45.432  31.092  32.496  1.00  0.00     0.029 A 
ATOM     61  N   UNL A   1      43.359  31.127  31.694  1.00  0.00    -0.354 N 
ATOM     62  N   UNL A   1      40.758  32.357  31.099  1.00  0.00    -0.248 NA
ATOM     63  C   UNL A   1      39.265  34.145  31.293  1.00  0.00     0.031 C 
ATOM     64  C   UNL A   1      44.852  32.321  32.825  1.00  0.00     0.029 A 
ATOM     65  C   UNL A   1      43.569  32.355  32.301  1.00  0.00     0.049 A 
ATOM     66  H   UNL A   1      42.528  30.857  31.239  1.00  0.00     0.167 HD
ATOM     67  C   UNL A   1      41.369  33.386  31.807  1.00  0.00     0.074 A 
ATOM     68  C   UNL A   1      40.414  34.474  31.867  1.00  0.00     0.031 C 
ATOM     69  C   UNL A   1      42.609  33.428  32.353  1.00  0.00     0.031 A 
BRANCH  56  70
ATOM     70  C   UNL A   1      45.873  28.224  31.638  1.00  0.00    -0.014 A 
ATOM     71  C   UNL A   1      46.021  27.497  32.834  1.00  0.00     0.010 A 
ATOM     72  C   UNL A   1      46.914  28.198  30.692  1.00  0.00     0.010 A 
ATOM     73  C   UNL A   1      47.201  26.797  33.098  1.00  0.00     0.020 A 
ATOM     74  C   UNL A   1      48.085  27.474  30.939  1.00  0.00     0.020 A 
ATOM     75  C   UNL A   1      48.227  26.793  32.149  1.00  0.00     0.054 A 
BRANCH  75  76
ATOM     76  S   UNL A   1      49.740  25.858  32.508  1.00  0.00     0.124 S 
ATOM     77  O   UNL A   1      50.142  25.414  31.175  1.00  0.00    -0.237 OA
ATOM     78  O   UNL A   1      50.602  26.865  33.120  1.00  0.00    -0.237 OA
ATOM     79  O   UNL A   1      49.289  24.798  33.407  1.00  0.00    -0.744 OA
ENDBRANCH  75  76
ENDBRANCH  56  70
BRANCH  57  80
ATOM     80  C   UNL A   1      37.182  32.795  29.732  1.00  0.00    -0.014 A 
ATOM     81  C   UNL A   1      36.290  33.059  30.787  1.00  0.00     0.010 A 
ATOM     82  C   UNL A   1      36.837  33.195  28.428  1.00  0.00     0.010 A 
ATOM     83  C   UNL A   1      35.069  33.694  30.539  1.00  0.00     0.020 A 
ATOM     84  C   UNL A   1      35.630  33.855  28.182  1.00  0.00     0.020 A 
ATOM     85  C   UNL A   1      34.748  34.090  29.238  1.00  0.00     0.054 A 
BRANCH  85  86
ATOM     86  S   UNL A   1      33.181  34.958  28.952  1.00  0.00     0.124 S 
ATOM     87  O   UNL A   1      32.590  34.966  30.286  1.00  0.00    -0.237 OA
ATOM     88  O   UNL A   1      33.627  36.254  28.447  1.00  0.00    -0.237 OA
ATOM     89  O   UNL A   1      32.500  34.118  27.969  1.00  0.00    -0.744 OA
ENDBRANCH  85  86
ENDBRANCH  57  80
BRANCH  69  90
ATOM     90  C   UNL A   1      43.023  34.705  33.036  1.00  0.00    -0.014 A 
ATOM     91  C   UNL A   1      42.704  34.951  34.383  1.00  0.00     0.010 A 
ATOM     92  C   UNL A   1      43.790  35.649  32.328  1.00  0.00     0.010 A 
ATOM     93  C   UNL A   1      43.120  36.134  35.001  1.00  0.00     0.020 A 
ATOM     94  C   UNL A   1      44.233  36.818  32.952  1.00  0.00     0.020 A 
ATOM     95  C   UNL A   1      43.882  37.059  34.282  1.00  0.00     0.054 A 
BRANCH  95  96
ATOM     96  S   UNL A   1      44.446  38.565  35.121  1.00  0.00     0.124 S 
ATOM     97  O   UNL A   1      43.610  39.589  34.501  1.00  0.00    -0.237 OA
ATOM     98  O   UNL A   1      44.154  38.278  36.523  1.00  0.00    -0.237 OA
ATOM     99  O   UNL A   1      45.867  38.635  34.789  1.00  0.00    -0.744 OA
ENDBRANCH  95  96
ENDBRANCH  69  90
ENDBRANCH  43  44
ENDBRANCH  35  38
ENDBRANCH  33  34
ENDBRANCH  32  33
ENDBRANCH   1  32
TORSDOF 19
ENDMDL
MODEL 2
REMARK VINA RESULT:      -8.5      4.710      8.634
REMARK SMILES CCOC(=O)[C@H](c1ccccc1)N1C(=O)/C(=C/c2ccc(C(=O)NCCCNC(=O)c3ccc(-c4c5nc(c(-c6ccc(S(=O)(=O)[O-])cc6)c6ccc([nH]6)c(-c6ccc(S(=O)(=O)[O-])cc6)c6nc(c(-c7ccc(S(=O)(=O)[O-])cc7)c7ccc4[nH]7)C=C6)C=C5)cc3)cc2)SC1=S
REMARK SMILES IDX 25 1 24 2 22 3 23 4 21 6 18 7 19 8 92 9 20 10 91 11 17 12
REMARK SMILES IDX 13 13 14 14 94 15 15 16 16 17 93 18 95 19 6 20 4 21 5 22
REMARK SMILES IDX 3 23 2 24 1 25 7 26 8 27 12 28 9 29 11 30 10 31 26 32 27 33
REMARK SMILES IDX 28 34 29 35 30 37 31 38 32 39 90 40 33 41 89 42 34 43 35 44
REMARK SMILES IDX 36 45 83 46 37 47 88 48 82 49 84 50 38 51 87 52 81 53 80 54
REMARK SMILES IDX 39 56 69 57 50 58 68 59 51 60 54 61 67 62 85 63 52 64 53 65
REMARK SMILES IDX 66 67 86 68 55 69 40 70 41 71 49 72 42 73 48 74 43 75 44 76
REMARK SMILES IDX 45 77 46 78 47 79 70 80 71 81 79 82 72 83 78 84 73 85 74 86
REMARK SMILES IDX 75 87 76 88 77 89 56 90 57 91 65 92 58 93 64 94 59 95 60 96
REMARK SMILES IDX 61 97 62 98 63 99
REMARK H PARENT 24 5 28 36 84 55 54 66
REMARK Flexibility Score: inf
ROOT
ATOM      1  C   UNL A   1      43.152  22.079  26.395  1.00  0.00     0.118 C 
ENDROOT
BRANCH   1   2
ATOM      2  N   UNL A   1      42.526  20.967  27.092  1.00  0.00    -0.352 N 
ATOM      3  C   UNL A   1      41.208  20.634  27.281  1.00  0.00     0.251 C 
ATOM      4  O   UNL A   1      40.950  19.573  27.848  1.00  0.00    -0.269 OA
ATOM      5  H   UNL A   1      43.163  20.338  27.502  1.00  0.00     0.163 HD
BRANCH   3   6
ATOM      6  C   UNL A   1      40.091  21.476  26.776  1.00  0.00     0.039 A 
ATOM      7  C   UNL A   1      38.000  22.990  25.663  1.00  0.00    -0.024 A 
ATOM      8  C   UNL A   1      38.151  21.649  25.308  1.00  0.00     0.009 A 
ATOM      9  C   UNL A   1      38.854  23.549  26.618  1.00  0.00     0.009 A 
ATOM     10  C   UNL A   1      39.196  20.897  25.861  1.00  0.00     0.014 A 
ATOM     11  C   UNL A   1      39.871  22.789  27.190  1.00  0.00     0.014 A 
BRANCH   7  12
ATOM     12  C   UNL A   1      36.924  23.831  25.148  1.00  0.00     0.029 C 
ATOM     13  N   UNL A   1      33.338  24.284  25.195  1.00  0.00    -0.274 N 
ATOM     14  C   UNL A   1      34.600  24.417  24.642  1.00  0.00     0.267 C 
ATOM     15  C   UNL A   1      33.276  23.473  26.317  1.00  0.00     0.149 C 
ATOM     16  O   UNL A   1      34.905  24.959  23.590  1.00  0.00    -0.268 OA
ATOM     17  C   UNL A   1      35.625  23.724  25.459  1.00  0.00     0.081 C 
ATOM     18  S   UNL A   1      34.871  22.799  26.680  1.00  0.00    -0.054 SA
ATOM     19  S   UNL A   1      31.961  23.122  27.287  1.00  0.00    -0.052 S 
BRANCH  13  20
ATOM     20  C   UNL A   1      32.143  24.879  24.533  1.00  0.00     0.232 C 
BRANCH  20  21
ATOM     21  C   UNL A   1      31.850  24.352  23.103  1.00  0.00     0.333 C 
ATOM     22  O   UNL A   1      31.797  25.052  22.097  1.00  0.00    -0.249 OA
BRANCH  21  23
ATOM     23  O   UNL A   1      31.417  23.055  23.128  1.00  0.00    -0.464 OA
BRANCH  23  24
ATOM     24  C   UNL A   1      32.360  22.075  22.654  1.00  0.00     0.229 C 
ATOM     25  C   UNL A   1      32.641  20.998  23.696  1.00  0.00     0.049 C 
ENDBRANCH  23  24
ENDBRANCH  21  23
ENDBRANCH  20  21
BRANCH  20  26
ATOM     26  C   UNL A   1      32.023  26.403  24.624  1.00  0.00    -0.014 A 
ATOM     27  C   UNL A   1      32.416  27.234  23.558  1.00  0.00     0.006 A 
ATOM     28  C   UNL A   1      31.482  27.009  25.768  1.00  0.00     0.006 A 
ATOM     29  C   UNL A   1      32.316  28.620  23.643  1.00  0.00     0.000 A 
ATOM     30  C   UNL A   1      31.350  28.399  25.839  1.00  0.00     0.000 A 
ATOM     31  C   UNL A   1      31.777  29.203  24.783  1.00  0.00     0.000 A 
ENDBRANCH  20  26
ENDBRANCH  13  20
ENDBRANCH   7  12
ENDBRANCH   3   6
ENDBRANCH   1   2
BRANCH   1  32
ATOM     32  C   UNL A   1      44.115  22.834  27.310  1.00  0.00     0.042 C 
BRANCH  32  33
ATOM     33  C   UNL A   1      44.106  24.341  27.081  1.00  0.00     0.118 C 
BRANCH  33  34
ATOM     34  N   UNL A   1      43.221  24.716  25.988  1.00  0.00    -0.352 N 
ATOM     35  C   UNL A   1      42.136  25.555  25.983  1.00  0.00     0.251 C 
ATOM     36  H   UNL A   1      43.433  24.304  25.119  1.00  0.00     0.163 HD
ATOM     37  O   UNL A   1      41.379  25.551  25.016  1.00  0.00    -0.269 OA
BRANCH  35  38
ATOM     38  C   UNL A   1      41.873  26.452  27.129  1.00  0.00     0.039 A 
ATOM     39  C   UNL A   1      40.947  26.054  28.097  1.00  0.00     0.014 A 
ATOM     40  C   UNL A   1      42.497  27.700  27.231  1.00  0.00     0.014 A 
ATOM     41  C   UNL A   1      40.684  26.883  29.190  1.00  0.00     0.010 A 
ATOM     42  C   UNL A   1      42.290  28.491  28.357  1.00  0.00     0.010 A 
ATOM     43  C   UNL A   1      41.374  28.096  29.344  1.00  0.00    -0.014 A 
BRANCH  43  44
ATOM     44  C   UNL A   1      41.151  28.964  30.527  1.00  0.00     0.031 A 
ATOM     45  C   UNL A   1      42.015  28.818  31.751  1.00  0.00     0.074 A 
ATOM     46  C   UNL A   1      40.128  29.844  30.521  1.00  0.00     0.049 A 
ATOM     47  N   UNL A   1      41.937  29.448  32.896  1.00  0.00    -0.248 NA
ATOM     48  C   UNL A   1      43.093  27.818  31.690  1.00  0.00     0.031 C 
ATOM     49  C   UNL A   1      39.199  30.052  29.408  1.00  0.00     0.029 A 
ATOM     50  N   UNL A   1      39.696  30.721  31.482  1.00  0.00    -0.354 N 
ATOM     51  C   UNL A   1      42.938  28.907  33.695  1.00  0.00     0.074 A 
ATOM     52  C   UNL A   1      43.581  27.867  32.921  1.00  0.00     0.031 C 
ATOM     53  C   UNL A   1      38.327  31.018  29.739  1.00  0.00     0.029 A 
ATOM     54  C   UNL A   1      38.605  31.465  31.100  1.00  0.00     0.049 A 
ATOM     55  H   UNL A   1      40.127  30.811  32.363  1.00  0.00     0.167 HD
ATOM     56  C   UNL A   1      43.299  29.255  34.953  1.00  0.00     0.031 A 
ATOM     57  C   UNL A   1      37.901  32.397  31.771  1.00  0.00     0.031 A 
ATOM     58  C   UNL A   1      42.663  30.298  35.713  1.00  0.00     0.049 A 
ATOM     59  C   UNL A   1      38.313  32.757  33.173  1.00  0.00     0.074 A 
ATOM     60  C   UNL A   1      42.994  30.770  36.972  1.00  0.00     0.029 A 
ATOM     61  N   UNL A   1      41.563  31.029  35.289  1.00  0.00    -0.354 N 
ATOM     62  N   UNL A   1      39.307  32.282  33.886  1.00  0.00    -0.248 NA
ATOM     63  C   UNL A   1      37.517  33.786  33.855  1.00  0.00     0.031 C 
ATOM     64  C   UNL A   1      42.059  31.745  37.333  1.00  0.00     0.029 A 
ATOM     65  C   UNL A   1      41.183  31.928  36.273  1.00  0.00     0.049 A 
ATOM     66  H   UNL A   1      41.116  30.925  34.418  1.00  0.00     0.167 HD
ATOM     67  C   UNL A   1      39.272  32.976  35.091  1.00  0.00     0.074 A 
ATOM     68  C   UNL A   1      38.170  33.911  35.002  1.00  0.00     0.031 C 
ATOM     69  C   UNL A   1      40.083  32.852  36.170  1.00  0.00     0.031 A 
BRANCH  56  70
ATOM     70  C   UNL A   1      44.429  28.490  35.594  1.00  0.00    -0.014 A 
ATOM     71  C   UNL A   1      44.194  27.299  36.306  1.00  0.00     0.010 A 
ATOM     72  C   UNL A   1      45.752  28.945  35.444  1.00  0.00     0.010 A 
ATOM     73  C   UNL A   1      45.254  26.604  36.894  1.00  0.00     0.020 A 
ATOM     74  C   UNL A   1      46.818  28.236  36.005  1.00  0.00     0.020 A 
ATOM     75  C   UNL A   1      46.560  27.079  36.742  1.00  0.00     0.054 A 
BRANCH  75  76
ATOM     76  S   UNL A   1      47.919  26.144  37.497  1.00  0.00     0.124 S 
ATOM     77  O   UNL A   1      48.816  27.214  37.928  1.00  0.00    -0.237 OA
ATOM     78  O   UNL A   1      47.249  25.416  38.571  1.00  0.00    -0.237 OA
ATOM     79  O   UNL A   1      48.420  25.315  36.405  1.00  0.00    -0.744 OA
ENDBRANCH  75  76
ENDBRANCH  56  70
BRANCH  57  80
ATOM     80  C   UNL A   1      36.744  33.069  31.118  1.00  0.00    -0.014 A 
ATOM     81  C   UNL A   1      36.940  33.891  29.994  1.00  0.00     0.010 A 
ATOM     82  C   UNL A   1      35.438  32.878  31.606  1.00  0.00     0.010 A 
ATOM     83  C   UNL A   1      35.854  34.525  29.382  1.00  0.00     0.020 A 
ATOM     84  C   UNL A   1      34.347  33.487  30.979  1.00  0.00     0.020 A 
ATOM     85  C   UNL A   1      34.564  34.316  29.878  1.00  0.00     0.054 A 
BRANCH  85  86
ATOM     86  S   UNL A   1      33.166  35.108  29.034  1.00  0.00     0.124 S 
ATOM     87  O   UNL A   1      32.252  35.369  30.142  1.00  0.00    -0.237 OA
ATOM     88  O   UNL A   1      33.787  36.285  28.432  1.00  0.00    -0.237 OA
ATOM     89  O   UNL A   1      32.722  34.091  28.082  1.00  0.00    -0.744 OA
ENDBRANCH  85  86
ENDBRANCH  57  80
BRANCH  69  90
ATOM     90  C   UNL A   1      39.833  33.775  37.334  1.00  0.00    -0.014 A 
ATOM     91  C   UNL A   1      40.069  35.158  37.235  1.00  0.00     0.010 A 
ATOM     92  C   UNL A   1      39.303  33.253  38.528  1.00  0.00     0.010 A 
ATOM     93  C   UNL A   1      39.808  35.997  38.322  1.00  0.00     0.020 A 
ATOM     94  C   UNL A   1      39.011  34.093  39.606  1.00  0.00     0.020 A 
ATOM     95  C   UNL A   1      39.280  35.459  39.499  1.00  0.00     0.054 A 
BRANCH  95  96
ATOM     96  S   UNL A   1      38.908  36.576  40.880  1.00  0.00     0.124 S 
ATOM     97  O   UNL A   1      40.220  36.745  41.496  1.00  0.00    -0.237 OA
ATOM     98  O   UNL A   1      38.375  37.755  40.201  1.00  0.00    -0.237 OA
ATOM     99  O   UNL A   1      37.936  35.832  41.676  1.00  0.00    -0.744 OA
ENDBRANCH  95  96
ENDBRANCH  69  90
ENDBRANCH  43  44
ENDBRANCH  35  38
ENDBRANCH  33  34
ENDBRANCH  32  33
ENDBRANCH   1  32
TORSDOF 19
ENDMDL
MODEL 3
REMARK VINA RESULT:      -8.3      4.697     12.601
REMARK SMILES CCOC(=O)[C@H](c1ccccc1)N1C(=O)/C(=C/c2ccc(C(=O)NCCCNC(=O)c3ccc(-c4c5nc(c(-c6ccc(S(=O)(=O)[O-])cc6)c6ccc([nH]6)c(-c6ccc(S(=O)(=O)[O-])cc6)c6nc(c(-c7ccc(S(=O)(=O)[O-])cc7)c7ccc4[nH]7)C=C6)C=C5)cc3)cc2)SC1=S
REMARK SMILES IDX 25 1 24 2 22 3 23 4 21 6 18 7 19 8 92 9 20 10 91 11 17 12
REMARK SMILES IDX 13 13 14 14 94 15 15 16 16 17 93 18 95 19 6 20 4 21 5 22
REMARK SMILES IDX 3 23 2 24 1 25 7 26 8 27 12 28 9 29 11 30 10 31 26 32 27 33
REMARK SMILES IDX 28 34 29 35 30 37 31 38 32 39 90 40 33 41 89 42 34 43 35 44
REMARK SMILES IDX 36 45 83 46 37 47 88 48 82 49 84 50 38 51 87 52 81 53 80 54
REMARK SMILES IDX 39 56 69 57 50 58 68 59 51 60 54 61 67 62 85 63 52 64 53 65
REMARK SMILES IDX 66 67 86 68 55 69 40 70 41 71 49 72 42 73 48 74 43 75 44 76
REMARK SMILES IDX 45 77 46 78 47 79 70 80 71 81 79 82 72 83 78 84 73 85 74 86
REMARK SMILES IDX 75 87 76 88 77 89 56 90 57 91 65 92 58 93 64 94 59 95 60 96
REMARK SMILES IDX 61 97 62 98 63 99
REMARK H PARENT 24 5 28 36 84 55 54 66
REMARK Flexibility Score: inf
ROOT
ATOM      1  C   UNL A   1      35.795  33.781  30.779  1.00  0.00     0.118 C 
ENDROOT
BRANCH   1   2
ATOM      2  N   UNL A   1      35.416  34.535  29.595  1.00  0.00    -0.352 N 
ATOM      3  C   UNL A   1      34.958  34.133  28.365  1.00  0.00     0.251 C 
ATOM      4  O   UNL A   1      34.625  34.998  27.556  1.00  0.00    -0.269 OA
ATOM      5  H   UNL A   1      35.503  35.511  29.693  1.00  0.00     0.163 HD
BRANCH   3   6
ATOM      6  C   UNL A   1      34.795  32.700  28.003  1.00  0.00     0.039 A 
ATOM      7  C   UNL A   1      34.334  29.993  27.402  1.00  0.00    -0.024 A 
ATOM      8  C   UNL A   1      33.275  30.901  27.368  1.00  0.00     0.009 A 
ATOM      9  C   UNL A   1      35.626  30.451  27.674  1.00  0.00     0.009 A 
ATOM     10  C   UNL A   1      33.507  32.250  27.672  1.00  0.00     0.014 A 
ATOM     11  C   UNL A   1      35.858  31.798  27.942  1.00  0.00     0.014 A 
BRANCH   7  12
ATOM     12  C   UNL A   1      34.175  28.579  27.076  1.00  0.00     0.029 C 
ATOM     13  N   UNL A   1      33.308  26.311  24.399  1.00  0.00    -0.274 N 
ATOM     14  C   UNL A   1      33.441  26.670  25.729  1.00  0.00     0.267 C 
ATOM     15  C   UNL A   1      33.517  27.340  23.494  1.00  0.00     0.149 C 
ATOM     16  O   UNL A   1      33.184  25.997  26.717  1.00  0.00    -0.268 OA
ATOM     17  C   UNL A   1      33.883  28.078  25.868  1.00  0.00     0.081 C 
ATOM     18  S   UNL A   1      33.854  28.853  24.348  1.00  0.00    -0.054 SA
ATOM     19  S   UNL A   1      33.505  27.286  21.824  1.00  0.00    -0.052 S 
BRANCH  13  20
ATOM     20  C   UNL A   1      32.849  24.946  24.014  1.00  0.00     0.232 C 
BRANCH  20  21
ATOM     21  C   UNL A   1      31.354  24.648  24.298  1.00  0.00     0.333 C 
ATOM     22  O   UNL A   1      30.821  23.550  24.161  1.00  0.00    -0.249 OA
BRANCH  21  23
ATOM     23  O   UNL A   1      30.641  25.799  24.486  1.00  0.00    -0.464 OA
BRANCH  23  24
ATOM     24  C   UNL A   1      29.648  26.087  23.484  1.00  0.00     0.229 C 
ATOM     25  C   UNL A   1      28.360  26.633  24.091  1.00  0.00     0.049 C 
ENDBRANCH  23  24
ENDBRANCH  21  23
ENDBRANCH  20  21
BRANCH  20  26
ATOM     26  C   UNL A   1      33.762  23.794  24.443  1.00  0.00    -0.014 A 
ATOM     27  C   UNL A   1      33.367  22.878  25.436  1.00  0.00     0.006 A 
ATOM     28  C   UNL A   1      35.008  23.602  23.826  1.00  0.00     0.006 A 
ATOM     29  C   UNL A   1      34.200  21.835  25.834  1.00  0.00     0.000 A 
ATOM     30  C   UNL A   1      35.829  22.534  24.202  1.00  0.00     0.000 A 
ATOM     31  C   UNL A   1      35.430  21.660  25.212  1.00  0.00     0.000 A 
ENDBRANCH  20  26
ENDBRANCH  13  20
ENDBRANCH   7  12
ENDBRANCH   3   6
ENDBRANCH   1   2
BRANCH   1  32
ATOM     32  C   UNL A   1      37.272  33.983  31.115  1.00  0.00     0.042 C 
BRANCH  32  33
ATOM     33  C   UNL A   1      37.748  33.121  32.278  1.00  0.00     0.118 C 
BRANCH  33  34
ATOM     34  N   UNL A   1      36.913  31.942  32.454  1.00  0.00    -0.352 N 
ATOM     35  C   UNL A   1      37.071  30.671  31.962  1.00  0.00     0.251 C 
ATOM     36  H   UNL A   1      36.112  32.077  33.011  1.00  0.00     0.163 HD
ATOM     37  O   UNL A   1      36.131  29.883  32.025  1.00  0.00    -0.269 OA
BRANCH  35  38
ATOM     38  C   UNL A   1      38.353  30.252  31.356  1.00  0.00     0.039 A 
ATOM     39  C   UNL A   1      38.540  30.435  29.983  1.00  0.00     0.014 A 
ATOM     40  C   UNL A   1      39.351  29.640  32.121  1.00  0.00     0.014 A 
ATOM     41  C   UNL A   1      39.744  30.050  29.388  1.00  0.00     0.010 A 
ATOM     42  C   UNL A   1      40.577  29.325  31.542  1.00  0.00     0.010 A 
ATOM     43  C   UNL A   1      40.783  29.518  30.168  1.00  0.00    -0.014 A 
BRANCH  43  44
ATOM     44  C   UNL A   1      42.090  29.155  29.564  1.00  0.00     0.031 A 
ATOM     45  C   UNL A   1      43.190  30.178  29.462  1.00  0.00     0.074 A 
ATOM     46  C   UNL A   1      42.264  27.919  29.053  1.00  0.00     0.049 A 
ATOM     47  N   UNL A   1      44.376  30.062  28.921  1.00  0.00    -0.248 NA
ATOM     48  C   UNL A   1      42.912  31.512  30.018  1.00  0.00     0.031 C 
ATOM     49  C   UNL A   1      41.261  26.851  29.061  1.00  0.00     0.029 A 
ATOM     50  N   UNL A   1      43.345  27.354  28.425  1.00  0.00    -0.354 N 
ATOM     51  C   UNL A   1      44.976  31.310  29.053  1.00  0.00     0.074 A 
ATOM     52  C   UNL A   1      44.008  32.179  29.684  1.00  0.00     0.031 C 
ATOM     53  C   UNL A   1      41.785  25.753  28.493  1.00  0.00     0.029 A 
ATOM     54  C   UNL A   1      43.140  26.050  28.040  1.00  0.00     0.049 A 
ATOM     55  H   UNL A   1      44.187  27.837  28.263  1.00  0.00     0.167 HD
ATOM     56  C   UNL A   1      46.225  31.691  28.694  1.00  0.00     0.031 A 
ATOM     57  C   UNL A   1      43.949  25.191  27.391  1.00  0.00     0.031 A 
ATOM     58  C   UNL A   1      47.188  30.817  28.077  1.00  0.00     0.049 A 
ATOM     59  C   UNL A   1      45.327  25.643  26.992  1.00  0.00     0.074 A 
ATOM     60  C   UNL A   1      48.500  31.089  27.733  1.00  0.00     0.029 A 
ATOM     61  N   UNL A   1      46.941  29.503  27.707  1.00  0.00    -0.354 N 
ATOM     62  N   UNL A   1      45.901  26.806  27.188  1.00  0.00    -0.248 NA
ATOM     63  C   UNL A   1      46.170  24.662  26.294  1.00  0.00     0.031 C 
ATOM     64  C   UNL A   1      49.030  29.959  27.102  1.00  0.00     0.029 A 
ATOM     65  C   UNL A   1      48.068  28.960  27.111  1.00  0.00     0.049 A 
ATOM     66  H   UNL A   1      46.092  29.026  27.847  1.00  0.00     0.167 HD
ATOM     67  C   UNL A   1      47.184  26.687  26.663  1.00  0.00     0.074 A 
ATOM     68  C   UNL A   1      47.304  25.336  26.156  1.00  0.00     0.031 C 
ATOM     69  C   UNL A   1      48.173  27.613  26.611  1.00  0.00     0.031 A 
BRANCH  56  70
ATOM     70  C   UNL A   1      46.619  33.123  28.950  1.00  0.00    -0.014 A 
ATOM     71  C   UNL A   1      47.289  33.497  30.130  1.00  0.00     0.010 A 
ATOM     72  C   UNL A   1      46.355  34.104  27.976  1.00  0.00     0.010 A 
ATOM     73  C   UNL A   1      47.646  34.830  30.351  1.00  0.00     0.020 A 
ATOM     74  C   UNL A   1      46.738  35.433  28.180  1.00  0.00     0.020 A 
ATOM     75  C   UNL A   1      47.365  35.790  29.375  1.00  0.00     0.054 A 
BRANCH  75  76
ATOM     76  S   UNL A   1      47.860  37.510  29.679  1.00  0.00     0.124 S 
ATOM     77  O   UNL A   1      47.315  38.190  28.505  1.00  0.00    -0.237 OA
ATOM     78  O   UNL A   1      47.198  37.814  30.944  1.00  0.00    -0.237 OA
ATOM     79  O   UNL A   1      49.318  37.446  29.740  1.00  0.00    -0.744 OA
ENDBRANCH  75  76
ENDBRANCH  56  70
BRANCH  57  80
ATOM     80  C   UNL A   1      43.481  23.808  27.094  1.00  0.00    -0.014 A 
ATOM     81  C   UNL A   1      43.264  23.400  25.766  1.00  0.00     0.010 A 
ATOM     82  C   UNL A   1      43.265  22.888  28.136  1.00  0.00     0.010 A 
ATOM     83  C   UNL A   1      42.822  22.103  25.487  1.00  0.00     0.020 A 
ATOM     84  C   UNL A   1      42.851  21.582  27.859  1.00  0.00     0.020 A 
ATOM     85  C   UNL A   1      42.621  21.202  26.536  1.00  0.00     0.054 A 
BRANCH  85  86
ATOM     86  S   UNL A   1      42.098  19.509  26.144  1.00  0.00     0.124 S 
ATOM     87  O   UNL A   1      42.522  18.777  27.333  1.00  0.00    -0.237 OA
ATOM     88  O   UNL A   1      40.655  19.657  25.971  1.00  0.00    -0.237 OA
ATOM     89  O   UNL A   1      42.835  19.199  24.920  1.00  0.00    -0.744 OA
ENDBRANCH  85  86
ENDBRANCH  57  80
BRANCH  69  90
ATOM     90  C   UNL A   1      49.489  27.188  26.015  1.00  0.00    -0.014 A 
ATOM     91  C   UNL A   1      50.481  26.571  26.797  1.00  0.00     0.010 A 
ATOM     92  C   UNL A   1      49.711  27.362  24.637  1.00  0.00     0.010 A 
ATOM     93  C   UNL A   1      51.686  26.165  26.216  1.00  0.00     0.020 A 
ATOM     94  C   UNL A   1      50.902  26.929  24.047  1.00  0.00     0.020 A 
ATOM     95  C   UNL A   1      51.888  26.345  24.845  1.00  0.00     0.054 A 
BRANCH  95  96
ATOM     96  S   UNL A   1      53.441  25.768  24.108  1.00  0.00     0.124 S 
ATOM     97  O   UNL A   1      53.152  25.859  22.679  1.00  0.00    -0.237 OA
ATOM     98  O   UNL A   1      54.413  26.734  24.615  1.00  0.00    -0.237 OA
ATOM     99  O   UNL A   1      53.591  24.412  24.629  1.00  0.00    -0.744 OA
ENDBRANCH  95  96
ENDBRANCH  69  90
ENDBRANCH  43  44
ENDBRANCH  35  38
ENDBRANCH  33  34
ENDBRANCH  32  33
ENDBRANCH   1  32
TORSDOF 19
ENDMDL
