MODEL 1
REMARK VINA RESULT:      -9.2      0.000      0.000
REMARK SMILES CCNC(=O)N1CC[C@@H](C(=O)NCCCNC(=O)c2ccc(-c3c4nc(c(-c5ccc(S(=O)(=O)[O-])cc5)c5ccc([nH]5)c(-c5ccc(S(=O)(=O)[O-])cc5)c5nc(c(-c6ccc(S(=O)(=O)[O-])cc6)c6ccc3[nH]6)C=C5)C=C4)cc2)[C@H]1C
REMARK SMILES IDX 14 1 13 2 12 3 10 4 11 5 9 7 6 8 7 9 79 10 8 11 80 12 4 13
REMARK SMILES IDX 3 14 5 16 2 17 1 18 15 19 16 20 17 21 18 23 19 24 20 25
REMARK SMILES IDX 78 26 21 27 77 28 22 29 23 30 24 31 71 32 25 33 76 34 70 35
REMARK SMILES IDX 72 36 26 37 75 38 69 39 68 40 27 42 57 43 38 44 56 45 39 46
REMARK SMILES IDX 42 47 55 48 73 49 40 50 41 51 54 53 74 54 43 55 28 56 29 57
REMARK SMILES IDX 37 58 30 59 36 60 31 61 32 62 33 63 34 64 35 65 58 66 59 67
REMARK SMILES IDX 67 68 60 69 66 70 61 71 62 72 63 73 64 74 65 75 44 76 45 77
REMARK SMILES IDX 53 78 46 79 52 80 47 81 48 82 49 83 50 84 51 85
REMARK H PARENT 12 6 3 15 16 22 72 41 42 52
REMARK Flexibility Score: inf
ROOT
ATOM      1  C   UNL A   1      42.215  22.273  25.695  1.00  0.00     0.042 C 
ENDROOT
BRANCH   1   2
ATOM      2  C   UNL A   1      43.599  21.848  26.184  1.00  0.00     0.117 C 
BRANCH   2   3
ATOM      3  N   UNL A   1      44.017  22.547  27.390  1.00  0.00    -0.356 N 
ATOM      4  C   UNL A   1      44.956  23.494  27.630  1.00  0.00     0.225 C 
ATOM      5  O   UNL A   1      45.047  23.893  28.797  1.00  0.00    -0.275 OA
ATOM      6  H   UNL A   1      43.517  22.279  28.194  1.00  0.00     0.163 HD
BRANCH   4   7
ATOM      7  C   UNL A   1      45.879  24.075  26.573  1.00  0.00     0.102 C 
ATOM      8  N   UNL A   1      46.311  26.316  25.863  1.00  0.00    -0.321 N 
ATOM      9  C   UNL A   1      47.584  25.736  26.249  1.00  0.00     0.122 C 
ATOM     10  C   UNL A   1      45.345  25.223  25.695  1.00  0.00     0.096 C 
ATOM     11  C   UNL A   1      47.247  24.525  27.092  1.00  0.00     0.037 C 
ATOM     12  C   UNL A   1      43.875  25.572  25.853  1.00  0.00     0.032 C 
BRANCH   8  13
ATOM     13  C   UNL A   1      46.370  27.335  24.938  1.00  0.00     0.317 C 
ATOM     14  N   UNL A   1      45.930  28.560  25.309  1.00  0.00    -0.338 N 
ATOM     15  H   UNL A   1      45.768  29.190  24.570  1.00  0.00     0.165 HD
ATOM     16  O   UNL A   1      46.842  27.185  23.811  1.00  0.00    -0.249 OA
BRANCH  14  17
ATOM     17  C   UNL A   1      45.661  29.080  26.634  1.00  0.00     0.114 C 
ATOM     18  C   UNL A   1      44.168  29.224  26.867  1.00  0.00     0.027 C 
ENDBRANCH  14  17
ENDBRANCH   8  13
ENDBRANCH   4   7
ENDBRANCH   2   3
ENDBRANCH   1   2
BRANCH   1  19
ATOM     19  C   UNL A   1      41.054  21.849  26.587  1.00  0.00     0.118 C 
BRANCH  19  20
ATOM     20  N   UNL A   1      39.757  22.104  25.984  1.00  0.00    -0.352 N 
ATOM     21  C   UNL A   1      38.912  23.182  26.117  1.00  0.00     0.251 C 
ATOM     22  H   UNL A   1      39.431  21.393  25.387  1.00  0.00     0.163 HD
ATOM     23  O   UNL A   1      37.774  23.103  25.665  1.00  0.00    -0.269 OA
BRANCH  21  24
ATOM     24  C   UNL A   1      39.342  24.419  26.817  1.00  0.00     0.039 A 
ATOM     25  C   UNL A   1      38.967  24.600  28.152  1.00  0.00     0.014 A 
ATOM     26  C   UNL A   1      40.056  25.426  26.164  1.00  0.00     0.014 A 
ATOM     27  C   UNL A   1      39.353  25.756  28.841  1.00  0.00     0.010 A 
ATOM     28  C   UNL A   1      40.515  26.536  26.874  1.00  0.00     0.010 A 
ATOM     29  C   UNL A   1      40.154  26.725  28.216  1.00  0.00    -0.014 A 
BRANCH  29  30
ATOM     30  C   UNL A   1      40.583  27.962  28.925  1.00  0.00     0.031 A 
ATOM     31  C   UNL A   1      41.953  28.031  29.553  1.00  0.00     0.074 A 
ATOM     32  C   UNL A   1      39.734  28.999  29.062  1.00  0.00     0.049 A 
ATOM     33  N   UNL A   1      42.475  28.972  30.300  1.00  0.00    -0.248 NA
ATOM     34  C   UNL A   1      42.844  26.879  29.335  1.00  0.00     0.031 C 
ATOM     35  C   UNL A   1      38.370  29.060  28.529  1.00  0.00     0.029 A 
ATOM     36  N   UNL A   1      39.891  30.206  29.701  1.00  0.00    -0.354 N 
ATOM     37  C   UNL A   1      43.736  28.512  30.664  1.00  0.00     0.074 A 
ATOM     38  C   UNL A   1      43.884  27.191  30.093  1.00  0.00     0.031 C 
ATOM     39  C   UNL A   1      37.828  30.247  28.842  1.00  0.00     0.029 A 
ATOM     40  C   UNL A   1      38.784  31.018  29.631  1.00  0.00     0.049 A 
ATOM     41  H   UNL A   1      40.721  30.464  30.165  1.00  0.00     0.167 HD
ATOM     42  C   UNL A   1      44.693  29.134  31.393  1.00  0.00     0.031 A 
ATOM     43  C   UNL A   1      38.558  32.241  30.149  1.00  0.00     0.031 A 
ATOM     44  C   UNL A   1      44.563  30.460  31.934  1.00  0.00     0.049 A 
ATOM     45  C   UNL A   1      39.640  32.921  30.944  1.00  0.00     0.074 A 
ATOM     46  C   UNL A   1      45.498  31.195  32.645  1.00  0.00     0.029 A 
ATOM     47  N   UNL A   1      43.435  31.256  31.815  1.00  0.00    -0.354 N 
ATOM     48  N   UNL A   1      40.837  32.480  31.249  1.00  0.00    -0.248 NA
ATOM     49  C   UNL A   1      39.343  34.266  31.457  1.00  0.00     0.031 C 
ATOM     50  C   UNL A   1      44.922  32.424  32.983  1.00  0.00     0.029 A 
ATOM     51  C   UNL A   1      43.645  32.471  32.446  1.00  0.00     0.049 A 
ATOM     52  H   UNL A   1      42.606  30.995  31.352  1.00  0.00     0.167 HD
ATOM     53  C   UNL A   1      41.446  33.506  31.962  1.00  0.00     0.074 A 
ATOM     54  C   UNL A   1      40.490  34.591  32.039  1.00  0.00     0.031 C 
ATOM     55  C   UNL A   1      42.689  33.545  32.503  1.00  0.00     0.031 A 
BRANCH  42  56
ATOM     56  C   UNL A   1      45.971  28.380  31.647  1.00  0.00    -0.014 A 
ATOM     57  C   UNL A   1      47.055  28.469  30.754  1.00  0.00     0.010 A 
ATOM     58  C   UNL A   1      46.099  27.592  32.804  1.00  0.00     0.010 A 
ATOM     59  C   UNL A   1      48.226  27.745  30.990  1.00  0.00     0.020 A 
ATOM     60  C   UNL A   1      47.280  26.886  33.058  1.00  0.00     0.020 A 
ATOM     61  C   UNL A   1      48.328  26.952  32.137  1.00  0.00     0.054 A 
BRANCH  61  62
ATOM     62  S   UNL A   1      49.862  26.028  32.424  1.00  0.00     0.124 S 
ATOM     63  O   UNL A   1      50.428  26.734  33.570  1.00  0.00    -0.237 OA
ATOM     64  O   UNL A   1      49.380  24.676  32.695  1.00  0.00    -0.237 OA
ATOM     65  O   UNL A   1      50.598  26.183  31.171  1.00  0.00    -0.744 OA
ENDBRANCH  61  62
ENDBRANCH  42  56
BRANCH  43  66
ATOM     66  C   UNL A   1      37.253  32.917  29.915  1.00  0.00    -0.014 A 
ATOM     67  C   UNL A   1      36.995  33.556  28.690  1.00  0.00     0.010 A 
ATOM     68  C   UNL A   1      36.259  32.914  30.910  1.00  0.00     0.010 A 
ATOM     69  C   UNL A   1      35.771  34.194  28.469  1.00  0.00     0.020 A 
ATOM     70  C   UNL A   1      35.025  33.530  30.683  1.00  0.00     0.020 A 
ATOM     71  C   UNL A   1      34.793  34.176  29.467  1.00  0.00     0.054 A 
BRANCH  71  72
ATOM     72  S   UNL A   1      33.189  34.959  29.139  1.00  0.00     0.124 S 
ATOM     73  O   UNL A   1      32.560  34.922  30.455  1.00  0.00    -0.237 OA
ATOM     74  O   UNL A   1      33.574  36.284  28.659  1.00  0.00    -0.237 OA
ATOM     75  O   UNL A   1      32.588  34.091  28.130  1.00  0.00    -0.744 OA
ENDBRANCH  71  72
ENDBRANCH  43  66
BRANCH  55  76
ATOM     76  C   UNL A   1      43.110  34.817  33.188  1.00  0.00    -0.014 A 
ATOM     77  C   UNL A   1      42.963  34.979  34.576  1.00  0.00     0.010 A 
ATOM     78  C   UNL A   1      43.722  35.836  32.436  1.00  0.00     0.010 A 
ATOM     79  C   UNL A   1      43.401  36.151  35.198  1.00  0.00     0.020 A 
ATOM     80  C   UNL A   1      44.182  36.999  33.058  1.00  0.00     0.020 A 
ATOM     81  C   UNL A   1      44.008  37.154  34.436  1.00  0.00     0.054 A 
BRANCH  81  82
ATOM     82  S   UNL A   1      44.622  38.642  35.273  1.00  0.00     0.124 S 
ATOM     83  O   UNL A   1      44.012  39.707  34.482  1.00  0.00    -0.237 OA
ATOM     84  O   UNL A   1      44.101  38.487  36.629  1.00  0.00    -0.237 OA
ATOM     85  O   UNL A   1      46.074  38.532  35.154  1.00  0.00    -0.744 OA
ENDBRANCH  81  82
ENDBRANCH  55  76
ENDBRANCH  29  30
ENDBRANCH  21  24
ENDBRANCH  19  20
ENDBRANCH   1  19
TORSDOF 15
ENDMDL
MODEL 2
REMARK VINA RESULT:      -9.1      3.797     10.847
REMARK SMILES CCNC(=O)N1CC[C@@H](C(=O)NCCCNC(=O)c2ccc(-c3c4nc(c(-c5ccc(S(=O)(=O)[O-])cc5)c5ccc([nH]5)c(-c5ccc(S(=O)(=O)[O-])cc5)c5nc(c(-c6ccc(S(=O)(=O)[O-])cc6)c6ccc3[nH]6)C=C5)C=C4)cc2)[C@H]1C
REMARK SMILES IDX 14 1 13 2 12 3 10 4 11 5 9 7 6 8 7 9 79 10 8 11 80 12 4 13
REMARK SMILES IDX 3 14 5 16 2 17 1 18 15 19 16 20 17 21 18 23 19 24 20 25
REMARK SMILES IDX 78 26 21 27 77 28 22 29 23 30 24 31 71 32 25 33 76 34 70 35
REMARK SMILES IDX 72 36 26 37 75 38 69 39 68 40 27 42 57 43 38 44 56 45 39 46
REMARK SMILES IDX 42 47 55 48 73 49 40 50 41 51 54 53 74 54 43 55 28 56 29 57
REMARK SMILES IDX 37 58 30 59 36 60 31 61 32 62 33 63 34 64 35 65 58 66 59 67
REMARK SMILES IDX 67 68 60 69 66 70 61 71 62 72 63 73 64 74 65 75 44 76 45 77
REMARK SMILES IDX 53 78 46 79 52 80 47 81 48 82 49 83 50 84 51 85
REMARK H PARENT 12 6 3 15 16 22 72 41 42 52
REMARK Flexibility Score: inf
ROOT
ATOM      1  C   UNL A   1      32.596  27.592  25.968  1.00  0.00     0.042 C 
ENDROOT
BRANCH   1   2
ATOM      2  C   UNL A   1      33.261  27.475  24.598  1.00  0.00     0.117 C 
BRANCH   2   3
ATOM      3  N   UNL A   1      32.644  26.468  23.748  1.00  0.00    -0.356 N 
ATOM      4  C   UNL A   1      32.831  25.133  23.614  1.00  0.00     0.225 C 
ATOM      5  O   UNL A   1      32.114  24.559  22.787  1.00  0.00    -0.275 OA
ATOM      6  H   UNL A   1      31.950  26.829  23.150  1.00  0.00     0.163 HD
BRANCH   4   7
ATOM      7  C   UNL A   1      33.849  24.325  24.402  1.00  0.00     0.102 C 
ATOM      8  N   UNL A   1      33.753  22.167  25.423  1.00  0.00    -0.321 N 
ATOM      9  C   UNL A   1      34.879  22.157  24.507  1.00  0.00     0.122 C 
ATOM     10  C   UNL A   1      33.361  23.563  25.649  1.00  0.00     0.096 C 
ATOM     11  C   UNL A   1      34.658  23.327  23.571  1.00  0.00     0.037 C 
ATOM     12  C   UNL A   1      31.927  23.815  26.082  1.00  0.00     0.032 C 
BRANCH   8  13
ATOM     13  C   UNL A   1      33.834  21.291  26.483  1.00  0.00     0.317 C 
ATOM     14  N   UNL A   1      33.237  20.082  26.360  1.00  0.00    -0.338 N 
ATOM     15  H   UNL A   1      33.112  19.587  27.201  1.00  0.00     0.165 HD
ATOM     16  O   UNL A   1      34.458  21.546  27.513  1.00  0.00    -0.249 OA
BRANCH  14  17
ATOM     17  C   UNL A   1      32.753  19.410  25.170  1.00  0.00     0.114 C 
ATOM     18  C   UNL A   1      33.829  18.517  24.578  1.00  0.00     0.027 C 
ENDBRANCH  14  17
ENDBRANCH   8  13
ENDBRANCH   4   7
ENDBRANCH   2   3
ENDBRANCH   1   2
BRANCH   1  19
ATOM     19  C   UNL A   1      33.490  28.123  27.082  1.00  0.00     0.118 C 
BRANCH  19  20
ATOM     20  N   UNL A   1      33.367  29.558  27.270  1.00  0.00    -0.352 N 
ATOM     21  C   UNL A   1      34.246  30.459  27.825  1.00  0.00     0.251 C 
ATOM     22  H   UNL A   1      32.521  29.946  26.950  1.00  0.00     0.163 HD
ATOM     23  O   UNL A   1      33.858  31.601  28.059  1.00  0.00    -0.269 OA
BRANCH  21  24
ATOM     24  C   UNL A   1      35.637  30.071  28.169  1.00  0.00     0.039 A 
ATOM     25  C   UNL A   1      35.913  29.646  29.473  1.00  0.00     0.014 A 
ATOM     26  C   UNL A   1      36.682  30.173  27.248  1.00  0.00     0.014 A 
ATOM     27  C   UNL A   1      37.214  29.275  29.833  1.00  0.00     0.010 A 
ATOM     28  C   UNL A   1      37.959  29.720  27.580  1.00  0.00     0.010 A 
ATOM     29  C   UNL A   1      38.247  29.284  28.882  1.00  0.00    -0.014 A 
BRANCH  29  30
ATOM     30  C   UNL A   1      39.638  28.890  29.233  1.00  0.00     0.031 A 
ATOM     31  C   UNL A   1      40.546  29.876  29.926  1.00  0.00     0.074 A 
ATOM     32  C   UNL A   1      40.113  27.678  28.884  1.00  0.00     0.049 A 
ATOM     33  N   UNL A   1      41.817  29.763  30.222  1.00  0.00    -0.248 NA
ATOM     34  C   UNL A   1      39.954  31.167  30.312  1.00  0.00     0.031 C 
ATOM     35  C   UNL A   1      39.355  26.635  28.188  1.00  0.00     0.029 A 
ATOM     36  N   UNL A   1      41.356  27.119  29.061  1.00  0.00    -0.354 N 
ATOM     37  C   UNL A   1      42.181  30.977  30.796  1.00  0.00     0.074 A 
ATOM     38  C   UNL A   1      41.009  31.825  30.769  1.00  0.00     0.031 C 
ATOM     39  C   UNL A   1      40.140  25.558  28.020  1.00  0.00     0.029 A 
ATOM     40  C   UNL A   1      41.467  25.845  28.557  1.00  0.00     0.049 A 
ATOM     41  H   UNL A   1      42.097  27.588  29.509  1.00  0.00     0.167 HD
ATOM     42  C   UNL A   1      43.375  31.350  31.316  1.00  0.00     0.031 A 
ATOM     43  C   UNL A   1      42.518  25.002  28.523  1.00  0.00     0.031 A 
ATOM     44  C   UNL A   1      44.532  30.499  31.377  1.00  0.00     0.049 A 
ATOM     45  C   UNL A   1      43.832  25.431  29.119  1.00  0.00     0.074 A 
ATOM     46  C   UNL A   1      45.773  30.771  31.930  1.00  0.00     0.029 A 
ATOM     47  N   UNL A   1      44.591  29.207  30.879  1.00  0.00    -0.354 N 
ATOM     48  N   UNL A   1      44.143  26.572  29.686  1.00  0.00    -0.248 NA
ATOM     49  C   UNL A   1      44.931  24.457  29.077  1.00  0.00     0.031 C 
ATOM     50  C   UNL A   1      46.591  29.654  31.737  1.00  0.00     0.029 A 
ATOM     51  C   UNL A   1      45.847  28.671  31.104  1.00  0.00     0.049 A 
ATOM     52  H   UNL A   1      43.848  28.741  30.431  1.00  0.00     0.167 HD
ATOM     53  C   UNL A   1      45.466  26.439  30.096  1.00  0.00     0.074 A 
ATOM     54  C   UNL A   1      45.892  25.108  29.718  1.00  0.00     0.031 C 
ATOM     55  C   UNL A   1      46.253  27.341  30.732  1.00  0.00     0.031 A 
BRANCH  42  56
ATOM     56  C   UNL A   1      43.486  32.749  31.864  1.00  0.00    -0.014 A 
ATOM     57  C   UNL A   1      43.238  33.016  33.223  1.00  0.00     0.010 A 
ATOM     58  C   UNL A   1      43.865  33.803  31.016  1.00  0.00     0.010 A 
ATOM     59  C   UNL A   1      43.321  34.322  33.712  1.00  0.00     0.020 A 
ATOM     60  C   UNL A   1      43.976  35.108  31.507  1.00  0.00     0.020 A 
ATOM     61  C   UNL A   1      43.683  35.361  32.849  1.00  0.00     0.054 A 
BRANCH  61  62
ATOM     62  S   UNL A   1      43.791  37.046  33.512  1.00  0.00     0.124 S 
ATOM     63  O   UNL A   1      45.015  36.979  34.305  1.00  0.00    -0.237 OA
ATOM     64  O   UNL A   1      43.869  37.864  32.304  1.00  0.00    -0.237 OA
ATOM     65  O   UNL A   1      42.557  37.195  34.281  1.00  0.00    -0.744 OA
ENDBRANCH  61  62
ENDBRANCH  42  56
BRANCH  43  66
ATOM     66  C   UNL A   1      42.367  23.651  27.916  1.00  0.00    -0.014 A 
ATOM     67  C   UNL A   1      42.920  23.376  26.653  1.00  0.00     0.010 A 
ATOM     68  C   UNL A   1      41.681  22.634  28.602  1.00  0.00     0.010 A 
ATOM     69  C   UNL A   1      42.776  22.109  26.079  1.00  0.00     0.020 A 
ATOM     70  C   UNL A   1      41.556  21.359  28.042  1.00  0.00     0.020 A 
ATOM     71  C   UNL A   1      42.096  21.108  26.778  1.00  0.00     0.054 A 
BRANCH  71  72
ATOM     72  S   UNL A   1      41.971  19.454  26.043  1.00  0.00     0.124 S 
ATOM     73  O   UNL A   1      40.534  19.328  25.823  1.00  0.00    -0.237 OA
ATOM     74  O   UNL A   1      42.787  19.579  24.837  1.00  0.00    -0.237 OA
ATOM     75  O   UNL A   1      42.529  18.581  27.073  1.00  0.00    -0.744 OA
ENDBRANCH  71  72
ENDBRANCH  43  66
BRANCH  55  76
ATOM     76  C   UNL A   1      47.646  26.908  31.103  1.00  0.00    -0.014 A 
ATOM     77  C   UNL A   1      47.920  26.330  32.355  1.00  0.00     0.010 A 
ATOM     78  C   UNL A   1      48.680  27.023  30.157  1.00  0.00     0.010 A 
ATOM     79  C   UNL A   1      49.211  25.894  32.661  1.00  0.00     0.020 A 
ATOM     80  C   UNL A   1      49.967  26.568  30.451  1.00  0.00     0.020 A 
ATOM     81  C   UNL A   1      50.227  26.015  31.708  1.00  0.00     0.054 A 
BRANCH  81  82
ATOM     82  S   UNL A   1      51.884  25.391  32.106  1.00  0.00     0.124 S 
ATOM     83  O   UNL A   1      52.690  25.970  31.036  1.00  0.00    -0.237 OA
ATOM     84  O   UNL A   1      52.122  25.937  33.440  1.00  0.00    -0.237 OA
ATOM     85  O   UNL A   1      51.728  23.939  32.053  1.00  0.00    -0.744 OA
ENDBRANCH  81  82
ENDBRANCH  55  76
ENDBRANCH  29  30
ENDBRANCH  21  24
ENDBRANCH  19  20
ENDBRANCH   1  19
TORSDOF 15
ENDMDL
MODEL 3
REMARK VINA RESULT:      -9.1      4.972     11.994
REMARK SMILES CCNC(=O)N1CC[C@@H](C(=O)NCCCNC(=O)c2ccc(-c3c4nc(c(-c5ccc(S(=O)(=O)[O-])cc5)c5ccc([nH]5)c(-c5ccc(S(=O)(=O)[O-])cc5)c5nc(c(-c6ccc(S(=O)(=O)[O-])cc6)c6ccc3[nH]6)C=C5)C=C4)cc2)[C@H]1C
REMARK SMILES IDX 14 1 13 2 12 3 10 4 11 5 9 7 6 8 7 9 79 10 8 11 80 12 4 13
REMARK SMILES IDX 3 14 5 16 2 17 1 18 15 19 16 20 17 21 18 23 19 24 20 25
REMARK SMILES IDX 78 26 21 27 77 28 22 29 23 30 24 31 71 32 25 33 76 34 70 35
REMARK SMILES IDX 72 36 26 37 75 38 69 39 68 40 27 42 57 43 38 44 56 45 39 46
REMARK SMILES IDX 42 47 55 48 73 49 40 50 41 51 54 53 74 54 43 55 28 56 29 57
REMARK SMILES IDX 37 58 30 59 36 60 31 61 32 62 33 63 34 64 35 65 58 66 59 67
REMARK SMILES IDX 67 68 60 69 66 70 61 71 62 72 63 73 64 74 65 75 44 76 45 77
REMARK SMILES IDX 53 78 46 79 52 80 47 81 48 82 49 83 50 84 51 85
REMARK H PARENT 12 6 3 15 16 22 72 41 42 52
REMARK Flexibility Score: inf
ROOT
ATOM      1  C   UNL A   1      34.356  29.027  27.082  1.00  0.00     0.042 C 
ENDROOT
BRANCH   1   2
ATOM      2  C   UNL A   1      32.905  29.459  27.290  1.00  0.00     0.117 C 
BRANCH   2   3
ATOM      3  N   UNL A   1      31.980  28.337  27.352  1.00  0.00    -0.356 N 
ATOM      4  C   UNL A   1      31.468  27.510  26.409  1.00  0.00     0.225 C 
ATOM      5  O   UNL A   1      30.698  26.630  26.811  1.00  0.00    -0.275 OA
ATOM      6  H   UNL A   1      31.661  28.139  28.262  1.00  0.00     0.163 HD
BRANCH   4   7
ATOM      7  C   UNL A   1      31.778  27.603  24.925  1.00  0.00     0.102 C 
ATOM      8  N   UNL A   1      32.063  25.944  23.229  1.00  0.00    -0.321 N 
ATOM      9  C   UNL A   1      31.018  26.843  22.777  1.00  0.00     0.122 C 
ATOM     10  C   UNL A   1      32.783  26.597  24.329  1.00  0.00     0.096 C 
ATOM     11  C   UNL A   1      30.552  27.587  24.010  1.00  0.00     0.037 C 
ATOM     12  C   UNL A   1      33.504  25.693  25.314  1.00  0.00     0.032 C 
BRANCH   8  13
ATOM     13  C   UNL A   1      32.762  25.288  22.240  1.00  0.00     0.317 C 
ATOM     14  N   UNL A   1      32.757  23.934  22.244  1.00  0.00    -0.338 N 
ATOM     15  H   UNL A   1      33.443  23.509  21.681  1.00  0.00     0.165 HD
ATOM     16  O   UNL A   1      33.351  25.880  21.335  1.00  0.00    -0.249 OA
BRANCH  14  17
ATOM     17  C   UNL A   1      31.889  23.018  22.958  1.00  0.00     0.114 C 
ATOM     18  C   UNL A   1      32.632  21.747  23.330  1.00  0.00     0.027 C 
ENDBRANCH  14  17
ENDBRANCH   8  13
ENDBRANCH   4   7
ENDBRANCH   2   3
ENDBRANCH   1   2
BRANCH   1  19
ATOM     19  C   UNL A   1      35.405  30.017  27.573  1.00  0.00     0.118 C 
BRANCH  19  20
ATOM     20  N   UNL A   1      35.347  30.238  29.007  1.00  0.00    -0.352 N 
ATOM     21  C   UNL A   1      36.283  29.988  29.983  1.00  0.00     0.251 C 
ATOM     22  H   UNL A   1      34.503  30.628  29.332  1.00  0.00     0.163 HD
ATOM     23  O   UNL A   1      35.951  30.074  31.162  1.00  0.00    -0.269 OA
BRANCH  21  24
ATOM     24  C   UNL A   1      37.672  29.593  29.638  1.00  0.00     0.039 A 
ATOM     25  C   UNL A   1      38.088  29.693  28.305  1.00  0.00     0.014 A 
ATOM     26  C   UNL A   1      38.551  29.072  30.590  1.00  0.00     0.014 A 
ATOM     27  C   UNL A   1      39.390  29.326  27.944  1.00  0.00     0.010 A 
ATOM     28  C   UNL A   1      39.873  28.790  30.248  1.00  0.00     0.010 A 
ATOM     29  C   UNL A   1      40.305  28.894  28.917  1.00  0.00    -0.014 A 
BRANCH  29  30
ATOM     30  C   UNL A   1      41.697  28.502  28.564  1.00  0.00     0.031 A 
ATOM     31  C   UNL A   1      42.788  29.544  28.542  1.00  0.00     0.074 A 
ATOM     32  C   UNL A   1      41.978  27.234  28.206  1.00  0.00     0.049 A 
ATOM     33  N   UNL A   1      44.036  29.426  28.161  1.00  0.00    -0.248 NA
ATOM     34  C   UNL A   1      42.422  30.901  28.980  1.00  0.00     0.031 C 
ATOM     35  C   UNL A   1      41.016  26.130  28.157  1.00  0.00     0.029 A 
ATOM     36  N   UNL A   1      43.160  26.659  27.805  1.00  0.00    -0.354 N 
ATOM     37  C   UNL A   1      44.590  30.696  28.283  1.00  0.00     0.074 A 
ATOM     38  C   UNL A   1      43.534  31.576  28.732  1.00  0.00     0.031 C 
ATOM     39  C   UNL A   1      41.650  25.010  27.774  1.00  0.00     0.029 A 
ATOM     40  C   UNL A   1      43.052  25.320  27.510  1.00  0.00     0.049 A 
ATOM     41  H   UNL A   1      44.005  27.159  27.736  1.00  0.00     0.167 HD
ATOM     42  C   UNL A   1      45.866  31.095  28.060  1.00  0.00     0.031 A 
ATOM     43  C   UNL A   1      43.974  24.441  27.069  1.00  0.00     0.031 A 
ATOM     44  C   UNL A   1      46.927  30.217  27.647  1.00  0.00     0.049 A 
ATOM     45  C   UNL A   1      45.388  24.902  26.841  1.00  0.00     0.074 A 
ATOM     46  C   UNL A   1      48.263  30.519  27.443  1.00  0.00     0.029 A 
ATOM     47  N   UNL A   1      46.778  28.864  27.387  1.00  0.00    -0.354 N 
ATOM     48  N   UNL A   1      45.897  26.101  26.994  1.00  0.00    -0.248 NA
ATOM     49  C   UNL A   1      46.352  23.889  26.389  1.00  0.00     0.031 C 
ATOM     50  C   UNL A   1      48.916  29.354  27.028  1.00  0.00     0.029 A 
ATOM     51  C   UNL A   1      47.995  28.318  27.016  1.00  0.00     0.049 A 
ATOM     52  H   UNL A   1      45.932  28.366  27.454  1.00  0.00     0.167 HD
ATOM     53  C   UNL A   1      47.248  25.978  26.687  1.00  0.00     0.074 A 
ATOM     54  C   UNL A   1      47.478  24.590  26.346  1.00  0.00     0.031 C 
ATOM     55  C   UNL A   1      48.211  26.932  26.691  1.00  0.00     0.031 A 
BRANCH  42  56
ATOM     56  C   UNL A   1      46.181  32.554  28.260  1.00  0.00    -0.014 A 
ATOM     57  C   UNL A   1      46.610  33.037  29.510  1.00  0.00     0.010 A 
ATOM     58  C   UNL A   1      46.070  33.447  27.181  1.00  0.00     0.010 A 
ATOM     59  C   UNL A   1      46.877  34.396  29.688  1.00  0.00     0.020 A 
ATOM     60  C   UNL A   1      46.361  34.805  27.348  1.00  0.00     0.020 A 
ATOM     61  C   UNL A   1      46.743  35.274  28.607  1.00  0.00     0.054 A 
BRANCH  61  62
ATOM     62  S   UNL A   1      47.102  37.033  28.863  1.00  0.00     0.124 S 
ATOM     63  O   UNL A   1      47.408  37.072  30.291  1.00  0.00    -0.237 OA
ATOM     64  O   UNL A   1      48.235  37.265  27.971  1.00  0.00    -0.237 OA
ATOM     65  O   UNL A   1      45.861  37.699  28.473  1.00  0.00    -0.744 OA
ENDBRANCH  61  62
ENDBRANCH  42  56
BRANCH  43  66
ATOM     66  C   UNL A   1      43.592  23.022  26.832  1.00  0.00    -0.014 A 
ATOM     67  C   UNL A   1      43.859  22.414  25.593  1.00  0.00     0.010 A 
ATOM     68  C   UNL A   1      42.971  22.271  27.846  1.00  0.00     0.010 A 
ATOM     69  C   UNL A   1      43.497  21.082  25.366  1.00  0.00     0.020 A 
ATOM     70  C   UNL A   1      42.630  20.932  27.631  1.00  0.00     0.020 A 
ATOM     71  C   UNL A   1      42.886  20.349  26.387  1.00  0.00     0.054 A 
BRANCH  71  72
ATOM     72  S   UNL A   1      42.478  18.606  26.094  1.00  0.00     0.124 S 
ATOM     73  O   UNL A   1      42.770  18.004  27.391  1.00  0.00    -0.237 OA
ATOM     74  O   UNL A   1      41.065  18.668  25.728  1.00  0.00    -0.237 OA
ATOM     75  O   UNL A   1      43.377  18.225  25.007  1.00  0.00    -0.744 OA
ENDBRANCH  71  72
ENDBRANCH  43  66
BRANCH  55  76
ATOM     76  C   UNL A   1      49.615  26.505  26.359  1.00  0.00    -0.014 A 
ATOM     77  C   UNL A   1      50.151  26.697  25.074  1.00  0.00     0.010 A 
ATOM     78  C   UNL A   1      50.429  25.962  27.370  1.00  0.00     0.010 A 
ATOM     79  C   UNL A   1      51.472  26.334  24.800  1.00  0.00     0.020 A 
ATOM     80  C   UNL A   1      51.756  25.618  27.106  1.00  0.00     0.020 A 
ATOM     81  C   UNL A   1      52.266  25.796  25.818  1.00  0.00     0.054 A 
BRANCH  81  82
ATOM     82  S   UNL A   1      53.996  25.385  25.455  1.00  0.00     0.124 S 
ATOM     83  O   UNL A   1      54.403  26.505  24.611  1.00  0.00    -0.237 OA
ATOM     84  O   UNL A   1      54.603  25.345  26.784  1.00  0.00    -0.237 OA
ATOM     85  O   UNL A   1      53.910  24.093  24.778  1.00  0.00    -0.744 OA
ENDBRANCH  81  82
ENDBRANCH  55  76
ENDBRANCH  29  30
ENDBRANCH  21  24
ENDBRANCH  19  20
ENDBRANCH   1  19
TORSDOF 15
ENDMDL
