MODEL 1
REMARK VINA RESULT:     -10.8      0.000      0.000
REMARK SMILES COCCC(=O)N[C@@H](Cc1c[nH]c2ccccc12)C(=O)NCCCNC(=O)c1ccc(-c2c3nc(c(-c4ccc(S(=O)(=O)[O-])cc4)c4ccc([nH]4)c(-c4ccc(S(=O)(=O)[O-])cc4)c4nc(c(-c5ccc(S(=O)(=O)[O-])cc5)c5ccc2[nH]5)C=C4)C=C3)cc1
REMARK SMILES IDX 22 1 21 2 19 3 20 4 8 6 7 7 5 8 6 9 4 11 3 12 2 13 1 14 9 15
REMARK SMILES IDX 10 16 11 17 18 18 12 19 13 20 17 21 14 23 16 24 15 25 23 26
REMARK SMILES IDX 24 27 25 28 26 29 27 31 28 32 29 33 87 34 30 35 86 36 31 37
REMARK SMILES IDX 32 38 33 39 80 40 34 41 85 42 79 43 81 44 35 45 84 46 78 47
REMARK SMILES IDX 77 48 36 50 66 51 47 52 65 53 48 54 51 55 64 56 82 57 49 58
REMARK SMILES IDX 50 59 63 61 83 62 52 63 37 64 38 65 46 66 39 67 45 68 40 69
REMARK SMILES IDX 41 70 42 71 43 72 44 73 67 74 68 75 76 76 69 77 75 78 70 79
REMARK SMILES IDX 71 80 72 81 73 82 74 83 53 84 54 85 62 86 55 87 61 88 56 89
REMARK SMILES IDX 57 90 58 91 59 92 60 93
REMARK H PARENT 21 5 7 10 12 22 25 30 81 49 51 60
REMARK Flexibility Score: inf
ROOT
ATOM      1  C   UNL A   1      31.596  27.363  26.289  1.00  0.00     0.117 C 
ENDROOT
BRANCH   1   2
ATOM      2  N   UNL A   1      31.034  26.146  26.808  1.00  0.00    -0.354 N 
ATOM      3  C   UNL A   1      30.659  25.052  26.074  1.00  0.00     0.242 C 
ATOM      4  O   UNL A   1      30.397  24.015  26.691  1.00  0.00    -0.273 OA
ATOM      5  H   UNL A   1      30.907  26.095  27.784  1.00  0.00     0.163 HD
BRANCH   3   6
ATOM      6  C   UNL A   1      30.527  25.107  24.523  1.00  0.00     0.175 C 
BRANCH   6   7
ATOM      7  N   UNL A   1      30.659  23.753  23.977  1.00  0.00    -0.344 N 
ATOM      8  C   UNL A   1      31.636  23.203  23.208  1.00  0.00     0.222 C 
ATOM      9  O   UNL A   1      31.529  22.020  22.882  1.00  0.00    -0.275 OA
ATOM     10  H   UNL A   1      29.919  23.143  24.203  1.00  0.00     0.164 HD
BRANCH   8  11
ATOM     11  C   UNL A   1      32.799  24.034  22.730  1.00  0.00     0.128 C 
BRANCH  11  12
ATOM     12  C   UNL A   1      33.899  24.104  23.777  1.00  0.00     0.169 C 
BRANCH  12  13
ATOM     13  O   UNL A   1      33.591  23.291  24.911  1.00  0.00    -0.384 OA
ATOM     14  C   UNL A   1      34.444  22.156  25.036  1.00  0.00     0.194 C 
ENDBRANCH  12  13
ENDBRANCH  11  12
ENDBRANCH   8  11
ENDBRANCH   6   7
BRANCH   6  15
ATOM     15  C   UNL A   1      29.395  26.001  23.943  1.00  0.00     0.072 C 
BRANCH  15  16
ATOM     16  C   UNL A   1      29.675  27.267  23.154  1.00  0.00    -0.020 A 
ATOM     17  C   UNL A   1      30.890  27.514  22.530  1.00  0.00     0.087 A 
ATOM     18  C   UNL A   1      28.873  28.453  22.929  1.00  0.00     0.003 A 
ATOM     19  N   UNL A   1      30.911  28.812  22.100  1.00  0.00    -0.361 N 
ATOM     20  C   UNL A   1      29.738  29.437  22.440  1.00  0.00     0.046 A 
ATOM     21  C   UNL A   1      27.552  28.853  23.234  1.00  0.00     0.010 A 
ATOM     22  H   UNL A   1      31.658  29.235  21.618  1.00  0.00     0.166 HD
ATOM     23  C   UNL A   1      29.400  30.795  22.369  1.00  0.00     0.026 A 
ATOM     24  C   UNL A   1      27.205  30.211  23.199  1.00  0.00     0.001 A 
ATOM     25  C   UNL A   1      28.127  31.171  22.797  1.00  0.00     0.002 A 
ENDBRANCH  15  16
ENDBRANCH   6  15
ENDBRANCH   3   6
ENDBRANCH   1   2
BRANCH   1  26
ATOM     26  C   UNL A   1      31.781  28.498  27.265  1.00  0.00     0.042 C 
BRANCH  26  27
ATOM     27  C   UNL A   1      33.233  28.812  27.554  1.00  0.00     0.118 C 
BRANCH  27  28
ATOM     28  N   UNL A   1      33.519  30.246  27.623  1.00  0.00    -0.352 N 
ATOM     29  C   UNL A   1      34.638  30.957  27.999  1.00  0.00     0.251 C 
ATOM     30  H   UNL A   1      32.763  30.814  27.347  1.00  0.00     0.163 HD
ATOM     31  O   UNL A   1      34.551  32.170  28.132  1.00  0.00    -0.269 OA
BRANCH  29  32
ATOM     32  C   UNL A   1      35.921  30.268  28.277  1.00  0.00     0.039 A 
ATOM     33  C   UNL A   1      36.901  30.220  27.280  1.00  0.00     0.014 A 
ATOM     34  C   UNL A   1      36.173  29.678  29.511  1.00  0.00     0.014 A 
ATOM     35  C   UNL A   1      38.165  29.695  27.572  1.00  0.00     0.010 A 
ATOM     36  C   UNL A   1      37.464  29.297  29.845  1.00  0.00     0.010 A 
ATOM     37  C   UNL A   1      38.480  29.298  28.880  1.00  0.00    -0.014 A 
BRANCH  37  38
ATOM     38  C   UNL A   1      39.848  28.888  29.287  1.00  0.00     0.031 A 
ATOM     39  C   UNL A   1      40.763  29.884  29.954  1.00  0.00     0.074 A 
ATOM     40  C   UNL A   1      40.309  27.666  28.948  1.00  0.00     0.049 A 
ATOM     41  N   UNL A   1      42.038  29.782  30.222  1.00  0.00    -0.248 NA
ATOM     42  C   UNL A   1      40.174  31.182  30.328  1.00  0.00     0.031 C 
ATOM     43  C   UNL A   1      39.540  26.626  28.258  1.00  0.00     0.029 A 
ATOM     44  N   UNL A   1      41.546  27.097  29.121  1.00  0.00    -0.354 N 
ATOM     45  C   UNL A   1      42.409  31.009  30.760  1.00  0.00     0.074 A 
ATOM     46  C   UNL A   1      41.240  31.859  30.729  1.00  0.00     0.031 C 
ATOM     47  C   UNL A   1      40.312  25.541  28.094  1.00  0.00     0.029 A 
ATOM     48  C   UNL A   1      41.646  25.824  28.608  1.00  0.00     0.049 A 
ATOM     49  H   UNL A   1      42.292  27.556  29.571  1.00  0.00     0.167 HD
ATOM     50  C   UNL A   1      43.610  31.390  31.257  1.00  0.00     0.031 A 
ATOM     51  C   UNL A   1      42.699  24.986  28.536  1.00  0.00     0.031 A 
ATOM     52  C   UNL A   1      44.761  30.530  31.314  1.00  0.00     0.049 A 
ATOM     53  C   UNL A   1      44.026  25.436  29.082  1.00  0.00     0.074 A 
ATOM     54  C   UNL A   1      46.002  30.792  31.867  1.00  0.00     0.029 A 
ATOM     55  N   UNL A   1      44.812  29.243  30.800  1.00  0.00    -0.354 N 
ATOM     56  N   UNL A   1      44.338  26.575  29.652  1.00  0.00    -0.248 NA
ATOM     57  C   UNL A   1      45.144  24.488  28.974  1.00  0.00     0.031 C 
ATOM     58  C   UNL A   1      46.821  29.683  31.637  1.00  0.00     0.029 A 
ATOM     59  C   UNL A   1      46.074  28.709  30.993  1.00  0.00     0.049 A 
ATOM     60  H   UNL A   1      44.062  28.778  30.364  1.00  0.00     0.167 HD
ATOM     61  C   UNL A   1      45.684  26.475  29.986  1.00  0.00     0.074 A 
ATOM     62  C   UNL A   1      46.120  25.156  29.575  1.00  0.00     0.031 C 
ATOM     63  C   UNL A   1      46.489  27.394  30.575  1.00  0.00     0.031 A 
BRANCH  50  64
ATOM     64  C   UNL A   1      43.736  32.797  31.782  1.00  0.00    -0.014 A 
ATOM     65  C   UNL A   1      43.586  33.078  33.152  1.00  0.00     0.010 A 
ATOM     66  C   UNL A   1      44.048  33.847  30.900  1.00  0.00     0.010 A 
ATOM     67  C   UNL A   1      43.703  34.388  33.624  1.00  0.00     0.020 A 
ATOM     68  C   UNL A   1      44.197  35.155  31.372  1.00  0.00     0.020 A 
ATOM     69  C   UNL A   1      44.007  35.418  32.729  1.00  0.00     0.054 A 
BRANCH  69  70
ATOM     70  S   UNL A   1      44.178  37.104  33.377  1.00  0.00     0.124 S 
ATOM     71  O   UNL A   1      44.515  37.857  32.171  1.00  0.00    -0.237 OA
ATOM     72  O   UNL A   1      42.854  37.369  33.933  1.00  0.00    -0.237 OA
ATOM     73  O   UNL A   1      45.253  36.990  34.360  1.00  0.00    -0.744 OA
ENDBRANCH  69  70
ENDBRANCH  50  64
BRANCH  51  74
ATOM     74  C   UNL A   1      42.540  23.638  27.922  1.00  0.00    -0.014 A 
ATOM     75  C   UNL A   1      42.794  23.448  26.553  1.00  0.00     0.010 A 
ATOM     76  C   UNL A   1      42.149  22.535  28.704  1.00  0.00     0.010 A 
ATOM     77  C   UNL A   1      42.643  22.185  25.973  1.00  0.00     0.020 A 
ATOM     78  C   UNL A   1      42.025  21.265  28.133  1.00  0.00     0.020 A 
ATOM     79  C   UNL A   1      42.262  21.101  26.768  1.00  0.00     0.054 A 
BRANCH  79  80
ATOM     80  S   UNL A   1      42.121  19.462  26.000  1.00  0.00     0.124 S 
ATOM     81  O   UNL A   1      42.631  18.589  27.053  1.00  0.00    -0.237 OA
ATOM     82  O   UNL A   1      40.688  19.362  25.734  1.00  0.00    -0.237 OA
ATOM     83  O   UNL A   1      42.962  19.568  24.810  1.00  0.00    -0.744 OA
ENDBRANCH  79  80
ENDBRANCH  51  74
BRANCH  63  84
ATOM     84  C   UNL A   1      47.919  27.004  30.825  1.00  0.00    -0.014 A 
ATOM     85  C   UNL A   1      48.893  27.145  29.821  1.00  0.00     0.010 A 
ATOM     86  C   UNL A   1      48.308  26.566  32.104  1.00  0.00     0.010 A 
ATOM     87  C   UNL A   1      50.230  26.839  30.088  1.00  0.00     0.020 A 
ATOM     88  C   UNL A   1      49.648  26.288  32.383  1.00  0.00     0.020 A 
ATOM     89  C   UNL A   1      50.599  26.418  31.369  1.00  0.00     0.054 A 
BRANCH  89  90
ATOM     90  S   UNL A   1      52.352  26.095  31.707  1.00  0.00     0.124 S 
ATOM     91  O   UNL A   1      52.368  24.643  31.868  1.00  0.00    -0.237 OA
ATOM     92  O   UNL A   1      53.007  26.601  30.503  1.00  0.00    -0.237 OA
ATOM     93  O   UNL A   1      52.618  26.860  32.923  1.00  0.00    -0.744 OA
ENDBRANCH  89  90
ENDBRANCH  63  84
ENDBRANCH  37  38
ENDBRANCH  29  32
ENDBRANCH  27  28
ENDBRANCH  26  27
ENDBRANCH   1  26
TORSDOF 19
ENDMDL
MODEL 2
REMARK VINA RESULT:     -10.2      2.857      9.448
REMARK SMILES COCCC(=O)N[C@@H](Cc1c[nH]c2ccccc12)C(=O)NCCCNC(=O)c1ccc(-c2c3nc(c(-c4ccc(S(=O)(=O)[O-])cc4)c4ccc([nH]4)c(-c4ccc(S(=O)(=O)[O-])cc4)c4nc(c(-c5ccc(S(=O)(=O)[O-])cc5)c5ccc2[nH]5)C=C4)C=C3)cc1
REMARK SMILES IDX 22 1 21 2 19 3 20 4 8 6 7 7 5 8 6 9 4 11 3 12 2 13 1 14 9 15
REMARK SMILES IDX 10 16 11 17 18 18 12 19 13 20 17 21 14 23 16 24 15 25 23 26
REMARK SMILES IDX 24 27 25 28 26 29 27 31 28 32 29 33 87 34 30 35 86 36 31 37
REMARK SMILES IDX 32 38 33 39 80 40 34 41 85 42 79 43 81 44 35 45 84 46 78 47
REMARK SMILES IDX 77 48 36 50 66 51 47 52 65 53 48 54 51 55 64 56 82 57 49 58
REMARK SMILES IDX 50 59 63 61 83 62 52 63 37 64 38 65 46 66 39 67 45 68 40 69
REMARK SMILES IDX 41 70 42 71 43 72 44 73 67 74 68 75 76 76 69 77 75 78 70 79
REMARK SMILES IDX 71 80 72 81 73 82 74 83 53 84 54 85 62 86 55 87 61 88 56 89
REMARK SMILES IDX 57 90 58 91 59 92 60 93
REMARK H PARENT 21 5 7 10 12 22 25 30 81 49 51 60
REMARK Flexibility Score: inf
ROOT
ATOM      1  C   UNL A   1      34.890  23.277  24.150  1.00  0.00     0.117 C 
ENDROOT
BRANCH   1   2
ATOM      2  N   UNL A   1      34.563  23.130  22.759  1.00  0.00    -0.354 N 
ATOM      3  C   UNL A   1      33.446  23.621  22.137  1.00  0.00     0.242 C 
ATOM      4  O   UNL A   1      33.423  23.592  20.902  1.00  0.00    -0.273 OA
ATOM      5  H   UNL A   1      35.203  22.631  22.201  1.00  0.00     0.163 HD
BRANCH   3   6
ATOM      6  C   UNL A   1      32.226  24.161  22.940  1.00  0.00     0.175 C 
BRANCH   6   7
ATOM      7  N   UNL A   1      31.651  25.311  22.234  1.00  0.00    -0.344 N 
ATOM      8  C   UNL A   1      31.084  26.448  22.714  1.00  0.00     0.222 C 
ATOM      9  O   UNL A   1      30.681  27.288  21.908  1.00  0.00    -0.275 OA
ATOM     10  H   UNL A   1      31.680  25.247  21.251  1.00  0.00     0.164 HD
BRANCH   8  11
ATOM     11  C   UNL A   1      30.912  26.655  24.197  1.00  0.00     0.128 C 
BRANCH  11  12
ATOM     12  C   UNL A   1      31.911  27.666  24.737  1.00  0.00     0.169 C 
BRANCH  12  13
ATOM     13  O   UNL A   1      33.233  27.125  24.770  1.00  0.00    -0.384 OA
ATOM     14  C   UNL A   1      33.445  26.227  25.857  1.00  0.00     0.194 C 
ENDBRANCH  12  13
ENDBRANCH  11  12
ENDBRANCH   8  11
ENDBRANCH   6   7
BRANCH   6  15
ATOM     15  C   UNL A   1      31.235  23.109  23.511  1.00  0.00     0.072 C 
BRANCH  15  16
ATOM     16  C   UNL A   1      31.678  21.978  24.422  1.00  0.00    -0.020 A 
ATOM     17  C   UNL A   1      31.862  22.136  25.788  1.00  0.00     0.087 A 
ATOM     18  C   UNL A   1      32.058  20.609  24.133  1.00  0.00     0.003 A 
ATOM     19  N   UNL A   1      32.469  21.017  26.286  1.00  0.00    -0.361 N 
ATOM     20  C   UNL A   1      32.707  20.123  25.273  1.00  0.00     0.046 A 
ATOM     21  C   UNL A   1      32.068  19.783  22.986  1.00  0.00     0.010 A 
ATOM     22  H   UNL A   1      32.703  20.874  27.232  1.00  0.00     0.166 HD
ATOM     23  C   UNL A   1      33.463  18.943  25.285  1.00  0.00     0.026 A 
ATOM     24  C   UNL A   1      32.844  18.615  22.970  1.00  0.00     0.001 A 
ATOM     25  C   UNL A   1      33.554  18.217  24.098  1.00  0.00     0.002 A 
ENDBRANCH  15  16
ENDBRANCH   6  15
ENDBRANCH   3   6
ENDBRANCH   1   2
BRANCH   1  26
ATOM     26  C   UNL A   1      36.346  23.482  24.489  1.00  0.00     0.042 C 
BRANCH  26  27
ATOM     27  C   UNL A   1      36.698  23.078  25.904  1.00  0.00     0.118 C 
BRANCH  27  28
ATOM     28  N   UNL A   1      37.983  22.385  26.012  1.00  0.00    -0.352 N 
ATOM     29  C   UNL A   1      39.242  22.808  26.379  1.00  0.00     0.251 C 
ATOM     30  H   UNL A   1      37.940  21.429  25.775  1.00  0.00     0.163 HD
ATOM     31  O   UNL A   1      40.191  22.054  26.213  1.00  0.00    -0.269 OA
BRANCH  29  32
ATOM     32  C   UNL A   1      39.460  24.167  26.932  1.00  0.00     0.039 A 
ATOM     33  C   UNL A   1      39.056  24.445  28.241  1.00  0.00     0.014 A 
ATOM     34  C   UNL A   1      40.066  25.166  26.177  1.00  0.00     0.014 A 
ATOM     35  C   UNL A   1      39.376  25.677  28.821  1.00  0.00     0.010 A 
ATOM     36  C   UNL A   1      40.514  26.324  26.796  1.00  0.00     0.010 A 
ATOM     37  C   UNL A   1      40.175  26.598  28.127  1.00  0.00    -0.014 A 
BRANCH  37  38
ATOM     38  C   UNL A   1      40.683  27.848  28.748  1.00  0.00     0.031 A 
ATOM     39  C   UNL A   1      42.076  27.885  29.325  1.00  0.00     0.074 A 
ATOM     40  C   UNL A   1      39.857  28.902  28.903  1.00  0.00     0.049 A 
ATOM     41  N   UNL A   1      42.640  28.808  30.060  1.00  0.00    -0.248 NA
ATOM     42  C   UNL A   1      42.931  26.711  29.080  1.00  0.00     0.031 C 
ATOM     43  C   UNL A   1      38.471  28.975  28.432  1.00  0.00     0.029 A 
ATOM     44  N   UNL A   1      40.057  30.112  29.520  1.00  0.00    -0.354 N 
ATOM     45  C   UNL A   1      43.895  28.311  30.392  1.00  0.00     0.074 A 
ATOM     46  C   UNL A   1      43.990  26.983  29.827  1.00  0.00     0.031 C 
ATOM     47  C   UNL A   1      37.957  30.174  28.751  1.00  0.00     0.029 A 
ATOM     48  C   UNL A   1      38.951  30.932  29.501  1.00  0.00     0.049 A 
ATOM     49  H   UNL A   1      40.911  30.370  29.936  1.00  0.00     0.167 HD
ATOM     50  C   UNL A   1      44.890  28.912  31.087  1.00  0.00     0.031 A 
ATOM     51  C   UNL A   1      38.750  32.147  30.048  1.00  0.00     0.031 A 
ATOM     52  C   UNL A   1      44.801  30.245  31.620  1.00  0.00     0.049 A 
ATOM     53  C   UNL A   1      39.865  32.789  30.826  1.00  0.00     0.074 A 
ATOM     54  C   UNL A   1      45.778  30.976  32.271  1.00  0.00     0.029 A 
ATOM     55  N   UNL A   1      43.670  31.046  31.561  1.00  0.00    -0.354 N 
ATOM     56  N   UNL A   1      41.070  32.332  31.068  1.00  0.00    -0.248 NA
ATOM     57  C   UNL A   1      39.592  34.111  31.407  1.00  0.00     0.031 C 
ATOM     58  C   UNL A   1      45.219  32.198  32.658  1.00  0.00     0.029 A 
ATOM     59  C   UNL A   1      43.914  32.251  32.195  1.00  0.00     0.049 A 
ATOM     60  H   UNL A   1      42.820  30.794  31.132  1.00  0.00     0.167 HD
ATOM     61  C   UNL A   1      41.705  33.317  31.815  1.00  0.00     0.074 A 
ATOM     62  C   UNL A   1      40.759  34.404  31.965  1.00  0.00     0.031 C 
ATOM     63  C   UNL A   1      42.958  33.320  32.335  1.00  0.00     0.031 A 
BRANCH  50  64
ATOM     64  C   UNL A   1      46.161  28.133  31.305  1.00  0.00    -0.014 A 
ATOM     65  C   UNL A   1      46.429  27.508  32.536  1.00  0.00     0.010 A 
ATOM     66  C   UNL A   1      47.083  27.992  30.252  1.00  0.00     0.010 A 
ATOM     67  C   UNL A   1      47.614  26.792  32.725  1.00  0.00     0.020 A 
ATOM     68  C   UNL A   1      48.256  27.250  30.426  1.00  0.00     0.020 A 
ATOM     69  C   UNL A   1      48.521  26.670  31.668  1.00  0.00     0.054 A 
BRANCH  69  70
ATOM     70  S   UNL A   1      50.037  25.711  31.936  1.00  0.00     0.124 S 
ATOM     71  O   UNL A   1      50.269  25.138  30.612  1.00  0.00    -0.237 OA
ATOM     72  O   UNL A   1      50.992  26.734  32.353  1.00  0.00    -0.237 OA
ATOM     73  O   UNL A   1      49.663  24.752  32.972  1.00  0.00    -0.744 OA
ENDBRANCH  69  70
ENDBRANCH  50  64
BRANCH  51  74
ATOM     74  C   UNL A   1      37.439  32.834  29.878  1.00  0.00    -0.014 A 
ATOM     75  C   UNL A   1      37.151  33.532  28.692  1.00  0.00     0.010 A 
ATOM     76  C   UNL A   1      36.465  32.782  30.893  1.00  0.00     0.010 A 
ATOM     77  C   UNL A   1      35.923  34.180  28.531  1.00  0.00     0.020 A 
ATOM     78  C   UNL A   1      35.225  33.404  30.723  1.00  0.00     0.020 A 
ATOM     79  C   UNL A   1      34.966  34.109  29.547  1.00  0.00     0.054 A 
BRANCH  79  80
ATOM     80  S   UNL A   1      33.361  34.918  29.292  1.00  0.00     0.124 S 
ATOM     81  O   UNL A   1      32.731  34.038  28.313  1.00  0.00    -0.237 OA
ATOM     82  O   UNL A   1      32.780  34.892  30.632  1.00  0.00    -0.237 OA
ATOM     83  O   UNL A   1      33.722  36.247  28.803  1.00  0.00    -0.744 OA
ENDBRANCH  79  80
ENDBRANCH  51  74
BRANCH  63  84
ATOM     84  C   UNL A   1      43.387  34.540  33.103  1.00  0.00    -0.014 A 
ATOM     85  C   UNL A   1      43.843  35.690  32.434  1.00  0.00     0.010 A 
ATOM     86  C   UNL A   1      43.256  34.564  34.503  1.00  0.00     0.010 A 
ATOM     87  C   UNL A   1      44.177  36.839  33.157  1.00  0.00     0.020 A 
ATOM     88  C   UNL A   1      43.562  35.719  35.225  1.00  0.00     0.020 A 
ATOM     89  C   UNL A   1      44.029  36.847  34.547  1.00  0.00     0.054 A 
BRANCH  89  90
ATOM     90  S   UNL A   1      44.404  38.374  35.452  1.00  0.00     0.124 S 
ATOM     91  O   UNL A   1      43.779  39.388  34.607  1.00  0.00    -0.237 OA
ATOM     92  O   UNL A   1      43.759  38.146  36.743  1.00  0.00    -0.237 OA
ATOM     93  O   UNL A   1      45.863  38.406  35.488  1.00  0.00    -0.744 OA
ENDBRANCH  89  90
ENDBRANCH  63  84
ENDBRANCH  37  38
ENDBRANCH  29  32
ENDBRANCH  27  28
ENDBRANCH  26  27
ENDBRANCH   1  26
TORSDOF 19
ENDMDL
MODEL 3
REMARK VINA RESULT:     -10.2      2.896      8.426
REMARK SMILES COCCC(=O)N[C@@H](Cc1c[nH]c2ccccc12)C(=O)NCCCNC(=O)c1ccc(-c2c3nc(c(-c4ccc(S(=O)(=O)[O-])cc4)c4ccc([nH]4)c(-c4ccc(S(=O)(=O)[O-])cc4)c4nc(c(-c5ccc(S(=O)(=O)[O-])cc5)c5ccc2[nH]5)C=C4)C=C3)cc1
REMARK SMILES IDX 22 1 21 2 19 3 20 4 8 6 7 7 5 8 6 9 4 11 3 12 2 13 1 14 9 15
REMARK SMILES IDX 10 16 11 17 18 18 12 19 13 20 17 21 14 23 16 24 15 25 23 26
REMARK SMILES IDX 24 27 25 28 26 29 27 31 28 32 29 33 87 34 30 35 86 36 31 37
REMARK SMILES IDX 32 38 33 39 80 40 34 41 85 42 79 43 81 44 35 45 84 46 78 47
REMARK SMILES IDX 77 48 36 50 66 51 47 52 65 53 48 54 51 55 64 56 82 57 49 58
REMARK SMILES IDX 50 59 63 61 83 62 52 63 37 64 38 65 46 66 39 67 45 68 40 69
REMARK SMILES IDX 41 70 42 71 43 72 44 73 67 74 68 75 76 76 69 77 75 78 70 79
REMARK SMILES IDX 71 80 72 81 73 82 74 83 53 84 54 85 62 86 55 87 61 88 56 89
REMARK SMILES IDX 57 90 58 91 59 92 60 93
REMARK H PARENT 21 5 7 10 12 22 25 30 81 49 51 60
REMARK Flexibility Score: inf
ROOT
ATOM      1  C   UNL A   1      32.038  27.170  26.459  1.00  0.00     0.117 C 
ENDROOT
BRANCH   1   2
ATOM      2  N   UNL A   1      30.733  26.661  26.779  1.00  0.00    -0.354 N 
ATOM      3  C   UNL A   1      30.103  25.612  26.164  1.00  0.00     0.242 C 
ATOM      4  O   UNL A   1      29.081  25.169  26.699  1.00  0.00    -0.273 OA
ATOM      5  H   UNL A   1      30.246  27.109  27.509  1.00  0.00     0.163 HD
BRANCH   3   6
ATOM      6  C   UNL A   1      30.619  25.013  24.822  1.00  0.00     0.175 C 
BRANCH   6   7
ATOM      7  N   UNL A   1      30.625  23.550  24.914  1.00  0.00    -0.344 N 
ATOM      8  C   UNL A   1      31.550  22.702  25.436  1.00  0.00     0.222 C 
ATOM      9  O   UNL A   1      31.318  21.492  25.409  1.00  0.00    -0.275 OA
ATOM     10  H   UNL A   1      29.829  23.110  24.536  1.00  0.00     0.164 HD
BRANCH   8  11
ATOM     11  C   UNL A   1      32.849  23.228  25.992  1.00  0.00     0.128 C 
BRANCH  11  12
ATOM     12  C   UNL A   1      33.801  22.096  26.342  1.00  0.00     0.169 C 
BRANCH  12  13
ATOM     13  O   UNL A   1      34.594  21.715  25.215  1.00  0.00    -0.384 OA
ATOM     14  C   UNL A   1      35.874  21.203  25.577  1.00  0.00     0.194 C 
ENDBRANCH  12  13
ENDBRANCH  11  12
ENDBRANCH   8  11
ENDBRANCH   6   7
BRANCH   6  15
ATOM     15  C   UNL A   1      30.067  25.641  23.511  1.00  0.00     0.072 C 
BRANCH  15  16
ATOM     16  C   UNL A   1      30.224  27.114  23.182  1.00  0.00    -0.020 A 
ATOM     17  C   UNL A   1      31.459  27.723  23.008  1.00  0.00     0.087 A 
ATOM     18  C   UNL A   1      29.245  28.176  23.050  1.00  0.00     0.003 A 
ATOM     19  N   UNL A   1      31.282  29.077  22.945  1.00  0.00    -0.361 N 
ATOM     20  C   UNL A   1      29.952  29.382  23.090  1.00  0.00     0.046 A 
ATOM     21  C   UNL A   1      27.834  28.257  23.062  1.00  0.00     0.010 A 
ATOM     22  H   UNL A   1      32.002  29.736  22.817  1.00  0.00     0.166 HD
ATOM     23  C   UNL A   1      29.340  30.629  23.274  1.00  0.00     0.026 A 
ATOM     24  C   UNL A   1      27.205  29.492  23.277  1.00  0.00     0.001 A 
ATOM     25  C   UNL A   1      27.952  30.657  23.408  1.00  0.00     0.002 A 
ENDBRANCH  15  16
ENDBRANCH   6  15
ENDBRANCH   3   6
ENDBRANCH   1   2
BRANCH   1  26
ATOM     26  C   UNL A   1      32.179  28.669  26.362  1.00  0.00     0.042 C 
BRANCH  26  27
ATOM     27  C   UNL A   1      33.339  29.218  27.164  1.00  0.00     0.118 C 
BRANCH  27  28
ATOM     28  N   UNL A   1      33.293  30.670  27.341  1.00  0.00    -0.352 N 
ATOM     29  C   UNL A   1      34.165  31.567  27.918  1.00  0.00     0.251 C 
ATOM     30  H   UNL A   1      32.478  31.088  26.976  1.00  0.00     0.163 HD
ATOM     31  O   UNL A   1      33.798  32.721  28.091  1.00  0.00    -0.269 OA
BRANCH  29  32
ATOM     32  C   UNL A   1      35.515  31.142  28.361  1.00  0.00     0.039 A 
ATOM     33  C   UNL A   1      36.600  32.002  28.169  1.00  0.00     0.014 A 
ATOM     34  C   UNL A   1      35.720  29.909  28.973  1.00  0.00     0.014 A 
ATOM     35  C   UNL A   1      37.851  31.673  28.702  1.00  0.00     0.010 A 
ATOM     36  C   UNL A   1      36.915  29.653  29.628  1.00  0.00     0.010 A 
ATOM     37  C   UNL A   1      38.000  30.531  29.502  1.00  0.00    -0.014 A 
BRANCH  37  38
ATOM     38  C   UNL A   1      39.257  30.217  30.228  1.00  0.00     0.031 A 
ATOM     39  C   UNL A   1      40.130  29.080  29.758  1.00  0.00     0.074 A 
ATOM     40  C   UNL A   1      39.548  30.867  31.373  1.00  0.00     0.049 A 
ATOM     41  N   UNL A   1      41.162  28.535  30.347  1.00  0.00    -0.248 NA
ATOM     42  C   UNL A   1      39.768  28.447  28.478  1.00  0.00     0.031 C 
ATOM     43  C   UNL A   1      38.760  31.953  31.961  1.00  0.00     0.029 A 
ATOM     44  N   UNL A   1      40.581  30.694  32.261  1.00  0.00    -0.354 N 
ATOM     45  C   UNL A   1      41.546  27.477  29.531  1.00  0.00     0.074 A 
ATOM     46  C   UNL A   1      40.605  27.422  28.435  1.00  0.00     0.031 C 
ATOM     47  C   UNL A   1      39.351  32.367  33.093  1.00  0.00     0.029 A 
ATOM     48  C   UNL A   1      40.524  31.540  33.346  1.00  0.00     0.049 A 
ATOM     49  H   UNL A   1      41.295  30.030  32.134  1.00  0.00     0.167 HD
ATOM     50  C   UNL A   1      42.602  26.640  29.668  1.00  0.00     0.031 A 
ATOM     51  C   UNL A   1      41.313  31.624  34.436  1.00  0.00     0.031 A 
ATOM     52  C   UNL A   1      43.552  26.720  30.743  1.00  0.00     0.049 A 
ATOM     53  C   UNL A   1      42.470  30.674  34.572  1.00  0.00     0.074 A 
ATOM     54  C   UNL A   1      44.700  25.971  30.933  1.00  0.00     0.029 A 
ATOM     55  N   UNL A   1      43.467  27.603  31.810  1.00  0.00    -0.354 N 
ATOM     56  N   UNL A   1      42.859  29.727  33.753  1.00  0.00    -0.248 NA
ATOM     57  C   UNL A   1      43.295  30.803  35.781  1.00  0.00     0.031 C 
ATOM     58  C   UNL A   1      45.277  26.361  32.145  1.00  0.00     0.029 A 
ATOM     59  C   UNL A   1      44.523  27.394  32.679  1.00  0.00     0.049 A 
ATOM     60  H   UNL A   1      42.761  28.278  31.929  1.00  0.00     0.167 HD
ATOM     61  C   UNL A   1      43.984  29.158  34.339  1.00  0.00     0.074 A 
ATOM     62  C   UNL A   1      44.226  29.882  35.570  1.00  0.00     0.031 C 
ATOM     63  C   UNL A   1      44.745  28.125  33.901  1.00  0.00     0.031 A 
BRANCH  50  64
ATOM     64  C   UNL A   1      42.784  25.567  28.625  1.00  0.00    -0.014 A 
ATOM     65  C   UNL A   1      42.235  24.284  28.798  1.00  0.00     0.010 A 
ATOM     66  C   UNL A   1      43.480  25.859  27.438  1.00  0.00     0.010 A 
ATOM     67  C   UNL A   1      42.415  23.299  27.823  1.00  0.00     0.020 A 
ATOM     68  C   UNL A   1      43.636  24.885  26.445  1.00  0.00     0.020 A 
ATOM     69  C   UNL A   1      43.117  23.607  26.654  1.00  0.00     0.054 A 
BRANCH  69  70
ATOM     70  S   UNL A   1      43.311  22.314  25.396  1.00  0.00     0.124 S 
ATOM     71  O   UNL A   1      43.338  23.096  24.162  1.00  0.00    -0.237 OA
ATOM     72  O   UNL A   1      44.576  21.689  25.771  1.00  0.00    -0.237 OA
ATOM     73  O   UNL A   1      42.128  21.476  25.574  1.00  0.00    -0.744 OA
ENDBRANCH  69  70
ENDBRANCH  50  64
BRANCH  51  74
ATOM     74  C   UNL A   1      41.031  32.646  35.483  1.00  0.00    -0.014 A 
ATOM     75  C   UNL A   1      40.162  32.350  36.548  1.00  0.00     0.010 A 
ATOM     76  C   UNL A   1      41.641  33.913  35.431  1.00  0.00     0.010 A 
ATOM     77  C   UNL A   1      39.894  33.307  37.531  1.00  0.00     0.020 A 
ATOM     78  C   UNL A   1      41.398  34.862  36.428  1.00  0.00     0.020 A 
ATOM     79  C   UNL A   1      40.516  34.557  37.466  1.00  0.00     0.054 A 
BRANCH  79  80
ATOM     80  S   UNL A   1      40.189  35.764  38.781  1.00  0.00     0.124 S 
ATOM     81  O   UNL A   1      41.510  35.925  39.380  1.00  0.00    -0.237 OA
ATOM     82  O   UNL A   1      39.687  36.915  38.034  1.00  0.00    -0.237 OA
ATOM     83  O   UNL A   1      39.196  35.095  39.620  1.00  0.00    -0.744 OA
ENDBRANCH  79  80
ENDBRANCH  51  74
BRANCH  63  84
ATOM     84  C   UNL A   1      45.922  27.723  34.747  1.00  0.00    -0.014 A 
ATOM     85  C   UNL A   1      45.799  26.719  35.725  1.00  0.00     0.010 A 
ATOM     86  C   UNL A   1      47.182  28.299  34.507  1.00  0.00     0.010 A 
ATOM     87  C   UNL A   1      46.916  26.311  36.459  1.00  0.00     0.020 A 
ATOM     88  C   UNL A   1      48.305  27.873  35.218  1.00  0.00     0.020 A 
ATOM     89  C   UNL A   1      48.163  26.887  36.197  1.00  0.00     0.054 A 
BRANCH  89  90
ATOM     90  S   UNL A   1      49.607  26.289  37.116  1.00  0.00     0.124 S 
ATOM     91  O   UNL A   1      49.002  25.821  38.361  1.00  0.00    -0.237 OA
ATOM     92  O   UNL A   1      50.131  25.243  36.241  1.00  0.00    -0.237 OA
ATOM     93  O   UNL A   1      50.454  27.472  37.240  1.00  0.00    -0.744 OA
ENDBRANCH  89  90
ENDBRANCH  63  84
ENDBRANCH  37  38
ENDBRANCH  29  32
ENDBRANCH  27  28
ENDBRANCH  26  27
ENDBRANCH   1  26
TORSDOF 19
ENDMDL
