MODEL 1
REMARK VINA RESULT:     -12.2      0.000      0.000
REMARK SMILES O=C(NCCCNC(=O)[C@H]1CC[C@@H](CNC(=O)[C@@H]2C[C@H]3CC[C@@H]2[NH2+]3)O1)c1ccc(-c2c3nc(c(-c4ccc(S(=O)(=O)[O-])cc4)c4ccc([nH]4)c(-c4ccc(S(=O)(=O)[O-])cc4)c4nc(c(-c5ccc(S(=O)(=O)[O-])cc5)c5ccc2[nH]5)C=C4)C=C3)cc1
REMARK SMILES IDX 5 1 4 2 3 3 1 4 2 5 26 7 27 8 85 9 28 10 84 11 29 12 30 13
REMARK SMILES IDX 31 14 78 15 32 16 83 17 77 18 79 19 33 20 82 21 76 22 75 23
REMARK SMILES IDX 34 25 64 26 45 27 63 28 46 29 49 30 62 31 80 32 47 33 48 34
REMARK SMILES IDX 61 36 81 37 50 38 35 39 36 40 44 41 37 42 43 43 38 44 39 45
REMARK SMILES IDX 40 46 41 47 42 48 65 49 66 50 74 51 67 52 73 53 68 54 69 55
REMARK SMILES IDX 70 56 71 57 72 58 51 59 52 60 60 61 53 62 59 63 54 64 55 65
REMARK SMILES IDX 56 66 57 67 58 68 6 69 7 70 8 71 9 73 10 74 11 75 25 76
REMARK SMILES IDX 12 77 13 78 14 79 15 80 16 81 17 83 18 84 19 85 23 86 20 87
REMARK SMILES IDX 22 88 24 89 21 90
REMARK H PARENT 3 6 79 24 49 35 7 72 15 82 24 91 24 92
REMARK Flexibility Score: inf
ROOT
ATOM      1  C   UNL A   1      39.509  22.092  26.439  1.00  0.00     0.042 C 
ENDROOT
BRANCH   1   2
ATOM      2  C   UNL A   1      40.064  23.392  27.009  1.00  0.00     0.118 C 
BRANCH   2   3
ATOM      3  N   UNL A   1      40.797  24.190  26.032  1.00  0.00    -0.352 N 
ATOM      4  O   UNL A   1      41.626  26.011  25.006  1.00  0.00    -0.269 OA
ATOM      5  C   UNL A   1      41.131  25.524  26.022  1.00  0.00     0.251 C 
ATOM      6  H   UNL A   1      41.104  23.687  25.243  1.00  0.00     0.163 HD
BRANCH   5   7
ATOM      7  C   UNL A   1      40.883  26.382  27.202  1.00  0.00     0.039 A 
ATOM      8  C   UNL A   1      41.605  27.557  27.397  1.00  0.00     0.014 A 
ATOM      9  C   UNL A   1      39.888  26.023  28.121  1.00  0.00     0.014 A 
ATOM     10  C   UNL A   1      41.478  28.259  28.589  1.00  0.00     0.010 A 
ATOM     11  C   UNL A   1      39.678  26.800  29.269  1.00  0.00     0.010 A 
ATOM     12  C   UNL A   1      40.501  27.904  29.534  1.00  0.00    -0.014 A 
BRANCH  12  13
ATOM     13  C   UNL A   1      40.341  28.757  30.742  1.00  0.00     0.031 A 
ATOM     14  C   UNL A   1      41.254  28.625  31.931  1.00  0.00     0.074 A 
ATOM     15  C   UNL A   1      39.402  29.726  30.719  1.00  0.00     0.049 A 
ATOM     16  N   UNL A   1      41.313  29.373  33.006  1.00  0.00    -0.248 NA
ATOM     17  C   UNL A   1      42.221  27.516  31.924  1.00  0.00     0.031 C 
ATOM     18  C   UNL A   1      38.439  29.937  29.633  1.00  0.00     0.029 A 
ATOM     19  N   UNL A   1      39.128  30.739  31.601  1.00  0.00    -0.354 N 
ATOM     20  C   UNL A   1      42.312  28.825  33.802  1.00  0.00     0.074 A 
ATOM     21  C   UNL A   1      42.812  27.660  33.104  1.00  0.00     0.031 C 
ATOM     22  C   UNL A   1      37.735  31.051  29.877  1.00  0.00     0.029 A 
ATOM     23  C   UNL A   1      38.146  31.596  31.165  1.00  0.00     0.049 A 
ATOM     24  H   UNL A   1      39.590  30.841  32.465  1.00  0.00     0.167 HD
ATOM     25  C   UNL A   1      42.776  29.258  35.000  1.00  0.00     0.031 A 
ATOM     26  C   UNL A   1      37.622  32.697  31.735  1.00  0.00     0.031 A 
ATOM     27  C   UNL A   1      42.271  30.415  35.696  1.00  0.00     0.049 A 
ATOM     28  C   UNL A   1      38.153  33.151  33.061  1.00  0.00     0.074 A 
ATOM     29  C   UNL A   1      42.680  30.934  36.914  1.00  0.00     0.029 A 
ATOM     30  N   UNL A   1      41.251  31.235  35.238  1.00  0.00    -0.354 N 
ATOM     31  N   UNL A   1      39.114  32.626  33.784  1.00  0.00    -0.248 NA
ATOM     32  C   UNL A   1      37.535  34.347  33.647  1.00  0.00     0.031 C 
ATOM     33  C   UNL A   1      41.878  32.041  37.211  1.00  0.00     0.029 A 
ATOM     34  C   UNL A   1      41.007  32.246  36.154  1.00  0.00     0.049 A 
ATOM     35  H   UNL A   1      40.770  31.115  34.387  1.00  0.00     0.167 HD
ATOM     36  C   UNL A   1      39.214  33.428  34.914  1.00  0.00     0.074 A 
ATOM     37  C   UNL A   1      38.247  34.496  34.756  1.00  0.00     0.031 C 
ATOM     38  C   UNL A   1      40.027  33.290  35.990  1.00  0.00     0.031 A 
BRANCH  25  39
ATOM     39  C   UNL A   1      43.888  28.471  35.647  1.00  0.00    -0.014 A 
ATOM     40  C   UNL A   1      43.605  27.389  36.500  1.00  0.00     0.010 A 
ATOM     41  C   UNL A   1      45.230  28.772  35.348  1.00  0.00     0.010 A 
ATOM     42  C   UNL A   1      44.643  26.641  37.065  1.00  0.00     0.020 A 
ATOM     43  C   UNL A   1      46.270  28.012  35.892  1.00  0.00     0.020 A 
ATOM     44  C   UNL A   1      45.970  26.958  36.758  1.00  0.00     0.054 A 
BRANCH  44  45
ATOM     45  S   UNL A   1      47.295  25.948  37.477  1.00  0.00     0.124 S 
ATOM     46  O   UNL A   1      46.914  25.915  38.887  1.00  0.00    -0.237 OA
ATOM     47  O   UNL A   1      47.157  24.682  36.761  1.00  0.00    -0.237 OA
ATOM     48  O   UNL A   1      48.509  26.702  37.178  1.00  0.00    -0.744 OA
ENDBRANCH  44  45
ENDBRANCH  25  39
BRANCH  26  49
ATOM     49  C   UNL A   1      36.512  33.421  31.058  1.00  0.00    -0.014 A 
ATOM     50  C   UNL A   1      36.671  33.947  29.764  1.00  0.00     0.010 A 
ATOM     51  C   UNL A   1      35.274  33.570  31.710  1.00  0.00     0.010 A 
ATOM     52  C   UNL A   1      35.617  34.627  29.144  1.00  0.00     0.020 A 
ATOM     53  C   UNL A   1      34.210  34.219  31.082  1.00  0.00     0.020 A 
ATOM     54  C   UNL A   1      34.394  34.757  29.809  1.00  0.00     0.054 A 
BRANCH  54  55
ATOM     55  S   UNL A   1      33.023  35.602  28.972  1.00  0.00     0.124 S 
ATOM     56  O   UNL A   1      32.225  36.072  30.100  1.00  0.00    -0.237 OA
ATOM     57  O   UNL A   1      33.709  36.638  28.205  1.00  0.00    -0.237 OA
ATOM     58  O   UNL A   1      32.413  34.544  28.168  1.00  0.00    -0.744 OA
ENDBRANCH  54  55
ENDBRANCH  26  49
BRANCH  38  59
ATOM     59  C   UNL A   1      39.902  34.328  37.073  1.00  0.00    -0.014 A 
ATOM     60  C   UNL A   1      39.095  34.102  38.203  1.00  0.00     0.010 A 
ATOM     61  C   UNL A   1      40.603  35.541  36.959  1.00  0.00     0.010 A 
ATOM     62  C   UNL A   1      38.952  35.093  39.176  1.00  0.00     0.020 A 
ATOM     63  C   UNL A   1      40.484  36.524  37.945  1.00  0.00     0.020 A 
ATOM     64  C   UNL A   1      39.642  36.301  39.037  1.00  0.00     0.054 A 
BRANCH  64  65
ATOM     65  S   UNL A   1      39.447  37.573  40.315  1.00  0.00     0.124 S 
ATOM     66  O   UNL A   1      38.821  36.818  41.398  1.00  0.00    -0.237 OA
ATOM     67  O   UNL A   1      40.823  37.998  40.560  1.00  0.00    -0.237 OA
ATOM     68  O   UNL A   1      38.595  38.575  39.680  1.00  0.00    -0.744 OA
ENDBRANCH  64  65
ENDBRANCH  38  59
ENDBRANCH  12  13
ENDBRANCH   5   7
ENDBRANCH   2   3
ENDBRANCH   1   2
BRANCH   1  69
ATOM     69  C   UNL A   1      38.040  22.160  26.048  1.00  0.00     0.117 C 
BRANCH  69  70
ATOM     70  N   UNL A   1      37.841  22.424  24.635  1.00  0.00    -0.354 N 
ATOM     71  C   UNL A   1      36.683  22.729  23.973  1.00  0.00     0.249 C 
ATOM     72  H   UNL A   1      38.650  22.376  24.075  1.00  0.00     0.163 HD
ATOM     73  O   UNL A   1      36.765  23.015  22.778  1.00  0.00    -0.272 OA
BRANCH  71  74
ATOM     74  C   UNL A   1      35.353  22.729  24.751  1.00  0.00     0.207 C 
ATOM     75  C   UNL A   1      35.184  23.934  25.667  1.00  0.00     0.045 C 
ATOM     76  O   UNL A   1      34.237  22.720  23.843  1.00  0.00    -0.363 OA
ATOM     77  C   UNL A   1      34.281  24.850  24.882  1.00  0.00     0.037 C 
ATOM     78  C   UNL A   1      33.407  23.869  24.113  1.00  0.00     0.138 C 
BRANCH  78  79
ATOM     79  C   UNL A   1      32.752  24.384  22.813  1.00  0.00     0.147 C 
BRANCH  79  80
ATOM     80  N   UNL A   1      33.444  25.509  22.213  1.00  0.00    -0.353 N 
ATOM     81  C   UNL A   1      33.137  26.831  22.143  1.00  0.00     0.229 C 
ATOM     82  H   UNL A   1      34.293  25.270  21.776  1.00  0.00     0.163 HD
ATOM     83  O   UNL A   1      33.934  27.522  21.496  1.00  0.00    -0.275 OA
BRANCH  81  84
ATOM     84  C   UNL A   1      32.000  27.479  22.940  1.00  0.00     0.142 C 
ATOM     85  C   UNL A   1      30.591  27.604  22.338  1.00  0.00     0.084 C 
ATOM     86  C   UNL A   1      32.339  28.964  23.211  1.00  0.00     0.195 C 
ATOM     87  C   UNL A   1      30.315  29.107  22.361  1.00  0.00     0.183 C 
ATOM     88  C   UNL A   1      31.511  29.503  24.384  1.00  0.00     0.072 C 
ATOM     89  N   UNL A   1      31.662  29.617  22.068  1.00  0.00    -0.341 N 
ATOM     90  C   UNL A   1      30.102  29.591  23.793  1.00  0.00     0.071 C 
ATOM     91  H   UNL A   1      31.714  30.634  22.110  1.00  0.00     0.346 HD
ATOM     92  H   UNL A   1      32.037  29.423  21.139  1.00  0.00     0.346 HD
ENDBRANCH  81  84
ENDBRANCH  79  80
ENDBRANCH  78  79
ENDBRANCH  71  74
ENDBRANCH  69  70
ENDBRANCH   1  69
TORSDOF 16
ENDMDL
MODEL 2
REMARK VINA RESULT:     -12.2      2.580      3.999
REMARK SMILES O=C(NCCCNC(=O)[C@H]1CC[C@@H](CNC(=O)[C@@H]2C[C@H]3CC[C@@H]2[NH2+]3)O1)c1ccc(-c2c3nc(c(-c4ccc(S(=O)(=O)[O-])cc4)c4ccc([nH]4)c(-c4ccc(S(=O)(=O)[O-])cc4)c4nc(c(-c5ccc(S(=O)(=O)[O-])cc5)c5ccc2[nH]5)C=C4)C=C3)cc1
REMARK SMILES IDX 5 1 4 2 3 3 1 4 2 5 26 7 27 8 85 9 28 10 84 11 29 12 30 13
REMARK SMILES IDX 31 14 78 15 32 16 83 17 77 18 79 19 33 20 82 21 76 22 75 23
REMARK SMILES IDX 34 25 64 26 45 27 63 28 46 29 49 30 62 31 80 32 47 33 48 34
REMARK SMILES IDX 61 36 81 37 50 38 35 39 36 40 44 41 37 42 43 43 38 44 39 45
REMARK SMILES IDX 40 46 41 47 42 48 65 49 66 50 74 51 67 52 73 53 68 54 69 55
REMARK SMILES IDX 70 56 71 57 72 58 51 59 52 60 60 61 53 62 59 63 54 64 55 65
REMARK SMILES IDX 56 66 57 67 58 68 6 69 7 70 8 71 9 73 10 74 11 75 25 76
REMARK SMILES IDX 12 77 13 78 14 79 15 80 16 81 17 83 18 84 19 85 23 86 20 87
REMARK SMILES IDX 22 88 24 89 21 90
REMARK H PARENT 3 6 79 24 49 35 7 72 15 82 24 91 24 92
REMARK Flexibility Score: inf
ROOT
ATOM      1  C   UNL A   1      40.871  22.124  27.424  1.00  0.00     0.042 C 
ENDROOT
BRANCH   1   2
ATOM      2  C   UNL A   1      42.110  23.002  27.295  1.00  0.00     0.118 C 
BRANCH   2   3
ATOM      3  N   UNL A   1      42.058  23.917  26.160  1.00  0.00    -0.352 N 
ATOM      4  O   UNL A   1      41.636  25.791  24.991  1.00  0.00    -0.269 OA
ATOM      5  C   UNL A   1      41.768  25.260  26.093  1.00  0.00     0.251 C 
ATOM      6  H   UNL A   1      42.266  23.501  25.291  1.00  0.00     0.163 HD
BRANCH   5   7
ATOM      7  C   UNL A   1      41.591  26.064  27.322  1.00  0.00     0.039 A 
ATOM      8  C   UNL A   1      40.491  25.866  28.154  1.00  0.00     0.014 A 
ATOM      9  C   UNL A   1      42.557  27.017  27.671  1.00  0.00     0.014 A 
ATOM     10  C   UNL A   1      40.255  26.738  29.209  1.00  0.00     0.010 A 
ATOM     11  C   UNL A   1      42.376  27.820  28.806  1.00  0.00     0.010 A 
ATOM     12  C   UNL A   1      41.200  27.715  29.563  1.00  0.00    -0.014 A 
BRANCH  12  13
ATOM     13  C   UNL A   1      40.940  28.549  30.767  1.00  0.00     0.031 A 
ATOM     14  C   UNL A   1      41.809  28.463  31.993  1.00  0.00     0.074 A 
ATOM     15  C   UNL A   1      39.947  29.461  30.709  1.00  0.00     0.049 A 
ATOM     16  N   UNL A   1      41.779  29.205  33.072  1.00  0.00    -0.248 NA
ATOM     17  C   UNL A   1      42.840  27.413  32.021  1.00  0.00     0.031 C 
ATOM     18  C   UNL A   1      39.019  29.622  29.584  1.00  0.00     0.029 A 
ATOM     19  N   UNL A   1      39.577  30.449  31.584  1.00  0.00    -0.354 N 
ATOM     20  C   UNL A   1      42.775  28.711  33.907  1.00  0.00     0.074 A 
ATOM     21  C   UNL A   1      43.372  27.583  33.225  1.00  0.00     0.031 C 
ATOM     22  C   UNL A   1      38.241  30.691  29.804  1.00  0.00     0.029 A 
ATOM     23  C   UNL A   1      38.565  31.250  31.111  1.00  0.00     0.049 A 
ATOM     24  H   UNL A   1      39.996  30.573  32.467  1.00  0.00     0.167 HD
ATOM     25  C   UNL A   1      43.163  29.162  35.125  1.00  0.00     0.031 A 
ATOM     26  C   UNL A   1      37.953  32.315  31.663  1.00  0.00     0.031 A 
ATOM     27  C   UNL A   1      42.561  30.282  35.805  1.00  0.00     0.049 A 
ATOM     28  C   UNL A   1      38.401  32.789  33.013  1.00  0.00     0.074 A 
ATOM     29  C   UNL A   1      42.887  30.816  37.042  1.00  0.00     0.029 A 
ATOM     30  N   UNL A   1      41.513  31.044  35.308  1.00  0.00    -0.354 N 
ATOM     31  N   UNL A   1      39.360  32.317  33.773  1.00  0.00    -0.248 NA
ATOM     32  C   UNL A   1      37.690  33.942  33.578  1.00  0.00     0.031 C 
ATOM     33  C   UNL A   1      42.009  31.872  37.310  1.00  0.00     0.029 A 
ATOM     34  C   UNL A   1      41.173  32.032  36.218  1.00  0.00     0.049 A 
ATOM     35  H   UNL A   1      41.077  30.903  34.438  1.00  0.00     0.167 HD
ATOM     36  C   UNL A   1      39.366  33.116  34.910  1.00  0.00     0.074 A 
ATOM     37  C   UNL A   1      38.344  34.126  34.717  1.00  0.00     0.031 C 
ATOM     38  C   UNL A   1      40.140  33.018  36.019  1.00  0.00     0.031 A 
BRANCH  25  39
ATOM     39  C   UNL A   1      44.291  28.438  35.815  1.00  0.00    -0.014 A 
ATOM     40  C   UNL A   1      45.625  28.844  35.639  1.00  0.00     0.010 A 
ATOM     41  C   UNL A   1      44.010  27.383  36.704  1.00  0.00     0.010 A 
ATOM     42  C   UNL A   1      46.661  28.190  36.314  1.00  0.00     0.020 A 
ATOM     43  C   UNL A   1      45.040  26.742  37.399  1.00  0.00     0.020 A 
ATOM     44  C   UNL A   1      46.362  27.142  37.190  1.00  0.00     0.054 A 
BRANCH  44  45
ATOM     45  S   UNL A   1      47.722  26.336  38.080  1.00  0.00     0.124 S 
ATOM     46  O   UNL A   1      48.553  25.850  36.980  1.00  0.00    -0.237 OA
ATOM     47  O   UNL A   1      48.292  27.433  38.857  1.00  0.00    -0.237 OA
ATOM     48  O   UNL A   1      47.059  25.298  38.864  1.00  0.00    -0.744 OA
ENDBRANCH  44  45
ENDBRANCH  25  39
BRANCH  26  49
ATOM     49  C   UNL A   1      36.832  32.976  30.944  1.00  0.00    -0.014 A 
ATOM     50  C   UNL A   1      37.074  33.869  29.885  1.00  0.00     0.010 A 
ATOM     51  C   UNL A   1      35.502  32.696  31.312  1.00  0.00     0.010 A 
ATOM     52  C   UNL A   1      36.007  34.483  29.222  1.00  0.00     0.020 A 
ATOM     53  C   UNL A   1      34.434  33.281  30.631  1.00  0.00     0.020 A 
ATOM     54  C   UNL A   1      34.694  34.184  29.601  1.00  0.00     0.054 A 
BRANCH  54  55
ATOM     55  S   UNL A   1      33.321  34.956  28.700  1.00  0.00     0.124 S 
ATOM     56  O   UNL A   1      32.483  35.446  29.790  1.00  0.00    -0.237 OA
ATOM     57  O   UNL A   1      33.995  35.980  27.908  1.00  0.00    -0.237 OA
ATOM     58  O   UNL A   1      32.760  33.850  27.925  1.00  0.00    -0.744 OA
ENDBRANCH  54  55
ENDBRANCH  26  49
BRANCH  38  59
ATOM     59  C   UNL A   1      39.909  34.039  37.100  1.00  0.00    -0.014 A 
ATOM     60  C   UNL A   1      39.245  33.694  38.291  1.00  0.00     0.010 A 
ATOM     61  C   UNL A   1      40.364  35.357  36.922  1.00  0.00     0.010 A 
ATOM     62  C   UNL A   1      38.997  34.664  39.266  1.00  0.00     0.020 A 
ATOM     63  C   UNL A   1      40.141  36.323  37.907  1.00  0.00     0.020 A 
ATOM     64  C   UNL A   1      39.440  35.974  39.063  1.00  0.00     0.054 A 
BRANCH  64  65
ATOM     65  S   UNL A   1      39.112  37.216  40.344  1.00  0.00     0.124 S 
ATOM     66  O   UNL A   1      38.547  38.313  39.563  1.00  0.00    -0.237 OA
ATOM     67  O   UNL A   1      38.174  36.526  41.227  1.00  0.00    -0.237 OA
ATOM     68  O   UNL A   1      40.428  37.474  40.922  1.00  0.00    -0.744 OA
ENDBRANCH  64  65
ENDBRANCH  38  59
ENDBRANCH  12  13
ENDBRANCH   5   7
ENDBRANCH   2   3
ENDBRANCH   1   2
BRANCH   1  69
ATOM     69  C   UNL A   1      39.707  22.554  26.545  1.00  0.00     0.117 C 
BRANCH  69  70
ATOM     70  N   UNL A   1      39.008  21.434  25.940  1.00  0.00    -0.354 N 
ATOM     71  C   UNL A   1      37.779  21.411  25.340  1.00  0.00     0.249 C 
ATOM     72  H   UNL A   1      39.483  20.571  25.968  1.00  0.00     0.163 HD
ATOM     73  O   UNL A   1      37.424  20.360  24.803  1.00  0.00    -0.272 OA
BRANCH  71  74
ATOM     74  C   UNL A   1      36.921  22.691  25.338  1.00  0.00     0.207 C 
ATOM     75  C   UNL A   1      36.529  23.158  23.942  1.00  0.00     0.045 C 
ATOM     76  O   UNL A   1      35.706  22.486  26.081  1.00  0.00    -0.363 OA
ATOM     77  C   UNL A   1      35.111  22.670  23.794  1.00  0.00     0.037 C 
ATOM     78  C   UNL A   1      34.582  22.758  25.218  1.00  0.00     0.138 C 
BRANCH  78  79
ATOM     79  C   UNL A   1      33.387  21.849  25.580  1.00  0.00     0.147 C 
BRANCH  79  80
ATOM     80  N   UNL A   1      32.741  21.244  24.431  1.00  0.00    -0.353 N 
ATOM     81  C   UNL A   1      32.751  19.975  23.947  1.00  0.00     0.229 C 
ATOM     82  H   UNL A   1      32.194  21.871  23.904  1.00  0.00     0.163 HD
ATOM     83  O   UNL A   1      32.124  19.809  22.893  1.00  0.00    -0.275 OA
BRANCH  81  84
ATOM     84  C   UNL A   1      33.332  18.782  24.714  1.00  0.00     0.142 C 
ATOM     85  C   UNL A   1      34.635  18.111  24.252  1.00  0.00     0.084 C 
ATOM     86  C   UNL A   1      32.345  17.592  24.645  1.00  0.00     0.195 C 
ATOM     87  C   UNL A   1      34.230  16.658  24.002  1.00  0.00     0.183 C 
ATOM     88  C   UNL A   1      32.630  16.587  25.767  1.00  0.00     0.072 C 
ATOM     89  N   UNL A   1      32.875  16.860  23.472  1.00  0.00    -0.341 N 
ATOM     90  C   UNL A   1      33.947  15.947  25.323  1.00  0.00     0.071 C 
ATOM     91  H   UNL A   1      32.384  15.982  23.304  1.00  0.00     0.346 HD
ATOM     92  H   UNL A   1      32.798  17.323  22.566  1.00  0.00     0.346 HD
ENDBRANCH  81  84
ENDBRANCH  79  80
ENDBRANCH  78  79
ENDBRANCH  71  74
ENDBRANCH  69  70
ENDBRANCH   1  69
TORSDOF 16
ENDMDL
MODEL 3
REMARK VINA RESULT:     -12.0      5.050     11.713
REMARK SMILES O=C(NCCCNC(=O)[C@H]1CC[C@@H](CNC(=O)[C@@H]2C[C@H]3CC[C@@H]2[NH2+]3)O1)c1ccc(-c2c3nc(c(-c4ccc(S(=O)(=O)[O-])cc4)c4ccc([nH]4)c(-c4ccc(S(=O)(=O)[O-])cc4)c4nc(c(-c5ccc(S(=O)(=O)[O-])cc5)c5ccc2[nH]5)C=C4)C=C3)cc1
REMARK SMILES IDX 5 1 4 2 3 3 1 4 2 5 26 7 27 8 85 9 28 10 84 11 29 12 30 13
REMARK SMILES IDX 31 14 78 15 32 16 83 17 77 18 79 19 33 20 82 21 76 22 75 23
REMARK SMILES IDX 34 25 64 26 45 27 63 28 46 29 49 30 62 31 80 32 47 33 48 34
REMARK SMILES IDX 61 36 81 37 50 38 35 39 36 40 44 41 37 42 43 43 38 44 39 45
REMARK SMILES IDX 40 46 41 47 42 48 65 49 66 50 74 51 67 52 73 53 68 54 69 55
REMARK SMILES IDX 70 56 71 57 72 58 51 59 52 60 60 61 53 62 59 63 54 64 55 65
REMARK SMILES IDX 56 66 57 67 58 68 6 69 7 70 8 71 9 73 10 74 11 75 25 76
REMARK SMILES IDX 12 77 13 78 14 79 15 80 16 81 17 83 18 84 19 85 23 86 20 87
REMARK SMILES IDX 22 88 24 89 21 90
REMARK H PARENT 3 6 79 24 49 35 7 72 15 82 24 91 24 92
REMARK Flexibility Score: inf
ROOT
ATOM      1  C   UNL A   1      33.646  33.694  28.333  1.00  0.00     0.042 C 
ENDROOT
BRANCH   1   2
ATOM      2  C   UNL A   1      34.558  32.555  27.891  1.00  0.00     0.118 C 
BRANCH   2   3
ATOM      3  N   UNL A   1      33.890  31.259  27.846  1.00  0.00    -0.352 N 
ATOM      4  O   UNL A   1      33.642  29.028  27.713  1.00  0.00    -0.269 OA
ATOM      5  C   UNL A   1      34.390  29.980  27.933  1.00  0.00     0.251 C 
ATOM      6  H   UNL A   1      32.913  31.308  27.731  1.00  0.00     0.163 HD
BRANCH   5   7
ATOM      7  C   UNL A   1      35.811  29.738  28.264  1.00  0.00     0.039 A 
ATOM      8  C   UNL A   1      36.811  29.943  27.316  1.00  0.00     0.014 A 
ATOM      9  C   UNL A   1      36.160  29.325  29.556  1.00  0.00     0.014 A 
ATOM     10  C   UNL A   1      38.116  29.554  27.590  1.00  0.00     0.010 A 
ATOM     11  C   UNL A   1      37.498  29.044  29.868  1.00  0.00     0.010 A 
ATOM     12  C   UNL A   1      38.484  29.116  28.873  1.00  0.00    -0.014 A 
BRANCH  12  13
ATOM     13  C   UNL A   1      39.917  28.814  29.135  1.00  0.00     0.031 A 
ATOM     14  C   UNL A   1      40.532  27.497  28.745  1.00  0.00     0.074 A 
ATOM     15  C   UNL A   1      40.689  29.789  29.658  1.00  0.00     0.049 A 
ATOM     16  N   UNL A   1      41.789  27.131  28.802  1.00  0.00    -0.248 NA
ATOM     17  C   UNL A   1      39.630  26.453  28.232  1.00  0.00     0.031 C 
ATOM     18  C   UNL A   1      40.202  31.100  30.100  1.00  0.00     0.029 A 
ATOM     19  N   UNL A   1      42.043  29.854  29.866  1.00  0.00    -0.354 N 
ATOM     20  C   UNL A   1      41.829  25.820  28.341  1.00  0.00     0.074 A 
ATOM     21  C   UNL A   1      40.466  25.440  28.040  1.00  0.00     0.031 C 
ATOM     22  C   UNL A   1      41.247  31.862  30.454  1.00  0.00     0.029 A 
ATOM     23  C   UNL A   1      42.468  31.076  30.329  1.00  0.00     0.049 A 
ATOM     24  H   UNL A   1      42.651  29.098  29.699  1.00  0.00     0.167 HD
ATOM     25  C   UNL A   1      42.904  25.011  28.176  1.00  0.00     0.031 A 
ATOM     26  C   UNL A   1      43.702  31.522  30.631  1.00  0.00     0.031 A 
ATOM     27  C   UNL A   1      44.261  25.391  28.484  1.00  0.00     0.049 A 
ATOM     28  C   UNL A   1      44.872  30.604  30.441  1.00  0.00     0.074 A 
ATOM     29  C   UNL A   1      45.418  24.641  28.348  1.00  0.00     0.029 A 
ATOM     30  N   UNL A   1      44.646  26.625  28.987  1.00  0.00    -0.354 N 
ATOM     31  N   UNL A   1      44.886  29.375  29.984  1.00  0.00    -0.248 NA
ATOM     32  C   UNL A   1      46.193  31.134  30.802  1.00  0.00     0.031 C 
ATOM     33  C   UNL A   1      46.495  25.406  28.808  1.00  0.00     0.029 A 
ATOM     34  C   UNL A   1      46.018  26.652  29.179  1.00  0.00     0.049 A 
ATOM     35  H   UNL A   1      44.034  27.371  29.179  1.00  0.00     0.167 HD
ATOM     36  C   UNL A   1      46.218  28.982  30.004  1.00  0.00     0.074 A 
ATOM     37  C   UNL A   1      46.983  30.119  30.478  1.00  0.00     0.031 C 
ATOM     38  C   UNL A   1      46.761  27.786  29.670  1.00  0.00     0.031 A 
BRANCH  25  39
ATOM     39  C   UNL A   1      42.662  23.622  27.643  1.00  0.00    -0.014 A 
ATOM     40  C   UNL A   1      42.629  23.374  26.259  1.00  0.00     0.010 A 
ATOM     41  C   UNL A   1      42.533  22.540  28.533  1.00  0.00     0.010 A 
ATOM     42  C   UNL A   1      42.443  22.075  25.775  1.00  0.00     0.020 A 
ATOM     43  C   UNL A   1      42.370  21.236  28.053  1.00  0.00     0.020 A 
ATOM     44  C   UNL A   1      42.314  21.014  26.676  1.00  0.00     0.054 A 
BRANCH  44  45
ATOM     45  S   UNL A   1      42.109  19.335  26.019  1.00  0.00     0.124 S 
ATOM     46  O   UNL A   1      40.674  19.295  25.741  1.00  0.00    -0.237 OA
ATOM     47  O   UNL A   1      42.974  19.343  24.842  1.00  0.00    -0.237 OA
ATOM     48  O   UNL A   1      42.555  18.476  27.112  1.00  0.00    -0.744 OA
ENDBRANCH  44  45
ENDBRANCH  25  39
BRANCH  26  49
ATOM     49  C   UNL A   1      43.877  32.896  31.174  1.00  0.00    -0.014 A 
ATOM     50  C   UNL A   1      43.800  33.148  32.555  1.00  0.00     0.010 A 
ATOM     51  C   UNL A   1      44.142  33.966  30.298  1.00  0.00     0.010 A 
ATOM     52  C   UNL A   1      43.964  34.447  33.046  1.00  0.00     0.020 A 
ATOM     53  C   UNL A   1      44.339  35.258  30.787  1.00  0.00     0.020 A 
ATOM     54  C   UNL A   1      44.233  35.492  32.158  1.00  0.00     0.054 A 
BRANCH  54  55
ATOM     55  S   UNL A   1      44.489  37.164  32.817  1.00  0.00     0.124 S 
ATOM     56  O   UNL A   1      44.611  37.954  31.595  1.00  0.00    -0.237 OA
ATOM     57  O   UNL A   1      43.276  37.387  33.598  1.00  0.00    -0.237 OA
ATOM     58  O   UNL A   1      45.713  37.033  33.606  1.00  0.00    -0.744 OA
ENDBRANCH  54  55
ENDBRANCH  26  49
BRANCH  38  59
ATOM     59  C   UNL A   1      48.254  27.657  29.801  1.00  0.00    -0.014 A 
ATOM     60  C   UNL A   1      48.840  27.204  30.997  1.00  0.00     0.010 A 
ATOM     61  C   UNL A   1      49.081  27.991  28.714  1.00  0.00     0.010 A 
ATOM     62  C   UNL A   1      50.230  27.135  31.119  1.00  0.00     0.020 A 
ATOM     63  C   UNL A   1      50.470  27.897  28.824  1.00  0.00     0.020 A 
ATOM     64  C   UNL A   1      51.036  27.489  30.034  1.00  0.00     0.054 A 
BRANCH  64  65
ATOM     65  S   UNL A   1      52.838  27.387  30.213  1.00  0.00     0.124 S 
ATOM     66  O   UNL A   1      52.982  26.352  31.233  1.00  0.00    -0.237 OA
ATOM     67  O   UNL A   1      53.274  27.010  28.870  1.00  0.00    -0.237 OA
ATOM     68  O   UNL A   1      53.221  28.733  30.631  1.00  0.00    -0.744 OA
ENDBRANCH  64  65
ENDBRANCH  38  59
ENDBRANCH  12  13
ENDBRANCH   5   7
ENDBRANCH   2   3
ENDBRANCH   1   2
BRANCH   1  69
ATOM     69  C   UNL A   1      34.378  34.872  28.958  1.00  0.00     0.117 C 
BRANCH  69  70
ATOM     70  N   UNL A   1      35.790  34.612  29.175  1.00  0.00    -0.354 N 
ATOM     71  C   UNL A   1      36.402  34.044  30.258  1.00  0.00     0.249 C 
ATOM     72  H   UNL A   1      36.390  34.884  28.442  1.00  0.00     0.163 HD
ATOM     73  O   UNL A   1      37.613  33.829  30.183  1.00  0.00    -0.272 OA
BRANCH  71  74
ATOM     74  C   UNL A   1      35.555  33.678  31.492  1.00  0.00     0.207 C 
ATOM     75  C   UNL A   1      35.235  32.192  31.591  1.00  0.00     0.045 C 
ATOM     76  O   UNL A   1      36.237  34.052  32.702  1.00  0.00    -0.363 OA
ATOM     77  C   UNL A   1      36.230  31.683  32.602  1.00  0.00     0.037 C 
ATOM     78  C   UNL A   1      36.397  32.879  33.528  1.00  0.00     0.138 C 
BRANCH  78  79
ATOM     79  C   UNL A   1      37.708  32.961  34.339  1.00  0.00     0.147 C 
BRANCH  79  80
ATOM     80  N   UNL A   1      37.843  31.922  35.342  1.00  0.00    -0.353 N 
ATOM     81  C   UNL A   1      38.655  30.835  35.420  1.00  0.00     0.229 C 
ATOM     82  H   UNL A   1      37.232  32.023  36.108  1.00  0.00     0.163 HD
ATOM     83  O   UNL A   1      38.468  30.108  36.404  1.00  0.00    -0.275 OA
BRANCH  81  84
ATOM     84  C   UNL A   1      39.838  30.594  34.477  1.00  0.00     0.142 C 
ATOM     85  C   UNL A   1      39.740  29.563  33.341  1.00  0.00     0.084 C 
ATOM     86  C   UNL A   1      41.035  30.034  35.282  1.00  0.00     0.195 C 
ATOM     87  C   UNL A   1      40.878  28.585  33.635  1.00  0.00     0.183 C 
ATOM     88  C   UNL A   1      42.347  30.242  34.514  1.00  0.00     0.072 C 
ATOM     89  N   UNL A   1      40.835  28.579  35.103  1.00  0.00    -0.341 N 
ATOM     90  C   UNL A   1      42.230  29.241  33.364  1.00  0.00     0.071 C 
ATOM     91  H   UNL A   1      41.586  28.026  35.515  1.00  0.00     0.346 HD
ATOM     92  H   UNL A   1      40.007  28.171  35.539  1.00  0.00     0.346 HD
ENDBRANCH  81  84
ENDBRANCH  79  80
ENDBRANCH  78  79
ENDBRANCH  71  74
ENDBRANCH  69  70
ENDBRANCH   1  69
TORSDOF 16
ENDMDL
