MODEL 1
REMARK VINA RESULT:     -10.3      0.000      0.000
REMARK SMILES CC(C)[C@H](CO)NS(=O)(=O)c1ccc(Cl)c(C(=O)NCCCNC(=O)c2ccc(-c3c4nc(c(-c5ccc(S(=O)(=O)[O-])cc5)c5ccc([nH]5)c(-c5ccc(S(=O)(=O)[O-])cc5)c5nc(c(-c6ccc(S(=O)(=O)[O-])cc6)c6ccc3[nH]6)C=C5)C=C4)cc2)c1
REMARK SMILES IDX 20 1 19 2 17 3 18 4 16 6 11 7 12 8 86 9 13 10 14 11 15 12
REMARK SMILES IDX 8 13 9 14 10 15 7 16 4 18 2 19 1 20 3 21 5 22 6 23 21 25
REMARK SMILES IDX 22 26 23 27 24 28 25 30 26 31 27 32 85 33 28 34 84 35 29 36
REMARK SMILES IDX 30 37 31 38 78 39 32 40 83 41 77 42 79 43 33 44 82 45 76 46
REMARK SMILES IDX 75 47 34 49 64 50 45 51 63 52 46 53 49 54 62 55 80 56 47 57
REMARK SMILES IDX 48 58 61 60 81 61 50 62 35 63 36 64 44 65 37 66 43 67 38 68
REMARK SMILES IDX 39 69 40 70 41 71 42 72 65 73 66 74 74 75 67 76 73 77 68 78
REMARK SMILES IDX 69 79 70 80 71 81 72 82 51 83 52 84 60 85 53 86 59 87 54 88
REMARK SMILES IDX 55 89 56 90 57 91 58 92
REMARK H PARENT 19 5 7 17 6 24 23 29 79 48 49 59
REMARK Flexibility Score: inf
ROOT
ATOM      1  C   UNL A   1      35.071  21.994  24.778  1.00  0.00     0.118 C 
ENDROOT
BRANCH   1   2
ATOM      2  N   UNL A   1      34.247  22.714  25.730  1.00  0.00    -0.352 N 
ATOM      3  C   UNL A   1      33.351  23.740  25.570  1.00  0.00     0.252 C 
ATOM      4  O   UNL A   1      32.717  24.098  26.565  1.00  0.00    -0.269 OA
ATOM      5  H   UNL A   1      34.348  22.410  26.661  1.00  0.00     0.163 HD
BRANCH   3   6
ATOM      6  C   UNL A   1      33.182  24.515  24.311  1.00  0.00     0.059 A 
ATOM      7  C   UNL A   1      33.457  26.714  23.289  1.00  0.00     0.083 A 
ATOM      8  C   UNL A   1      32.998  26.231  22.068  1.00  0.00     0.023 A 
ATOM      9  C   UNL A   1      33.612  25.856  24.383  1.00  0.00     0.037 A 
ATOM     10  C   UNL A   1      32.547  24.915  21.995  1.00  0.00     0.023 A 
ATOM     11  C   UNL A   1      32.544  24.094  23.136  1.00  0.00     0.053 A 
ATOM     12  Cl  UNL A   1      31.515  22.707  23.041  1.00  0.00    -0.083 Cl
BRANCH   7  13
ATOM     13  S   UNL A   1      33.634  28.463  23.540  1.00  0.00     0.240 S 
ATOM     14  O   UNL A   1      34.622  28.945  22.609  1.00  0.00    -0.207 OA
ATOM     15  O   UNL A   1      33.768  28.654  24.970  1.00  0.00    -0.207 OA
BRANCH  13  16
ATOM     16  N   UNL A   1      32.157  29.106  23.126  1.00  0.00    -0.206 NA
ATOM     17  H   UNL A   1      32.289  30.117  23.103  1.00  0.00     0.141 HD
BRANCH  16  18
ATOM     18  C   UNL A   1      30.928  28.875  23.910  1.00  0.00     0.098 C 
BRANCH  18  19
ATOM     19  C   UNL A   1      29.871  28.080  23.099  1.00  0.00     0.003 C 
ATOM     20  C   UNL A   1      29.556  26.714  23.721  1.00  0.00     0.009 C 
ATOM     21  C   UNL A   1      28.552  28.827  22.858  1.00  0.00     0.009 C 
ENDBRANCH  18  19
BRANCH  18  22
ATOM     22  C   UNL A   1      30.453  30.265  24.395  1.00  0.00     0.176 C 
BRANCH  22  23
ATOM     23  O   UNL A   1      31.376  30.772  25.369  1.00  0.00    -0.395 OA
ATOM     24  H   UNL A   1      31.679  30.046  25.937  1.00  0.00     0.210 HD
ENDBRANCH  22  23
ENDBRANCH  18  22
ENDBRANCH  16  18
ENDBRANCH  13  16
ENDBRANCH   7  13
ENDBRANCH   3   6
ENDBRANCH   1   2
BRANCH   1  25
ATOM     25  C   UNL A   1      36.107  22.844  24.062  1.00  0.00     0.042 C 
BRANCH  25  26
ATOM     26  C   UNL A   1      37.124  23.522  24.967  1.00  0.00     0.118 C 
BRANCH  26  27
ATOM     27  N   UNL A   1      38.116  22.608  25.525  1.00  0.00    -0.352 N 
ATOM     28  C   UNL A   1      39.213  22.836  26.326  1.00  0.00     0.251 C 
ATOM     29  H   UNL A   1      37.976  21.663  25.287  1.00  0.00     0.163 HD
ATOM     30  O   UNL A   1      39.998  21.919  26.549  1.00  0.00    -0.269 OA
BRANCH  28  31
ATOM     31  C   UNL A   1      39.475  24.180  26.889  1.00  0.00     0.039 A 
ATOM     32  C   UNL A   1      39.027  24.483  28.179  1.00  0.00     0.014 A 
ATOM     33  C   UNL A   1      40.159  25.144  26.152  1.00  0.00     0.014 A 
ATOM     34  C   UNL A   1      39.362  25.711  28.761  1.00  0.00     0.010 A 
ATOM     35  C   UNL A   1      40.591  26.311  26.771  1.00  0.00     0.010 A 
ATOM     36  C   UNL A   1      40.196  26.612  28.082  1.00  0.00    -0.014 A 
BRANCH  36  37
ATOM     37  C   UNL A   1      40.670  27.879  28.698  1.00  0.00     0.031 A 
ATOM     38  C   UNL A   1      42.061  27.955  29.276  1.00  0.00     0.074 A 
ATOM     39  C   UNL A   1      39.824  28.921  28.839  1.00  0.00     0.049 A 
ATOM     40  N   UNL A   1      42.608  28.902  29.993  1.00  0.00    -0.248 NA
ATOM     41  C   UNL A   1      42.937  26.792  29.052  1.00  0.00     0.031 C 
ATOM     42  C   UNL A   1      38.439  28.962  28.361  1.00  0.00     0.029 A 
ATOM     43  N   UNL A   1      40.000  30.142  29.442  1.00  0.00    -0.354 N 
ATOM     44  C   UNL A   1      43.873  28.435  30.332  1.00  0.00     0.074 A 
ATOM     45  C   UNL A   1      43.992  27.101  29.791  1.00  0.00     0.031 C 
ATOM     46  C   UNL A   1      37.902  30.155  28.666  1.00  0.00     0.029 A 
ATOM     47  C   UNL A   1      38.881  30.943  29.407  1.00  0.00     0.049 A 
ATOM     48  H   UNL A   1      40.846  30.419  29.859  1.00  0.00     0.167 HD
ATOM     49  C   UNL A   1      44.858  29.068  31.013  1.00  0.00     0.031 A 
ATOM     50  C   UNL A   1      38.661  32.167  29.927  1.00  0.00     0.031 A 
ATOM     51  C   UNL A   1      44.746  30.408  31.523  1.00  0.00     0.049 A 
ATOM     52  C   UNL A   1      39.769  32.851  30.681  1.00  0.00     0.074 A 
ATOM     53  C   UNL A   1      45.707  31.165  32.170  1.00  0.00     0.029 A 
ATOM     54  N   UNL A   1      43.605  31.193  31.439  1.00  0.00    -0.354 N 
ATOM     55  N   UNL A   1      40.977  32.415  30.943  1.00  0.00    -0.248 NA
ATOM     56  C   UNL A   1      39.485  34.195  31.204  1.00  0.00     0.031 C 
ATOM     57  C   UNL A   1      45.132  32.389  32.523  1.00  0.00     0.029 A 
ATOM     58  C   UNL A   1      43.832  32.419  32.041  1.00  0.00     0.049 A 
ATOM     59  H   UNL A   1      42.761  30.919  31.015  1.00  0.00     0.167 HD
ATOM     60  C   UNL A   1      41.610  33.443  31.633  1.00  0.00     0.074 A 
ATOM     61  C   UNL A   1      40.653  34.526  31.740  1.00  0.00     0.031 C 
ATOM     62  C   UNL A   1      42.870  33.488  32.130  1.00  0.00     0.031 A 
BRANCH  49  63
ATOM     63  C   UNL A   1      46.141  28.315  31.245  1.00  0.00    -0.014 A 
ATOM     64  C   UNL A   1      47.238  28.461  30.376  1.00  0.00     0.010 A 
ATOM     65  C   UNL A   1      46.266  27.474  32.367  1.00  0.00     0.010 A 
ATOM     66  C   UNL A   1      48.417  27.744  30.597  1.00  0.00     0.020 A 
ATOM     67  C   UNL A   1      47.456  26.781  32.609  1.00  0.00     0.020 A 
ATOM     68  C   UNL A   1      48.517  26.906  31.711  1.00  0.00     0.054 A 
BRANCH  68  69
ATOM     69  S   UNL A   1      50.068  26.007  31.983  1.00  0.00     0.124 S 
ATOM     70  O   UNL A   1      49.598  24.794  32.649  1.00  0.00    -0.237 OA
ATOM     71  O   UNL A   1      50.573  25.821  30.625  1.00  0.00    -0.237 OA
ATOM     72  O   UNL A   1      50.853  26.913  32.818  1.00  0.00    -0.744 OA
ENDBRANCH  68  69
ENDBRANCH  49  63
BRANCH  50  73
ATOM     73  C   UNL A   1      37.338  32.828  29.742  1.00  0.00    -0.014 A 
ATOM     74  C   UNL A   1      36.427  32.909  30.810  1.00  0.00     0.010 A 
ATOM     75  C   UNL A   1      36.987  33.393  28.503  1.00  0.00     0.010 A 
ATOM     76  C   UNL A   1      35.184  33.526  30.638  1.00  0.00     0.020 A 
ATOM     77  C   UNL A   1      35.757  34.036  28.334  1.00  0.00     0.020 A 
ATOM     78  C   UNL A   1      34.859  34.088  29.400  1.00  0.00     0.054 A 
BRANCH  78  79
ATOM     79  S   UNL A   1      33.262  34.931  29.215  1.00  0.00     0.124 S 
ATOM     80  O   UNL A   1      33.669  36.255  28.757  1.00  0.00    -0.237 OA
ATOM     81  O   UNL A   1      32.580  34.100  28.227  1.00  0.00    -0.237 OA
ATOM     82  O   UNL A   1      32.692  34.881  30.560  1.00  0.00    -0.744 OA
ENDBRANCH  78  79
ENDBRANCH  50  73
BRANCH  62  83
ATOM     83  C   UNL A   1      43.312  34.762  32.799  1.00  0.00    -0.014 A 
ATOM     84  C   UNL A   1      43.810  35.844  32.054  1.00  0.00     0.010 A 
ATOM     85  C   UNL A   1      43.145  34.903  34.189  1.00  0.00     0.010 A 
ATOM     86  C   UNL A   1      44.153  37.039  32.691  1.00  0.00     0.020 A 
ATOM     87  C   UNL A   1      43.460  36.106  34.825  1.00  0.00     0.020 A 
ATOM     88  C   UNL A   1      43.971  37.164  34.072  1.00  0.00     0.054 A 
BRANCH  88  89
ATOM     89  S   UNL A   1      44.361  38.749  34.864  1.00  0.00     0.124 S 
ATOM     90  O   UNL A   1      45.786  38.888  34.579  1.00  0.00    -0.237 OA
ATOM     91  O   UNL A   1      43.485  39.682  34.158  1.00  0.00    -0.237 OA
ATOM     92  O   UNL A   1      44.024  38.527  36.268  1.00  0.00    -0.744 OA
ENDBRANCH  88  89
ENDBRANCH  62  83
ENDBRANCH  36  37
ENDBRANCH  28  31
ENDBRANCH  26  27
ENDBRANCH  25  26
ENDBRANCH   1  25
TORSDOF 19
ENDMDL
MODEL 2
REMARK VINA RESULT:     -10.2      3.325      3.964
REMARK SMILES CC(C)[C@H](CO)NS(=O)(=O)c1ccc(Cl)c(C(=O)NCCCNC(=O)c2ccc(-c3c4nc(c(-c5ccc(S(=O)(=O)[O-])cc5)c5ccc([nH]5)c(-c5ccc(S(=O)(=O)[O-])cc5)c5nc(c(-c6ccc(S(=O)(=O)[O-])cc6)c6ccc3[nH]6)C=C5)C=C4)cc2)c1
REMARK SMILES IDX 20 1 19 2 17 3 18 4 16 6 11 7 12 8 86 9 13 10 14 11 15 12
REMARK SMILES IDX 8 13 9 14 10 15 7 16 4 18 2 19 1 20 3 21 5 22 6 23 21 25
REMARK SMILES IDX 22 26 23 27 24 28 25 30 26 31 27 32 85 33 28 34 84 35 29 36
REMARK SMILES IDX 30 37 31 38 78 39 32 40 83 41 77 42 79 43 33 44 82 45 76 46
REMARK SMILES IDX 75 47 34 49 64 50 45 51 63 52 46 53 49 54 62 55 80 56 47 57
REMARK SMILES IDX 48 58 61 60 81 61 50 62 35 63 36 64 44 65 37 66 43 67 38 68
REMARK SMILES IDX 39 69 40 70 41 71 42 72 65 73 66 74 74 75 67 76 73 77 68 78
REMARK SMILES IDX 69 79 70 80 71 81 72 82 51 83 52 84 60 85 53 86 59 87 54 88
REMARK SMILES IDX 55 89 56 90 57 91 58 92
REMARK H PARENT 19 5 7 17 6 24 23 29 79 48 49 59
REMARK Flexibility Score: inf
ROOT
ATOM      1  C   UNL A   1      37.100  22.184  25.547  1.00  0.00     0.118 C 
ENDROOT
BRANCH   1   2
ATOM      2  N   UNL A   1      36.001  22.049  26.484  1.00  0.00    -0.352 N 
ATOM      3  C   UNL A   1      34.644  21.977  26.296  1.00  0.00     0.252 C 
ATOM      4  O   UNL A   1      33.946  21.769  27.290  1.00  0.00    -0.269 OA
ATOM      5  H   UNL A   1      36.279  22.001  27.427  1.00  0.00     0.163 HD
BRANCH   3   6
ATOM      6  C   UNL A   1      33.963  22.245  25.000  1.00  0.00     0.059 A 
ATOM      7  C   UNL A   1      33.466  23.967  23.345  1.00  0.00     0.083 A 
ATOM      8  C   UNL A   1      32.789  23.046  22.553  1.00  0.00     0.023 A 
ATOM      9  C   UNL A   1      34.104  23.563  24.522  1.00  0.00     0.037 A 
ATOM     10  C   UNL A   1      32.622  21.747  23.030  1.00  0.00     0.023 A 
ATOM     11  C   UNL A   1      33.119  21.378  24.292  1.00  0.00     0.053 A 
ATOM     12  Cl  UNL A   1      32.421  19.946  24.966  1.00  0.00    -0.083 Cl
BRANCH   7  13
ATOM     13  S   UNL A   1      33.335  25.702  22.993  1.00  0.00     0.240 S 
ATOM     14  O   UNL A   1      33.947  25.940  21.710  1.00  0.00    -0.207 OA
ATOM     15  O   UNL A   1      33.771  26.391  24.191  1.00  0.00    -0.207 OA
BRANCH  13  16
ATOM     16  N   UNL A   1      31.703  25.991  22.864  1.00  0.00    -0.206 NA
ATOM     17  H   UNL A   1      31.516  26.102  21.867  1.00  0.00     0.141 HD
BRANCH  16  18
ATOM     18  C   UNL A   1      31.027  27.121  23.531  1.00  0.00     0.098 C 
BRANCH  18  19
ATOM     19  C   UNL A   1      29.970  26.634  24.556  1.00  0.00     0.003 C 
ATOM     20  C   UNL A   1      28.569  26.510  23.946  1.00  0.00     0.009 C 
ATOM     21  C   UNL A   1      30.319  25.315  25.259  1.00  0.00     0.009 C 
ENDBRANCH  18  19
BRANCH  18  22
ATOM     22  C   UNL A   1      30.464  28.019  22.405  1.00  0.00     0.176 C 
BRANCH  22  23
ATOM     23  O   UNL A   1      31.395  29.074  22.125  1.00  0.00    -0.395 OA
ATOM     24  H   UNL A   1      31.844  28.896  21.284  1.00  0.00     0.210 HD
ENDBRANCH  22  23
ENDBRANCH  18  22
ENDBRANCH  16  18
ENDBRANCH  13  16
ENDBRANCH   7  13
ENDBRANCH   3   6
ENDBRANCH   1   2
BRANCH   1  25
ATOM     25  C   UNL A   1      37.871  23.489  25.653  1.00  0.00     0.042 C 
BRANCH  25  26
ATOM     26  C   UNL A   1      38.922  23.531  26.751  1.00  0.00     0.118 C 
BRANCH  26  27
ATOM     27  N   UNL A   1      40.287  23.671  26.253  1.00  0.00    -0.352 N 
ATOM     28  C   UNL A   1      41.230  24.656  26.450  1.00  0.00     0.251 C 
ATOM     29  H   UNL A   1      40.586  22.932  25.677  1.00  0.00     0.163 HD
ATOM     30  O   UNL A   1      42.271  24.633  25.798  1.00  0.00    -0.269 OA
BRANCH  28  31
ATOM     31  C   UNL A   1      40.987  25.759  27.406  1.00  0.00     0.039 A 
ATOM     32  C   UNL A   1      39.991  25.618  28.378  1.00  0.00     0.014 A 
ATOM     33  C   UNL A   1      41.735  26.933  27.351  1.00  0.00     0.014 A 
ATOM     34  C   UNL A   1      39.824  26.608  29.353  1.00  0.00     0.010 A 
ATOM     35  C   UNL A   1      41.650  27.857  28.385  1.00  0.00     0.010 A 
ATOM     36  C   UNL A   1      40.692  27.710  29.398  1.00  0.00    -0.014 A 
BRANCH  36  37
ATOM     37  C   UNL A   1      40.628  28.731  30.476  1.00  0.00     0.031 A 
ATOM     38  C   UNL A   1      41.525  28.602  31.682  1.00  0.00     0.074 A 
ATOM     39  C   UNL A   1      39.698  29.707  30.429  1.00  0.00     0.049 A 
ATOM     40  N   UNL A   1      41.515  29.287  32.796  1.00  0.00    -0.248 NA
ATOM     41  C   UNL A   1      42.538  27.534  31.645  1.00  0.00     0.031 C 
ATOM     42  C   UNL A   1      38.741  29.919  29.338  1.00  0.00     0.029 A 
ATOM     43  N   UNL A   1      39.390  30.696  31.331  1.00  0.00    -0.354 N 
ATOM     44  C   UNL A   1      42.492  28.712  33.601  1.00  0.00     0.074 A 
ATOM     45  C   UNL A   1      43.036  27.590  32.871  1.00  0.00     0.031 C 
ATOM     46  C   UNL A   1      37.975  30.983  29.623  1.00  0.00     0.029 A 
ATOM     47  C   UNL A   1      38.344  31.499  30.937  1.00  0.00     0.049 A 
ATOM     48  H   UNL A   1      39.873  30.819  32.179  1.00  0.00     0.167 HD
ATOM     49  C   UNL A   1      42.916  29.096  34.828  1.00  0.00     0.031 A 
ATOM     50  C   UNL A   1      37.738  32.524  31.569  1.00  0.00     0.031 A 
ATOM     51  C   UNL A   1      42.393  30.232  35.538  1.00  0.00     0.049 A 
ATOM     52  C   UNL A   1      38.225  32.932  32.933  1.00  0.00     0.074 A 
ATOM     53  C   UNL A   1      42.798  30.745  36.757  1.00  0.00     0.029 A 
ATOM     54  N   UNL A   1      41.354  31.034  35.089  1.00  0.00    -0.354 N 
ATOM     55  N   UNL A   1      39.188  32.410  33.653  1.00  0.00    -0.248 NA
ATOM     56  C   UNL A   1      37.548  34.073  33.566  1.00  0.00     0.031 C 
ATOM     57  C   UNL A   1      41.970  31.828  37.070  1.00  0.00     0.029 A 
ATOM     58  C   UNL A   1      41.091  32.026  36.017  1.00  0.00     0.049 A 
ATOM     59  H   UNL A   1      40.877  30.916  34.237  1.00  0.00     0.167 HD
ATOM     60  C   UNL A   1      39.255  33.178  34.811  1.00  0.00     0.074 A 
ATOM     61  C   UNL A   1      38.240  34.206  34.689  1.00  0.00     0.031 C 
ATOM     62  C   UNL A   1      40.083  33.047  35.875  1.00  0.00     0.031 A 
BRANCH  49  63
ATOM     63  C   UNL A   1      44.000  28.277  35.480  1.00  0.00    -0.014 A 
ATOM     64  C   UNL A   1      43.687  27.201  36.330  1.00  0.00     0.010 A 
ATOM     65  C   UNL A   1      45.351  28.567  35.214  1.00  0.00     0.010 A 
ATOM     66  C   UNL A   1      44.703  26.461  36.939  1.00  0.00     0.020 A 
ATOM     67  C   UNL A   1      46.370  27.807  35.796  1.00  0.00     0.020 A 
ATOM     68  C   UNL A   1      46.039  26.770  36.671  1.00  0.00     0.054 A 
BRANCH  68  69
ATOM     69  S   UNL A   1      47.335  25.777  37.459  1.00  0.00     0.124 S 
ATOM     70  O   UNL A   1      46.869  24.417  37.199  1.00  0.00    -0.237 OA
ATOM     71  O   UNL A   1      48.535  26.179  36.730  1.00  0.00    -0.237 OA
ATOM     72  O   UNL A   1      47.290  26.194  38.858  1.00  0.00    -0.744 OA
ENDBRANCH  68  69
ENDBRANCH  49  63
BRANCH  50  73
ATOM     73  C   UNL A   1      36.610  33.242  30.911  1.00  0.00    -0.014 A 
ATOM     74  C   UNL A   1      36.854  34.123  29.843  1.00  0.00     0.010 A 
ATOM     75  C   UNL A   1      35.286  33.038  31.339  1.00  0.00     0.010 A 
ATOM     76  C   UNL A   1      35.797  34.801  29.227  1.00  0.00     0.020 A 
ATOM     77  C   UNL A   1      34.224  33.691  30.707  1.00  0.00     0.020 A 
ATOM     78  C   UNL A   1      34.488  34.577  29.662  1.00  0.00     0.054 A 
BRANCH  78  79
ATOM     79  S   UNL A   1      33.127  35.426  28.812  1.00  0.00     0.124 S 
ATOM     80  O   UNL A   1      33.840  36.404  27.998  1.00  0.00    -0.237 OA
ATOM     81  O   UNL A   1      32.485  34.338  28.079  1.00  0.00    -0.237 OA
ATOM     82  O   UNL A   1      32.334  35.981  29.908  1.00  0.00    -0.744 OA
ENDBRANCH  78  79
ENDBRANCH  50  73
BRANCH  62  83
ATOM     83  C   UNL A   1      39.964  34.060  36.982  1.00  0.00    -0.014 A 
ATOM     84  C   UNL A   1      40.598  35.312  36.898  1.00  0.00     0.010 A 
ATOM     85  C   UNL A   1      39.135  33.782  38.084  1.00  0.00     0.010 A 
ATOM     86  C   UNL A   1      40.420  36.261  37.908  1.00  0.00     0.020 A 
ATOM     87  C   UNL A   1      38.932  34.739  39.081  1.00  0.00     0.020 A 
ATOM     88  C   UNL A   1      39.584  35.969  38.991  1.00  0.00     0.054 A 
BRANCH  88  89
ATOM     89  S   UNL A   1      39.318  37.244  40.254  1.00  0.00     0.124 S 
ATOM     90  O   UNL A   1      40.685  37.635  40.584  1.00  0.00    -0.237 OA
ATOM     91  O   UNL A   1      38.533  38.246  39.536  1.00  0.00    -0.237 OA
ATOM     92  O   UNL A   1      38.598  36.538  41.312  1.00  0.00    -0.744 OA
ENDBRANCH  88  89
ENDBRANCH  62  83
ENDBRANCH  36  37
ENDBRANCH  28  31
ENDBRANCH  26  27
ENDBRANCH  25  26
ENDBRANCH   1  25
TORSDOF 19
ENDMDL
MODEL 3
REMARK VINA RESULT:     -10.2      1.463      2.138
REMARK SMILES CC(C)[C@H](CO)NS(=O)(=O)c1ccc(Cl)c(C(=O)NCCCNC(=O)c2ccc(-c3c4nc(c(-c5ccc(S(=O)(=O)[O-])cc5)c5ccc([nH]5)c(-c5ccc(S(=O)(=O)[O-])cc5)c5nc(c(-c6ccc(S(=O)(=O)[O-])cc6)c6ccc3[nH]6)C=C5)C=C4)cc2)c1
REMARK SMILES IDX 20 1 19 2 17 3 18 4 16 6 11 7 12 8 86 9 13 10 14 11 15 12
REMARK SMILES IDX 8 13 9 14 10 15 7 16 4 18 2 19 1 20 3 21 5 22 6 23 21 25
REMARK SMILES IDX 22 26 23 27 24 28 25 30 26 31 27 32 85 33 28 34 84 35 29 36
REMARK SMILES IDX 30 37 31 38 78 39 32 40 83 41 77 42 79 43 33 44 82 45 76 46
REMARK SMILES IDX 75 47 34 49 64 50 45 51 63 52 46 53 49 54 62 55 80 56 47 57
REMARK SMILES IDX 48 58 61 60 81 61 50 62 35 63 36 64 44 65 37 66 43 67 38 68
REMARK SMILES IDX 39 69 40 70 41 71 42 72 65 73 66 74 74 75 67 76 73 77 68 78
REMARK SMILES IDX 69 79 70 80 71 81 72 82 51 83 52 84 60 85 53 86 59 87 54 88
REMARK SMILES IDX 55 89 56 90 57 91 58 92
REMARK H PARENT 19 5 7 17 6 24 23 29 79 48 49 59
REMARK Flexibility Score: inf
ROOT
ATOM      1  C   UNL A   1      34.884  23.624  23.487  1.00  0.00     0.118 C 
ENDROOT
BRANCH   1   2
ATOM      2  N   UNL A   1      33.979  22.613  22.976  1.00  0.00    -0.352 N 
ATOM      3  C   UNL A   1      32.619  22.465  23.085  1.00  0.00     0.252 C 
ATOM      4  O   UNL A   1      32.099  21.540  22.459  1.00  0.00    -0.269 OA
ATOM      5  H   UNL A   1      34.420  21.903  22.457  1.00  0.00     0.163 HD
BRANCH   3   6
ATOM      6  C   UNL A   1      31.759  23.274  23.991  1.00  0.00     0.059 A 
ATOM      7  C   UNL A   1      30.439  25.319  24.164  1.00  0.00     0.083 A 
ATOM      8  C   UNL A   1      30.074  25.002  25.469  1.00  0.00     0.023 A 
ATOM      9  C   UNL A   1      31.218  24.436  23.407  1.00  0.00     0.037 A 
ATOM     10  C   UNL A   1      30.626  23.869  26.062  1.00  0.00     0.023 A 
ATOM     11  C   UNL A   1      31.542  23.066  25.360  1.00  0.00     0.053 A 
ATOM     12  Cl  UNL A   1      32.515  22.028  26.345  1.00  0.00    -0.083 Cl
BRANCH   7  13
ATOM     13  S   UNL A   1      30.115  26.942  23.524  1.00  0.00     0.240 S 
ATOM     14  O   UNL A   1      28.718  27.229  23.732  1.00  0.00    -0.207 OA
ATOM     15  O   UNL A   1      30.720  26.985  22.207  1.00  0.00    -0.207 OA
BRANCH  13  16
ATOM     16  N   UNL A   1      31.014  27.966  24.476  1.00  0.00    -0.206 NA
ATOM     17  H   UNL A   1      30.816  28.908  24.140  1.00  0.00     0.141 HD
BRANCH  16  18
ATOM     18  C   UNL A   1      32.483  27.878  24.594  1.00  0.00     0.098 C 
BRANCH  18  19
ATOM     19  C   UNL A   1      32.919  27.412  26.007  1.00  0.00     0.003 C 
ATOM     20  C   UNL A   1      33.691  26.088  25.980  1.00  0.00     0.009 C 
ATOM     21  C   UNL A   1      33.738  28.443  26.798  1.00  0.00     0.009 C 
ENDBRANCH  18  19
BRANCH  18  22
ATOM     22  C   UNL A   1      33.037  29.259  24.173  1.00  0.00     0.176 C 
BRANCH  22  23
ATOM     23  O   UNL A   1      32.802  29.462  22.772  1.00  0.00    -0.395 OA
ATOM     24  H   UNL A   1      33.637  29.367  22.287  1.00  0.00     0.210 HD
ENDBRANCH  22  23
ENDBRANCH  18  22
ENDBRANCH  16  18
ENDBRANCH  13  16
ENDBRANCH   7  13
ENDBRANCH   3   6
ENDBRANCH   1   2
BRANCH   1  25
ATOM     25  C   UNL A   1      36.326  23.169  23.640  1.00  0.00     0.042 C 
BRANCH  25  26
ATOM     26  C   UNL A   1      36.983  23.535  24.962  1.00  0.00     0.118 C 
BRANCH  26  27
ATOM     27  N   UNL A   1      38.067  22.637  25.348  1.00  0.00    -0.352 N 
ATOM     28  C   UNL A   1      39.224  22.863  26.059  1.00  0.00     0.251 C 
ATOM     29  H   UNL A   1      37.950  21.707  25.047  1.00  0.00     0.163 HD
ATOM     30  O   UNL A   1      40.072  21.977  26.131  1.00  0.00    -0.269 OA
BRANCH  28  31
ATOM     31  C   UNL A   1      39.475  24.172  26.703  1.00  0.00     0.039 A 
ATOM     32  C   UNL A   1      39.011  24.397  28.004  1.00  0.00     0.014 A 
ATOM     33  C   UNL A   1      40.165  25.180  26.033  1.00  0.00     0.014 A 
ATOM     34  C   UNL A   1      39.334  25.590  28.661  1.00  0.00     0.010 A 
ATOM     35  C   UNL A   1      40.586  26.309  26.725  1.00  0.00     0.010 A 
ATOM     36  C   UNL A   1      40.174  26.531  28.047  1.00  0.00    -0.014 A 
BRANCH  36  37
ATOM     37  C   UNL A   1      40.636  27.761  28.743  1.00  0.00     0.031 A 
ATOM     38  C   UNL A   1      41.994  27.783  29.397  1.00  0.00     0.074 A 
ATOM     39  C   UNL A   1      39.802  28.812  28.883  1.00  0.00     0.049 A 
ATOM     40  N   UNL A   1      42.518  28.688  30.183  1.00  0.00    -0.248 NA
ATOM     41  C   UNL A   1      42.861  26.614  29.170  1.00  0.00     0.031 C 
ATOM     42  C   UNL A   1      38.446  28.902  28.334  1.00  0.00     0.029 A 
ATOM     43  N   UNL A   1      39.966  30.003  29.548  1.00  0.00    -0.354 N 
ATOM     44  C   UNL A   1      43.755  28.182  30.569  1.00  0.00     0.074 A 
ATOM     45  C   UNL A   1      43.879  26.869  29.977  1.00  0.00     0.031 C 
ATOM     46  C   UNL A   1      37.915  30.091  28.662  1.00  0.00     0.029 A 
ATOM     47  C   UNL A   1      38.866  30.827  29.489  1.00  0.00     0.049 A 
ATOM     48  H   UNL A   1      40.794  30.244  30.023  1.00  0.00     0.167 HD
ATOM     49  C   UNL A   1      44.711  28.765  31.329  1.00  0.00     0.031 A 
ATOM     50  C   UNL A   1      38.639  32.032  30.049  1.00  0.00     0.031 A 
ATOM     51  C   UNL A   1      44.596  30.084  31.891  1.00  0.00     0.049 A 
ATOM     52  C   UNL A   1      39.716  32.660  30.891  1.00  0.00     0.074 A 
ATOM     53  C   UNL A   1      45.533  30.792  32.621  1.00  0.00     0.029 A 
ATOM     54  N   UNL A   1      43.476  30.894  31.781  1.00  0.00    -0.354 N 
ATOM     55  N   UNL A   1      40.901  32.189  31.198  1.00  0.00    -0.248 NA
ATOM     56  C   UNL A   1      39.429  33.986  31.457  1.00  0.00     0.031 C 
ATOM     57  C   UNL A   1      44.962  32.012  32.996  1.00  0.00     0.029 A 
ATOM     58  C   UNL A   1      43.691  32.088  32.447  1.00  0.00     0.049 A 
ATOM     59  H   UNL A   1      42.651  30.656  31.300  1.00  0.00     0.167 HD
ATOM     60  C   UNL A   1      41.514  33.174  31.965  1.00  0.00     0.074 A 
ATOM     61  C   UNL A   1      40.571  34.270  32.068  1.00  0.00     0.031 C 
ATOM     62  C   UNL A   1      42.745  33.172  32.531  1.00  0.00     0.031 A 
BRANCH  49  63
ATOM     63  C   UNL A   1      45.967  27.977  31.597  1.00  0.00    -0.014 A 
ATOM     64  C   UNL A   1      47.094  28.097  30.763  1.00  0.00     0.010 A 
ATOM     65  C   UNL A   1      46.034  27.127  32.717  1.00  0.00     0.010 A 
ATOM     66  C   UNL A   1      48.246  27.348  31.016  1.00  0.00     0.020 A 
ATOM     67  C   UNL A   1      47.198  26.401  32.992  1.00  0.00     0.020 A 
ATOM     68  C   UNL A   1      48.289  26.503  32.128  1.00  0.00     0.054 A 
BRANCH  68  69
ATOM     69  S   UNL A   1      49.807  25.561  32.442  1.00  0.00     0.124 S 
ATOM     70  O   UNL A   1      50.669  26.575  33.044  1.00  0.00    -0.237 OA
ATOM     71  O   UNL A   1      49.349  24.509  33.347  1.00  0.00    -0.237 OA
ATOM     72  O   UNL A   1      50.213  25.104  31.115  1.00  0.00    -0.744 OA
ENDBRANCH  68  69
ENDBRANCH  49  63
BRANCH  50  73
ATOM     73  C   UNL A   1      37.341  32.727  29.822  1.00  0.00    -0.014 A 
ATOM     74  C   UNL A   1      36.401  32.837  30.863  1.00  0.00     0.010 A 
ATOM     75  C   UNL A   1      37.042  33.295  28.571  1.00  0.00     0.010 A 
ATOM     76  C   UNL A   1      35.181  33.485  30.652  1.00  0.00     0.020 A 
ATOM     77  C   UNL A   1      35.835  33.969  28.364  1.00  0.00     0.020 A 
ATOM     78  C   UNL A   1      34.908  34.050  29.403  1.00  0.00     0.054 A 
BRANCH  78  79
ATOM     79  S   UNL A   1      33.339  34.934  29.167  1.00  0.00     0.124 S 
ATOM     80  O   UNL A   1      32.682  34.120  28.151  1.00  0.00    -0.237 OA
ATOM     81  O   UNL A   1      32.746  34.885  30.501  1.00  0.00    -0.237 OA
ATOM     82  O   UNL A   1      33.761  36.264  28.730  1.00  0.00    -0.744 OA
ENDBRANCH  78  79
ENDBRANCH  50  73
BRANCH  62  83
ATOM     83  C   UNL A   1      43.172  34.406  33.278  1.00  0.00    -0.014 A 
ATOM     84  C   UNL A   1      43.081  34.482  34.679  1.00  0.00     0.010 A 
ATOM     85  C   UNL A   1      43.750  35.475  32.569  1.00  0.00     0.010 A 
ATOM     86  C   UNL A   1      43.544  35.613  35.355  1.00  0.00     0.020 A 
ATOM     87  C   UNL A   1      44.240  36.596  33.244  1.00  0.00     0.020 A 
ATOM     88  C   UNL A   1      44.125  36.661  34.633  1.00  0.00     0.054 A 
BRANCH  88  89
ATOM     89  S   UNL A   1      44.777  38.088  35.542  1.00  0.00     0.124 S 
ATOM     90  O   UNL A   1      46.149  37.671  35.820  1.00  0.00    -0.237 OA
ATOM     91  O   UNL A   1      44.634  39.175  34.576  1.00  0.00    -0.237 OA
ATOM     92  O   UNL A   1      43.906  38.183  36.711  1.00  0.00    -0.744 OA
ENDBRANCH  88  89
ENDBRANCH  62  83
ENDBRANCH  36  37
ENDBRANCH  28  31
ENDBRANCH  26  27
ENDBRANCH  25  26
ENDBRANCH   1  25
TORSDOF 19
ENDMDL
