MODEL 1
REMARK VINA RESULT:     -10.9      0.000      0.000
REMARK SMILES CN(CCO)C(=O)N[C@H]1C=C[C@@H](C(=O)NCCCNC(=O)c2ccc(-c3c4nc(c(-c5ccc(S(=O)(=O)[O-])cc5)c5ccc([nH]5)c(-c5ccc(S(=O)(=O)[O-])cc5)c5nc(c(-c6ccc(S(=O)(=O)[O-])cc6)c6ccc3[nH]6)C=C5)C=C4)cc2)C1
REMARK SMILES IDX 16 1 15 2 13 3 14 4 12 6 9 7 10 8 82 9 11 10 8 11 6 12 7 13
REMARK SMILES IDX 2 15 1 16 3 17 4 18 5 19 17 21 18 22 19 23 20 24 21 26 22 27
REMARK SMILES IDX 23 28 81 29 24 30 80 31 25 32 26 33 27 34 74 35 28 36 79 37
REMARK SMILES IDX 73 38 75 39 29 40 78 41 72 42 71 43 30 45 60 46 41 47 59 48
REMARK SMILES IDX 42 49 45 50 58 51 76 52 43 53 44 54 57 56 77 57 46 58 31 59
REMARK SMILES IDX 32 60 40 61 33 62 39 63 34 64 35 65 36 66 37 67 38 68 61 69
REMARK SMILES IDX 62 70 70 71 63 72 69 73 64 74 65 75 66 76 67 77 68 78 47 79
REMARK SMILES IDX 48 80 56 81 49 82 55 83 50 84 51 85 52 86 53 87 54 88
REMARK H PARENT 15 5 8 14 5 20 19 25 75 44 45 55
REMARK Flexibility Score: inf
ROOT
ATOM      1  C   UNL A   1      33.253  29.645  26.263  1.00  0.00     0.117 C 
ENDROOT
BRANCH   1   2
ATOM      2  N   UNL A   1      33.403  29.712  24.818  1.00  0.00    -0.356 N 
ATOM      3  C   UNL A   1      32.998  28.870  23.829  1.00  0.00     0.227 C 
ATOM      4  O   UNL A   1      33.268  29.189  22.667  1.00  0.00    -0.274 OA
ATOM      5  H   UNL A   1      33.886  30.509  24.499  1.00  0.00     0.163 HD
BRANCH   3   6
ATOM      6  C   UNL A   1      32.204  27.592  24.106  1.00  0.00     0.103 C 
ATOM      7  C   UNL A   1      29.847  26.878  23.938  1.00  0.00     0.107 C 
ATOM      8  C   UNL A   1      30.657  26.494  22.742  1.00  0.00    -0.006 C 
ATOM      9  C   UNL A   1      30.814  27.798  24.717  1.00  0.00     0.047 C 
ATOM     10  C   UNL A   1      31.942  26.838  22.846  1.00  0.00    -0.016 C 
BRANCH   7  11
ATOM     11  N   UNL A   1      28.639  27.569  23.537  1.00  0.00    -0.332 N 
ATOM     12  C   UNL A   1      28.318  28.760  23.010  1.00  0.00     0.317 C 
ATOM     13  O   UNL A   1      27.145  28.858  22.637  1.00  0.00    -0.249 OA
ATOM     14  H   UNL A   1      27.839  27.017  23.692  1.00  0.00     0.165 HD
BRANCH  12  15
ATOM     15  N   UNL A   1      29.173  29.826  22.927  1.00  0.00    -0.326 N 
ATOM     16  C   UNL A   1      29.988  29.886  21.714  1.00  0.00     0.148 C 
BRANCH  15  17
ATOM     17  C   UNL A   1      29.267  31.001  23.794  1.00  0.00     0.149 C 
BRANCH  17  18
ATOM     18  C   UNL A   1      28.743  32.292  23.145  1.00  0.00     0.177 C 
BRANCH  18  19
ATOM     19  O   UNL A   1      29.659  33.379  23.226  1.00  0.00    -0.395 OA
ATOM     20  H   UNL A   1      30.413  33.126  23.784  1.00  0.00     0.210 HD
ENDBRANCH  18  19
ENDBRANCH  17  18
ENDBRANCH  15  17
ENDBRANCH  12  15
ENDBRANCH   7  11
ENDBRANCH   3   6
ENDBRANCH   1   2
BRANCH   1  21
ATOM     21  C   UNL A   1      34.282  28.723  26.899  1.00  0.00     0.042 C 
BRANCH  21  22
ATOM     22  C   UNL A   1      35.500  29.460  27.430  1.00  0.00     0.118 C 
BRANCH  22  23
ATOM     23  N   UNL A   1      35.365  29.824  28.833  1.00  0.00    -0.352 N 
ATOM     24  C   UNL A   1      36.303  29.790  29.837  1.00  0.00     0.251 C 
ATOM     25  H   UNL A   1      34.472  30.140  29.102  1.00  0.00     0.163 HD
ATOM     26  O   UNL A   1      35.958  29.956  30.999  1.00  0.00    -0.269 OA
BRANCH  24  27
ATOM     27  C   UNL A   1      37.721  29.530  29.506  1.00  0.00     0.039 A 
ATOM     28  C   UNL A   1      38.557  28.984  30.482  1.00  0.00     0.014 A 
ATOM     29  C   UNL A   1      38.221  29.816  28.233  1.00  0.00     0.014 A 
ATOM     30  C   UNL A   1      39.879  28.671  30.161  1.00  0.00     0.010 A 
ATOM     31  C   UNL A   1      39.503  29.411  27.886  1.00  0.00     0.010 A 
ATOM     32  C   UNL A   1      40.353  28.850  28.850  1.00  0.00    -0.014 A 
BRANCH  32  33
ATOM     33  C   UNL A   1      41.739  28.480  28.469  1.00  0.00     0.031 A 
ATOM     34  C   UNL A   1      42.824  29.524  28.479  1.00  0.00     0.074 A 
ATOM     35  C   UNL A   1      42.010  27.224  28.064  1.00  0.00     0.049 A 
ATOM     36  N   UNL A   1      44.082  29.410  28.138  1.00  0.00    -0.248 NA
ATOM     37  C   UNL A   1      42.438  30.880  28.899  1.00  0.00     0.031 C 
ATOM     38  C   UNL A   1      41.037  26.130  27.981  1.00  0.00     0.029 A 
ATOM     39  N   UNL A   1      43.186  26.654  27.648  1.00  0.00    -0.354 N 
ATOM     40  C   UNL A   1      44.631  30.678  28.291  1.00  0.00     0.074 A 
ATOM     41  C   UNL A   1      43.554  31.559  28.686  1.00  0.00     0.031 C 
ATOM     42  C   UNL A   1      41.668  25.012  27.587  1.00  0.00     0.029 A 
ATOM     43  C   UNL A   1      43.073  25.318  27.344  1.00  0.00     0.049 A 
ATOM     44  H   UNL A   1      44.031  27.154  27.573  1.00  0.00     0.167 HD
ATOM     45  C   UNL A   1      45.919  31.072  28.144  1.00  0.00     0.031 A 
ATOM     46  C   UNL A   1      44.001  24.436  26.920  1.00  0.00     0.031 A 
ATOM     47  C   UNL A   1      46.985  30.192  27.749  1.00  0.00     0.049 A 
ATOM     48  C   UNL A   1      45.416  24.903  26.724  1.00  0.00     0.074 A 
ATOM     49  C   UNL A   1      48.331  30.479  27.604  1.00  0.00     0.029 A 
ATOM     50  N   UNL A   1      46.826  28.851  27.431  1.00  0.00    -0.354 N 
ATOM     51  N   UNL A   1      45.928  26.095  26.924  1.00  0.00    -0.248 NA
ATOM     52  C   UNL A   1      46.383  23.902  26.255  1.00  0.00     0.031 C 
ATOM     53  C   UNL A   1      48.975  29.326  27.145  1.00  0.00     0.029 A 
ATOM     54  C   UNL A   1      48.044  28.302  27.068  1.00  0.00     0.049 A 
ATOM     55  H   UNL A   1      45.972  28.361  27.459  1.00  0.00     0.167 HD
ATOM     56  C   UNL A   1      47.285  25.977  26.639  1.00  0.00     0.074 A 
ATOM     57  C   UNL A   1      47.512  24.597  26.262  1.00  0.00     0.031 C 
ATOM     58  C   UNL A   1      48.253  26.925  26.691  1.00  0.00     0.031 A 
BRANCH  45  59
ATOM     59  C   UNL A   1      46.227  32.525  28.404  1.00  0.00    -0.014 A 
ATOM     60  C   UNL A   1      46.570  32.977  29.693  1.00  0.00     0.010 A 
ATOM     61  C   UNL A   1      46.167  33.455  27.351  1.00  0.00     0.010 A 
ATOM     62  C   UNL A   1      46.778  34.336  29.937  1.00  0.00     0.020 A 
ATOM     63  C   UNL A   1      46.411  34.813  27.584  1.00  0.00     0.020 A 
ATOM     64  C   UNL A   1      46.688  35.247  28.881  1.00  0.00     0.054 A 
BRANCH  64  65
ATOM     65  S   UNL A   1      46.948  37.008  29.230  1.00  0.00     0.124 S 
ATOM     66  O   UNL A   1      45.596  37.545  29.085  1.00  0.00    -0.237 OA
ATOM     67  O   UNL A   1      47.474  36.992  30.592  1.00  0.00    -0.237 OA
ATOM     68  O   UNL A   1      47.897  37.429  28.203  1.00  0.00    -0.744 OA
ENDBRANCH  64  65
ENDBRANCH  45  59
BRANCH  46  69
ATOM     69  C   UNL A   1      43.624  23.013  26.696  1.00  0.00    -0.014 A 
ATOM     70  C   UNL A   1      44.076  22.335  25.549  1.00  0.00     0.010 A 
ATOM     71  C   UNL A   1      42.836  22.320  27.632  1.00  0.00     0.010 A 
ATOM     72  C   UNL A   1      43.737  20.997  25.336  1.00  0.00     0.020 A 
ATOM     73  C   UNL A   1      42.518  20.972  27.437  1.00  0.00     0.020 A 
ATOM     74  C   UNL A   1      42.964  20.322  26.284  1.00  0.00     0.054 A 
BRANCH  74  75
ATOM     75  S   UNL A   1      42.585  18.568  26.011  1.00  0.00     0.124 S 
ATOM     76  O   UNL A   1      41.148  18.603  25.762  1.00  0.00    -0.237 OA
ATOM     77  O   UNL A   1      43.421  18.242  24.859  1.00  0.00    -0.237 OA
ATOM     78  O   UNL A   1      42.987  17.932  27.264  1.00  0.00    -0.744 OA
ENDBRANCH  74  75
ENDBRANCH  46  69
BRANCH  58  79
ATOM     79  C   UNL A   1      49.661  26.493  26.372  1.00  0.00    -0.014 A 
ATOM     80  C   UNL A   1      50.497  25.935  27.353  1.00  0.00     0.010 A 
ATOM     81  C   UNL A   1      50.134  26.604  25.050  1.00  0.00     0.010 A 
ATOM     82  C   UNL A   1      51.794  25.526  27.027  1.00  0.00     0.020 A 
ATOM     83  C   UNL A   1      51.417  26.169  24.713  1.00  0.00     0.020 A 
ATOM     84  C   UNL A   1      52.246  25.645  25.708  1.00  0.00     0.054 A 
BRANCH  84  85
ATOM     85  S   UNL A   1      53.917  25.069  25.302  1.00  0.00     0.124 S 
ATOM     86  O   UNL A   1      54.596  25.172  26.592  1.00  0.00    -0.237 OA
ATOM     87  O   UNL A   1      53.678  23.710  24.823  1.00  0.00    -0.237 OA
ATOM     88  O   UNL A   1      54.370  26.012  24.283  1.00  0.00    -0.744 OA
ENDBRANCH  84  85
ENDBRANCH  58  79
ENDBRANCH  32  33
ENDBRANCH  24  27
ENDBRANCH  22  23
ENDBRANCH  21  22
ENDBRANCH   1  21
TORSDOF 18
ENDMDL
MODEL 2
REMARK VINA RESULT:     -10.8      5.294     12.339
REMARK SMILES CN(CCO)C(=O)N[C@H]1C=C[C@@H](C(=O)NCCCNC(=O)c2ccc(-c3c4nc(c(-c5ccc(S(=O)(=O)[O-])cc5)c5ccc([nH]5)c(-c5ccc(S(=O)(=O)[O-])cc5)c5nc(c(-c6ccc(S(=O)(=O)[O-])cc6)c6ccc3[nH]6)C=C5)C=C4)cc2)C1
REMARK SMILES IDX 16 1 15 2 13 3 14 4 12 6 9 7 10 8 82 9 11 10 8 11 6 12 7 13
REMARK SMILES IDX 2 15 1 16 3 17 4 18 5 19 17 21 18 22 19 23 20 24 21 26 22 27
REMARK SMILES IDX 23 28 81 29 24 30 80 31 25 32 26 33 27 34 74 35 28 36 79 37
REMARK SMILES IDX 73 38 75 39 29 40 78 41 72 42 71 43 30 45 60 46 41 47 59 48
REMARK SMILES IDX 42 49 45 50 58 51 76 52 43 53 44 54 57 56 77 57 46 58 31 59
REMARK SMILES IDX 32 60 40 61 33 62 39 63 34 64 35 65 36 66 37 67 38 68 61 69
REMARK SMILES IDX 62 70 70 71 63 72 69 73 64 74 65 75 66 76 67 77 68 78 47 79
REMARK SMILES IDX 48 80 56 81 49 82 55 83 50 84 51 85 52 86 53 87 54 88
REMARK H PARENT 15 5 8 14 5 20 19 25 75 44 45 55
REMARK Flexibility Score: inf
ROOT
ATOM      1  C   UNL A   1      42.545  21.492  25.827  1.00  0.00     0.117 C 
ENDROOT
BRANCH   1   2
ATOM      2  N   UNL A   1      43.996  21.567  25.873  1.00  0.00    -0.356 N 
ATOM      3  C   UNL A   1      44.837  22.603  26.139  1.00  0.00     0.227 C 
ATOM      4  O   UNL A   1      46.050  22.371  26.107  1.00  0.00    -0.274 OA
ATOM      5  H   UNL A   1      44.451  20.717  25.675  1.00  0.00     0.163 HD
BRANCH   3   6
ATOM      6  C   UNL A   1      44.336  24.002  26.502  1.00  0.00     0.103 C 
ATOM      7  C   UNL A   1      44.755  26.309  25.731  1.00  0.00     0.107 C 
ATOM      8  C   UNL A   1      43.547  25.695  25.100  1.00  0.00    -0.006 C 
ATOM      9  C   UNL A   1      45.393  25.111  26.469  1.00  0.00     0.047 C 
ATOM     10  C   UNL A   1      43.289  24.464  25.546  1.00  0.00    -0.016 C 
BRANCH   7  11
ATOM     11  N   UNL A   1      45.634  26.862  24.721  1.00  0.00    -0.332 N 
ATOM     12  C   UNL A   1      46.634  27.755  24.673  1.00  0.00     0.317 C 
ATOM     13  O   UNL A   1      47.252  27.777  23.604  1.00  0.00    -0.249 OA
ATOM     14  H   UNL A   1      45.449  26.480  23.833  1.00  0.00     0.165 HD
BRANCH  12  15
ATOM     15  N   UNL A   1      46.939  28.630  25.680  1.00  0.00    -0.326 N 
ATOM     16  C   UNL A   1      48.208  28.382  26.364  1.00  0.00     0.148 C 
BRANCH  15  17
ATOM     17  C   UNL A   1      46.266  29.874  26.056  1.00  0.00     0.149 C 
BRANCH  17  18
ATOM     18  C   UNL A   1      45.140  29.681  27.084  1.00  0.00     0.177 C 
BRANCH  18  19
ATOM     19  O   UNL A   1      43.836  29.796  26.523  1.00  0.00    -0.395 OA
ATOM     20  H   UNL A   1      43.196  29.984  27.228  1.00  0.00     0.210 HD
ENDBRANCH  18  19
ENDBRANCH  17  18
ENDBRANCH  15  17
ENDBRANCH  12  15
ENDBRANCH   7  11
ENDBRANCH   3   6
ENDBRANCH   1   2
BRANCH   1  21
ATOM     21  C   UNL A   1      41.964  20.922  27.113  1.00  0.00     0.042 C 
BRANCH  21  22
ATOM     22  C   UNL A   1      40.776  21.713  27.635  1.00  0.00     0.118 C 
BRANCH  22  23
ATOM     23  N   UNL A   1      39.739  21.892  26.629  1.00  0.00    -0.352 N 
ATOM     24  C   UNL A   1      38.988  23.005  26.338  1.00  0.00     0.251 C 
ATOM     25  H   UNL A   1      39.549  21.100  26.075  1.00  0.00     0.163 HD
ATOM     26  O   UNL A   1      38.031  22.914  25.581  1.00  0.00    -0.269 OA
BRANCH  24  27
ATOM     27  C   UNL A   1      39.330  24.302  26.962  1.00  0.00     0.039 A 
ATOM     28  C   UNL A   1      38.962  24.535  28.289  1.00  0.00     0.014 A 
ATOM     29  C   UNL A   1      40.019  25.281  26.243  1.00  0.00     0.014 A 
ATOM     30  C   UNL A   1      39.339  25.726  28.910  1.00  0.00     0.010 A 
ATOM     31  C   UNL A   1      40.481  26.419  26.890  1.00  0.00     0.010 A 
ATOM     32  C   UNL A   1      40.132  26.664  28.226  1.00  0.00    -0.014 A 
BRANCH  32  33
ATOM     33  C   UNL A   1      40.588  27.917  28.878  1.00  0.00     0.031 A 
ATOM     34  C   UNL A   1      41.997  28.021  29.401  1.00  0.00     0.074 A 
ATOM     35  C   UNL A   1      39.726  28.938  29.046  1.00  0.00     0.049 A 
ATOM     36  N   UNL A   1      42.570  29.009  30.038  1.00  0.00    -0.248 NA
ATOM     37  C   UNL A   1      42.864  26.848  29.210  1.00  0.00     0.031 C 
ATOM     38  C   UNL A   1      38.326  28.947  28.611  1.00  0.00     0.029 A 
ATOM     39  N   UNL A   1      39.900  30.168  29.628  1.00  0.00    -0.354 N 
ATOM     40  C   UNL A   1      43.857  28.573  30.332  1.00  0.00     0.074 A 
ATOM     41  C   UNL A   1      43.955  27.207  29.868  1.00  0.00     0.031 C 
ATOM     42  C   UNL A   1      37.785  30.142  28.898  1.00  0.00     0.029 A 
ATOM     43  C   UNL A   1      38.780  30.964  29.579  1.00  0.00     0.049 A 
ATOM     44  H   UNL A   1      40.747  30.454  30.042  1.00  0.00     0.167 HD
ATOM     45  C   UNL A   1      44.875  29.254  30.911  1.00  0.00     0.031 A 
ATOM     46  C   UNL A   1      38.579  32.218  30.029  1.00  0.00     0.031 A 
ATOM     47  C   UNL A   1      44.771  30.611  31.373  1.00  0.00     0.049 A 
ATOM     48  C   UNL A   1      39.710  32.942  30.705  1.00  0.00     0.074 A 
ATOM     49  C   UNL A   1      45.750  31.407  31.941  1.00  0.00     0.029 A 
ATOM     50  N   UNL A   1      43.614  31.375  31.323  1.00  0.00    -0.354 N 
ATOM     51  N   UNL A   1      40.937  32.532  30.928  1.00  0.00    -0.248 NA
ATOM     52  C   UNL A   1      39.433  34.303  31.181  1.00  0.00     0.031 C 
ATOM     53  C   UNL A   1      45.170  32.632  32.285  1.00  0.00     0.029 A 
ATOM     54  C   UNL A   1      43.847  32.626  31.871  1.00  0.00     0.049 A 
ATOM     55  H   UNL A   1      42.753  31.074  30.952  1.00  0.00     0.167 HD
ATOM     56  C   UNL A   1      41.588  33.599  31.539  1.00  0.00     0.074 A 
ATOM     57  C   UNL A   1      40.621  34.673  31.641  1.00  0.00     0.031 C 
ATOM     58  C   UNL A   1      42.871  33.683  31.970  1.00  0.00     0.031 A 
BRANCH  45  59
ATOM     59  C   UNL A   1      46.183  28.521  31.080  1.00  0.00    -0.014 A 
ATOM     60  C   UNL A   1      47.160  28.531  30.066  1.00  0.00     0.010 A 
ATOM     61  C   UNL A   1      46.439  27.807  32.265  1.00  0.00     0.010 A 
ATOM     62  C   UNL A   1      48.333  27.787  30.203  1.00  0.00     0.020 A 
ATOM     63  C   UNL A   1      47.629  27.090  32.421  1.00  0.00     0.020 A 
ATOM     64  C   UNL A   1      48.556  27.063  31.377  1.00  0.00     0.054 A 
BRANCH  64  65
ATOM     65  S   UNL A   1      50.082  26.092  31.522  1.00  0.00     0.124 S 
ATOM     66  O   UNL A   1      50.407  25.835  30.121  1.00  0.00    -0.237 OA
ATOM     67  O   UNL A   1      50.981  27.010  32.217  1.00  0.00    -0.237 OA
ATOM     68  O   UNL A   1      49.675  24.919  32.292  1.00  0.00    -0.744 OA
ENDBRANCH  64  65
ENDBRANCH  45  59
BRANCH  46  69
ATOM     69  C   UNL A   1      37.263  32.882  29.814  1.00  0.00    -0.014 A 
ATOM     70  C   UNL A   1      37.045  33.659  28.663  1.00  0.00     0.010 A 
ATOM     71  C   UNL A   1      36.216  32.724  30.740  1.00  0.00     0.010 A 
ATOM     72  C   UNL A   1      35.810  34.276  28.447  1.00  0.00     0.020 A 
ATOM     73  C   UNL A   1      34.970  33.316  30.514  1.00  0.00     0.020 A 
ATOM     74  C   UNL A   1      34.778  34.097  29.372  1.00  0.00     0.054 A 
BRANCH  74  75
ATOM     75  S   UNL A   1      33.167  34.862  29.039  1.00  0.00     0.124 S 
ATOM     76  O   UNL A   1      32.543  34.842  30.359  1.00  0.00    -0.237 OA
ATOM     77  O   UNL A   1      33.543  36.181  28.537  1.00  0.00    -0.237 OA
ATOM     78  O   UNL A   1      32.563  33.975  28.048  1.00  0.00    -0.744 OA
ENDBRANCH  74  75
ENDBRANCH  46  69
BRANCH  58  79
ATOM     79  C   UNL A   1      43.319  34.997  32.555  1.00  0.00    -0.014 A 
ATOM     80  C   UNL A   1      43.834  36.024  31.746  1.00  0.00     0.010 A 
ATOM     81  C   UNL A   1      43.173  35.222  33.937  1.00  0.00     0.010 A 
ATOM     82  C   UNL A   1      44.227  37.240  32.311  1.00  0.00     0.020 A 
ATOM     83  C   UNL A   1      43.535  36.447  34.502  1.00  0.00     0.020 A 
ATOM     84  C   UNL A   1      44.075  37.444  33.687  1.00  0.00     0.054 A 
BRANCH  84  85
ATOM     85  S   UNL A   1      44.553  39.046  34.391  1.00  0.00     0.124 S 
ATOM     86  O   UNL A   1      43.581  39.949  33.779  1.00  0.00    -0.237 OA
ATOM     87  O   UNL A   1      44.390  38.825  35.825  1.00  0.00    -0.237 OA
ATOM     88  O   UNL A   1      45.933  39.222  33.946  1.00  0.00    -0.744 OA
ENDBRANCH  84  85
ENDBRANCH  58  79
ENDBRANCH  32  33
ENDBRANCH  24  27
ENDBRANCH  22  23
ENDBRANCH  21  22
ENDBRANCH   1  21
TORSDOF 18
ENDMDL
MODEL 3
REMARK VINA RESULT:     -10.7      6.983     11.763
REMARK SMILES CN(CCO)C(=O)N[C@H]1C=C[C@@H](C(=O)NCCCNC(=O)c2ccc(-c3c4nc(c(-c5ccc(S(=O)(=O)[O-])cc5)c5ccc([nH]5)c(-c5ccc(S(=O)(=O)[O-])cc5)c5nc(c(-c6ccc(S(=O)(=O)[O-])cc6)c6ccc3[nH]6)C=C5)C=C4)cc2)C1
REMARK SMILES IDX 16 1 15 2 13 3 14 4 12 6 9 7 10 8 82 9 11 10 8 11 6 12 7 13
REMARK SMILES IDX 2 15 1 16 3 17 4 18 5 19 17 21 18 22 19 23 20 24 21 26 22 27
REMARK SMILES IDX 23 28 81 29 24 30 80 31 25 32 26 33 27 34 74 35 28 36 79 37
REMARK SMILES IDX 73 38 75 39 29 40 78 41 72 42 71 43 30 45 60 46 41 47 59 48
REMARK SMILES IDX 42 49 45 50 58 51 76 52 43 53 44 54 57 56 77 57 46 58 31 59
REMARK SMILES IDX 32 60 40 61 33 62 39 63 34 64 35 65 36 66 37 67 38 68 61 69
REMARK SMILES IDX 62 70 70 71 63 72 69 73 64 74 65 75 66 76 67 77 68 78 47 79
REMARK SMILES IDX 48 80 56 81 49 82 55 83 50 84 51 85 52 86 53 87 54 88
REMARK H PARENT 15 5 8 14 5 20 19 25 75 44 45 55
REMARK Flexibility Score: inf
ROOT
ATOM      1  C   UNL A   1      37.679  22.329  25.669  1.00  0.00     0.117 C 
ENDROOT
BRANCH   1   2
ATOM      2  N   UNL A   1      37.441  22.542  24.250  1.00  0.00    -0.356 N 
ATOM      3  C   UNL A   1      36.311  22.860  23.563  1.00  0.00     0.227 C 
ATOM      4  O   UNL A   1      36.409  22.981  22.338  1.00  0.00    -0.274 OA
ATOM      5  H   UNL A   1      38.242  22.436  23.687  1.00  0.00     0.163 HD
BRANCH   3   6
ATOM      6  C   UNL A   1      34.967  23.101  24.250  1.00  0.00     0.103 C 
ATOM      7  C   UNL A   1      32.787  24.078  23.624  1.00  0.00     0.107 C 
ATOM      8  C   UNL A   1      32.814  22.589  23.498  1.00  0.00    -0.006 C 
ATOM      9  C   UNL A   1      34.270  24.419  23.893  1.00  0.00     0.047 C 
ATOM     10  C   UNL A   1      33.975  22.050  23.877  1.00  0.00    -0.016 C 
BRANCH   7  11
ATOM     11  N   UNL A   1      32.298  24.685  22.404  1.00  0.00    -0.332 N 
ATOM     12  C   UNL A   1      31.852  25.890  22.018  1.00  0.00     0.317 C 
ATOM     13  O   UNL A   1      31.719  26.021  20.797  1.00  0.00    -0.249 OA
ATOM     14  H   UNL A   1      32.292  24.043  21.659  1.00  0.00     0.165 HD
BRANCH  12  15
ATOM     15  N   UNL A   1      31.503  26.898  22.876  1.00  0.00    -0.326 N 
ATOM     16  C   UNL A   1      30.096  26.928  23.271  1.00  0.00     0.148 C 
BRANCH  15  17
ATOM     17  C   UNL A   1      32.366  27.843  23.587  1.00  0.00     0.149 C 
BRANCH  17  18
ATOM     18  C   UNL A   1      33.058  28.861  22.666  1.00  0.00     0.177 C 
BRANCH  18  19
ATOM     19  O   UNL A   1      34.406  29.135  23.036  1.00  0.00    -0.395 OA
ATOM     20  H   UNL A   1      34.502  30.081  23.229  1.00  0.00     0.210 HD
ENDBRANCH  18  19
ENDBRANCH  17  18
ENDBRANCH  15  17
ENDBRANCH  12  15
ENDBRANCH   7  11
ENDBRANCH   3   6
ENDBRANCH   1   2
BRANCH   1  21
ATOM     21  C   UNL A   1      37.768  23.641  26.434  1.00  0.00     0.042 C 
BRANCH  21  22
ATOM     22  C   UNL A   1      39.146  23.898  27.022  1.00  0.00     0.118 C 
BRANCH  22  23
ATOM     23  N   UNL A   1      40.069  24.471  26.054  1.00  0.00    -0.352 N 
ATOM     24  C   UNL A   1      40.748  25.665  26.096  1.00  0.00     0.251 C 
ATOM     25  H   UNL A   1      40.230  23.923  25.252  1.00  0.00     0.163 HD
ATOM     26  O   UNL A   1      41.339  26.065  25.103  1.00  0.00    -0.269 OA
BRANCH  24  27
ATOM     27  C   UNL A   1      40.742  26.467  27.339  1.00  0.00     0.039 A 
ATOM     28  C   UNL A   1      41.636  27.533  27.463  1.00  0.00     0.014 A 
ATOM     29  C   UNL A   1      39.853  26.172  28.375  1.00  0.00     0.014 A 
ATOM     30  C   UNL A   1      41.592  28.339  28.602  1.00  0.00     0.010 A 
ATOM     31  C   UNL A   1      39.743  27.033  29.459  1.00  0.00     0.010 A 
ATOM     32  C   UNL A   1      40.623  28.116  29.594  1.00  0.00    -0.014 A 
BRANCH  32  33
ATOM     33  C   UNL A   1      40.523  28.988  30.791  1.00  0.00     0.031 A 
ATOM     34  C   UNL A   1      39.482  30.075  30.844  1.00  0.00     0.074 A 
ATOM     35  C   UNL A   1      41.398  28.837  31.805  1.00  0.00     0.049 A 
ATOM     36  N   UNL A   1      39.264  30.965  31.778  1.00  0.00    -0.248 NA
ATOM     37  C   UNL A   1      38.589  30.196  29.681  1.00  0.00     0.031 C 
ATOM     38  C   UNL A   1      42.472  27.841  31.858  1.00  0.00     0.029 A 
ATOM     39  N   UNL A   1      41.522  29.522  32.987  1.00  0.00    -0.354 N 
ATOM     40  C   UNL A   1      38.221  31.755  31.310  1.00  0.00     0.074 A 
ATOM     41  C   UNL A   1      37.898  31.285  29.981  1.00  0.00     0.031 C 
ATOM     42  C   UNL A   1      43.112  27.949  33.034  1.00  0.00     0.029 A 
ATOM     43  C   UNL A   1      42.529  29.049  33.794  1.00  0.00     0.049 A 
ATOM     44  H   UNL A   1      40.944  30.280  33.234  1.00  0.00     0.167 HD
ATOM     45  C   UNL A   1      37.569  32.763  31.937  1.00  0.00     0.031 A 
ATOM     46  C   UNL A   1      42.935  29.455  35.014  1.00  0.00     0.031 A 
ATOM     47  C   UNL A   1      37.895  33.229  33.258  1.00  0.00     0.049 A 
ATOM     48  C   UNL A   1      42.225  30.603  35.676  1.00  0.00     0.074 A 
ATOM     49  C   UNL A   1      37.277  34.219  34.001  1.00  0.00     0.029 A 
ATOM     50  N   UNL A   1      38.935  32.737  34.034  1.00  0.00    -0.354 N 
ATOM     51  N   UNL A   1      41.205  31.305  35.240  1.00  0.00    -0.248 NA
ATOM     52  C   UNL A   1      42.713  31.006  37.001  1.00  0.00     0.031 C 
ATOM     53  C   UNL A   1      37.978  34.364  35.203  1.00  0.00     0.029 A 
ATOM     54  C   UNL A   1      38.992  33.419  35.238  1.00  0.00     0.049 A 
ATOM     55  H   UNL A   1      39.544  32.010  33.768  1.00  0.00     0.167 HD
ATOM     56  C   UNL A   1      40.908  32.210  36.253  1.00  0.00     0.074 A 
ATOM     57  C   UNL A   1      41.850  31.959  37.325  1.00  0.00     0.031 C 
ATOM     58  C   UNL A   1      39.939  33.159  36.294  1.00  0.00     0.031 A 
BRANCH  45  59
ATOM     59  C   UNL A   1      36.446  33.430  31.183  1.00  0.00    -0.014 A 
ATOM     60  C   UNL A   1      36.627  33.889  29.864  1.00  0.00     0.010 A 
ATOM     61  C   UNL A   1      35.194  33.608  31.799  1.00  0.00     0.010 A 
ATOM     62  C   UNL A   1      35.604  34.573  29.204  1.00  0.00     0.020 A 
ATOM     63  C   UNL A   1      34.155  34.260  31.127  1.00  0.00     0.020 A 
ATOM     64  C   UNL A   1      34.376  34.762  29.844  1.00  0.00     0.054 A 
BRANCH  64  65
ATOM     65  S   UNL A   1      33.070  35.667  28.969  1.00  0.00     0.124 S 
ATOM     66  O   UNL A   1      33.844  36.639  28.199  1.00  0.00    -0.237 OA
ATOM     67  O   UNL A   1      32.423  34.618  28.184  1.00  0.00    -0.237 OA
ATOM     68  O   UNL A   1      32.258  36.230  30.044  1.00  0.00    -0.744 OA
ENDBRANCH  64  65
ENDBRANCH  45  59
BRANCH  46  69
ATOM     69  C   UNL A   1      44.044  28.739  35.703  1.00  0.00    -0.014 A 
ATOM     70  C   UNL A   1      43.764  27.644  36.541  1.00  0.00     0.010 A 
ATOM     71  C   UNL A   1      45.382  29.126  35.510  1.00  0.00     0.010 A 
ATOM     72  C   UNL A   1      44.799  26.959  37.183  1.00  0.00     0.020 A 
ATOM     73  C   UNL A   1      46.423  28.426  36.127  1.00  0.00     0.020 A 
ATOM     74  C   UNL A   1      46.123  27.351  36.968  1.00  0.00     0.054 A 
BRANCH  74  75
ATOM     75  S   UNL A   1      47.452  26.409  37.768  1.00  0.00     0.124 S 
ATOM     76  O   UNL A   1      46.736  25.238  38.265  1.00  0.00    -0.237 OA
ATOM     77  O   UNL A   1      48.375  26.166  36.663  1.00  0.00    -0.237 OA
ATOM     78  O   UNL A   1      47.948  27.322  38.796  1.00  0.00    -0.744 OA
ENDBRANCH  74  75
ENDBRANCH  46  69
BRANCH  58  79
ATOM     79  C   UNL A   1      39.820  33.971  37.557  1.00  0.00    -0.014 A 
ATOM     80  C   UNL A   1      40.552  35.156  37.740  1.00  0.00     0.010 A 
ATOM     81  C   UNL A   1      38.917  33.562  38.558  1.00  0.00     0.010 A 
ATOM     82  C   UNL A   1      40.411  35.900  38.915  1.00  0.00     0.020 A 
ATOM     83  C   UNL A   1      38.749  34.319  39.719  1.00  0.00     0.020 A 
ATOM     84  C   UNL A   1      39.510  35.477  39.897  1.00  0.00     0.054 A 
BRANCH  84  85
ATOM     85  S   UNL A   1      39.314  36.482  41.394  1.00  0.00     0.124 S 
ATOM     86  O   UNL A   1      38.859  37.758  40.846  1.00  0.00    -0.237 OA
ATOM     87  O   UNL A   1      38.316  35.732  42.154  1.00  0.00    -0.237 OA
ATOM     88  O   UNL A   1      40.652  36.497  41.980  1.00  0.00    -0.744 OA
ENDBRANCH  84  85
ENDBRANCH  58  79
ENDBRANCH  32  33
ENDBRANCH  24  27
ENDBRANCH  22  23
ENDBRANCH  21  22
ENDBRANCH   1  21
TORSDOF 18
ENDMDL
