MODEL 1
REMARK VINA RESULT:     -12.1      0.000      0.000
REMARK SMILES O=C(NCCCNC(=O)c1cccn2c(=O)c3ccc(Cl)cc3nc12)c1ccc(-c2c3nc(c(-c4ccc(S(=O)(=O)[O-])cc4)c4ccc([nH]4)c(-c4ccc(S(=O)(=O)[O-])cc4)c4nc(c(-c5ccc(S(=O)(=O)[O-])cc5)c5ccc2[nH]5)C=C4)C=C3)cc1
REMARK SMILES IDX 1 1 2 2 3 3 26 5 27 6 85 7 28 8 84 9 29 10 30 11 31 12 78 13
REMARK SMILES IDX 32 14 83 15 77 16 79 17 33 18 82 19 76 20 75 21 34 23 64 24
REMARK SMILES IDX 45 25 63 26 46 27 49 28 62 29 80 30 47 31 48 32 61 34 81 35
REMARK SMILES IDX 50 36 35 37 36 38 44 39 37 40 43 41 38 42 39 43 40 44 41 45
REMARK SMILES IDX 42 46 65 47 66 48 74 49 67 50 73 51 68 52 69 53 70 54 71 55
REMARK SMILES IDX 72 56 51 57 52 58 60 59 53 60 59 61 54 62 55 63 56 64 57 65
REMARK SMILES IDX 58 66 4 67 5 68 6 69 7 70 8 71 9 73 10 74 11 75 25 76 12 77
REMARK SMILES IDX 14 78 24 79 13 80 15 81 23 82 16 83 17 84 22 85 18 86 20 87
REMARK SMILES IDX 19 88 21 89
REMARK H PARENT 3 4 79 22 49 33 7 72
REMARK Flexibility Score: inf
ROOT
ATOM      1  O   UNL A   1      34.111  31.975  28.143  1.00  0.00    -0.269 OA
ATOM      2  C   UNL A   1      34.301  30.767  27.979  1.00  0.00     0.251 C 
ATOM      3  N   UNL A   1      33.242  29.997  27.574  1.00  0.00    -0.352 N 
ATOM      4  H   UNL A   1      32.453  30.514  27.291  1.00  0.00     0.163 HD
ENDROOT
BRANCH   2   5
ATOM      5  C   UNL A   1      35.649  30.201  28.225  1.00  0.00     0.039 A 
ATOM      6  C   UNL A   1      35.938  29.699  29.500  1.00  0.00     0.014 A 
ATOM      7  C   UNL A   1      36.662  30.242  27.264  1.00  0.00     0.014 A 
ATOM      8  C   UNL A   1      37.223  29.233  29.800  1.00  0.00     0.010 A 
ATOM      9  C   UNL A   1      37.912  29.682  27.530  1.00  0.00     0.010 A 
ATOM     10  C   UNL A   1      38.221  29.214  28.813  1.00  0.00    -0.014 A 
BRANCH  10  11
ATOM     11  C   UNL A   1      39.618  28.815  29.136  1.00  0.00     0.031 A 
ATOM     12  C   UNL A   1      40.492  29.748  29.938  1.00  0.00     0.074 A 
ATOM     13  C   UNL A   1      40.107  27.631  28.713  1.00  0.00     0.049 A 
ATOM     14  N   UNL A   1      41.741  29.600  30.299  1.00  0.00    -0.248 NA
ATOM     15  C   UNL A   1      39.896  31.024  30.375  1.00  0.00     0.031 C 
ATOM     16  C   UNL A   1      39.369  26.646  27.921  1.00  0.00     0.029 A 
ATOM     17  N   UNL A   1      41.336  27.049  28.906  1.00  0.00    -0.354 N 
ATOM     18  C   UNL A   1      42.079  30.764  30.981  1.00  0.00     0.074 A 
ATOM     19  C   UNL A   1      40.929  31.635  30.937  1.00  0.00     0.031 C 
ATOM     20  C   UNL A   1      40.139  25.560  27.743  1.00  0.00     0.029 A 
ATOM     21  C   UNL A   1      41.439  25.785  28.372  1.00  0.00     0.049 A 
ATOM     22  H   UNL A   1      42.074  27.493  29.382  1.00  0.00     0.167 HD
ATOM     23  C   UNL A   1      43.232  31.067  31.621  1.00  0.00     0.031 A 
ATOM     24  C   UNL A   1      42.456  24.898  28.400  1.00  0.00     0.031 A 
ATOM     25  C   UNL A   1      44.357  30.177  31.716  1.00  0.00     0.049 A 
ATOM     26  C   UNL A   1      43.724  25.254  29.129  1.00  0.00     0.074 A 
ATOM     27  C   UNL A   1      45.554  30.381  32.378  1.00  0.00     0.029 A 
ATOM     28  N   UNL A   1      44.414  28.910  31.161  1.00  0.00    -0.354 N 
ATOM     29  N   UNL A   1      44.014  26.352  29.784  1.00  0.00    -0.248 NA
ATOM     30  C   UNL A   1      44.796  24.247  29.139  1.00  0.00     0.031 C 
ATOM     31  C   UNL A   1      46.354  29.254  32.188  1.00  0.00     0.029 A 
ATOM     32  C   UNL A   1      45.628  28.321  31.463  1.00  0.00     0.049 A 
ATOM     33  H   UNL A   1      43.698  28.490  30.632  1.00  0.00     0.167 HD
ATOM     34  C   UNL A   1      45.283  26.151  30.319  1.00  0.00     0.074 A 
ATOM     35  C   UNL A   1      45.704  24.827  29.914  1.00  0.00     0.031 C 
ATOM     36  C   UNL A   1      46.025  26.990  31.081  1.00  0.00     0.031 A 
BRANCH  23  37
ATOM     37  C   UNL A   1      43.340  32.403  32.310  1.00  0.00    -0.014 A 
ATOM     38  C   UNL A   1      42.949  32.531  33.656  1.00  0.00     0.010 A 
ATOM     39  C   UNL A   1      43.702  33.555  31.589  1.00  0.00     0.010 A 
ATOM     40  C   UNL A   1      42.880  33.790  34.257  1.00  0.00     0.020 A 
ATOM     41  C   UNL A   1      43.665  34.813  32.197  1.00  0.00     0.020 A 
ATOM     42  C   UNL A   1      43.227  34.924  33.518  1.00  0.00     0.054 A 
BRANCH  42  43
ATOM     43  S   UNL A   1      43.091  36.555  34.301  1.00  0.00     0.124 S 
ATOM     44  O   UNL A   1      44.152  36.504  35.303  1.00  0.00    -0.237 OA
ATOM     45  O   UNL A   1      43.320  37.467  33.184  1.00  0.00    -0.237 OA
ATOM     46  O   UNL A   1      41.729  36.565  34.832  1.00  0.00    -0.744 OA
ENDBRANCH  42  43
ENDBRANCH  23  37
BRANCH  24  47
ATOM     47  C   UNL A   1      42.277  23.555  27.781  1.00  0.00    -0.014 A 
ATOM     48  C   UNL A   1      41.675  22.504  28.497  1.00  0.00     0.010 A 
ATOM     49  C   UNL A   1      42.760  23.306  26.484  1.00  0.00     0.010 A 
ATOM     50  C   UNL A   1      41.595  21.223  27.944  1.00  0.00     0.020 A 
ATOM     51  C   UNL A   1      42.657  22.032  25.915  1.00  0.00     0.020 A 
ATOM     52  C   UNL A   1      42.098  20.993  26.660  1.00  0.00     0.054 A 
BRANCH  52  53
ATOM     53  S   UNL A   1      42.009  19.315  25.973  1.00  0.00     0.124 S 
ATOM     54  O   UNL A   1      42.498  18.511  27.090  1.00  0.00    -0.237 OA
ATOM     55  O   UNL A   1      40.589  19.169  25.666  1.00  0.00    -0.237 OA
ATOM     56  O   UNL A   1      42.893  19.375  24.811  1.00  0.00    -0.744 OA
ENDBRANCH  52  53
ENDBRANCH  24  47
BRANCH  36  57
ATOM     57  C   UNL A   1      47.361  26.513  31.585  1.00  0.00    -0.014 A 
ATOM     58  C   UNL A   1      48.505  26.702  30.787  1.00  0.00     0.010 A 
ATOM     59  C   UNL A   1      47.464  25.750  32.761  1.00  0.00     0.010 A 
ATOM     60  C   UNL A   1      49.721  26.110  31.135  1.00  0.00     0.020 A 
ATOM     61  C   UNL A   1      48.686  25.178  33.127  1.00  0.00     0.020 A 
ATOM     62  C   UNL A   1      49.799  25.339  32.298  1.00  0.00     0.054 A 
BRANCH  62  63
ATOM     63  S   UNL A   1      51.375  24.546  32.718  1.00  0.00     0.124 S 
ATOM     64  O   UNL A   1      52.336  25.364  31.981  1.00  0.00    -0.237 OA
ATOM     65  O   UNL A   1      51.425  24.674  34.172  1.00  0.00    -0.237 OA
ATOM     66  O   UNL A   1      51.211  23.180  32.226  1.00  0.00    -0.744 OA
ENDBRANCH  62  63
ENDBRANCH  36  57
ENDBRANCH  10  11
ENDBRANCH   2   5
BRANCH   3  67
ATOM     67  C   UNL A   1      33.071  28.554  27.487  1.00  0.00     0.118 C 
BRANCH  67  68
ATOM     68  C   UNL A   1      33.498  27.988  26.139  1.00  0.00     0.042 C 
BRANCH  68  69
ATOM     69  C   UNL A   1      32.658  28.451  24.959  1.00  0.00     0.118 C 
BRANCH  69  70
ATOM     70  N   UNL A   1      33.296  28.206  23.673  1.00  0.00    -0.352 N 
ATOM     71  C   UNL A   1      33.316  27.094  22.880  1.00  0.00     0.255 C 
ATOM     72  H   UNL A   1      33.798  28.973  23.314  1.00  0.00     0.163 HD
ATOM     73  O   UNL A   1      33.953  27.129  21.826  1.00  0.00    -0.269 OA
BRANCH  71  74
ATOM     74  C   UNL A   1      32.541  25.891  23.268  1.00  0.00     0.083 A 
ATOM     75  C   UNL A   1      31.264  25.798  22.858  1.00  0.00     0.019 A 
ATOM     76  C   UNL A   1      33.183  24.704  23.931  1.00  0.00     0.153 A 
ATOM     77  C   UNL A   1      30.462  24.652  23.180  1.00  0.00     0.019 A 
ATOM     78  N   UNL A   1      32.360  23.593  24.163  1.00  0.00    -0.267 N 
ATOM     79  N   UNL A   1      34.438  24.731  24.264  1.00  0.00    -0.229 NA
ATOM     80  C   UNL A   1      31.016  23.610  23.803  1.00  0.00     0.096 A 
ATOM     81  C   UNL A   1      32.865  22.436  24.759  1.00  0.00     0.265 A 
ATOM     82  C   UNL A   1      35.026  23.590  24.815  1.00  0.00     0.080 A 
ATOM     83  O   UNL A   1      32.199  21.427  25.015  1.00  0.00    -0.268 OA
ATOM     84  C   UNL A   1      34.301  22.432  25.077  1.00  0.00     0.066 A 
ATOM     85  C   UNL A   1      36.400  23.600  25.078  1.00  0.00     0.049 A 
ATOM     86  C   UNL A   1      34.922  21.290  25.600  1.00  0.00     0.017 A 
ATOM     87  C   UNL A   1      37.025  22.464  25.593  1.00  0.00     0.043 A 
ATOM     88  C   UNL A   1      36.292  21.308  25.856  1.00  0.00     0.021 A 
ATOM     89  Cl  UNL A   1      38.720  22.479  25.893  1.00  0.00    -0.084 Cl
ENDBRANCH  71  74
ENDBRANCH  69  70
ENDBRANCH  68  69
ENDBRANCH  67  68
ENDBRANCH   3  67
TORSDOF 13
ENDMDL
MODEL 2
REMARK VINA RESULT:     -12.0      2.748      9.485
REMARK SMILES O=C(NCCCNC(=O)c1cccn2c(=O)c3ccc(Cl)cc3nc12)c1ccc(-c2c3nc(c(-c4ccc(S(=O)(=O)[O-])cc4)c4ccc([nH]4)c(-c4ccc(S(=O)(=O)[O-])cc4)c4nc(c(-c5ccc(S(=O)(=O)[O-])cc5)c5ccc2[nH]5)C=C4)C=C3)cc1
REMARK SMILES IDX 1 1 2 2 3 3 26 5 27 6 85 7 28 8 84 9 29 10 30 11 31 12 78 13
REMARK SMILES IDX 32 14 83 15 77 16 79 17 33 18 82 19 76 20 75 21 34 23 64 24
REMARK SMILES IDX 45 25 63 26 46 27 49 28 62 29 80 30 47 31 48 32 61 34 81 35
REMARK SMILES IDX 50 36 35 37 36 38 44 39 37 40 43 41 38 42 39 43 40 44 41 45
REMARK SMILES IDX 42 46 65 47 66 48 74 49 67 50 73 51 68 52 69 53 70 54 71 55
REMARK SMILES IDX 72 56 51 57 52 58 60 59 53 60 59 61 54 62 55 63 56 64 57 65
REMARK SMILES IDX 58 66 4 67 5 68 6 69 7 70 8 71 9 73 10 74 11 75 25 76 12 77
REMARK SMILES IDX 14 78 24 79 13 80 15 81 23 82 16 83 17 84 22 85 18 86 20 87
REMARK SMILES IDX 19 88 21 89
REMARK H PARENT 3 4 79 22 49 33 7 72
REMARK Flexibility Score: inf
ROOT
ATOM      1  O   UNL A   1      40.207  21.964  26.288  1.00  0.00    -0.269 OA
ATOM      2  C   UNL A   1      39.373  22.862  26.152  1.00  0.00     0.251 C 
ATOM      3  N   UNL A   1      38.270  22.606  25.380  1.00  0.00    -0.352 N 
ATOM      4  H   UNL A   1      38.163  21.658  25.132  1.00  0.00     0.163 HD
ENDROOT
BRANCH   2   5
ATOM      5  C   UNL A   1      39.592  24.169  26.817  1.00  0.00     0.039 A 
ATOM      6  C   UNL A   1      40.238  25.183  26.098  1.00  0.00     0.014 A 
ATOM      7  C   UNL A   1      39.268  24.388  28.158  1.00  0.00     0.014 A 
ATOM      8  C   UNL A   1      40.540  26.402  26.713  1.00  0.00     0.010 A 
ATOM      9  C   UNL A   1      39.475  25.638  28.740  1.00  0.00     0.010 A 
ATOM     10  C   UNL A   1      40.155  26.643  28.041  1.00  0.00    -0.014 A 
BRANCH  10  11
ATOM     11  C   UNL A   1      40.551  27.893  28.746  1.00  0.00     0.031 A 
ATOM     12  C   UNL A   1      41.966  28.047  29.248  1.00  0.00     0.074 A 
ATOM     13  C   UNL A   1      39.656  28.882  28.941  1.00  0.00     0.049 A 
ATOM     14  N   UNL A   1      42.502  29.041  29.908  1.00  0.00    -0.248 NA
ATOM     15  C   UNL A   1      42.897  26.931  28.997  1.00  0.00     0.031 C 
ATOM     16  C   UNL A   1      38.256  28.852  28.514  1.00  0.00     0.029 A 
ATOM     17  N   UNL A   1      39.796  30.113  29.533  1.00  0.00    -0.354 N 
ATOM     18  C   UNL A   1      43.815  28.662  30.166  1.00  0.00     0.074 A 
ATOM     19  C   UNL A   1      43.984  27.326  29.645  1.00  0.00     0.031 C 
ATOM     20  C   UNL A   1      37.682  30.030  28.809  1.00  0.00     0.029 A 
ATOM     21  C   UNL A   1      38.658  30.886  29.481  1.00  0.00     0.049 A 
ATOM     22  H   UNL A   1      40.632  30.416  29.955  1.00  0.00     0.167 HD
ATOM     23  C   UNL A   1      44.805  29.375  30.749  1.00  0.00     0.031 A 
ATOM     24  C   UNL A   1      38.429  32.145  29.907  1.00  0.00     0.031 A 
ATOM     25  C   UNL A   1      44.654  30.727  31.215  1.00  0.00     0.049 A 
ATOM     26  C   UNL A   1      39.551  32.923  30.542  1.00  0.00     0.074 A 
ATOM     27  C   UNL A   1      45.612  31.546  31.784  1.00  0.00     0.029 A 
ATOM     28  N   UNL A   1      43.486  31.466  31.140  1.00  0.00    -0.354 N 
ATOM     29  N   UNL A   1      40.790  32.552  30.757  1.00  0.00    -0.248 NA
ATOM     30  C   UNL A   1      39.250  34.296  30.977  1.00  0.00     0.031 C 
ATOM     31  C   UNL A   1      45.013  32.767  32.094  1.00  0.00     0.029 A 
ATOM     32  C   UNL A   1      43.698  32.731  31.656  1.00  0.00     0.049 A 
ATOM     33  H   UNL A   1      42.632  31.140  30.773  1.00  0.00     0.167 HD
ATOM     34  C   UNL A   1      41.427  33.657  31.312  1.00  0.00     0.074 A 
ATOM     35  C   UNL A   1      40.438  34.711  31.399  1.00  0.00     0.031 C 
ATOM     36  C   UNL A   1      42.716  33.783  31.709  1.00  0.00     0.031 A 
BRANCH  23  37
ATOM     37  C   UNL A   1      46.162  28.736  30.892  1.00  0.00    -0.014 A 
ATOM     38  C   UNL A   1      47.086  28.809  29.834  1.00  0.00     0.010 A 
ATOM     39  C   UNL A   1      46.471  27.952  32.019  1.00  0.00     0.010 A 
ATOM     40  C   UNL A   1      48.276  28.080  29.881  1.00  0.00     0.020 A 
ATOM     41  C   UNL A   1      47.676  27.247  32.084  1.00  0.00     0.020 A 
ATOM     42  C   UNL A   1      48.557  27.294  31.001  1.00  0.00     0.054 A 
BRANCH  42  43
ATOM     43  S   UNL A   1      50.088  26.320  31.027  1.00  0.00     0.124 S 
ATOM     44  O   UNL A   1      49.654  25.083  31.670  1.00  0.00    -0.237 OA
ATOM     45  O   UNL A   1      50.423  26.212  29.610  1.00  0.00    -0.237 OA
ATOM     46  O   UNL A   1      51.003  27.146  31.812  1.00  0.00    -0.744 OA
ENDBRANCH  42  43
ENDBRANCH  23  37
BRANCH  24  47
ATOM     47  C   UNL A   1      37.098  32.771  29.668  1.00  0.00    -0.014 A 
ATOM     48  C   UNL A   1      36.803  33.394  28.442  1.00  0.00     0.010 A 
ATOM     49  C   UNL A   1      36.136  32.793  30.693  1.00  0.00     0.010 A 
ATOM     50  C   UNL A   1      35.587  34.060  28.259  1.00  0.00     0.020 A 
ATOM     51  C   UNL A   1      34.906  33.434  30.505  1.00  0.00     0.020 A 
ATOM     52  C   UNL A   1      34.652  34.085  29.297  1.00  0.00     0.054 A 
BRANCH  52  53
ATOM     53  S   UNL A   1      33.092  34.980  29.047  1.00  0.00     0.124 S 
ATOM     54  O   UNL A   1      32.515  34.950  30.389  1.00  0.00    -0.237 OA
ATOM     55  O   UNL A   1      33.545  36.290  28.586  1.00  0.00    -0.237 OA
ATOM     56  O   UNL A   1      32.394  34.177  28.047  1.00  0.00    -0.744 OA
ENDBRANCH  52  53
ENDBRANCH  24  47
BRANCH  36  57
ATOM     57  C   UNL A   1      43.180  35.115  32.235  1.00  0.00    -0.014 A 
ATOM     58  C   UNL A   1      42.885  35.469  33.566  1.00  0.00     0.010 A 
ATOM     59  C   UNL A   1      43.765  36.069  31.385  1.00  0.00     0.010 A 
ATOM     60  C   UNL A   1      43.134  36.762  34.029  1.00  0.00     0.020 A 
ATOM     61  C   UNL A   1      44.041  37.357  31.854  1.00  0.00     0.020 A 
ATOM     62  C   UNL A   1      43.698  37.703  33.164  1.00  0.00     0.054 A 
BRANCH  62  63
ATOM     63  S   UNL A   1      43.982  39.389  33.768  1.00  0.00     0.124 S 
ATOM     64  O   UNL A   1      42.700  40.034  33.492  1.00  0.00    -0.237 OA
ATOM     65  O   UNL A   1      44.290  39.180  35.180  1.00  0.00    -0.237 OA
ATOM     66  O   UNL A   1      45.103  39.858  32.957  1.00  0.00    -0.744 OA
ENDBRANCH  62  63
ENDBRANCH  36  57
ENDBRANCH  10  11
ENDBRANCH   2   5
BRANCH   3  67
ATOM     67  C   UNL A   1      37.228  23.478  24.859  1.00  0.00     0.118 C 
BRANCH  67  68
ATOM     68  C   UNL A   1      36.523  22.897  23.640  1.00  0.00     0.042 C 
BRANCH  68  69
ATOM     69  C   UNL A   1      35.036  22.641  23.826  1.00  0.00     0.118 C 
BRANCH  69  70
ATOM     70  N   UNL A   1      34.618  22.690  25.220  1.00  0.00    -0.352 N 
ATOM     71  C   UNL A   1      33.536  23.279  25.811  1.00  0.00     0.255 C 
ATOM     72  H   UNL A   1      35.216  22.218  25.843  1.00  0.00     0.163 HD
ATOM     73  O   UNL A   1      33.409  23.194  27.033  1.00  0.00    -0.269 OA
BRANCH  71  74
ATOM     74  C   UNL A   1      32.516  23.962  24.980  1.00  0.00     0.083 A 
ATOM     75  C   UNL A   1      31.642  23.204  24.294  1.00  0.00     0.019 A 
ATOM     76  C   UNL A   1      32.310  25.451  25.027  1.00  0.00     0.153 A 
ATOM     77  C   UNL A   1      30.616  23.799  23.486  1.00  0.00     0.019 A 
ATOM     78  N   UNL A   1      31.251  25.963  24.263  1.00  0.00    -0.267 N 
ATOM     79  N   UNL A   1      33.086  26.203  25.747  1.00  0.00    -0.229 NA
ATOM     80  C   UNL A   1      30.452  25.124  23.494  1.00  0.00     0.096 A 
ATOM     81  C   UNL A   1      30.968  27.330  24.253  1.00  0.00     0.265 A 
ATOM     82  C   UNL A   1      32.829  27.573  25.829  1.00  0.00     0.080 A 
ATOM     83  O   UNL A   1      30.069  27.858  23.589  1.00  0.00    -0.268 OA
ATOM     84  C   UNL A   1      31.799  28.181  25.117  1.00  0.00     0.066 A 
ATOM     85  C   UNL A   1      33.612  28.357  26.683  1.00  0.00     0.049 A 
ATOM     86  C   UNL A   1      31.542  29.553  25.243  1.00  0.00     0.017 A 
ATOM     87  C   UNL A   1      33.357  29.722  26.817  1.00  0.00     0.043 A 
ATOM     88  C   UNL A   1      32.325  30.325  26.099  1.00  0.00     0.021 A 
ATOM     89  Cl  UNL A   1      34.312  30.672  27.888  1.00  0.00    -0.084 Cl
ENDBRANCH  71  74
ENDBRANCH  69  70
ENDBRANCH  68  69
ENDBRANCH  67  68
ENDBRANCH   3  67
TORSDOF 13
ENDMDL
MODEL 3
REMARK VINA RESULT:     -11.9      4.214     10.190
REMARK SMILES O=C(NCCCNC(=O)c1cccn2c(=O)c3ccc(Cl)cc3nc12)c1ccc(-c2c3nc(c(-c4ccc(S(=O)(=O)[O-])cc4)c4ccc([nH]4)c(-c4ccc(S(=O)(=O)[O-])cc4)c4nc(c(-c5ccc(S(=O)(=O)[O-])cc5)c5ccc2[nH]5)C=C4)C=C3)cc1
REMARK SMILES IDX 1 1 2 2 3 3 26 5 27 6 85 7 28 8 84 9 29 10 30 11 31 12 78 13
REMARK SMILES IDX 32 14 83 15 77 16 79 17 33 18 82 19 76 20 75 21 34 23 64 24
REMARK SMILES IDX 45 25 63 26 46 27 49 28 62 29 80 30 47 31 48 32 61 34 81 35
REMARK SMILES IDX 50 36 35 37 36 38 44 39 37 40 43 41 38 42 39 43 40 44 41 45
REMARK SMILES IDX 42 46 65 47 66 48 74 49 67 50 73 51 68 52 69 53 70 54 71 55
REMARK SMILES IDX 72 56 51 57 52 58 60 59 53 60 59 61 54 62 55 63 56 64 57 65
REMARK SMILES IDX 58 66 4 67 5 68 6 69 7 70 8 71 9 73 10 74 11 75 25 76 12 77
REMARK SMILES IDX 14 78 24 79 13 80 15 81 23 82 16 83 17 84 22 85 18 86 20 87
REMARK SMILES IDX 19 88 21 89
REMARK H PARENT 3 4 79 22 49 33 7 72
REMARK Flexibility Score: inf
ROOT
ATOM      1  O   UNL A   1      41.773  25.643  25.001  1.00  0.00    -0.269 OA
ATOM      2  C   UNL A   1      41.241  25.222  26.032  1.00  0.00     0.251 C 
ATOM      3  N   UNL A   1      40.968  23.881  26.114  1.00  0.00    -0.352 N 
ATOM      4  H   UNL A   1      41.373  23.342  25.396  1.00  0.00     0.163 HD
ENDROOT
BRANCH   2   5
ATOM      5  C   UNL A   1      40.921  26.168  27.127  1.00  0.00     0.039 A 
ATOM      6  C   UNL A   1      41.575  27.405  27.152  1.00  0.00     0.014 A 
ATOM      7  C   UNL A   1      40.070  25.828  28.182  1.00  0.00     0.014 A 
ATOM      8  C   UNL A   1      41.367  28.293  28.212  1.00  0.00     0.010 A 
ATOM      9  C   UNL A   1      39.782  26.754  29.184  1.00  0.00     0.010 A 
ATOM     10  C   UNL A   1      40.461  27.977  29.237  1.00  0.00    -0.014 A 
BRANCH  10  11
ATOM     11  C   UNL A   1      40.297  28.861  30.423  1.00  0.00     0.031 A 
ATOM     12  C   UNL A   1      41.230  28.709  31.600  1.00  0.00     0.074 A 
ATOM     13  C   UNL A   1      39.321  29.791  30.453  1.00  0.00     0.049 A 
ATOM     14  N   UNL A   1      41.236  29.359  32.735  1.00  0.00    -0.248 NA
ATOM     15  C   UNL A   1      42.279  27.678  31.501  1.00  0.00     0.031 C 
ATOM     16  C   UNL A   1      38.348  30.031  29.386  1.00  0.00     0.029 A 
ATOM     17  N   UNL A   1      38.997  30.719  31.413  1.00  0.00    -0.354 N 
ATOM     18  C   UNL A   1      42.268  28.803  33.484  1.00  0.00     0.074 A 
ATOM     19  C   UNL A   1      42.830  27.726  32.705  1.00  0.00     0.031 C 
ATOM     20  C   UNL A   1      37.573  31.075  29.726  1.00  0.00     0.029 A 
ATOM     21  C   UNL A   1      37.965  31.554  31.050  1.00  0.00     0.049 A 
ATOM     22  H   UNL A   1      39.460  30.782  32.279  1.00  0.00     0.167 HD
ATOM     23  C   UNL A   1      42.733  29.179  34.697  1.00  0.00     0.031 A 
ATOM     24  C   UNL A   1      37.408  32.598  31.698  1.00  0.00     0.031 A 
ATOM     25  C   UNL A   1      42.213  30.289  35.448  1.00  0.00     0.049 A 
ATOM     26  C   UNL A   1      37.952  33.006  33.042  1.00  0.00     0.074 A 
ATOM     27  C   UNL A   1      42.646  30.772  36.670  1.00  0.00     0.029 A 
ATOM     28  N   UNL A   1      41.170  31.104  35.040  1.00  0.00    -0.354 N 
ATOM     29  N   UNL A   1      38.942  32.479  33.722  1.00  0.00    -0.248 NA
ATOM     30  C   UNL A   1      37.317  34.158  33.699  1.00  0.00     0.031 C 
ATOM     31  C   UNL A   1      41.837  31.853  37.023  1.00  0.00     0.029 A 
ATOM     32  C   UNL A   1      40.943  32.084  35.989  1.00  0.00     0.049 A 
ATOM     33  H   UNL A   1      40.666  31.001  34.201  1.00  0.00     0.167 HD
ATOM     34  C   UNL A   1      39.075  33.261  34.865  1.00  0.00     0.074 A 
ATOM     35  C   UNL A   1      38.068  34.297  34.785  1.00  0.00     0.031 C 
ATOM     36  C   UNL A   1      39.958  33.130  35.884  1.00  0.00     0.031 A 
BRANCH  23  37
ATOM     37  C   UNL A   1      43.890  28.418  35.290  1.00  0.00    -0.014 A 
ATOM     38  C   UNL A   1      43.647  27.340  36.160  1.00  0.00     0.010 A 
ATOM     39  C   UNL A   1      45.213  28.853  35.089  1.00  0.00     0.010 A 
ATOM     40  C   UNL A   1      44.701  26.735  36.850  1.00  0.00     0.020 A 
ATOM     41  C   UNL A   1      46.273  28.229  35.753  1.00  0.00     0.020 A 
ATOM     42  C   UNL A   1      46.006  27.192  36.650  1.00  0.00     0.054 A 
BRANCH  42  43
ATOM     43  S   UNL A   1      47.357  26.424  37.586  1.00  0.00     0.124 S 
ATOM     44  O   UNL A   1      48.429  27.404  37.440  1.00  0.00    -0.237 OA
ATOM     45  O   UNL A   1      46.790  26.303  38.927  1.00  0.00    -0.237 OA
ATOM     46  O   UNL A   1      47.571  25.154  36.895  1.00  0.00    -0.744 OA
ENDBRANCH  42  43
ENDBRANCH  23  37
BRANCH  24  47
ATOM     47  C   UNL A   1      36.324  33.378  31.039  1.00  0.00    -0.014 A 
ATOM     48  C   UNL A   1      36.525  33.974  29.781  1.00  0.00     0.010 A 
ATOM     49  C   UNL A   1      35.097  33.575  31.698  1.00  0.00     0.010 A 
ATOM     50  C   UNL A   1      35.536  34.782  29.211  1.00  0.00     0.020 A 
ATOM     51  C   UNL A   1      34.093  34.359  31.119  1.00  0.00     0.020 A 
ATOM     52  C   UNL A   1      34.330  34.978  29.891  1.00  0.00     0.054 A 
BRANCH  52  53
ATOM     53  S   UNL A   1      33.072  36.053  29.147  1.00  0.00     0.124 S 
ATOM     54  O   UNL A   1      32.329  35.110  28.315  1.00  0.00    -0.237 OA
ATOM     55  O   UNL A   1      32.356  36.563  30.313  1.00  0.00    -0.237 OA
ATOM     56  O   UNL A   1      33.858  37.046  28.418  1.00  0.00    -0.744 OA
ENDBRANCH  52  53
ENDBRANCH  24  47
BRANCH  36  57
ATOM     57  C   UNL A   1      39.933  34.148  36.993  1.00  0.00    -0.014 A 
ATOM     58  C   UNL A   1      39.166  33.890  38.146  1.00  0.00     0.010 A 
ATOM     59  C   UNL A   1      40.532  35.409  36.837  1.00  0.00     0.010 A 
ATOM     60  C   UNL A   1      38.970  34.884  39.106  1.00  0.00     0.020 A 
ATOM     61  C   UNL A   1      40.361  36.398  37.810  1.00  0.00     0.020 A 
ATOM     62  C   UNL A   1      39.559  36.138  38.924  1.00  0.00     0.054 A 
BRANCH  62  63
ATOM     63  S   UNL A   1      39.265  37.431  40.162  1.00  0.00     0.124 S 
ATOM     64  O   UNL A   1      38.630  36.682  41.243  1.00  0.00    -0.237 OA
ATOM     65  O   UNL A   1      40.611  37.922  40.443  1.00  0.00    -0.237 OA
ATOM     66  O   UNL A   1      38.398  38.378  39.465  1.00  0.00    -0.744 OA
ENDBRANCH  62  63
ENDBRANCH  36  57
ENDBRANCH  10  11
ENDBRANCH   2   5
BRANCH   3  67
ATOM     67  C   UNL A   1      40.186  23.109  27.068  1.00  0.00     0.118 C 
BRANCH  67  68
ATOM     68  C   UNL A   1      38.876  22.596  26.483  1.00  0.00     0.042 C 
BRANCH  68  69
ATOM     69  C   UNL A   1      37.950  23.678  25.949  1.00  0.00     0.118 C 
BRANCH  69  70
ATOM     70  N   UNL A   1      37.643  23.520  24.535  1.00  0.00    -0.352 N 
ATOM     71  C   UNL A   1      36.527  23.043  23.908  1.00  0.00     0.255 C 
ATOM     72  H   UNL A   1      38.363  23.805  23.927  1.00  0.00     0.163 HD
ATOM     73  O   UNL A   1      36.516  22.991  22.677  1.00  0.00    -0.269 OA
BRANCH  71  74
ATOM     74  C   UNL A   1      35.341  22.646  24.703  1.00  0.00     0.083 A 
ATOM     75  C   UNL A   1      35.266  21.378  25.145  1.00  0.00     0.019 A 
ATOM     76  C   UNL A   1      34.327  23.647  25.184  1.00  0.00     0.153 A 
ATOM     77  C   UNL A   1      34.157  20.931  25.937  1.00  0.00     0.019 A 
ATOM     78  N   UNL A   1      33.302  23.157  26.006  1.00  0.00    -0.267 N 
ATOM     79  N   UNL A   1      34.419  24.896  24.843  1.00  0.00    -0.229 NA
ATOM     80  C   UNL A   1      33.232  21.807  26.336  1.00  0.00     0.096 A 
ATOM     81  C   UNL A   1      32.321  24.009  26.517  1.00  0.00     0.265 A 
ATOM     82  C   UNL A   1      33.505  25.817  25.361  1.00  0.00     0.080 A 
ATOM     83  O   UNL A   1      31.376  23.649  27.226  1.00  0.00    -0.268 OA
ATOM     84  C   UNL A   1      32.455  25.437  26.191  1.00  0.00     0.066 A 
ATOM     85  C   UNL A   1      33.673  27.174  25.064  1.00  0.00     0.049 A 
ATOM     86  C   UNL A   1      31.572  26.385  26.723  1.00  0.00     0.017 A 
ATOM     87  C   UNL A   1      32.800  28.123  25.595  1.00  0.00     0.043 A 
ATOM     88  C   UNL A   1      31.748  27.735  26.424  1.00  0.00     0.021 A 
ATOM     89  Cl  UNL A   1      33.028  29.792  25.241  1.00  0.00    -0.084 Cl
ENDBRANCH  71  74
ENDBRANCH  69  70
ENDBRANCH  68  69
ENDBRANCH  67  68
ENDBRANCH   3  67
TORSDOF 13
ENDMDL
