MODEL 1
REMARK VINA RESULT:     -12.1      0.000      0.000
REMARK SMILES C=CC[C@@]1(C(=O)NCCCNC(=O)c2ccc(-c3c4nc(c(-c5ccc(S(=O)(=O)[O-])cc5)c5ccc([nH]5)c(-c5ccc(S(=O)(=O)[O-])cc5)c5nc(c(-c6ccc(S(=O)(=O)[O-])cc6)c6ccc3[nH]6)C=C5)C=C4)cc2)CCCN(c2nccc(N3CCC(O)CC3)n2)C1
REMARK SMILES IDX 9 1 8 2 7 3 5 4 6 5 4 7 74 8 91 9 75 10 77 11 76 12 3 13
REMARK SMILES IDX 2 14 1 15 78 16 79 17 90 18 80 19 82 20 81 21 83 22 84 23
REMARK SMILES IDX 89 24 85 25 88 26 86 27 87 28 10 30 11 31 12 32 13 34 14 35
REMARK SMILES IDX 15 36 73 37 16 38 72 39 17 40 18 41 19 42 66 43 20 44 71 45
REMARK SMILES IDX 65 46 67 47 21 48 70 49 64 50 63 51 22 53 52 54 33 55 51 56
REMARK SMILES IDX 34 57 37 58 50 59 68 60 35 61 36 62 49 64 69 65 38 66 23 67
REMARK SMILES IDX 24 68 32 69 25 70 31 71 26 72 27 73 28 74 29 75 30 76 53 77
REMARK SMILES IDX 54 78 62 79 55 80 61 81 56 82 57 83 58 84 59 85 60 86 39 87
REMARK SMILES IDX 40 88 48 89 41 90 47 91 42 92 43 93 44 94 45 95 46 96
REMARK H PARENT 7 6 87 29 11 33 67 52 37 63
REMARK Flexibility Score: inf
ROOT
ATOM      1  C   UNL A   1      37.718  23.174  25.953  1.00  0.00     0.042 C 
ENDROOT
BRANCH   1   2
ATOM      2  C   UNL A   1      36.334  23.804  26.067  1.00  0.00     0.117 C 
BRANCH   2   3
ATOM      3  N   UNL A   1      35.442  23.018  26.890  1.00  0.00    -0.355 N 
ATOM      4  C   UNL A   1      34.420  22.165  26.671  1.00  0.00     0.228 C 
ATOM      5  O   UNL A   1      33.980  21.656  27.716  1.00  0.00    -0.274 OA
ATOM      6  H   UNL A   1      35.628  23.132  27.850  1.00  0.00     0.163 HD
BRANCH   4   7
ATOM      7  C   UNL A   1      33.825  21.718  25.312  1.00  0.00     0.070 C 
ATOM      8  C   UNL A   1      34.625  21.738  23.985  1.00  0.00     0.021 C 
ATOM      9  C   UNL A   1      32.555  22.591  25.123  1.00  0.00     0.137 C 
ATOM     10  C   UNL A   1      34.805  23.108  23.320  1.00  0.00     0.023 C 
ATOM     11  N   UNL A   1      32.908  23.885  24.562  1.00  0.00    -0.340 N 
ATOM     12  C   UNL A   1      33.513  23.923  23.254  1.00  0.00     0.120 C 
BRANCH   7  13
ATOM     13  C   UNL A   1      33.330  20.250  25.556  1.00  0.00     0.045 C 
BRANCH  13  14
ATOM     14  C   UNL A   1      33.533  19.303  24.399  1.00  0.00    -0.034 C 
ATOM     15  C   UNL A   1      32.525  18.738  23.722  1.00  0.00     0.004 C 
ENDBRANCH  13  14
ENDBRANCH   7  13
BRANCH  11  16
ATOM     16  C   UNL A   1      32.306  24.999  25.090  1.00  0.00     0.227 A 
ATOM     17  N   UNL A   1      31.025  24.877  25.463  1.00  0.00    -0.221 NA
ATOM     18  N   UNL A   1      33.010  26.133  25.231  1.00  0.00    -0.196 NA
ATOM     19  C   UNL A   1      30.456  25.932  26.058  1.00  0.00     0.119 A 
ATOM     20  C   UNL A   1      32.407  27.194  25.801  1.00  0.00     0.134 A 
ATOM     21  C   UNL A   1      31.110  27.117  26.266  1.00  0.00     0.067 A 
BRANCH  20  22
ATOM     22  N   UNL A   1      33.088  28.392  25.861  1.00  0.00    -0.356 N 
ATOM     23  C   UNL A   1      34.470  28.394  26.317  1.00  0.00     0.121 C 
ATOM     24  C   UNL A   1      32.408  29.662  25.660  1.00  0.00     0.121 C 
ATOM     25  C   UNL A   1      34.612  29.239  27.572  1.00  0.00     0.053 C 
ATOM     26  C   UNL A   1      32.540  30.516  26.919  1.00  0.00     0.053 C 
ATOM     27  C   UNL A   1      34.002  30.621  27.352  1.00  0.00     0.118 C 
BRANCH  27  28
ATOM     28  O   UNL A   1      34.106  31.383  28.551  1.00  0.00    -0.393 OA
ATOM     29  H   UNL A   1      33.386  31.140  29.154  1.00  0.00     0.210 HD
ENDBRANCH  27  28
ENDBRANCH  20  22
ENDBRANCH  11  16
ENDBRANCH   4   7
ENDBRANCH   2   3
ENDBRANCH   1   2
BRANCH   1  30
ATOM     30  C   UNL A   1      38.791  23.843  26.802  1.00  0.00     0.118 C 
BRANCH  30  31
ATOM     31  N   UNL A   1      39.933  24.286  26.015  1.00  0.00    -0.352 N 
ATOM     32  C   UNL A   1      40.740  25.385  26.137  1.00  0.00     0.251 C 
ATOM     33  H   UNL A   1      40.165  23.692  25.265  1.00  0.00     0.163 HD
ATOM     34  O   UNL A   1      41.514  25.649  25.210  1.00  0.00    -0.269 OA
BRANCH  32  35
ATOM     35  C   UNL A   1      40.714  26.262  27.334  1.00  0.00     0.039 A 
ATOM     36  C   UNL A   1      39.801  25.972  28.355  1.00  0.00     0.014 A 
ATOM     37  C   UNL A   1      41.499  27.413  27.432  1.00  0.00     0.014 A 
ATOM     38  C   UNL A   1      39.692  26.815  29.467  1.00  0.00     0.010 A 
ATOM     39  C   UNL A   1      41.462  28.199  28.584  1.00  0.00     0.010 A 
ATOM     40  C   UNL A   1      40.530  27.933  29.597  1.00  0.00    -0.014 A 
BRANCH  40  41
ATOM     41  C   UNL A   1      40.382  28.875  30.738  1.00  0.00     0.031 A 
ATOM     42  C   UNL A   1      41.288  28.750  31.940  1.00  0.00     0.074 A 
ATOM     43  C   UNL A   1      39.428  29.826  30.714  1.00  0.00     0.049 A 
ATOM     44  N   UNL A   1      41.306  29.458  33.041  1.00  0.00    -0.248 NA
ATOM     45  C   UNL A   1      42.287  27.668  31.913  1.00  0.00     0.031 C 
ATOM     46  C   UNL A   1      38.460  30.031  29.634  1.00  0.00     0.029 A 
ATOM     47  N   UNL A   1      39.121  30.807  31.623  1.00  0.00    -0.354 N 
ATOM     48  C   UNL A   1      42.294  28.893  33.841  1.00  0.00     0.074 A 
ATOM     49  C   UNL A   1      42.814  27.750  33.125  1.00  0.00     0.031 C 
ATOM     50  C   UNL A   1      37.693  31.094  29.925  1.00  0.00     0.029 A 
ATOM     51  C   UNL A   1      38.093  31.630  31.223  1.00  0.00     0.049 A 
ATOM     52  H   UNL A   1      39.591  30.912  32.482  1.00  0.00     0.167 HD
ATOM     53  C   UNL A   1      42.752  29.302  35.049  1.00  0.00     0.031 A 
ATOM     54  C   UNL A   1      37.544  32.700  31.828  1.00  0.00     0.031 A 
ATOM     55  C   UNL A   1      42.261  30.458  35.748  1.00  0.00     0.049 A 
ATOM     56  C   UNL A   1      38.091  33.155  33.154  1.00  0.00     0.074 A 
ATOM     57  C   UNL A   1      42.692  30.987  36.953  1.00  0.00     0.029 A 
ATOM     58  N   UNL A   1      41.237  31.277  35.295  1.00  0.00    -0.354 N 
ATOM     59  N   UNL A   1      39.058  32.634  33.870  1.00  0.00    -0.248 NA
ATOM     60  C   UNL A   1      37.484  34.358  33.741  1.00  0.00     0.031 C 
ATOM     61  C   UNL A   1      41.905  32.108  37.244  1.00  0.00     0.029 A 
ATOM     62  C   UNL A   1      41.016  32.302  36.199  1.00  0.00     0.049 A 
ATOM     63  H   UNL A   1      40.740  31.147  34.455  1.00  0.00     0.167 HD
ATOM     64  C   UNL A   1      39.191  33.460  34.981  1.00  0.00     0.074 A 
ATOM     65  C   UNL A   1      38.220  34.525  34.830  1.00  0.00     0.031 C 
ATOM     66  C   UNL A   1      40.042  33.349  36.032  1.00  0.00     0.031 A 
BRANCH  53  67
ATOM     67  C   UNL A   1      43.848  28.487  35.685  1.00  0.00    -0.014 A 
ATOM     68  C   UNL A   1      43.548  27.417  36.550  1.00  0.00     0.010 A 
ATOM     69  C   UNL A   1      45.196  28.781  35.405  1.00  0.00     0.010 A 
ATOM     70  C   UNL A   1      44.572  26.691  37.162  1.00  0.00     0.020 A 
ATOM     71  C   UNL A   1      46.223  28.038  35.994  1.00  0.00     0.020 A 
ATOM     72  C   UNL A   1      45.905  27.011  36.886  1.00  0.00     0.054 A 
BRANCH  72  73
ATOM     73  S   UNL A   1      47.217  26.048  37.689  1.00  0.00     0.124 S 
ATOM     74  O   UNL A   1      46.530  24.794  37.984  1.00  0.00    -0.237 OA
ATOM     75  O   UNL A   1      48.241  25.973  36.649  1.00  0.00    -0.237 OA
ATOM     76  O   UNL A   1      47.574  26.853  38.853  1.00  0.00    -0.744 OA
ENDBRANCH  72  73
ENDBRANCH  53  67
BRANCH  54  77
ATOM     77  C   UNL A   1      36.437  33.443  31.166  1.00  0.00    -0.014 A 
ATOM     78  C   UNL A   1      36.616  33.993  29.884  1.00  0.00     0.010 A 
ATOM     79  C   UNL A   1      35.198  33.602  31.812  1.00  0.00     0.010 A 
ATOM     80  C   UNL A   1      35.584  34.706  29.268  1.00  0.00     0.020 A 
ATOM     81  C   UNL A   1      34.155  34.296  31.188  1.00  0.00     0.020 A 
ATOM     82  C   UNL A   1      34.360  34.854  29.926  1.00  0.00     0.054 A 
BRANCH  82  83
ATOM     83  S   UNL A   1      33.017  35.743  29.089  1.00  0.00     0.124 S 
ATOM     84  O   UNL A   1      32.228  36.229  30.215  1.00  0.00    -0.237 OA
ATOM     85  O   UNL A   1      33.737  36.766  28.332  1.00  0.00    -0.237 OA
ATOM     86  O   UNL A   1      32.381  34.710  28.274  1.00  0.00    -0.744 OA
ENDBRANCH  82  83
ENDBRANCH  54  77
BRANCH  66  87
ATOM     87  C   UNL A   1      39.976  34.425  37.081  1.00  0.00    -0.014 A 
ATOM     88  C   UNL A   1      40.800  35.563  37.009  1.00  0.00     0.010 A 
ATOM     89  C   UNL A   1      39.064  34.303  38.145  1.00  0.00     0.010 A 
ATOM     90  C   UNL A   1      40.747  36.536  38.010  1.00  0.00     0.020 A 
ATOM     91  C   UNL A   1      38.989  35.287  39.133  1.00  0.00     0.020 A 
ATOM     92  C   UNL A   1      39.847  36.388  39.070  1.00  0.00     0.054 A 
BRANCH  92  93
ATOM     93  S   UNL A   1      39.785  37.668  40.353  1.00  0.00     0.124 S 
ATOM     94  O   UNL A   1      40.693  38.678  39.816  1.00  0.00    -0.237 OA
ATOM     95  O   UNL A   1      38.373  38.040  40.371  1.00  0.00    -0.237 OA
ATOM     96  O   UNL A   1      40.257  36.979  41.552  1.00  0.00    -0.744 OA
ENDBRANCH  92  93
ENDBRANCH  66  87
ENDBRANCH  40  41
ENDBRANCH  32  35
ENDBRANCH  30  31
ENDBRANCH   1  30
TORSDOF 18
ENDMDL
MODEL 2
REMARK VINA RESULT:     -11.9      4.277     10.282
REMARK SMILES C=CC[C@@]1(C(=O)NCCCNC(=O)c2ccc(-c3c4nc(c(-c5ccc(S(=O)(=O)[O-])cc5)c5ccc([nH]5)c(-c5ccc(S(=O)(=O)[O-])cc5)c5nc(c(-c6ccc(S(=O)(=O)[O-])cc6)c6ccc3[nH]6)C=C5)C=C4)cc2)CCCN(c2nccc(N3CCC(O)CC3)n2)C1
REMARK SMILES IDX 9 1 8 2 7 3 5 4 6 5 4 7 74 8 91 9 75 10 77 11 76 12 3 13
REMARK SMILES IDX 2 14 1 15 78 16 79 17 90 18 80 19 82 20 81 21 83 22 84 23
REMARK SMILES IDX 89 24 85 25 88 26 86 27 87 28 10 30 11 31 12 32 13 34 14 35
REMARK SMILES IDX 15 36 73 37 16 38 72 39 17 40 18 41 19 42 66 43 20 44 71 45
REMARK SMILES IDX 65 46 67 47 21 48 70 49 64 50 63 51 22 53 52 54 33 55 51 56
REMARK SMILES IDX 34 57 37 58 50 59 68 60 35 61 36 62 49 64 69 65 38 66 23 67
REMARK SMILES IDX 24 68 32 69 25 70 31 71 26 72 27 73 28 74 29 75 30 76 53 77
REMARK SMILES IDX 54 78 62 79 55 80 61 81 56 82 57 83 58 84 59 85 60 86 39 87
REMARK SMILES IDX 40 88 48 89 41 90 47 91 42 92 43 93 44 94 45 95 46 96
REMARK H PARENT 7 6 87 29 11 33 67 52 37 63
REMARK Flexibility Score: inf
ROOT
ATOM      1  C   UNL A   1      31.955  27.904  27.275  1.00  0.00     0.042 C 
ENDROOT
BRANCH   1   2
ATOM      2  C   UNL A   1      31.792  26.614  26.478  1.00  0.00     0.117 C 
BRANCH   2   3
ATOM      3  N   UNL A   1      33.046  26.153  25.923  1.00  0.00    -0.355 N 
ATOM      4  C   UNL A   1      33.496  25.814  24.698  1.00  0.00     0.228 C 
ATOM      5  O   UNL A   1      34.708  25.534  24.686  1.00  0.00    -0.274 OA
ATOM      6  H   UNL A   1      33.745  26.068  26.610  1.00  0.00     0.163 HD
BRANCH   4   7
ATOM      7  C   UNL A   1      32.715  25.817  23.360  1.00  0.00     0.070 C 
ATOM      8  C   UNL A   1      31.198  26.115  23.260  1.00  0.00     0.021 C 
ATOM      9  C   UNL A   1      32.973  24.416  22.742  1.00  0.00     0.137 C 
ATOM     10  C   UNL A   1      30.253  24.979  23.672  1.00  0.00     0.023 C 
ATOM     11  N   UNL A   1      32.051  23.438  23.298  1.00  0.00    -0.340 N 
ATOM     12  C   UNL A   1      30.639  23.625  23.075  1.00  0.00     0.120 C 
BRANCH   7  13
ATOM     13  C   UNL A   1      33.471  26.852  22.458  1.00  0.00     0.045 C 
BRANCH  13  14
ATOM     14  C   UNL A   1      33.758  28.184  23.108  1.00  0.00    -0.034 C 
ATOM     15  C   UNL A   1      32.819  29.107  23.346  1.00  0.00     0.004 C 
ENDBRANCH  13  14
ENDBRANCH   7  13
BRANCH  11  16
ATOM     16  C   UNL A   1      32.551  22.209  23.644  1.00  0.00     0.227 A 
ATOM     17  N   UNL A   1      31.830  21.138  23.283  1.00  0.00    -0.221 NA
ATOM     18  N   UNL A   1      33.723  22.124  24.291  1.00  0.00    -0.196 NA
ATOM     19  C   UNL A   1      32.353  19.933  23.539  1.00  0.00     0.119 A 
ATOM     20  C   UNL A   1      34.214  20.901  24.570  1.00  0.00     0.134 A 
ATOM     21  C   UNL A   1      33.554  19.757  24.171  1.00  0.00     0.067 A 
BRANCH  20  22
ATOM     22  N   UNL A   1      35.367  20.804  25.322  1.00  0.00    -0.356 N 
ATOM     23  C   UNL A   1      35.623  21.801  26.350  1.00  0.00     0.121 C 
ATOM     24  C   UNL A   1      36.411  19.847  24.987  1.00  0.00     0.121 C 
ATOM     25  C   UNL A   1      36.909  22.552  26.049  1.00  0.00     0.053 C 
ATOM     26  C   UNL A   1      37.706  20.594  24.678  1.00  0.00     0.053 C 
ATOM     27  C   UNL A   1      38.051  21.570  25.802  1.00  0.00     0.118 C 
BRANCH  27  28
ATOM     28  O   UNL A   1      39.238  22.291  25.481  1.00  0.00    -0.393 OA
ATOM     29  H   UNL A   1      39.840  22.279  26.241  1.00  0.00     0.210 HD
ENDBRANCH  27  28
ENDBRANCH  20  22
ENDBRANCH  11  16
ENDBRANCH   4   7
ENDBRANCH   2   3
ENDBRANCH   1   2
BRANCH   1  30
ATOM     30  C   UNL A   1      33.374  28.455  27.307  1.00  0.00     0.118 C 
BRANCH  30  31
ATOM     31  N   UNL A   1      33.416  29.880  27.600  1.00  0.00    -0.352 N 
ATOM     32  C   UNL A   1      34.400  30.661  28.146  1.00  0.00     0.251 C 
ATOM     33  H   UNL A   1      32.593  30.368  27.366  1.00  0.00     0.163 HD
ATOM     34  O   UNL A   1      34.111  31.812  28.491  1.00  0.00    -0.269 OA
BRANCH  32  35
ATOM     35  C   UNL A   1      35.788  30.172  28.335  1.00  0.00     0.039 A 
ATOM     36  C   UNL A   1      36.157  29.679  29.593  1.00  0.00     0.014 A 
ATOM     37  C   UNL A   1      36.757  30.273  27.335  1.00  0.00     0.014 A 
ATOM     38  C   UNL A   1      37.475  29.277  29.836  1.00  0.00     0.010 A 
ATOM     39  C   UNL A   1      38.046  29.781  27.545  1.00  0.00     0.010 A 
ATOM     40  C   UNL A   1      38.431  29.315  28.810  1.00  0.00    -0.014 A 
BRANCH  40  41
ATOM     41  C   UNL A   1      39.851  28.954  29.068  1.00  0.00     0.031 A 
ATOM     42  C   UNL A   1      40.774  29.951  29.725  1.00  0.00     0.074 A 
ATOM     43  C   UNL A   1      40.322  27.746  28.697  1.00  0.00     0.049 A 
ATOM     44  N   UNL A   1      42.045  29.835  30.017  1.00  0.00    -0.248 NA
ATOM     45  C   UNL A   1      40.201  31.261  30.075  1.00  0.00     0.031 C 
ATOM     46  C   UNL A   1      39.548  26.706  28.015  1.00  0.00     0.029 A 
ATOM     47  N   UNL A   1      41.566  27.188  28.848  1.00  0.00    -0.354 N 
ATOM     48  C   UNL A   1      42.424  31.060  30.559  1.00  0.00     0.074 A 
ATOM     49  C   UNL A   1      41.266  31.922  30.502  1.00  0.00     0.031 C 
ATOM     50  C   UNL A   1      40.324  25.622  27.843  1.00  0.00     0.029 A 
ATOM     51  C   UNL A   1      41.655  25.900  28.373  1.00  0.00     0.049 A 
ATOM     52  H   UNL A   1      42.324  27.664  29.257  1.00  0.00     0.167 HD
ATOM     53  C   UNL A   1      43.618  31.428  31.083  1.00  0.00     0.031 A 
ATOM     54  C   UNL A   1      42.689  25.037  28.375  1.00  0.00     0.031 A 
ATOM     55  C   UNL A   1      44.762  30.562  31.172  1.00  0.00     0.049 A 
ATOM     56  C   UNL A   1      43.995  25.457  28.993  1.00  0.00     0.074 A 
ATOM     57  C   UNL A   1      46.002  30.822  31.731  1.00  0.00     0.029 A 
ATOM     58  N   UNL A   1      44.801  29.258  30.701  1.00  0.00    -0.354 N 
ATOM     59  N   UNL A   1      44.317  26.605  29.542  1.00  0.00    -0.248 NA
ATOM     60  C   UNL A   1      45.071  24.455  29.010  1.00  0.00     0.031 C 
ATOM     61  C   UNL A   1      46.801  29.684  31.569  1.00  0.00     0.029 A 
ATOM     62  C   UNL A   1      46.044  28.702  30.950  1.00  0.00     0.049 A 
ATOM     63  H   UNL A   1      44.054  28.796  30.256  1.00  0.00     0.167 HD
ATOM     64  C   UNL A   1      45.625  26.453  29.991  1.00  0.00     0.074 A 
ATOM     65  C   UNL A   1      46.025  25.098  29.668  1.00  0.00     0.031 C 
ATOM     66  C   UNL A   1      46.424  27.353  30.616  1.00  0.00     0.031 A 
BRANCH  53  67
ATOM     67  C   UNL A   1      43.738  32.836  31.607  1.00  0.00    -0.014 A 
ATOM     68  C   UNL A   1      44.141  33.891  30.767  1.00  0.00     0.010 A 
ATOM     69  C   UNL A   1      43.430  33.115  32.951  1.00  0.00     0.010 A 
ATOM     70  C   UNL A   1      44.284  35.185  31.272  1.00  0.00     0.020 A 
ATOM     71  C   UNL A   1      43.544  34.415  33.454  1.00  0.00     0.020 A 
ATOM     72  C   UNL A   1      43.991  35.438  32.615  1.00  0.00     0.054 A 
BRANCH  72  73
ATOM     73  S   UNL A   1      44.177  37.130  33.245  1.00  0.00     0.124 S 
ATOM     74  O   UNL A   1      42.968  37.285  34.048  1.00  0.00    -0.237 OA
ATOM     75  O   UNL A   1      45.427  37.056  33.999  1.00  0.00    -0.237 OA
ATOM     76  O   UNL A   1      44.232  37.946  32.035  1.00  0.00    -0.744 OA
ENDBRANCH  72  73
ENDBRANCH  53  67
BRANCH  54  77
ATOM     77  C   UNL A   1      42.520  23.671  27.808  1.00  0.00    -0.014 A 
ATOM     78  C   UNL A   1      42.928  23.393  26.491  1.00  0.00     0.010 A 
ATOM     79  C   UNL A   1      41.956  22.642  28.581  1.00  0.00     0.010 A 
ATOM     80  C   UNL A   1      42.754  22.116  25.950  1.00  0.00     0.020 A 
ATOM     81  C   UNL A   1      41.802  21.356  28.051  1.00  0.00     0.020 A 
ATOM     82  C   UNL A   1      42.191  21.106  26.734  1.00  0.00     0.054 A 
BRANCH  82  83
ATOM     83  S   UNL A   1      42.017  19.443  26.029  1.00  0.00     0.124 S 
ATOM     84  O   UNL A   1      42.552  18.603  27.096  1.00  0.00    -0.237 OA
ATOM     85  O   UNL A   1      40.577  19.341  25.805  1.00  0.00    -0.237 OA
ATOM     86  O   UNL A   1      42.826  19.503  24.812  1.00  0.00    -0.744 OA
ENDBRANCH  82  83
ENDBRANCH  54  77
BRANCH  66  87
ATOM     87  C   UNL A   1      47.797  26.888  31.016  1.00  0.00    -0.014 A 
ATOM     88  C   UNL A   1      48.867  26.908  30.104  1.00  0.00     0.010 A 
ATOM     89  C   UNL A   1      48.023  26.441  32.330  1.00  0.00     0.010 A 
ATOM     90  C   UNL A   1      50.128  26.443  30.485  1.00  0.00     0.020 A 
ATOM     91  C   UNL A   1      49.288  26.000  32.724  1.00  0.00     0.020 A 
ATOM     92  C   UNL A   1      50.328  25.984  31.791  1.00  0.00     0.054 A 
BRANCH  92  93
ATOM     93  S   UNL A   1      51.975  25.394  32.271  1.00  0.00     0.124 S 
ATOM     94  O   UNL A   1      52.809  25.917  31.192  1.00  0.00    -0.237 OA
ATOM     95  O   UNL A   1      52.174  26.017  33.577  1.00  0.00    -0.237 OA
ATOM     96  O   UNL A   1      51.827  23.940  32.297  1.00  0.00    -0.744 OA
ENDBRANCH  92  93
ENDBRANCH  66  87
ENDBRANCH  40  41
ENDBRANCH  32  35
ENDBRANCH  30  31
ENDBRANCH   1  30
TORSDOF 18
ENDMDL
MODEL 3
REMARK VINA RESULT:     -11.7      3.925      4.919
REMARK SMILES C=CC[C@@]1(C(=O)NCCCNC(=O)c2ccc(-c3c4nc(c(-c5ccc(S(=O)(=O)[O-])cc5)c5ccc([nH]5)c(-c5ccc(S(=O)(=O)[O-])cc5)c5nc(c(-c6ccc(S(=O)(=O)[O-])cc6)c6ccc3[nH]6)C=C5)C=C4)cc2)CCCN(c2nccc(N3CCC(O)CC3)n2)C1
REMARK SMILES IDX 9 1 8 2 7 3 5 4 6 5 4 7 74 8 91 9 75 10 77 11 76 12 3 13
REMARK SMILES IDX 2 14 1 15 78 16 79 17 90 18 80 19 82 20 81 21 83 22 84 23
REMARK SMILES IDX 89 24 85 25 88 26 86 27 87 28 10 30 11 31 12 32 13 34 14 35
REMARK SMILES IDX 15 36 73 37 16 38 72 39 17 40 18 41 19 42 66 43 20 44 71 45
REMARK SMILES IDX 65 46 67 47 21 48 70 49 64 50 63 51 22 53 52 54 33 55 51 56
REMARK SMILES IDX 34 57 37 58 50 59 68 60 35 61 36 62 49 64 69 65 38 66 23 67
REMARK SMILES IDX 24 68 32 69 25 70 31 71 26 72 27 73 28 74 29 75 30 76 53 77
REMARK SMILES IDX 54 78 62 79 55 80 61 81 56 82 57 83 58 84 59 85 60 86 39 87
REMARK SMILES IDX 40 88 48 89 41 90 47 91 42 92 43 93 44 94 45 95 46 96
REMARK H PARENT 7 6 87 29 11 33 67 52 37 63
REMARK Flexibility Score: inf
ROOT
ATOM      1  C   UNL A   1      36.138  22.968  24.550  1.00  0.00     0.042 C 
ENDROOT
BRANCH   1   2
ATOM      2  C   UNL A   1      35.339  24.169  24.055  1.00  0.00     0.117 C 
BRANCH   2   3
ATOM      3  N   UNL A   1      34.320  24.573  24.998  1.00  0.00    -0.355 N 
ATOM      4  C   UNL A   1      32.972  24.631  25.003  1.00  0.00     0.228 C 
ATOM      5  O   UNL A   1      32.505  24.992  26.098  1.00  0.00    -0.274 OA
ATOM      6  H   UNL A   1      34.705  24.881  25.850  1.00  0.00     0.163 HD
BRANCH   4   7
ATOM      7  C   UNL A   1      31.996  24.234  23.867  1.00  0.00     0.070 C 
ATOM      8  C   UNL A   1      32.443  24.008  22.400  1.00  0.00     0.021 C 
ATOM      9  C   UNL A   1      30.903  25.337  23.874  1.00  0.00     0.137 C 
ATOM     10  C   UNL A   1      32.710  25.270  21.569  1.00  0.00     0.023 C 
ATOM     11  N   UNL A   1      31.345  26.494  23.114  1.00  0.00    -0.340 N 
ATOM     12  C   UNL A   1      31.614  26.328  21.707  1.00  0.00     0.120 C 
BRANCH   7  13
ATOM     13  C   UNL A   1      31.310  22.917  24.371  1.00  0.00     0.045 C 
BRANCH  13  14
ATOM     14  C   UNL A   1      32.057  21.643  24.062  1.00  0.00    -0.034 C 
ATOM     15  C   UNL A   1      32.936  21.081  24.900  1.00  0.00     0.004 C 
ENDBRANCH  13  14
ENDBRANCH   7  13
BRANCH  11  16
ATOM     16  C   UNL A   1      31.104  27.738  23.639  1.00  0.00     0.227 A 
ATOM     17  N   UNL A   1      31.904  28.140  24.637  1.00  0.00    -0.221 NA
ATOM     18  N   UNL A   1      30.120  28.497  23.132  1.00  0.00    -0.196 NA
ATOM     19  C   UNL A   1      31.733  29.385  25.096  1.00  0.00     0.119 A 
ATOM     20  C   UNL A   1      29.943  29.734  23.634  1.00  0.00     0.134 A 
ATOM     21  C   UNL A   1      30.771  30.234  24.618  1.00  0.00     0.067 A 
BRANCH  20  22
ATOM     22  N   UNL A   1      28.873  30.484  23.190  1.00  0.00    -0.356 N 
ATOM     23  C   UNL A   1      28.035  29.952  22.127  1.00  0.00     0.121 C 
ATOM     24  C   UNL A   1      28.678  31.859  23.625  1.00  0.00     0.121 C 
ATOM     25  C   UNL A   1      28.072  30.868  20.915  1.00  0.00     0.053 C 
ATOM     26  C   UNL A   1      28.721  32.787  22.414  1.00  0.00     0.053 C 
ATOM     27  C   UNL A   1      27.761  32.304  21.327  1.00  0.00     0.118 C 
BRANCH  27  28
ATOM     28  O   UNL A   1      27.843  33.155  20.186  1.00  0.00    -0.393 OA
ATOM     29  H   UNL A   1      28.299  33.977  20.427  1.00  0.00     0.210 HD
ENDBRANCH  27  28
ENDBRANCH  20  22
ENDBRANCH  11  16
ENDBRANCH   4   7
ENDBRANCH   2   3
ENDBRANCH   1   2
BRANCH   1  30
ATOM     30  C   UNL A   1      36.825  23.174  25.893  1.00  0.00     0.118 C 
BRANCH  30  31
ATOM     31  N   UNL A   1      38.048  22.395  26.023  1.00  0.00    -0.352 N 
ATOM     32  C   UNL A   1      39.311  22.758  26.408  1.00  0.00     0.251 C 
ATOM     33  H   UNL A   1      37.950  21.443  25.793  1.00  0.00     0.163 HD
ATOM     34  O   UNL A   1      40.231  21.951  26.230  1.00  0.00    -0.269 OA
BRANCH  32  35
ATOM     35  C   UNL A   1      39.608  24.074  27.024  1.00  0.00     0.039 A 
ATOM     36  C   UNL A   1      40.393  24.986  26.308  1.00  0.00     0.014 A 
ATOM     37  C   UNL A   1      39.210  24.395  28.324  1.00  0.00     0.014 A 
ATOM     38  C   UNL A   1      40.757  26.209  26.882  1.00  0.00     0.010 A 
ATOM     39  C   UNL A   1      39.489  25.653  28.859  1.00  0.00     0.010 A 
ATOM     40  C   UNL A   1      40.300  26.559  28.161  1.00  0.00    -0.014 A 
BRANCH  40  41
ATOM     41  C   UNL A   1      40.731  27.825  28.812  1.00  0.00     0.031 A 
ATOM     42  C   UNL A   1      42.142  27.963  29.330  1.00  0.00     0.074 A 
ATOM     43  C   UNL A   1      39.859  28.842  28.961  1.00  0.00     0.049 A 
ATOM     44  N   UNL A   1      42.704  28.974  29.943  1.00  0.00    -0.248 NA
ATOM     45  C   UNL A   1      43.032  26.802  29.161  1.00  0.00     0.031 C 
ATOM     46  C   UNL A   1      38.455  28.825  28.544  1.00  0.00     0.029 A 
ATOM     47  N   UNL A   1      40.029  30.093  29.499  1.00  0.00    -0.354 N 
ATOM     48  C   UNL A   1      43.996  28.561  30.252  1.00  0.00     0.074 A 
ATOM     49  C   UNL A   1      44.118  27.190  29.812  1.00  0.00     0.031 C 
ATOM     50  C   UNL A   1      37.903  30.022  28.806  1.00  0.00     0.029 A 
ATOM     51  C   UNL A   1      38.903  30.880  29.435  1.00  0.00     0.049 A 
ATOM     52  H   UNL A   1      40.878  30.399  29.894  1.00  0.00     0.167 HD
ATOM     53  C   UNL A   1      45.004  29.264  30.824  1.00  0.00     0.031 A 
ATOM     54  C   UNL A   1      38.702  32.152  29.828  1.00  0.00     0.031 A 
ATOM     55  C   UNL A   1      44.897  30.639  31.232  1.00  0.00     0.049 A 
ATOM     56  C   UNL A   1      39.844  32.924  30.431  1.00  0.00     0.074 A 
ATOM     57  C   UNL A   1      45.873  31.457  31.775  1.00  0.00     0.029 A 
ATOM     58  N   UNL A   1      43.746  31.405  31.127  1.00  0.00    -0.354 N 
ATOM     59  N   UNL A   1      41.072  32.528  30.671  1.00  0.00    -0.248 NA
ATOM     60  C   UNL A   1      39.577  34.323  30.795  1.00  0.00     0.031 C 
ATOM     61  C   UNL A   1      45.301  32.710  32.027  1.00  0.00     0.029 A 
ATOM     62  C   UNL A   1      43.983  32.684  31.600  1.00  0.00     0.049 A 
ATOM     63  H   UNL A   1      42.886  31.086  30.768  1.00  0.00     0.167 HD
ATOM     64  C   UNL A   1      41.730  33.637  31.192  1.00  0.00     0.074 A 
ATOM     65  C   UNL A   1      40.770  34.723  31.212  1.00  0.00     0.031 C 
ATOM     66  C   UNL A   1      43.013  33.748  31.615  1.00  0.00     0.031 A 
BRANCH  53  67
ATOM     67  C   UNL A   1      46.313  28.549  31.035  1.00  0.00    -0.014 A 
ATOM     68  C   UNL A   1      46.567  27.836  32.222  1.00  0.00     0.010 A 
ATOM     69  C   UNL A   1      47.298  28.576  30.031  1.00  0.00     0.010 A 
ATOM     70  C   UNL A   1      47.798  27.208  32.422  1.00  0.00     0.020 A 
ATOM     71  C   UNL A   1      48.522  27.924  30.216  1.00  0.00     0.020 A 
ATOM     72  C   UNL A   1      48.771  27.261  31.420  1.00  0.00     0.054 A 
BRANCH  72  73
ATOM     73  S   UNL A   1      50.360  26.430  31.701  1.00  0.00     0.124 S 
ATOM     74  O   UNL A   1      50.829  27.085  32.920  1.00  0.00    -0.237 OA
ATOM     75  O   UNL A   1      49.968  25.031  31.852  1.00  0.00    -0.237 OA
ATOM     76  O   UNL A   1      51.127  26.732  30.496  1.00  0.00    -0.744 OA
ENDBRANCH  72  73
ENDBRANCH  53  67
BRANCH  54  77
ATOM     77  C   UNL A   1      37.373  32.793  29.628  1.00  0.00    -0.014 A 
ATOM     78  C   UNL A   1      36.421  32.793  30.663  1.00  0.00     0.010 A 
ATOM     79  C   UNL A   1      37.054  33.407  28.404  1.00  0.00     0.010 A 
ATOM     80  C   UNL A   1      35.166  33.378  30.471  1.00  0.00     0.020 A 
ATOM     81  C   UNL A   1      35.808  34.014  28.217  1.00  0.00     0.020 A 
ATOM     82  C   UNL A   1      34.868  33.984  29.248  1.00  0.00     0.054 A 
BRANCH  82  83
ATOM     83  S   UNL A   1      33.250  34.780  29.035  1.00  0.00     0.124 S 
ATOM     84  O   UNL A   1      32.614  33.913  28.048  1.00  0.00    -0.237 OA
ATOM     85  O   UNL A   1      32.688  34.723  30.383  1.00  0.00    -0.237 OA
ATOM     86  O   UNL A   1      33.590  36.122  28.567  1.00  0.00    -0.744 OA
ENDBRANCH  82  83
ENDBRANCH  54  77
BRANCH  66  87
ATOM     87  C   UNL A   1      43.457  35.100  32.105  1.00  0.00    -0.014 A 
ATOM     88  C   UNL A   1      43.357  35.450  33.464  1.00  0.00     0.010 A 
ATOM     89  C   UNL A   1      43.999  36.024  31.195  1.00  0.00     0.010 A 
ATOM     90  C   UNL A   1      43.746  36.721  33.895  1.00  0.00     0.020 A 
ATOM     91  C   UNL A   1      44.414  37.287  31.626  1.00  0.00     0.020 A 
ATOM     92  C   UNL A   1      44.265  37.634  32.971  1.00  0.00     0.054 A 
BRANCH  92  93
ATOM     93  S   UNL A   1      44.775  39.275  33.552  1.00  0.00     0.124 S 
ATOM     94  O   UNL A   1      44.944  40.000  32.296  1.00  0.00    -0.237 OA
ATOM     95  O   UNL A   1      43.640  39.695  34.371  1.00  0.00    -0.237 OA
ATOM     96  O   UNL A   1      46.006  39.012  34.292  1.00  0.00    -0.744 OA
ENDBRANCH  92  93
ENDBRANCH  66  87
ENDBRANCH  40  41
ENDBRANCH  32  35
ENDBRANCH  30  31
ENDBRANCH   1  30
TORSDOF 18
ENDMDL
