MODEL 1
REMARK VINA RESULT:     -11.4      0.000      0.000
REMARK SMILES O=C(NCCCNC(=O)c1ccccc1[C@H](O)c1ccc(F)c(F)c1)c1ccc(-c2c3nc(c(-c4ccc(S(=O)(=O)[O-])cc4)c4ccc([nH]4)c(-c4ccc(S(=O)(=O)[O-])cc4)c4nc(c(-c5ccc(S(=O)(=O)[O-])cc5)c5ccc2[nH]5)C=C4)C=C3)cc1
REMARK SMILES IDX 4 1 3 2 1 3 2 4 26 6 27 7 85 8 28 9 84 10 29 11 30 12 31 13
REMARK SMILES IDX 78 14 32 15 83 16 77 17 79 18 33 19 82 20 76 21 75 22 34 24
REMARK SMILES IDX 64 25 45 26 63 27 46 28 49 29 62 30 80 31 47 32 48 33 61 35
REMARK SMILES IDX 81 36 50 37 35 38 36 39 44 40 37 41 43 42 38 43 39 44 40 45
REMARK SMILES IDX 41 46 42 47 65 48 66 49 74 50 67 51 73 52 68 53 69 54 70 55
REMARK SMILES IDX 71 56 72 57 51 58 52 59 60 60 53 61 59 62 54 63 55 64 56 65
REMARK SMILES IDX 57 66 58 67 5 68 6 69 7 70 8 71 9 73 10 74 11 75 15 76 12 77
REMARK SMILES IDX 14 78 13 79 16 80 18 81 19 82 25 83 20 84 23 85 21 86 24 87
REMARK SMILES IDX 22 88 17 89
REMARK H PARENT 3 5 79 23 49 34 7 72 17 90
REMARK Flexibility Score: inf
ROOT
ATOM      1  C   UNL A   1      36.783  23.807  25.164  1.00  0.00     0.118 C 
ENDROOT
BRANCH   1   2
ATOM      2  N   UNL A   1      37.823  22.833  25.468  1.00  0.00    -0.352 N 
ATOM      3  O   UNL A   1      39.793  22.029  26.205  1.00  0.00    -0.269 OA
ATOM      4  C   UNL A   1      39.006  22.966  26.160  1.00  0.00     0.251 C 
ATOM      5  H   UNL A   1      37.652  21.928  25.119  1.00  0.00     0.163 HD
BRANCH   4   6
ATOM      6  C   UNL A   1      39.342  24.247  26.817  1.00  0.00     0.039 A 
ATOM      7  C   UNL A   1      40.077  25.227  26.150  1.00  0.00     0.014 A 
ATOM      8  C   UNL A   1      38.912  24.470  28.128  1.00  0.00     0.014 A 
ATOM      9  C   UNL A   1      40.551  26.332  26.847  1.00  0.00     0.010 A 
ATOM     10  C   UNL A   1      39.293  25.638  28.793  1.00  0.00     0.010 A 
ATOM     11  C   UNL A   1      40.154  26.558  28.172  1.00  0.00    -0.014 A 
BRANCH  11  12
ATOM     12  C   UNL A   1      40.602  27.782  28.881  1.00  0.00     0.031 A 
ATOM     13  C   UNL A   1      41.959  27.848  29.525  1.00  0.00     0.074 A 
ATOM     14  C   UNL A   1      39.766  28.837  28.953  1.00  0.00     0.049 A 
ATOM     15  N   UNL A   1      42.479  28.805  30.252  1.00  0.00    -0.248 NA
ATOM     16  C   UNL A   1      42.845  26.689  29.336  1.00  0.00     0.031 C 
ATOM     17  C   UNL A   1      38.427  28.894  28.359  1.00  0.00     0.029 A 
ATOM     18  N   UNL A   1      39.911  30.058  29.559  1.00  0.00    -0.354 N 
ATOM     19  C   UNL A   1      43.733  28.349  30.640  1.00  0.00     0.074 A 
ATOM     20  C   UNL A   1      43.891  27.024  30.077  1.00  0.00     0.031 C 
ATOM     21  C   UNL A   1      37.884  30.092  28.610  1.00  0.00     0.029 A 
ATOM     22  C   UNL A   1      38.799  30.858  29.448  1.00  0.00     0.049 A 
ATOM     23  H   UNL A   1      40.732  30.336  30.026  1.00  0.00     0.167 HD
ATOM     24  C   UNL A   1      44.664  28.976  31.401  1.00  0.00     0.031 A 
ATOM     25  C   UNL A   1      38.519  32.056  29.993  1.00  0.00     0.031 A 
ATOM     26  C   UNL A   1      44.491  30.291  31.959  1.00  0.00     0.049 A 
ATOM     27  C   UNL A   1      39.545  32.718  30.861  1.00  0.00     0.074 A 
ATOM     28  C   UNL A   1      45.383  31.029  32.719  1.00  0.00     0.029 A 
ATOM     29  N   UNL A   1      43.344  31.063  31.828  1.00  0.00    -0.354 N 
ATOM     30  N   UNL A   1      40.735  32.283  31.199  1.00  0.00    -0.248 NA
ATOM     31  C   UNL A   1      39.198  34.030  31.420  1.00  0.00     0.031 C 
ATOM     32  C   UNL A   1      44.756  32.222  33.090  1.00  0.00     0.029 A 
ATOM     33  C   UNL A   1      43.496  32.258  32.512  1.00  0.00     0.049 A 
ATOM     34  H   UNL A   1      42.541  30.800  31.322  1.00  0.00     0.167 HD
ATOM     35  C   UNL A   1      41.290  33.276  31.994  1.00  0.00     0.074 A 
ATOM     36  C   UNL A   1      40.306  34.337  32.083  1.00  0.00     0.031 C 
ATOM     37  C   UNL A   1      42.507  33.306  32.589  1.00  0.00     0.031 A 
BRANCH  24  38
ATOM     38  C   UNL A   1      45.929  28.218  31.716  1.00  0.00    -0.014 A 
ATOM     39  C   UNL A   1      47.063  28.302  30.887  1.00  0.00     0.010 A 
ATOM     40  C   UNL A   1      45.982  27.407  32.864  1.00  0.00     0.010 A 
ATOM     41  C   UNL A   1      48.201  27.539  31.167  1.00  0.00     0.020 A 
ATOM     42  C   UNL A   1      47.129  26.664  33.163  1.00  0.00     0.020 A 
ATOM     43  C   UNL A   1      48.222  26.714  32.296  1.00  0.00     0.054 A 
BRANCH  43  44
ATOM     44  S   UNL A   1      49.698  25.711  32.619  1.00  0.00     0.124 S 
ATOM     45  O   UNL A   1      50.042  25.243  31.278  1.00  0.00    -0.237 OA
ATOM     46  O   UNL A   1      50.625  26.678  33.200  1.00  0.00    -0.237 OA
ATOM     47  O   UNL A   1      49.224  24.678  33.537  1.00  0.00    -0.744 OA
ENDBRANCH  43  44
ENDBRANCH  24  38
BRANCH  25  48
ATOM     48  C   UNL A   1      37.188  32.666  29.736  1.00  0.00    -0.014 A 
ATOM     49  C   UNL A   1      36.129  32.482  30.638  1.00  0.00     0.010 A 
ATOM     50  C   UNL A   1      37.011  33.529  28.636  1.00  0.00     0.010 A 
ATOM     51  C   UNL A   1      34.921  33.161  30.455  1.00  0.00     0.020 A 
ATOM     52  C   UNL A   1      35.816  34.229  28.464  1.00  0.00     0.020 A 
ATOM     53  C   UNL A   1      34.777  34.040  29.376  1.00  0.00     0.054 A 
BRANCH  53  54
ATOM     54  S   UNL A   1      33.241  34.994  29.225  1.00  0.00     0.124 S 
ATOM     55  O   UNL A   1      33.732  36.292  28.773  1.00  0.00    -0.237 OA
ATOM     56  O   UNL A   1      32.486  34.224  28.239  1.00  0.00    -0.237 OA
ATOM     57  O   UNL A   1      32.689  34.969  30.577  1.00  0.00    -0.744 OA
ENDBRANCH  53  54
ENDBRANCH  25  48
BRANCH  37  58
ATOM     58  C   UNL A   1      42.875  34.543  33.360  1.00  0.00    -0.014 A 
ATOM     59  C   UNL A   1      42.617  34.648  34.738  1.00  0.00     0.010 A 
ATOM     60  C   UNL A   1      43.579  35.574  32.711  1.00  0.00     0.010 A 
ATOM     61  C   UNL A   1      43.055  35.766  35.453  1.00  0.00     0.020 A 
ATOM     62  C   UNL A   1      44.039  36.681  33.426  1.00  0.00     0.020 A 
ATOM     63  C   UNL A   1      43.771  36.771  34.793  1.00  0.00     0.054 A 
BRANCH  63  64
ATOM     64  S   UNL A   1      44.409  38.167  35.760  1.00  0.00     0.124 S 
ATOM     65  O   UNL A   1      45.850  37.931  35.722  1.00  0.00    -0.237 OA
ATOM     66  O   UNL A   1      43.942  39.324  35.002  1.00  0.00    -0.237 OA
ATOM     67  O   UNL A   1      43.785  37.995  37.070  1.00  0.00    -0.744 OA
ENDBRANCH  63  64
ENDBRANCH  37  58
ENDBRANCH  11  12
ENDBRANCH   4   6
ENDBRANCH   1   2
BRANCH   1  68
ATOM     68  C   UNL A   1      35.433  23.485  25.790  1.00  0.00     0.042 C 
BRANCH  68  69
ATOM     69  C   UNL A   1      34.483  22.736  24.875  1.00  0.00     0.118 C 
BRANCH  69  70
ATOM     70  N   UNL A   1      33.123  22.664  25.364  1.00  0.00    -0.352 N 
ATOM     71  C   UNL A   1      32.045  23.413  24.992  1.00  0.00     0.251 C 
ATOM     72  H   UNL A   1      32.954  21.985  26.057  1.00  0.00     0.163 HD
ATOM     73  O   UNL A   1      30.920  23.094  25.371  1.00  0.00    -0.269 OA
BRANCH  71  74
ATOM     74  C   UNL A   1      32.182  24.636  24.175  1.00  0.00     0.045 A 
ATOM     75  C   UNL A   1      32.269  24.389  22.791  1.00  0.00     0.014 A 
ATOM     76  C   UNL A   1      32.405  25.933  24.681  1.00  0.00    -0.002 A 
ATOM     77  C   UNL A   1      32.563  25.415  21.897  1.00  0.00     0.001 A 
ATOM     78  C   UNL A   1      32.743  26.944  23.749  1.00  0.00     0.007 A 
ATOM     79  C   UNL A   1      32.811  26.694  22.378  1.00  0.00     0.000 A 
BRANCH  76  80
ATOM     80  C   UNL A   1      32.265  26.373  26.135  1.00  0.00     0.175 C 
BRANCH  80  81
ATOM     81  C   UNL A   1      32.790  27.782  26.453  1.00  0.00    -0.012 A 
ATOM     82  C   UNL A   1      34.156  28.063  26.680  1.00  0.00     0.010 A 
ATOM     83  C   UNL A   1      31.882  28.855  26.567  1.00  0.00     0.049 A 
ATOM     84  C   UNL A   1      34.597  29.354  26.988  1.00  0.00     0.043 A 
ATOM     85  C   UNL A   1      32.329  30.141  26.874  1.00  0.00     0.159 A 
ATOM     86  C   UNL A   1      33.677  30.388  27.084  1.00  0.00     0.158 A 
ATOM     87  F   UNL A   1      31.440  31.139  26.972  1.00  0.00    -0.204 F 
ATOM     88  F   UNL A   1      34.104  31.620  27.389  1.00  0.00    -0.204 F 
ENDBRANCH  80  81
BRANCH  80  89
ATOM     89  O   UNL A   1      30.944  26.215  26.642  1.00  0.00    -0.384 OA
ATOM     90  H   UNL A   1      30.784  25.280  26.845  1.00  0.00     0.211 HD
ENDBRANCH  80  89
ENDBRANCH  76  80
ENDBRANCH  71  74
ENDBRANCH  69  70
ENDBRANCH  68  69
ENDBRANCH   1  68
TORSDOF 16
ENDMDL
MODEL 2
REMARK VINA RESULT:     -11.4      3.194      9.257
REMARK SMILES O=C(NCCCNC(=O)c1ccccc1[C@H](O)c1ccc(F)c(F)c1)c1ccc(-c2c3nc(c(-c4ccc(S(=O)(=O)[O-])cc4)c4ccc([nH]4)c(-c4ccc(S(=O)(=O)[O-])cc4)c4nc(c(-c5ccc(S(=O)(=O)[O-])cc5)c5ccc2[nH]5)C=C4)C=C3)cc1
REMARK SMILES IDX 4 1 3 2 1 3 2 4 26 6 27 7 85 8 28 9 84 10 29 11 30 12 31 13
REMARK SMILES IDX 78 14 32 15 83 16 77 17 79 18 33 19 82 20 76 21 75 22 34 24
REMARK SMILES IDX 64 25 45 26 63 27 46 28 49 29 62 30 80 31 47 32 48 33 61 35
REMARK SMILES IDX 81 36 50 37 35 38 36 39 44 40 37 41 43 42 38 43 39 44 40 45
REMARK SMILES IDX 41 46 42 47 65 48 66 49 74 50 67 51 73 52 68 53 69 54 70 55
REMARK SMILES IDX 71 56 72 57 51 58 52 59 60 60 53 61 59 62 54 63 55 64 56 65
REMARK SMILES IDX 57 66 58 67 5 68 6 69 7 70 8 71 9 73 10 74 11 75 15 76 12 77
REMARK SMILES IDX 14 78 13 79 16 80 18 81 19 82 25 83 20 84 23 85 21 86 24 87
REMARK SMILES IDX 22 88 17 89
REMARK H PARENT 3 5 79 23 49 34 7 72 17 90
REMARK Flexibility Score: inf
ROOT
ATOM      1  C   UNL A   1      33.532  28.338  27.380  1.00  0.00     0.118 C 
ENDROOT
BRANCH   1   2
ATOM      2  N   UNL A   1      33.525  29.783  27.567  1.00  0.00    -0.352 N 
ATOM      3  O   UNL A   1      34.250  31.821  28.192  1.00  0.00    -0.269 OA
ATOM      4  C   UNL A   1      34.510  30.638  28.008  1.00  0.00     0.251 C 
ATOM      5  H   UNL A   1      32.673  30.221  27.340  1.00  0.00     0.163 HD
BRANCH   4   6
ATOM      6  C   UNL A   1      35.867  30.125  28.293  1.00  0.00     0.039 A 
ATOM      7  C   UNL A   1      36.201  29.638  29.557  1.00  0.00     0.014 A 
ATOM      8  C   UNL A   1      36.822  30.131  27.273  1.00  0.00     0.014 A 
ATOM      9  C   UNL A   1      37.527  29.349  29.859  1.00  0.00     0.010 A 
ATOM     10  C   UNL A   1      38.132  29.730  27.549  1.00  0.00     0.010 A 
ATOM     11  C   UNL A   1      38.505  29.379  28.855  1.00  0.00    -0.014 A 
BRANCH  11  12
ATOM     12  C   UNL A   1      39.903  28.992  29.172  1.00  0.00     0.031 A 
ATOM     13  C   UNL A   1      40.849  29.970  29.810  1.00  0.00     0.074 A 
ATOM     14  C   UNL A   1      40.319  27.748  28.865  1.00  0.00     0.049 A 
ATOM     15  N   UNL A   1      42.122  29.827  30.081  1.00  0.00    -0.248 NA
ATOM     16  C   UNL A   1      40.299  31.281  30.189  1.00  0.00     0.031 C 
ATOM     17  C   UNL A   1      39.490  26.707  28.252  1.00  0.00     0.029 A 
ATOM     18  N   UNL A   1      41.542  27.147  29.020  1.00  0.00    -0.354 N 
ATOM     19  C   UNL A   1      42.535  31.039  30.622  1.00  0.00     0.074 A 
ATOM     20  C   UNL A   1      41.379  31.910  30.631  1.00  0.00     0.031 C 
ATOM     21  C   UNL A   1      40.218  25.593  28.102  1.00  0.00     0.029 A 
ATOM     22  C   UNL A   1      41.584  25.863  28.533  1.00  0.00     0.049 A 
ATOM     23  H   UNL A   1      42.314  27.592  29.438  1.00  0.00     0.167 HD
ATOM     24  C   UNL A   1      43.767  31.393  31.064  1.00  0.00     0.031 A 
ATOM     25  C   UNL A   1      42.612  25.004  28.403  1.00  0.00     0.031 A 
ATOM     26  C   UNL A   1      44.909  30.517  31.043  1.00  0.00     0.049 A 
ATOM     27  C   UNL A   1      43.974  25.425  28.864  1.00  0.00     0.074 A 
ATOM     28  C   UNL A   1      46.193  30.767  31.494  1.00  0.00     0.029 A 
ATOM     29  N   UNL A   1      44.908  29.225  30.534  1.00  0.00    -0.354 N 
ATOM     30  N   UNL A   1      44.343  26.567  29.394  1.00  0.00    -0.248 NA
ATOM     31  C   UNL A   1      45.060  24.448  28.713  1.00  0.00     0.031 C 
ATOM     32  C   UNL A   1      46.981  29.646  31.210  1.00  0.00     0.029 A 
ATOM     33  C   UNL A   1      46.175  28.674  30.637  1.00  0.00     0.049 A 
ATOM     34  H   UNL A   1      44.123  28.768  30.156  1.00  0.00     0.167 HD
ATOM     35  C   UNL A   1      45.698  26.440  29.661  1.00  0.00     0.074 A 
ATOM     36  C   UNL A   1      46.085  25.108  29.238  1.00  0.00     0.031 C 
ATOM     37  C   UNL A   1      46.543  27.345  30.214  1.00  0.00     0.031 A 
BRANCH  24  38
ATOM     38  C   UNL A   1      43.948  32.806  31.556  1.00  0.00    -0.014 A 
ATOM     39  C   UNL A   1      44.338  33.844  30.689  1.00  0.00     0.010 A 
ATOM     40  C   UNL A   1      43.723  33.101  32.913  1.00  0.00     0.010 A 
ATOM     41  C   UNL A   1      44.561  35.133  31.184  1.00  0.00     0.020 A 
ATOM     42  C   UNL A   1      43.918  34.394  33.406  1.00  0.00     0.020 A 
ATOM     43  C   UNL A   1      44.362  35.396  32.543  1.00  0.00     0.054 A 
BRANCH  43  44
ATOM     44  S   UNL A   1      44.689  37.068  33.166  1.00  0.00     0.124 S 
ATOM     45  O   UNL A   1      44.358  36.929  34.583  1.00  0.00    -0.237 OA
ATOM     46  O   UNL A   1      46.107  37.252  32.870  1.00  0.00    -0.237 OA
ATOM     47  O   UNL A   1      43.780  37.912  32.394  1.00  0.00    -0.744 OA
ENDBRANCH  43  44
ENDBRANCH  24  38
BRANCH  25  48
ATOM     48  C   UNL A   1      42.363  23.677  27.779  1.00  0.00    -0.014 A 
ATOM     49  C   UNL A   1      42.695  23.444  26.435  1.00  0.00     0.010 A 
ATOM     50  C   UNL A   1      41.893  22.608  28.567  1.00  0.00     0.010 A 
ATOM     51  C   UNL A   1      42.576  22.161  25.893  1.00  0.00     0.020 A 
ATOM     52  C   UNL A   1      41.798  21.320  28.036  1.00  0.00     0.020 A 
ATOM     53  C   UNL A   1      42.140  21.105  26.701  1.00  0.00     0.054 A 
BRANCH  53  54
ATOM     54  S   UNL A   1      42.102  19.430  26.004  1.00  0.00     0.124 S 
ATOM     55  O   UNL A   1      42.649  18.633  27.098  1.00  0.00    -0.237 OA
ATOM     56  O   UNL A   1      40.681  19.235  25.727  1.00  0.00    -0.237 OA
ATOM     57  O   UNL A   1      42.950  19.533  24.819  1.00  0.00    -0.744 OA
ENDBRANCH  53  54
ENDBRANCH  25  48
BRANCH  37  58
ATOM     58  C   UNL A   1      47.968  26.921  30.439  1.00  0.00    -0.014 A 
ATOM     59  C   UNL A   1      48.975  27.225  29.507  1.00  0.00     0.010 A 
ATOM     60  C   UNL A   1      48.315  26.295  31.650  1.00  0.00     0.010 A 
ATOM     61  C   UNL A   1      50.308  26.908  29.784  1.00  0.00     0.020 A 
ATOM     62  C   UNL A   1      49.648  25.997  31.940  1.00  0.00     0.020 A 
ATOM     63  C   UNL A   1      50.636  26.303  31.002  1.00  0.00     0.054 A 
BRANCH  63  64
ATOM     64  S   UNL A   1      52.383  25.984  31.377  1.00  0.00     0.124 S 
ATOM     65  O   UNL A   1      52.993  26.034  30.051  1.00  0.00    -0.237 OA
ATOM     66  O   UNL A   1      52.726  27.088  32.269  1.00  0.00    -0.237 OA
ATOM     67  O   UNL A   1      52.367  24.665  32.005  1.00  0.00    -0.744 OA
ENDBRANCH  63  64
ENDBRANCH  37  58
ENDBRANCH  11  12
ENDBRANCH   4   6
ENDBRANCH   1   2
BRANCH   1  68
ATOM     68  C   UNL A   1      33.714  27.902  25.933  1.00  0.00     0.042 C 
BRANCH  68  69
ATOM     69  C   UNL A   1      33.533  29.016  24.919  1.00  0.00     0.118 C 
BRANCH  69  70
ATOM     70  N   UNL A   1      34.113  28.737  23.623  1.00  0.00    -0.352 N 
ATOM     71  C   UNL A   1      33.578  28.029  22.587  1.00  0.00     0.251 C 
ATOM     72  H   UNL A   1      35.011  29.108  23.469  1.00  0.00     0.163 HD
ATOM     73  O   UNL A   1      34.126  28.047  21.487  1.00  0.00    -0.269 OA
BRANCH  71  74
ATOM     74  C   UNL A   1      32.372  27.190  22.748  1.00  0.00     0.045 A 
ATOM     75  C   UNL A   1      31.227  27.910  23.143  1.00  0.00     0.014 A 
ATOM     76  C   UNL A   1      32.350  25.781  22.713  1.00  0.00    -0.002 A 
ATOM     77  C   UNL A   1      30.053  27.250  23.496  1.00  0.00     0.001 A 
ATOM     78  C   UNL A   1      31.152  25.141  23.118  1.00  0.00     0.007 A 
ATOM     79  C   UNL A   1      30.019  25.862  23.493  1.00  0.00     0.000 A 
BRANCH  76  80
ATOM     80  C   UNL A   1      33.473  24.869  22.231  1.00  0.00     0.175 C 
BRANCH  80  81
ATOM     81  C   UNL A   1      34.391  24.310  23.329  1.00  0.00    -0.012 A 
ATOM     82  C   UNL A   1      34.356  24.763  24.667  1.00  0.00     0.010 A 
ATOM     83  C   UNL A   1      35.346  23.325  23.004  1.00  0.00     0.049 A 
ATOM     84  C   UNL A   1      35.221  24.246  25.638  1.00  0.00     0.043 A 
ATOM     85  C   UNL A   1      36.205  22.813  23.978  1.00  0.00     0.159 A 
ATOM     86  C   UNL A   1      36.144  23.272  25.286  1.00  0.00     0.158 A 
ATOM     87  F   UNL A   1      37.099  21.875  23.637  1.00  0.00    -0.204 F 
ATOM     88  F   UNL A   1      36.976  22.788  26.217  1.00  0.00    -0.204 F 
ENDBRANCH  80  81
BRANCH  80  89
ATOM     89  O   UNL A   1      33.015  23.815  21.390  1.00  0.00    -0.384 OA
ATOM     90  H   UNL A   1      32.187  24.081  20.959  1.00  0.00     0.211 HD
ENDBRANCH  80  89
ENDBRANCH  76  80
ENDBRANCH  71  74
ENDBRANCH  69  70
ENDBRANCH  68  69
ENDBRANCH   1  68
TORSDOF 16
ENDMDL
MODEL 3
REMARK VINA RESULT:     -11.4      5.068     10.234
REMARK SMILES O=C(NCCCNC(=O)c1ccccc1[C@H](O)c1ccc(F)c(F)c1)c1ccc(-c2c3nc(c(-c4ccc(S(=O)(=O)[O-])cc4)c4ccc([nH]4)c(-c4ccc(S(=O)(=O)[O-])cc4)c4nc(c(-c5ccc(S(=O)(=O)[O-])cc5)c5ccc2[nH]5)C=C4)C=C3)cc1
REMARK SMILES IDX 4 1 3 2 1 3 2 4 26 6 27 7 85 8 28 9 84 10 29 11 30 12 31 13
REMARK SMILES IDX 78 14 32 15 83 16 77 17 79 18 33 19 82 20 76 21 75 22 34 24
REMARK SMILES IDX 64 25 45 26 63 27 46 28 49 29 62 30 80 31 47 32 48 33 61 35
REMARK SMILES IDX 81 36 50 37 35 38 36 39 44 40 37 41 43 42 38 43 39 44 40 45
REMARK SMILES IDX 41 46 42 47 65 48 66 49 74 50 67 51 73 52 68 53 69 54 70 55
REMARK SMILES IDX 71 56 72 57 51 58 52 59 60 60 53 61 59 62 54 63 55 64 56 65
REMARK SMILES IDX 57 66 58 67 5 68 6 69 7 70 8 71 9 73 10 74 11 75 15 76 12 77
REMARK SMILES IDX 14 78 13 79 16 80 18 81 19 82 25 83 20 84 23 85 21 86 24 87
REMARK SMILES IDX 22 88 17 89
REMARK H PARENT 3 5 79 23 49 34 7 72 17 90
REMARK Flexibility Score: inf
ROOT
ATOM      1  C   UNL A   1      39.054  20.632  25.750  1.00  0.00     0.118 C 
ENDROOT
BRANCH   1   2
ATOM      2  N   UNL A   1      40.011  19.540  25.872  1.00  0.00    -0.352 N 
ATOM      3  O   UNL A   1      42.000  18.508  26.084  1.00  0.00    -0.269 OA
ATOM      4  C   UNL A   1      41.363  19.552  26.132  1.00  0.00     0.251 C 
ATOM      5  H   UNL A   1      39.625  18.642  25.747  1.00  0.00     0.163 HD
BRANCH   4   6
ATOM      6  C   UNL A   1      42.050  20.826  26.433  1.00  0.00     0.039 A 
ATOM      7  C   UNL A   1      42.238  21.251  27.748  1.00  0.00     0.014 A 
ATOM      8  C   UNL A   1      42.517  21.610  25.374  1.00  0.00     0.014 A 
ATOM      9  C   UNL A   1      42.703  22.535  28.001  1.00  0.00     0.010 A 
ATOM     10  C   UNL A   1      43.092  22.856  25.636  1.00  0.00     0.010 A 
ATOM     11  C   UNL A   1      43.148  23.348  26.950  1.00  0.00    -0.014 A 
BRANCH  11  12
ATOM     12  C   UNL A   1      43.717  24.688  27.239  1.00  0.00     0.031 A 
ATOM     13  C   UNL A   1      42.846  25.805  27.742  1.00  0.00     0.074 A 
ATOM     14  C   UNL A   1      45.032  24.896  27.031  1.00  0.00     0.049 A 
ATOM     15  N   UNL A   1      43.159  27.055  27.968  1.00  0.00    -0.248 NA
ATOM     16  C   UNL A   1      41.438  25.479  28.021  1.00  0.00     0.031 C 
ATOM     17  C   UNL A   1      45.981  23.887  26.553  1.00  0.00     0.029 A 
ATOM     18  N   UNL A   1      45.799  26.023  27.187  1.00  0.00    -0.354 N 
ATOM     19  C   UNL A   1      41.983  27.675  28.376  1.00  0.00     0.074 A 
ATOM     20  C   UNL A   1      40.947  26.664  28.355  1.00  0.00     0.031 C 
ATOM     21  C   UNL A   1      47.202  24.431  26.476  1.00  0.00     0.029 A 
ATOM     22  C   UNL A   1      47.111  25.844  26.820  1.00  0.00     0.049 A 
ATOM     23  H   UNL A   1      45.444  26.875  27.528  1.00  0.00     0.167 HD
ATOM     24  C   UNL A   1      41.787  28.969  28.729  1.00  0.00     0.031 A 
ATOM     25  C   UNL A   1      48.125  26.724  26.725  1.00  0.00     0.031 A 
ATOM     26  C   UNL A   1      42.826  29.965  28.739  1.00  0.00     0.049 A 
ATOM     27  C   UNL A   1      47.880  28.158  27.084  1.00  0.00     0.074 A 
ATOM     28  C   UNL A   1      42.739  31.296  29.109  1.00  0.00     0.029 A 
ATOM     29  N   UNL A   1      44.141  29.742  28.353  1.00  0.00    -0.354 N 
ATOM     30  N   UNL A   1      46.768  28.722  27.490  1.00  0.00    -0.248 NA
ATOM     31  C   UNL A   1      49.022  29.075  26.978  1.00  0.00     0.031 C 
ATOM     32  C   UNL A   1      43.988  31.890  28.895  1.00  0.00     0.029 A 
ATOM     33  C   UNL A   1      44.869  30.916  28.451  1.00  0.00     0.049 A 
ATOM     34  H   UNL A   1      44.503  28.877  28.053  1.00  0.00     0.167 HD
ATOM     35  C   UNL A   1      47.078  30.057  27.708  1.00  0.00     0.074 A 
ATOM     36  C   UNL A   1      48.485  30.215  27.393  1.00  0.00     0.031 C 
ATOM     37  C   UNL A   1      46.270  31.057  28.137  1.00  0.00     0.031 A 
BRANCH  24  38
ATOM     38  C   UNL A   1      40.381  29.387  29.079  1.00  0.00    -0.014 A 
ATOM     39  C   UNL A   1      39.437  29.704  28.085  1.00  0.00     0.010 A 
ATOM     40  C   UNL A   1      39.999  29.464  30.431  1.00  0.00     0.010 A 
ATOM     41  C   UNL A   1      38.160  30.150  28.439  1.00  0.00     0.020 A 
ATOM     42  C   UNL A   1      38.714  29.883  30.788  1.00  0.00     0.020 A 
ATOM     43  C   UNL A   1      37.811  30.250  29.789  1.00  0.00     0.054 A 
BRANCH  43  44
ATOM     44  S   UNL A   1      36.159  30.862  30.223  1.00  0.00     0.124 S 
ATOM     45  O   UNL A   1      35.357  30.375  29.102  1.00  0.00    -0.237 OA
ATOM     46  O   UNL A   1      35.901  30.213  31.505  1.00  0.00    -0.237 OA
ATOM     47  O   UNL A   1      36.328  32.311  30.284  1.00  0.00    -0.744 OA
ENDBRANCH  43  44
ENDBRANCH  24  38
BRANCH  25  48
ATOM     48  C   UNL A   1      49.446  26.244  26.238  1.00  0.00    -0.014 A 
ATOM     49  C   UNL A   1      49.906  26.589  24.958  1.00  0.00     0.010 A 
ATOM     50  C   UNL A   1      50.296  25.529  27.105  1.00  0.00     0.010 A 
ATOM     51  C   UNL A   1      51.199  26.241  24.557  1.00  0.00     0.020 A 
ATOM     52  C   UNL A   1      51.597  25.204  26.718  1.00  0.00     0.020 A 
ATOM     53  C   UNL A   1      52.040  25.562  25.444  1.00  0.00     0.054 A 
BRANCH  53  54
ATOM     54  S   UNL A   1      53.750  25.222  24.941  1.00  0.00     0.124 S 
ATOM     55  O   UNL A   1      53.794  25.800  23.601  1.00  0.00    -0.237 OA
ATOM     56  O   UNL A   1      54.525  25.926  25.960  1.00  0.00    -0.237 OA
ATOM     57  O   UNL A   1      53.841  23.765  24.998  1.00  0.00    -0.744 OA
ENDBRANCH  53  54
ENDBRANCH  25  48
BRANCH  37  58
ATOM     58  C   UNL A   1      46.888  32.414  28.337  1.00  0.00    -0.014 A 
ATOM     59  C   UNL A   1      47.504  32.763  29.551  1.00  0.00     0.010 A 
ATOM     60  C   UNL A   1      46.936  33.312  27.256  1.00  0.00     0.010 A 
ATOM     61  C   UNL A   1      48.156  33.992  29.680  1.00  0.00     0.020 A 
ATOM     62  C   UNL A   1      47.607  34.531  27.373  1.00  0.00     0.020 A 
ATOM     63  C   UNL A   1      48.210  34.864  28.587  1.00  0.00     0.054 A 
BRANCH  63  64
ATOM     64  S   UNL A   1      49.142  36.413  28.751  1.00  0.00     0.124 S 
ATOM     65  O   UNL A   1      50.015  36.369  27.580  1.00  0.00    -0.237 OA
ATOM     66  O   UNL A   1      48.091  37.425  28.713  1.00  0.00    -0.237 OA
ATOM     67  O   UNL A   1      49.820  36.274  30.038  1.00  0.00    -0.744 OA
ENDBRANCH  63  64
ENDBRANCH  37  58
ENDBRANCH  11  12
ENDBRANCH   4   6
ENDBRANCH   1   2
BRANCH   1  68
ATOM     68  C   UNL A   1      37.782  20.259  25.002  1.00  0.00     0.042 C 
BRANCH  68  69
ATOM     69  C   UNL A   1      36.855  21.428  24.726  1.00  0.00     0.118 C 
BRANCH  69  70
ATOM     70  N   UNL A   1      36.117  21.884  25.883  1.00  0.00    -0.352 N 
ATOM     71  C   UNL A   1      34.860  22.412  25.936  1.00  0.00     0.251 C 
ATOM     72  H   UNL A   1      36.583  21.801  26.747  1.00  0.00     0.163 HD
ATOM     73  O   UNL A   1      34.310  22.573  27.024  1.00  0.00    -0.269 OA
BRANCH  71  74
ATOM     74  C   UNL A   1      34.139  22.849  24.723  1.00  0.00     0.045 A 
ATOM     75  C   UNL A   1      34.682  24.004  24.124  1.00  0.00     0.014 A 
ATOM     76  C   UNL A   1      32.912  22.323  24.271  1.00  0.00    -0.002 A 
ATOM     77  C   UNL A   1      34.028  24.639  23.072  1.00  0.00     0.001 A 
ATOM     78  C   UNL A   1      32.254  23.018  23.227  1.00  0.00     0.007 A 
ATOM     79  C   UNL A   1      32.806  24.151  22.629  1.00  0.00     0.000 A 
BRANCH  76  80
ATOM     80  C   UNL A   1      32.242  21.043  24.757  1.00  0.00     0.175 C 
BRANCH  80  81
ATOM     81  C   UNL A   1      32.814  19.737  24.184  1.00  0.00    -0.012 A 
ATOM     82  C   UNL A   1      32.200  19.023  23.131  1.00  0.00     0.010 A 
ATOM     83  C   UNL A   1      33.985  19.184  24.743  1.00  0.00     0.049 A 
ATOM     84  C   UNL A   1      32.737  17.825  22.647  1.00  0.00     0.043 A 
ATOM     85  C   UNL A   1      34.516  17.989  24.254  1.00  0.00     0.159 A 
ATOM     86  C   UNL A   1      33.895  17.314  23.214  1.00  0.00     0.158 A 
ATOM     87  F   UNL A   1      35.632  17.493  24.805  1.00  0.00    -0.204 F 
ATOM     88  F   UNL A   1      34.399  16.162  22.753  1.00  0.00    -0.204 F 
ENDBRANCH  80  81
BRANCH  80  89
ATOM     89  O   UNL A   1      32.158  20.960  26.176  1.00  0.00    -0.384 OA
ATOM     90  H   UNL A   1      33.007  21.223  26.567  1.00  0.00     0.211 HD
ENDBRANCH  80  89
ENDBRANCH  76  80
ENDBRANCH  71  74
ENDBRANCH  69  70
ENDBRANCH  68  69
ENDBRANCH   1  68
TORSDOF 16
ENDMDL
