MODEL 1
REMARK VINA RESULT:     -12.2      0.000      0.000
REMARK SMILES Cc1ccc(NS(=O)(=O)c2cc(C(=O)NCCCNC(=O)c3ccc(-c4c5nc(c(-c6ccc(S(=O)(=O)[O-])cc6)c6ccc([nH]6)c(-c6ccc(S(=O)(=O)[O-])cc6)c6nc(c(-c7ccc(S(=O)(=O)[O-])cc7)c7ccc4[nH]7)C=C6)C=C5)cc3)ccc2Cl)nc1
REMARK SMILES IDX 17 1 16 2 15 3 13 4 14 5 12 7 10 8 11 9 84 10 83 11 85 12
REMARK SMILES IDX 82 13 7 14 8 15 9 16 6 17 5 19 1 20 2 21 3 22 87 23 4 24
REMARK SMILES IDX 86 25 18 26 19 27 20 28 21 30 22 31 23 32 81 33 24 34 80 35
REMARK SMILES IDX 25 36 26 37 27 38 74 39 28 40 79 41 73 42 75 43 29 44 78 45
REMARK SMILES IDX 72 46 71 47 30 49 60 50 41 51 59 52 42 53 45 54 58 55 76 56
REMARK SMILES IDX 43 57 44 58 57 60 77 61 46 62 31 63 32 64 40 65 33 66 39 67
REMARK SMILES IDX 34 68 35 69 36 70 37 71 38 72 61 73 62 74 70 75 63 76 69 77
REMARK SMILES IDX 64 78 65 79 66 80 67 81 68 82 47 83 48 84 56 85 49 86 55 87
REMARK SMILES IDX 50 88 51 89 52 90 53 91 54 92
REMARK H PARENT 15 6 6 18 19 29 75 48 45 59
REMARK Flexibility Score: inf
ROOT
ATOM      1  C   UNL A   1      40.789  22.153  27.511  1.00  0.00     0.042 C 
ENDROOT
BRANCH   1   2
ATOM      2  C   UNL A   1      39.637  22.354  26.525  1.00  0.00     0.118 C 
BRANCH   2   3
ATOM      3  N   UNL A   1      39.269  21.093  25.909  1.00  0.00    -0.352 N 
ATOM      4  C   UNL A   1      38.166  20.654  25.226  1.00  0.00     0.251 C 
ATOM      5  O   UNL A   1      38.175  19.472  24.873  1.00  0.00    -0.269 OA
ATOM      6  H   UNL A   1      39.963  20.402  26.004  1.00  0.00     0.163 HD
BRANCH   4   7
ATOM      7  C   UNL A   1      37.023  21.521  24.806  1.00  0.00     0.041 A 
ATOM      8  C   UNL A   1      34.649  22.040  25.142  1.00  0.00     0.107 A 
ATOM      9  C   UNL A   1      35.835  21.398  25.544  1.00  0.00     0.037 A 
ATOM     10  C   UNL A   1      34.621  22.728  23.935  1.00  0.00     0.061 A 
ATOM     11  C   UNL A   1      35.831  22.979  23.281  1.00  0.00     0.023 A 
ATOM     12  Cl  UNL A   1      33.182  23.242  23.133  1.00  0.00    -0.083 Cl
ATOM     13  C   UNL A   1      37.029  22.421  23.744  1.00  0.00     0.015 A 
BRANCH   8  14
ATOM     14  S   UNL A   1      33.304  22.009  26.295  1.00  0.00     0.264 S 
ATOM     15  O   UNL A   1      32.747  23.351  26.362  1.00  0.00    -0.201 OA
ATOM     16  O   UNL A   1      33.816  21.386  27.494  1.00  0.00    -0.201 OA
BRANCH  14  17
ATOM     17  N   UNL A   1      32.095  21.000  25.759  1.00  0.00    -0.263 N 
ATOM     18  H   UNL A   1      31.164  21.254  25.951  1.00  0.00     0.182 HD
BRANCH  17  19
ATOM     19  C   UNL A   1      32.322  19.807  25.047  1.00  0.00     0.139 A 
ATOM     20  C   UNL A   1      34.147  16.726  22.812  1.00  0.00     0.046 C 
ATOM     21  C   UNL A   1      33.386  17.722  23.629  1.00  0.00    -0.033 A 
ATOM     22  C   UNL A   1      33.414  17.684  25.022  1.00  0.00     0.009 A 
ATOM     23  C   UNL A   1      32.723  18.789  23.032  1.00  0.00     0.117 A 
ATOM     24  C   UNL A   1      32.856  18.733  25.746  1.00  0.00     0.048 A 
ATOM     25  N   UNL A   1      32.181  19.826  23.716  1.00  0.00    -0.238 NA
ENDBRANCH  17  19
ENDBRANCH  14  17
ENDBRANCH   8  14
ENDBRANCH   4   7
ENDBRANCH   2   3
ENDBRANCH   1   2
BRANCH   1  26
ATOM     26  C   UNL A   1      41.750  23.344  27.531  1.00  0.00     0.118 C 
BRANCH  26  27
ATOM     27  N   UNL A   1      41.631  24.132  26.312  1.00  0.00    -0.352 N 
ATOM     28  C   UNL A   1      41.188  25.417  26.134  1.00  0.00     0.251 C 
ATOM     29  H   UNL A   1      41.913  23.670  25.489  1.00  0.00     0.163 HD
ATOM     30  O   UNL A   1      40.955  25.809  24.992  1.00  0.00    -0.269 OA
BRANCH  28  31
ATOM     31  C   UNL A   1      40.980  26.324  27.284  1.00  0.00     0.039 A 
ATOM     32  C   UNL A   1      41.865  27.395  27.452  1.00  0.00     0.014 A 
ATOM     33  C   UNL A   1      39.982  26.091  28.236  1.00  0.00     0.014 A 
ATOM     34  C   UNL A   1      41.734  28.244  28.553  1.00  0.00     0.010 A 
ATOM     35  C   UNL A   1      39.823  26.968  29.311  1.00  0.00     0.010 A 
ATOM     36  C   UNL A   1      40.705  28.045  29.486  1.00  0.00    -0.014 A 
BRANCH  36  37
ATOM     37  C   UNL A   1      40.557  28.954  30.649  1.00  0.00     0.031 A 
ATOM     38  C   UNL A   1      41.450  28.808  31.852  1.00  0.00     0.074 A 
ATOM     39  C   UNL A   1      39.600  29.901  30.631  1.00  0.00     0.049 A 
ATOM     40  N   UNL A   1      41.472  29.518  32.952  1.00  0.00    -0.248 NA
ATOM     41  C   UNL A   1      42.434  27.714  31.823  1.00  0.00     0.031 C 
ATOM     42  C   UNL A   1      38.644  30.118  29.543  1.00  0.00     0.029 A 
ATOM     43  N   UNL A   1      39.275  30.860  31.557  1.00  0.00    -0.354 N 
ATOM     44  C   UNL A   1      42.457  28.948  33.751  1.00  0.00     0.074 A 
ATOM     45  C   UNL A   1      42.984  27.813  33.024  1.00  0.00     0.031 C 
ATOM     46  C   UNL A   1      37.859  31.162  29.851  1.00  0.00     0.029 A 
ATOM     47  C   UNL A   1      38.239  31.674  31.164  1.00  0.00     0.049 A 
ATOM     48  H   UNL A   1      39.739  30.957  32.419  1.00  0.00     0.167 HD
ATOM     49  C   UNL A   1      42.894  29.342  34.972  1.00  0.00     0.031 A 
ATOM     50  C   UNL A   1      37.665  32.721  31.787  1.00  0.00     0.031 A 
ATOM     51  C   UNL A   1      42.380  30.478  35.691  1.00  0.00     0.049 A 
ATOM     52  C   UNL A   1      38.189  33.160  33.124  1.00  0.00     0.074 A 
ATOM     53  C   UNL A   1      42.787  30.982  36.913  1.00  0.00     0.029 A 
ATOM     54  N   UNL A   1      41.347  31.289  35.248  1.00  0.00    -0.354 N 
ATOM     55  N   UNL A   1      39.156  32.639  33.840  1.00  0.00    -0.248 NA
ATOM     56  C   UNL A   1      37.556  34.340  33.728  1.00  0.00     0.031 C 
ATOM     57  C   UNL A   1      41.980  32.085  37.223  1.00  0.00     0.029 A 
ATOM     58  C   UNL A   1      41.097  32.287  36.176  1.00  0.00     0.049 A 
ATOM     59  H   UNL A   1      40.862  31.174  34.399  1.00  0.00     0.167 HD
ATOM     60  C   UNL A   1      39.260  33.439  34.971  1.00  0.00     0.074 A 
ATOM     61  C   UNL A   1      38.268  34.488  34.835  1.00  0.00     0.031 C 
ATOM     62  C   UNL A   1      40.102  33.317  36.028  1.00  0.00     0.031 A 
BRANCH  49  63
ATOM     63  C   UNL A   1      43.986  28.525  35.608  1.00  0.00    -0.014 A 
ATOM     64  C   UNL A   1      45.341  28.836  35.389  1.00  0.00     0.010 A 
ATOM     65  C   UNL A   1      43.658  27.447  36.448  1.00  0.00     0.010 A 
ATOM     66  C   UNL A   1      46.348  28.054  35.962  1.00  0.00     0.020 A 
ATOM     67  C   UNL A   1      44.663  26.676  37.042  1.00  0.00     0.020 A 
ATOM     68  C   UNL A   1      46.002  26.973  36.778  1.00  0.00     0.054 A 
BRANCH  68  69
ATOM     69  S   UNL A   1      47.326  25.975  37.514  1.00  0.00     0.124 S 
ATOM     70  O   UNL A   1      48.494  26.423  36.762  1.00  0.00    -0.237 OA
ATOM     71  O   UNL A   1      47.292  26.377  38.919  1.00  0.00    -0.237 OA
ATOM     72  O   UNL A   1      46.906  24.600  37.255  1.00  0.00    -0.744 OA
ENDBRANCH  68  69
ENDBRANCH  49  63
BRANCH  50  73
ATOM     73  C   UNL A   1      36.550  33.449  31.127  1.00  0.00    -0.014 A 
ATOM     74  C   UNL A   1      36.683  33.894  29.800  1.00  0.00     0.010 A 
ATOM     75  C   UNL A   1      35.342  33.672  31.810  1.00  0.00     0.010 A 
ATOM     76  C   UNL A   1      35.629  34.562  29.171  1.00  0.00     0.020 A 
ATOM     77  C   UNL A   1      34.279  34.321  31.176  1.00  0.00     0.020 A 
ATOM     78  C   UNL A   1      34.433  34.770  29.862  1.00  0.00     0.054 A 
BRANCH  78  79
ATOM     79  S   UNL A   1      33.048  35.573  29.006  1.00  0.00     0.124 S 
ATOM     80  O   UNL A   1      32.191  35.967  30.120  1.00  0.00    -0.237 OA
ATOM     81  O   UNL A   1      33.704  36.667  28.294  1.00  0.00    -0.237 OA
ATOM     82  O   UNL A   1      32.521  34.514  28.149  1.00  0.00    -0.744 OA
ENDBRANCH  78  79
ENDBRANCH  50  73
BRANCH  62  83
ATOM     83  C   UNL A   1      39.995  34.359  37.106  1.00  0.00    -0.014 A 
ATOM     84  C   UNL A   1      39.178  34.156  38.233  1.00  0.00     0.010 A 
ATOM     85  C   UNL A   1      40.734  35.551  36.996  1.00  0.00     0.010 A 
ATOM     86  C   UNL A   1      39.070  35.146  39.212  1.00  0.00     0.020 A 
ATOM     87  C   UNL A   1      40.643  36.534  37.985  1.00  0.00     0.020 A 
ATOM     88  C   UNL A   1      39.796  36.333  39.077  1.00  0.00     0.054 A 
BRANCH  88  89
ATOM     89  S   UNL A   1      39.655  37.603  40.365  1.00  0.00     0.124 S 
ATOM     90  O   UNL A   1      39.826  36.817  41.584  1.00  0.00    -0.237 OA
ATOM     91  O   UNL A   1      40.753  38.514  40.046  1.00  0.00    -0.237 OA
ATOM     92  O   UNL A   1      38.318  38.155  40.159  1.00  0.00    -0.744 OA
ENDBRANCH  88  89
ENDBRANCH  62  83
ENDBRANCH  36  37
ENDBRANCH  28  31
ENDBRANCH  26  27
ENDBRANCH   1  26
TORSDOF 16
ENDMDL
MODEL 2
REMARK VINA RESULT:     -11.9      4.211     10.164
REMARK SMILES Cc1ccc(NS(=O)(=O)c2cc(C(=O)NCCCNC(=O)c3ccc(-c4c5nc(c(-c6ccc(S(=O)(=O)[O-])cc6)c6ccc([nH]6)c(-c6ccc(S(=O)(=O)[O-])cc6)c6nc(c(-c7ccc(S(=O)(=O)[O-])cc7)c7ccc4[nH]7)C=C6)C=C5)cc3)ccc2Cl)nc1
REMARK SMILES IDX 17 1 16 2 15 3 13 4 14 5 12 7 10 8 11 9 84 10 83 11 85 12
REMARK SMILES IDX 82 13 7 14 8 15 9 16 6 17 5 19 1 20 2 21 3 22 87 23 4 24
REMARK SMILES IDX 86 25 18 26 19 27 20 28 21 30 22 31 23 32 81 33 24 34 80 35
REMARK SMILES IDX 25 36 26 37 27 38 74 39 28 40 79 41 73 42 75 43 29 44 78 45
REMARK SMILES IDX 72 46 71 47 30 49 60 50 41 51 59 52 42 53 45 54 58 55 76 56
REMARK SMILES IDX 43 57 44 58 57 60 77 61 46 62 31 63 32 64 40 65 33 66 39 67
REMARK SMILES IDX 34 68 35 69 36 70 37 71 38 72 61 73 62 74 70 75 63 76 69 77
REMARK SMILES IDX 64 78 65 79 66 80 67 81 68 82 47 83 48 84 56 85 49 86 55 87
REMARK SMILES IDX 50 88 51 89 52 90 53 91 54 92
REMARK H PARENT 15 6 6 18 19 29 75 48 45 59
REMARK Flexibility Score: inf
ROOT
ATOM      1  C   UNL A   1      33.943  28.180  24.843  1.00  0.00     0.042 C 
ENDROOT
BRANCH   1   2
ATOM      2  C   UNL A   1      32.768  28.851  24.130  1.00  0.00     0.118 C 
BRANCH   2   3
ATOM      3  N   UNL A   1      32.275  28.007  23.058  1.00  0.00    -0.352 N 
ATOM      4  C   UNL A   1      31.735  26.750  23.009  1.00  0.00     0.251 C 
ATOM      5  O   UNL A   1      31.460  26.314  21.888  1.00  0.00    -0.269 OA
ATOM      6  H   UNL A   1      32.345  28.431  22.172  1.00  0.00     0.163 HD
BRANCH   4   7
ATOM      7  C   UNL A   1      31.375  25.930  24.206  1.00  0.00     0.041 A 
ATOM      8  C   UNL A   1      31.583  23.742  25.296  1.00  0.00     0.107 A 
ATOM      9  C   UNL A   1      31.969  24.662  24.303  1.00  0.00     0.037 A 
ATOM     10  C   UNL A   1      30.520  24.051  26.136  1.00  0.00     0.061 A 
ATOM     11  C   UNL A   1      30.032  25.361  26.143  1.00  0.00     0.023 A 
ATOM     12  Cl  UNL A   1      29.696  22.910  27.135  1.00  0.00    -0.083 Cl
ATOM     13  C   UNL A   1      30.495  26.306  25.218  1.00  0.00     0.015 A 
BRANCH   8  14
ATOM     14  S   UNL A   1      32.587  22.291  25.462  1.00  0.00     0.264 S 
ATOM     15  O   UNL A   1      31.722  21.134  25.298  1.00  0.00    -0.201 OA
ATOM     16  O   UNL A   1      33.335  22.459  26.688  1.00  0.00    -0.201 OA
BRANCH  14  17
ATOM     17  N   UNL A   1      33.730  22.229  24.256  1.00  0.00    -0.263 N 
ATOM     18  H   UNL A   1      33.419  22.096  23.332  1.00  0.00     0.182 HD
BRANCH  17  19
ATOM     19  C   UNL A   1      35.115  22.354  24.475  1.00  0.00     0.139 A 
ATOM     20  C   UNL A   1      38.890  22.747  26.325  1.00  0.00     0.046 C 
ATOM     21  C   UNL A   1      37.626  22.574  25.541  1.00  0.00    -0.033 A 
ATOM     22  C   UNL A   1      37.103  21.309  25.286  1.00  0.00     0.009 A 
ATOM     23  C   UNL A   1      36.868  23.671  25.144  1.00  0.00     0.117 A 
ATOM     24  C   UNL A   1      35.834  21.194  24.726  1.00  0.00     0.048 A 
ATOM     25  N   UNL A   1      35.628  23.584  24.606  1.00  0.00    -0.238 NA
ENDBRANCH  17  19
ENDBRANCH  14  17
ENDBRANCH   8  14
ENDBRANCH   4   7
ENDBRANCH   2   3
ENDBRANCH   1   2
BRANCH   1  26
ATOM     26  C   UNL A   1      33.774  28.176  26.363  1.00  0.00     0.118 C 
BRANCH  26  27
ATOM     27  N   UNL A   1      33.521  29.520  26.865  1.00  0.00    -0.352 N 
ATOM     28  C   UNL A   1      34.279  30.309  27.690  1.00  0.00     0.251 C 
ATOM     29  H   UNL A   1      32.675  29.924  26.564  1.00  0.00     0.163 HD
ATOM     30  O   UNL A   1      33.771  31.320  28.172  1.00  0.00    -0.269 OA
BRANCH  28  31
ATOM     31  C   UNL A   1      35.680  29.960  28.014  1.00  0.00     0.039 A 
ATOM     32  C   UNL A   1      35.980  29.568  29.324  1.00  0.00     0.014 A 
ATOM     33  C   UNL A   1      36.708  30.088  27.074  1.00  0.00     0.014 A 
ATOM     34  C   UNL A   1      37.297  29.281  29.683  1.00  0.00     0.010 A 
ATOM     35  C   UNL A   1      38.018  29.755  27.422  1.00  0.00     0.010 A 
ATOM     36  C   UNL A   1      38.327  29.360  28.733  1.00  0.00    -0.014 A 
BRANCH  36  37
ATOM     37  C   UNL A   1      39.727  29.042  29.110  1.00  0.00     0.031 A 
ATOM     38  C   UNL A   1      40.569  30.051  29.844  1.00  0.00     0.074 A 
ATOM     39  C   UNL A   1      40.247  27.847  28.772  1.00  0.00     0.049 A 
ATOM     40  N   UNL A   1      41.804  29.943  30.262  1.00  0.00    -0.248 NA
ATOM     41  C   UNL A   1      39.950  31.355  30.127  1.00  0.00     0.031 C 
ATOM     42  C   UNL A   1      39.548  26.799  28.026  1.00  0.00     0.029 A 
ATOM     43  N   UNL A   1      41.488  27.313  29.015  1.00  0.00    -0.354 N 
ATOM     44  C   UNL A   1      42.116  31.167  30.844  1.00  0.00     0.074 A 
ATOM     45  C   UNL A   1      40.951  32.013  30.692  1.00  0.00     0.031 C 
ATOM     46  C   UNL A   1      40.359  25.738  27.896  1.00  0.00     0.029 A 
ATOM     47  C   UNL A   1      41.640  26.036  28.528  1.00  0.00     0.049 A 
ATOM     48  H   UNL A   1      42.199  27.796  29.492  1.00  0.00     0.167 HD
ATOM     49  C   UNL A   1      43.260  31.548  31.462  1.00  0.00     0.031 A 
ATOM     50  C   UNL A   1      42.691  25.196  28.592  1.00  0.00     0.031 A 
ATOM     51  C   UNL A   1      44.414  30.703  31.626  1.00  0.00     0.049 A 
ATOM     52  C   UNL A   1      43.937  25.627  29.312  1.00  0.00     0.074 A 
ATOM     53  C   UNL A   1      45.603  30.983  32.275  1.00  0.00     0.029 A 
ATOM     54  N   UNL A   1      44.519  29.409  31.139  1.00  0.00    -0.354 N 
ATOM     55  N   UNL A   1      44.191  26.771  29.900  1.00  0.00    -0.248 NA
ATOM     56  C   UNL A   1      45.027  24.647  29.392  1.00  0.00     0.031 C 
ATOM     57  C   UNL A   1      46.440  29.866  32.157  1.00  0.00     0.029 A 
ATOM     58  C   UNL A   1      45.757  28.879  31.466  1.00  0.00     0.049 A 
ATOM     59  H   UNL A   1      43.818  28.936  30.635  1.00  0.00     0.167 HD
ATOM     60  C   UNL A   1      45.467  26.641  30.437  1.00  0.00     0.074 A 
ATOM     61  C   UNL A   1      45.922  25.302  30.118  1.00  0.00     0.031 C 
ATOM     62  C   UNL A   1      46.195  27.549  31.133  1.00  0.00     0.031 A 
BRANCH  49  63
ATOM     63  C   UNL A   1      43.315  32.951  32.004  1.00  0.00    -0.014 A 
ATOM     64  C   UNL A   1      43.780  34.014  31.207  1.00  0.00     0.010 A 
ATOM     65  C   UNL A   1      42.882  33.215  33.315  1.00  0.00     0.010 A 
ATOM     66  C   UNL A   1      43.852  35.309  31.728  1.00  0.00     0.020 A 
ATOM     67  C   UNL A   1      42.933  34.514  33.832  1.00  0.00     0.020 A 
ATOM     68  C   UNL A   1      43.437  35.549  33.041  1.00  0.00     0.054 A 
BRANCH  68  69
ATOM     69  S   UNL A   1      43.537  37.237  33.695  1.00  0.00     0.124 S 
ATOM     70  O   UNL A   1      43.684  38.024  32.473  1.00  0.00    -0.237 OA
ATOM     71  O   UNL A   1      42.263  37.392  34.392  1.00  0.00    -0.237 OA
ATOM     72  O   UNL A   1      44.715  37.204  34.560  1.00  0.00    -0.744 OA
ENDBRANCH  68  69
ENDBRANCH  49  63
BRANCH  50  73
ATOM     73  C   UNL A   1      42.589  23.843  27.984  1.00  0.00    -0.014 A 
ATOM     74  C   UNL A   1      42.126  22.757  28.747  1.00  0.00     0.010 A 
ATOM     75  C   UNL A   1      42.925  23.642  26.634  1.00  0.00     0.010 A 
ATOM     76  C   UNL A   1      42.012  21.489  28.173  1.00  0.00     0.020 A 
ATOM     77  C   UNL A   1      42.791  22.379  26.052  1.00  0.00     0.020 A 
ATOM     78  C   UNL A   1      42.343  21.308  26.827  1.00  0.00     0.054 A 
BRANCH  78  79
ATOM     79  S   UNL A   1      42.118  19.671  26.077  1.00  0.00     0.124 S 
ATOM     80  O   UNL A   1      43.024  19.734  24.934  1.00  0.00    -0.237 OA
ATOM     81  O   UNL A   1      42.520  18.768  27.154  1.00  0.00    -0.237 OA
ATOM     82  O   UNL A   1      40.695  19.641  25.751  1.00  0.00    -0.744 OA
ENDBRANCH  78  79
ENDBRANCH  50  73
BRANCH  62  83
ATOM     83  C   UNL A   1      47.551  27.110  31.611  1.00  0.00    -0.014 A 
ATOM     84  C   UNL A   1      48.700  27.322  30.829  1.00  0.00     0.010 A 
ATOM     85  C   UNL A   1      47.679  26.489  32.868  1.00  0.00     0.010 A 
ATOM     86  C   UNL A   1      49.949  26.884  31.276  1.00  0.00     0.020 A 
ATOM     87  C   UNL A   1      48.929  26.069  33.326  1.00  0.00     0.020 A 
ATOM     88  C   UNL A   1      50.054  26.251  32.518  1.00  0.00     0.054 A 
BRANCH  88  89
ATOM     89  S   UNL A   1      51.685  25.701  33.091  1.00  0.00     0.124 S 
ATOM     90  O   UNL A   1      52.222  25.054  31.897  1.00  0.00    -0.237 OA
ATOM     91  O   UNL A   1      52.335  26.953  33.474  1.00  0.00    -0.237 OA
ATOM     92  O   UNL A   1      51.374  24.804  34.202  1.00  0.00    -0.744 OA
ENDBRANCH  88  89
ENDBRANCH  62  83
ENDBRANCH  36  37
ENDBRANCH  28  31
ENDBRANCH  26  27
ENDBRANCH   1  26
TORSDOF 16
ENDMDL
MODEL 3
REMARK VINA RESULT:     -11.9      4.333     10.209
REMARK SMILES Cc1ccc(NS(=O)(=O)c2cc(C(=O)NCCCNC(=O)c3ccc(-c4c5nc(c(-c6ccc(S(=O)(=O)[O-])cc6)c6ccc([nH]6)c(-c6ccc(S(=O)(=O)[O-])cc6)c6nc(c(-c7ccc(S(=O)(=O)[O-])cc7)c7ccc4[nH]7)C=C6)C=C5)cc3)ccc2Cl)nc1
REMARK SMILES IDX 17 1 16 2 15 3 13 4 14 5 12 7 10 8 11 9 84 10 83 11 85 12
REMARK SMILES IDX 82 13 7 14 8 15 9 16 6 17 5 19 1 20 2 21 3 22 87 23 4 24
REMARK SMILES IDX 86 25 18 26 19 27 20 28 21 30 22 31 23 32 81 33 24 34 80 35
REMARK SMILES IDX 25 36 26 37 27 38 74 39 28 40 79 41 73 42 75 43 29 44 78 45
REMARK SMILES IDX 72 46 71 47 30 49 60 50 41 51 59 52 42 53 45 54 58 55 76 56
REMARK SMILES IDX 43 57 44 58 57 60 77 61 46 62 31 63 32 64 40 65 33 66 39 67
REMARK SMILES IDX 34 68 35 69 36 70 37 71 38 72 61 73 62 74 70 75 63 76 69 77
REMARK SMILES IDX 64 78 65 79 66 80 67 81 68 82 47 83 48 84 56 85 49 86 55 87
REMARK SMILES IDX 50 88 51 89 52 90 53 91 54 92
REMARK H PARENT 15 6 6 18 19 29 75 48 45 59
REMARK Flexibility Score: inf
ROOT
ATOM      1  C   UNL A   1      33.929  28.392  24.850  1.00  0.00     0.042 C 
ENDROOT
BRANCH   1   2
ATOM      2  C   UNL A   1      32.811  29.268  24.283  1.00  0.00     0.118 C 
BRANCH   2   3
ATOM      3  N   UNL A   1      32.135  28.587  23.195  1.00  0.00    -0.352 N 
ATOM      4  C   UNL A   1      31.522  27.368  23.069  1.00  0.00     0.251 C 
ATOM      5  O   UNL A   1      31.078  27.090  21.953  1.00  0.00    -0.269 OA
ATOM      6  H   UNL A   1      32.111  29.117  22.366  1.00  0.00     0.163 HD
BRANCH   4   7
ATOM      7  C   UNL A   1      31.278  26.418  24.197  1.00  0.00     0.041 A 
ATOM      8  C   UNL A   1      31.790  24.206  25.124  1.00  0.00     0.107 A 
ATOM      9  C   UNL A   1      32.046  25.243  24.209  1.00  0.00     0.037 A 
ATOM     10  C   UNL A   1      30.691  24.296  25.969  1.00  0.00     0.061 A 
ATOM     11  C   UNL A   1      30.022  25.520  26.066  1.00  0.00     0.023 A 
ATOM     12  Cl  UNL A   1      30.034  22.978  26.868  1.00  0.00    -0.083 Cl
ATOM     13  C   UNL A   1      30.349  26.589  25.221  1.00  0.00     0.015 A 
BRANCH   8  14
ATOM     14  S   UNL A   1      32.989  22.903  25.197  1.00  0.00     0.264 S 
ATOM     15  O   UNL A   1      33.575  22.915  26.527  1.00  0.00    -0.201 OA
ATOM     16  O   UNL A   1      33.837  23.071  24.038  1.00  0.00    -0.201 OA
BRANCH  14  17
ATOM     17  N   UNL A   1      32.259  21.423  24.993  1.00  0.00    -0.263 N 
ATOM     18  H   UNL A   1      31.334  21.316  25.314  1.00  0.00     0.182 HD
BRANCH  17  19
ATOM     19  C   UNL A   1      32.880  20.312  24.391  1.00  0.00     0.139 A 
ATOM     20  C   UNL A   1      34.038  16.370  23.420  1.00  0.00     0.046 C 
ATOM     21  C   UNL A   1      33.695  17.811  23.636  1.00  0.00    -0.033 A 
ATOM     22  C   UNL A   1      32.606  18.397  22.992  1.00  0.00     0.009 A 
ATOM     23  C   UNL A   1      34.374  18.582  24.573  1.00  0.00     0.117 A 
ATOM     24  C   UNL A   1      32.202  19.676  23.361  1.00  0.00     0.048 A 
ATOM     25  N   UNL A   1      33.993  19.825  24.955  1.00  0.00    -0.238 NA
ENDBRANCH  17  19
ENDBRANCH  14  17
ENDBRANCH   8  14
ENDBRANCH   4   7
ENDBRANCH   2   3
ENDBRANCH   1   2
BRANCH   1  26
ATOM     26  C   UNL A   1      33.921  28.358  26.379  1.00  0.00     0.118 C 
BRANCH  26  27
ATOM     27  N   UNL A   1      33.735  29.694  26.931  1.00  0.00    -0.352 N 
ATOM     28  C   UNL A   1      34.534  30.414  27.779  1.00  0.00     0.251 C 
ATOM     29  H   UNL A   1      32.908  30.148  26.650  1.00  0.00     0.163 HD
ATOM     30  O   UNL A   1      34.077  31.430  28.301  1.00  0.00    -0.269 OA
BRANCH  28  31
ATOM     31  C   UNL A   1      35.918  29.987  28.082  1.00  0.00     0.039 A 
ATOM     32  C   UNL A   1      36.196  29.500  29.364  1.00  0.00     0.014 A 
ATOM     33  C   UNL A   1      36.954  30.132  27.154  1.00  0.00     0.014 A 
ATOM     34  C   UNL A   1      37.499  29.136  29.706  1.00  0.00     0.010 A 
ATOM     35  C   UNL A   1      38.248  29.724  27.481  1.00  0.00     0.010 A 
ATOM     36  C   UNL A   1      38.535  29.233  28.764  1.00  0.00    -0.014 A 
BRANCH  36  37
ATOM     37  C   UNL A   1      39.919  28.833  29.122  1.00  0.00     0.031 A 
ATOM     38  C   UNL A   1      40.820  29.781  29.866  1.00  0.00     0.074 A 
ATOM     39  C   UNL A   1      40.372  27.619  28.756  1.00  0.00     0.049 A 
ATOM     40  N   UNL A   1      42.051  29.599  30.271  1.00  0.00    -0.248 NA
ATOM     41  C   UNL A   1      40.274  31.111  30.181  1.00  0.00     0.031 C 
ATOM     42  C   UNL A   1      39.611  26.625  27.996  1.00  0.00     0.029 A 
ATOM     43  N   UNL A   1      41.584  27.014  28.976  1.00  0.00    -0.354 N 
ATOM     44  C   UNL A   1      42.433  30.793  30.873  1.00  0.00     0.074 A 
ATOM     45  C   UNL A   1      41.314  31.703  30.748  1.00  0.00     0.031 C 
ATOM     46  C   UNL A   1      40.363  25.524  27.838  1.00  0.00     0.029 A 
ATOM     47  C   UNL A   1      41.663  25.741  28.464  1.00  0.00     0.049 A 
ATOM     48  H   UNL A   1      42.324  27.449  29.456  1.00  0.00     0.167 HD
ATOM     49  C   UNL A   1      43.601  31.100  31.488  1.00  0.00     0.031 A 
ATOM     50  C   UNL A   1      42.668  24.845  28.502  1.00  0.00     0.031 A 
ATOM     51  C   UNL A   1      44.709  30.191  31.624  1.00  0.00     0.049 A 
ATOM     52  C   UNL A   1      43.941  25.195  29.218  1.00  0.00     0.074 A 
ATOM     53  C   UNL A   1      45.918  30.395  32.267  1.00  0.00     0.029 A 
ATOM     54  N   UNL A   1      44.741  28.904  31.111  1.00  0.00    -0.354 N 
ATOM     55  N   UNL A   1      44.262  26.312  29.826  1.00  0.00    -0.248 NA
ATOM     56  C   UNL A   1      44.978  24.157  29.269  1.00  0.00     0.031 C 
ATOM     57  C   UNL A   1      46.693  29.237  32.120  1.00  0.00     0.029 A 
ATOM     58  C   UNL A   1      45.951  28.302  31.417  1.00  0.00     0.049 A 
ATOM     59  H   UNL A   1      44.012  28.479  30.605  1.00  0.00     0.167 HD
ATOM     60  C   UNL A   1      45.533  26.103  30.347  1.00  0.00     0.074 A 
ATOM     61  C   UNL A   1      45.913  24.749  29.998  1.00  0.00     0.031 C 
ATOM     62  C   UNL A   1      46.315  26.958  31.054  1.00  0.00     0.031 A 
BRANCH  49  63
ATOM     63  C   UNL A   1      43.736  32.487  32.056  1.00  0.00    -0.014 A 
ATOM     64  C   UNL A   1      43.426  32.748  33.403  1.00  0.00     0.010 A 
ATOM     65  C   UNL A   1      44.195  33.537  31.242  1.00  0.00     0.010 A 
ATOM     66  C   UNL A   1      43.529  34.046  33.914  1.00  0.00     0.020 A 
ATOM     67  C   UNL A   1      44.320  34.832  31.755  1.00  0.00     0.020 A 
ATOM     68  C   UNL A   1      43.967  35.082  33.083  1.00  0.00     0.054 A 
BRANCH  68  69
ATOM     69  S   UNL A   1      44.096  36.756  33.768  1.00  0.00     0.124 S 
ATOM     70  O   UNL A   1      44.733  36.504  35.058  1.00  0.00    -0.237 OA
ATOM     71  O   UNL A   1      44.925  37.447  32.783  1.00  0.00    -0.237 OA
ATOM     72  O   UNL A   1      42.708  37.209  33.836  1.00  0.00    -0.744 OA
ENDBRANCH  68  69
ENDBRANCH  49  63
BRANCH  50  73
ATOM     73  C   UNL A   1      42.489  23.512  27.869  1.00  0.00    -0.014 A 
ATOM     74  C   UNL A   1      43.010  23.260  26.588  1.00  0.00     0.010 A 
ATOM     75  C   UNL A   1      41.823  22.482  28.556  1.00  0.00     0.010 A 
ATOM     76  C   UNL A   1      42.859  22.002  25.999  1.00  0.00     0.020 A 
ATOM     77  C   UNL A   1      41.689  21.217  27.978  1.00  0.00     0.020 A 
ATOM     78  C   UNL A   1      42.200  20.988  26.699  1.00  0.00     0.054 A 
BRANCH  78  79
ATOM     79  S   UNL A   1      42.077  19.338  25.951  1.00  0.00     0.124 S 
ATOM     80  O   UNL A   1      42.608  18.485  27.009  1.00  0.00    -0.237 OA
ATOM     81  O   UNL A   1      40.644  19.210  25.693  1.00  0.00    -0.237 OA
ATOM     82  O   UNL A   1      42.907  19.448  24.753  1.00  0.00    -0.744 OA
ENDBRANCH  78  79
ENDBRANCH  50  73
BRANCH  62  83
ATOM     83  C   UNL A   1      47.650  26.437  31.510  1.00  0.00    -0.014 A 
ATOM     84  C   UNL A   1      48.782  26.520  30.681  1.00  0.00     0.010 A 
ATOM     85  C   UNL A   1      47.774  25.872  32.793  1.00  0.00     0.010 A 
ATOM     86  C   UNL A   1      50.009  26.007  31.110  1.00  0.00     0.020 A 
ATOM     87  C   UNL A   1      49.005  25.378  33.232  1.00  0.00     0.020 A 
ATOM     88  C   UNL A   1      50.110  25.431  32.380  1.00  0.00     0.054 A 
BRANCH  88  89
ATOM     89  S   UNL A   1      51.713  24.783  32.928  1.00  0.00     0.124 S 
ATOM     90  O   UNL A   1      52.647  25.697  32.279  1.00  0.00    -0.237 OA
ATOM     91  O   UNL A   1      51.631  24.898  34.383  1.00  0.00    -0.237 OA
ATOM     92  O   UNL A   1      51.723  23.413  32.419  1.00  0.00    -0.744 OA
ENDBRANCH  88  89
ENDBRANCH  62  83
ENDBRANCH  36  37
ENDBRANCH  28  31
ENDBRANCH  26  27
ENDBRANCH   1  26
TORSDOF 16
ENDMDL
