MODEL 1
REMARK VINA RESULT:     -11.3      0.000      0.000
REMARK SMILES CC(C)(C)[NH2+]Cc1ccn(CC(C)(C)C(=O)NCCCNC(=O)c2ccc(-c3c4nc(c(-c5ccc(S(=O)(=O)[O-])cc5)c5ccc([nH]5)c(-c5ccc(S(=O)(=O)[O-])cc5)c5nc(c(-c6ccc(S(=O)(=O)[O-])cc6)c6ccc3[nH]6)C=C5)C=C4)cc2)c1
REMARK SMILES IDX 18 1 17 2 15 3 16 4 12 6 13 7 14 8 11 9 10 10 7 11 8 12
REMARK SMILES IDX 84 13 9 14 6 15 5 16 2 19 1 20 3 21 4 22 19 23 20 24 21 25
REMARK SMILES IDX 22 26 23 28 24 29 25 30 83 31 26 32 82 33 27 34 28 35 29 36
REMARK SMILES IDX 76 37 30 38 81 39 75 40 77 41 31 42 80 43 74 44 73 45 32 47
REMARK SMILES IDX 62 48 43 49 61 50 44 51 47 52 60 53 78 54 45 55 46 56 59 58
REMARK SMILES IDX 79 59 48 60 33 61 34 62 42 63 35 64 41 65 36 66 37 67 38 68
REMARK SMILES IDX 39 69 40 70 63 71 64 72 72 73 65 74 71 75 66 76 67 77 68 78
REMARK SMILES IDX 69 79 70 80 49 81 50 82 58 83 51 84 57 85 52 86 53 87 54 88
REMARK SMILES IDX 55 89 56 90
REMARK H PARENT 17 5 5 17 5 18 21 27 77 46 47 57
REMARK Flexibility Score: inf
ROOT
ATOM      1  C   UNL A   1      37.306  20.749  24.663  1.00  0.00     0.117 C 
ENDROOT
BRANCH   1   2
ATOM      2  N   UNL A   1      37.721  21.993  25.280  1.00  0.00    -0.356 N 
ATOM      3  C   UNL A   1      37.054  23.128  25.617  1.00  0.00     0.227 C 
ATOM      4  O   UNL A   1      37.759  24.064  25.994  1.00  0.00    -0.274 OA
ATOM      5  H   UNL A   1      38.681  22.021  25.499  1.00  0.00     0.163 HD
BRANCH   3   6
ATOM      6  C   UNL A   1      35.526  23.269  25.485  1.00  0.00     0.061 C 
ATOM      7  C   UNL A   1      35.079  24.740  25.434  1.00  0.00     0.023 C 
ATOM      8  C   UNL A   1      34.856  22.538  26.665  1.00  0.00     0.023 C 
BRANCH   6   9
ATOM      9  C   UNL A   1      35.045  22.535  24.191  1.00  0.00     0.137 C 
BRANCH   9  10
ATOM     10  N   UNL A   1      33.938  21.599  24.331  1.00  0.00    -0.353 N 
ATOM     11  C   UNL A   1      32.795  19.731  24.806  1.00  0.00     0.024 A 
ATOM     12  C   UNL A   1      31.885  20.749  24.392  1.00  0.00     0.029 A 
ATOM     13  C   UNL A   1      34.044  20.323  24.819  1.00  0.00     0.095 A 
ATOM     14  C   UNL A   1      32.615  21.883  24.116  1.00  0.00     0.086 A 
BRANCH  11  15
ATOM     15  C   UNL A   1      32.501  18.312  25.177  1.00  0.00     0.299 C 
BRANCH  15  16
ATOM     16  N   UNL A   1      33.700  17.590  25.600  1.00  0.00    -0.338 N 
ATOM     17  H   UNL A   1      34.499  18.196  25.415  1.00  0.00     0.347 HD
ATOM     18  H   UNL A   1      33.524  17.365  26.580  1.00  0.00     0.347 HD
BRANCH  16  19
ATOM     19  C   UNL A   1      33.991  16.285  24.977  1.00  0.00     0.088 C 
ATOM     20  C   UNL A   1      32.940  15.219  25.324  1.00  0.00     0.078 C 
ATOM     21  C   UNL A   1      35.394  15.742  25.297  1.00  0.00     0.078 C 
ATOM     22  C   UNL A   1      33.929  16.549  23.458  1.00  0.00     0.078 C 
ENDBRANCH  16  19
ENDBRANCH  15  16
ENDBRANCH  11  15
ENDBRANCH   9  10
ENDBRANCH   6   9
ENDBRANCH   3   6
ENDBRANCH   1   2
BRANCH   1  23
ATOM     23  C   UNL A   1      38.251  19.593  24.994  1.00  0.00     0.042 C 
BRANCH  23  24
ATOM     24  C   UNL A   1      39.305  19.987  26.020  1.00  0.00     0.118 C 
BRANCH  24  25
ATOM     25  N   UNL A   1      40.394  19.021  26.043  1.00  0.00    -0.352 N 
ATOM     26  C   UNL A   1      41.748  19.225  26.110  1.00  0.00     0.251 C 
ATOM     27  H   UNL A   1      40.115  18.077  26.005  1.00  0.00     0.163 HD
ATOM     28  O   UNL A   1      42.503  18.304  25.832  1.00  0.00    -0.269 OA
BRANCH  26  29
ATOM     29  C   UNL A   1      42.295  20.545  26.480  1.00  0.00     0.039 A 
ATOM     30  C   UNL A   1      42.824  21.343  25.459  1.00  0.00     0.014 A 
ATOM     31  C   UNL A   1      42.347  20.970  27.813  1.00  0.00     0.014 A 
ATOM     32  C   UNL A   1      43.342  22.595  25.765  1.00  0.00     0.010 A 
ATOM     33  C   UNL A   1      42.830  22.233  28.119  1.00  0.00     0.010 A 
ATOM     34  C   UNL A   1      43.313  23.046  27.091  1.00  0.00    -0.014 A 
BRANCH  34  35
ATOM     35  C   UNL A   1      43.658  24.452  27.382  1.00  0.00     0.031 A 
ATOM     36  C   UNL A   1      42.390  25.314  27.589  1.00  0.00     0.074 A 
ATOM     37  C   UNL A   1      44.996  24.742  27.398  1.00  0.00     0.049 A 
ATOM     38  N   UNL A   1      42.230  26.596  27.478  1.00  0.00    -0.248 NA
ATOM     39  C   UNL A   1      41.091  24.654  27.912  1.00  0.00     0.031 C 
ATOM     40  C   UNL A   1      46.082  23.746  27.207  1.00  0.00     0.029 A 
ATOM     41  N   UNL A   1      45.729  25.896  27.572  1.00  0.00    -0.354 N 
ATOM     42  C   UNL A   1      40.902  26.913  27.859  1.00  0.00     0.074 A 
ATOM     43  C   UNL A   1      40.227  25.666  28.041  1.00  0.00     0.031 C 
ATOM     44  C   UNL A   1      47.294  24.341  27.190  1.00  0.00     0.029 A 
ATOM     45  C   UNL A   1      47.132  25.768  27.380  1.00  0.00     0.049 A 
ATOM     46  H   UNL A   1      45.308  26.753  27.814  1.00  0.00     0.167 HD
ATOM     47  C   UNL A   1      40.475  28.192  28.086  1.00  0.00     0.031 A 
ATOM     48  C   UNL A   1      48.086  26.747  27.325  1.00  0.00     0.031 A 
ATOM     49  C   UNL A   1      41.529  29.104  27.800  1.00  0.00     0.049 A 
ATOM     50  C   UNL A   1      47.389  27.993  27.675  1.00  0.00     0.074 A 
ATOM     51  C   UNL A   1      42.076  29.532  26.620  1.00  0.00     0.029 A 
ATOM     52  N   UNL A   1      42.389  29.388  28.833  1.00  0.00    -0.354 N 
ATOM     53  N   UNL A   1      46.972  28.304  28.863  1.00  0.00    -0.248 NA
ATOM     54  C   UNL A   1      47.042  28.933  26.601  1.00  0.00     0.031 C 
ATOM     55  C   UNL A   1      43.454  29.576  26.911  1.00  0.00     0.029 A 
ATOM     56  C   UNL A   1      43.649  29.416  28.288  1.00  0.00     0.049 A 
ATOM     57  H   UNL A   1      42.151  29.541  29.776  1.00  0.00     0.167 HD
ATOM     58  C   UNL A   1      46.002  29.235  28.597  1.00  0.00     0.074 A 
ATOM     59  C   UNL A   1      46.318  29.802  27.301  1.00  0.00     0.031 C 
ATOM     60  C   UNL A   1      44.767  29.097  29.144  1.00  0.00     0.031 A 
BRANCH  47  61
ATOM     61  C   UNL A   1      39.242  28.777  28.727  1.00  0.00    -0.014 A 
ATOM     62  C   UNL A   1      38.599  29.834  28.026  1.00  0.00     0.010 A 
ATOM     63  C   UNL A   1      38.902  28.599  30.073  1.00  0.00     0.010 A 
ATOM     64  C   UNL A   1      37.781  30.763  28.670  1.00  0.00     0.020 A 
ATOM     65  C   UNL A   1      38.045  29.511  30.723  1.00  0.00     0.020 A 
ATOM     66  C   UNL A   1      37.537  30.616  30.029  1.00  0.00     0.054 A 
BRANCH  66  67
ATOM     67  S   UNL A   1      36.623  31.936  30.876  1.00  0.00     0.124 S 
ATOM     68  O   UNL A   1      37.259  33.140  30.349  1.00  0.00    -0.237 OA
ATOM     69  O   UNL A   1      35.250  31.708  30.428  1.00  0.00    -0.237 OA
ATOM     70  O   UNL A   1      36.861  31.666  32.291  1.00  0.00    -0.744 OA
ENDBRANCH  66  67
ENDBRANCH  47  61
BRANCH  48  71
ATOM     71  C   UNL A   1      49.526  26.901  26.882  1.00  0.00    -0.014 A 
ATOM     72  C   UNL A   1      50.626  27.180  27.703  1.00  0.00     0.010 A 
ATOM     73  C   UNL A   1      49.837  26.592  25.525  1.00  0.00     0.010 A 
ATOM     74  C   UNL A   1      51.950  26.984  27.236  1.00  0.00     0.020 A 
ATOM     75  C   UNL A   1      51.132  26.341  25.068  1.00  0.00     0.020 A 
ATOM     76  C   UNL A   1      52.189  26.505  25.943  1.00  0.00     0.054 A 
BRANCH  76  77
ATOM     77  S   UNL A   1      53.842  25.938  25.443  1.00  0.00     0.124 S 
ATOM     78  O   UNL A   1      54.102  24.853  26.383  1.00  0.00    -0.237 OA
ATOM     79  O   UNL A   1      53.637  25.535  24.053  1.00  0.00    -0.237 OA
ATOM     80  O   UNL A   1      54.676  27.126  25.614  1.00  0.00    -0.744 OA
ENDBRANCH  76  77
ENDBRANCH  48  71
BRANCH  60  81
ATOM     81  C   UNL A   1      44.697  28.261  30.419  1.00  0.00    -0.014 A 
ATOM     82  C   UNL A   1      44.318  26.908  30.340  1.00  0.00     0.010 A 
ATOM     83  C   UNL A   1      44.917  28.789  31.708  1.00  0.00     0.010 A 
ATOM     84  C   UNL A   1      44.162  26.118  31.489  1.00  0.00     0.020 A 
ATOM     85  C   UNL A   1      44.767  28.007  32.869  1.00  0.00     0.020 A 
ATOM     86  C   UNL A   1      44.391  26.670  32.750  1.00  0.00     0.054 A 
BRANCH  86  87
ATOM     87  S   UNL A   1      44.188  25.611  34.214  1.00  0.00     0.124 S 
ATOM     88  O   UNL A   1      45.476  25.741  34.890  1.00  0.00    -0.237 OA
ATOM     89  O   UNL A   1      43.058  26.234  34.899  1.00  0.00    -0.237 OA
ATOM     90  O   UNL A   1      43.918  24.287  33.655  1.00  0.00    -0.744 OA
ENDBRANCH  86  87
ENDBRANCH  60  81
ENDBRANCH  34  35
ENDBRANCH  26  29
ENDBRANCH  24  25
ENDBRANCH  23  24
ENDBRANCH   1  23
TORSDOF 18
ENDMDL
MODEL 2
REMARK VINA RESULT:     -11.1      1.732      3.436
REMARK SMILES CC(C)(C)[NH2+]Cc1ccn(CC(C)(C)C(=O)NCCCNC(=O)c2ccc(-c3c4nc(c(-c5ccc(S(=O)(=O)[O-])cc5)c5ccc([nH]5)c(-c5ccc(S(=O)(=O)[O-])cc5)c5nc(c(-c6ccc(S(=O)(=O)[O-])cc6)c6ccc3[nH]6)C=C5)C=C4)cc2)c1
REMARK SMILES IDX 18 1 17 2 15 3 16 4 12 6 13 7 14 8 11 9 10 10 7 11 8 12
REMARK SMILES IDX 84 13 9 14 6 15 5 16 2 19 1 20 3 21 4 22 19 23 20 24 21 25
REMARK SMILES IDX 22 26 23 28 24 29 25 30 83 31 26 32 82 33 27 34 28 35 29 36
REMARK SMILES IDX 76 37 30 38 81 39 75 40 77 41 31 42 80 43 74 44 73 45 32 47
REMARK SMILES IDX 62 48 43 49 61 50 44 51 47 52 60 53 78 54 45 55 46 56 59 58
REMARK SMILES IDX 79 59 48 60 33 61 34 62 42 63 35 64 41 65 36 66 37 67 38 68
REMARK SMILES IDX 39 69 40 70 63 71 64 72 72 73 65 74 71 75 66 76 67 77 68 78
REMARK SMILES IDX 69 79 70 80 49 81 50 82 58 83 51 84 57 85 52 86 53 87 54 88
REMARK SMILES IDX 55 89 56 90
REMARK H PARENT 17 5 5 17 5 18 21 27 77 46 47 57
REMARK Flexibility Score: inf
ROOT
ATOM      1  C   UNL A   1      36.586  20.334  25.024  1.00  0.00     0.117 C 
ENDROOT
BRANCH   1   2
ATOM      2  N   UNL A   1      36.874  21.693  25.435  1.00  0.00    -0.356 N 
ATOM      3  C   UNL A   1      36.083  22.750  25.759  1.00  0.00     0.227 C 
ATOM      4  O   UNL A   1      36.670  23.821  25.919  1.00  0.00    -0.274 OA
ATOM      5  H   UNL A   1      37.837  21.891  25.492  1.00  0.00     0.163 HD
BRANCH   3   6
ATOM      6  C   UNL A   1      34.551  22.645  25.864  1.00  0.00     0.061 C 
ATOM      7  C   UNL A   1      33.907  23.962  26.333  1.00  0.00     0.023 C 
ATOM      8  C   UNL A   1      34.196  21.494  26.826  1.00  0.00     0.023 C 
BRANCH   6   9
ATOM      9  C   UNL A   1      33.959  22.245  24.473  1.00  0.00     0.137 C 
BRANCH   9  10
ATOM     10  N   UNL A   1      33.081  23.208  23.823  1.00  0.00    -0.353 N 
ATOM     11  C   UNL A   1      32.390  24.908  22.538  1.00  0.00     0.024 A 
ATOM     12  C   UNL A   1      31.255  24.250  23.100  1.00  0.00     0.029 A 
ATOM     13  C   UNL A   1      33.492  24.187  22.957  1.00  0.00     0.095 A 
ATOM     14  C   UNL A   1      31.712  23.207  23.875  1.00  0.00     0.086 A 
BRANCH  11  15
ATOM     15  C   UNL A   1      32.425  26.118  21.659  1.00  0.00     0.299 C 
BRANCH  15  16
ATOM     16  N   UNL A   1      31.295  27.013  21.900  1.00  0.00    -0.338 N 
ATOM     17  H   UNL A   1      31.022  27.405  20.998  1.00  0.00     0.347 HD
ATOM     18  H   UNL A   1      30.601  26.422  22.359  1.00  0.00     0.347 HD
BRANCH  16  19
ATOM     19  C   UNL A   1      31.478  28.143  22.829  1.00  0.00     0.088 C 
ATOM     20  C   UNL A   1      32.926  28.657  22.853  1.00  0.00     0.078 C 
ATOM     21  C   UNL A   1      31.017  27.848  24.266  1.00  0.00     0.078 C 
ATOM     22  C   UNL A   1      30.576  29.264  22.271  1.00  0.00     0.078 C 
ENDBRANCH  16  19
ENDBRANCH  15  16
ENDBRANCH  11  15
ENDBRANCH   9  10
ENDBRANCH   6   9
ENDBRANCH   3   6
ENDBRANCH   1   2
BRANCH   1  23
ATOM     23  C   UNL A   1      37.854  19.490  24.881  1.00  0.00     0.042 C 
BRANCH  23  24
ATOM     24  C   UNL A   1      39.006  20.036  25.715  1.00  0.00     0.118 C 
BRANCH  24  25
ATOM     25  N   UNL A   1      40.051  19.035  25.875  1.00  0.00    -0.352 N 
ATOM     26  C   UNL A   1      41.400  19.196  26.056  1.00  0.00     0.251 C 
ATOM     27  H   UNL A   1      39.741  18.101  25.848  1.00  0.00     0.163 HD
ATOM     28  O   UNL A   1      42.142  18.239  25.885  1.00  0.00    -0.269 OA
BRANCH  26  29
ATOM     29  C   UNL A   1      41.961  20.512  26.423  1.00  0.00     0.039 A 
ATOM     30  C   UNL A   1      42.463  21.318  25.395  1.00  0.00     0.014 A 
ATOM     31  C   UNL A   1      42.051  20.924  27.758  1.00  0.00     0.014 A 
ATOM     32  C   UNL A   1      42.992  22.566  25.697  1.00  0.00     0.010 A 
ATOM     33  C   UNL A   1      42.547  22.183  28.062  1.00  0.00     0.010 A 
ATOM     34  C   UNL A   1      43.002  23.005  27.028  1.00  0.00    -0.014 A 
BRANCH  34  35
ATOM     35  C   UNL A   1      43.359  24.406  27.321  1.00  0.00     0.031 A 
ATOM     36  C   UNL A   1      42.098  25.276  27.545  1.00  0.00     0.074 A 
ATOM     37  C   UNL A   1      44.699  24.689  27.326  1.00  0.00     0.049 A 
ATOM     38  N   UNL A   1      41.946  26.559  27.441  1.00  0.00    -0.248 NA
ATOM     39  C   UNL A   1      40.798  24.623  27.876  1.00  0.00     0.031 C 
ATOM     40  C   UNL A   1      45.776  23.686  27.121  1.00  0.00     0.029 A 
ATOM     41  N   UNL A   1      45.441  25.837  27.499  1.00  0.00    -0.354 N 
ATOM     42  C   UNL A   1      40.623  26.883  27.835  1.00  0.00     0.074 A 
ATOM     43  C   UNL A   1      39.942  25.640  28.018  1.00  0.00     0.031 C 
ATOM     44  C   UNL A   1      46.992  24.274  27.095  1.00  0.00     0.029 A 
ATOM     45  C   UNL A   1      46.840  25.701  27.293  1.00  0.00     0.049 A 
ATOM     46  H   UNL A   1      45.027  26.696  27.749  1.00  0.00     0.167 HD
ATOM     47  C   UNL A   1      40.206  28.164  28.072  1.00  0.00     0.031 A 
ATOM     48  C   UNL A   1      47.801  26.674  27.233  1.00  0.00     0.031 A 
ATOM     49  C   UNL A   1      41.263  29.070  27.781  1.00  0.00     0.049 A 
ATOM     50  C   UNL A   1      47.115  27.923  27.595  1.00  0.00     0.074 A 
ATOM     51  C   UNL A   1      41.802  29.501  26.597  1.00  0.00     0.029 A 
ATOM     52  N   UNL A   1      42.135  29.345  28.807  1.00  0.00    -0.354 N 
ATOM     53  N   UNL A   1      46.710  28.231  28.789  1.00  0.00    -0.248 NA
ATOM     54  C   UNL A   1      46.764  28.869  26.530  1.00  0.00     0.031 C 
ATOM     55  C   UNL A   1      43.183  29.534  26.876  1.00  0.00     0.029 A 
ATOM     56  C   UNL A   1      43.390  29.366  28.250  1.00  0.00     0.049 A 
ATOM     57  H   UNL A   1      41.906  29.495  29.752  1.00  0.00     0.167 HD
ATOM     58  C   UNL A   1      45.744  29.170  28.536  1.00  0.00     0.074 A 
ATOM     59  C   UNL A   1      46.052  29.740  27.240  1.00  0.00     0.031 C 
ATOM     60  C   UNL A   1      44.513  29.036  29.094  1.00  0.00     0.031 A 
BRANCH  47  61
ATOM     61  C   UNL A   1      38.983  28.754  28.727  1.00  0.00    -0.014 A 
ATOM     62  C   UNL A   1      38.305  29.776  28.008  1.00  0.00     0.010 A 
ATOM     63  C   UNL A   1      38.684  28.619  30.088  1.00  0.00     0.010 A 
ATOM     64  C   UNL A   1      37.491  30.715  28.642  1.00  0.00     0.020 A 
ATOM     65  C   UNL A   1      37.831  29.542  30.729  1.00  0.00     0.020 A 
ATOM     66  C   UNL A   1      37.288  30.614  30.012  1.00  0.00     0.054 A 
BRANCH  66  67
ATOM     67  S   UNL A   1      36.378  31.950  30.838  1.00  0.00     0.124 S 
ATOM     68  O   UNL A   1      36.099  31.371  32.148  1.00  0.00    -0.237 OA
ATOM     69  O   UNL A   1      37.350  33.043  30.833  1.00  0.00    -0.237 OA
ATOM     70  O   UNL A   1      35.216  32.158  29.979  1.00  0.00    -0.744 OA
ENDBRANCH  66  67
ENDBRANCH  47  61
BRANCH  48  71
ATOM     71  C   UNL A   1      49.238  26.821  26.778  1.00  0.00    -0.014 A 
ATOM     72  C   UNL A   1      50.346  27.089  27.590  1.00  0.00     0.010 A 
ATOM     73  C   UNL A   1      49.533  26.515  25.417  1.00  0.00     0.010 A 
ATOM     74  C   UNL A   1      51.665  26.888  27.110  1.00  0.00     0.020 A 
ATOM     75  C   UNL A   1      50.823  26.258  24.947  1.00  0.00     0.020 A 
ATOM     76  C   UNL A   1      51.889  26.412  25.813  1.00  0.00     0.054 A 
BRANCH  76  77
ATOM     77  S   UNL A   1      53.533  25.837  25.295  1.00  0.00     0.124 S 
ATOM     78  O   UNL A   1      53.366  25.652  23.857  1.00  0.00    -0.237 OA
ATOM     79  O   UNL A   1      54.402  26.943  25.693  1.00  0.00    -0.237 OA
ATOM     80  O   UNL A   1      53.724  24.608  26.064  1.00  0.00    -0.744 OA
ENDBRANCH  76  77
ENDBRANCH  48  71
BRANCH  60  81
ATOM     81  C   UNL A   1      44.451  28.195  30.366  1.00  0.00    -0.014 A 
ATOM     82  C   UNL A   1      44.070  26.843  30.284  1.00  0.00     0.010 A 
ATOM     83  C   UNL A   1      44.678  28.718  31.656  1.00  0.00     0.010 A 
ATOM     84  C   UNL A   1      43.920  26.049  31.430  1.00  0.00     0.020 A 
ATOM     85  C   UNL A   1      44.533  27.931  32.815  1.00  0.00     0.020 A 
ATOM     86  C   UNL A   1      44.156  26.595  32.692  1.00  0.00     0.054 A 
BRANCH  86  87
ATOM     87  S   UNL A   1      43.961  25.530  34.153  1.00  0.00     0.124 S 
ATOM     88  O   UNL A   1      45.136  25.859  34.955  1.00  0.00    -0.237 OA
ATOM     89  O   UNL A   1      42.684  25.980  34.702  1.00  0.00    -0.237 OA
ATOM     90  O   UNL A   1      43.952  24.175  33.601  1.00  0.00    -0.744 OA
ENDBRANCH  86  87
ENDBRANCH  60  81
ENDBRANCH  34  35
ENDBRANCH  26  29
ENDBRANCH  24  25
ENDBRANCH  23  24
ENDBRANCH   1  23
TORSDOF 18
ENDMDL
MODEL 3
REMARK VINA RESULT:     -10.8      5.458     11.822
REMARK SMILES CC(C)(C)[NH2+]Cc1ccn(CC(C)(C)C(=O)NCCCNC(=O)c2ccc(-c3c4nc(c(-c5ccc(S(=O)(=O)[O-])cc5)c5ccc([nH]5)c(-c5ccc(S(=O)(=O)[O-])cc5)c5nc(c(-c6ccc(S(=O)(=O)[O-])cc6)c6ccc3[nH]6)C=C5)C=C4)cc2)c1
REMARK SMILES IDX 18 1 17 2 15 3 16 4 12 6 13 7 14 8 11 9 10 10 7 11 8 12
REMARK SMILES IDX 84 13 9 14 6 15 5 16 2 19 1 20 3 21 4 22 19 23 20 24 21 25
REMARK SMILES IDX 22 26 23 28 24 29 25 30 83 31 26 32 82 33 27 34 28 35 29 36
REMARK SMILES IDX 76 37 30 38 81 39 75 40 77 41 31 42 80 43 74 44 73 45 32 47
REMARK SMILES IDX 62 48 43 49 61 50 44 51 47 52 60 53 78 54 45 55 46 56 59 58
REMARK SMILES IDX 79 59 48 60 33 61 34 62 42 63 35 64 41 65 36 66 37 67 38 68
REMARK SMILES IDX 39 69 40 70 63 71 64 72 72 73 65 74 71 75 66 76 67 77 68 78
REMARK SMILES IDX 69 79 70 80 49 81 50 82 58 83 51 84 57 85 52 86 53 87 54 88
REMARK SMILES IDX 55 89 56 90
REMARK H PARENT 17 5 5 17 5 18 21 27 77 46 47 57
REMARK Flexibility Score: inf
ROOT
ATOM      1  C   UNL A   1      35.830  31.904  30.994  1.00  0.00     0.117 C 
ENDROOT
BRANCH   1   2
ATOM      2  N   UNL A   1      35.364  32.443  32.256  1.00  0.00    -0.356 N 
ATOM      3  C   UNL A   1      36.008  32.865  33.376  1.00  0.00     0.227 C 
ATOM      4  O   UNL A   1      35.282  33.127  34.336  1.00  0.00    -0.274 OA
ATOM      5  H   UNL A   1      34.384  32.520  32.313  1.00  0.00     0.163 HD
BRANCH   3   6
ATOM      6  C   UNL A   1      37.542  32.956  33.474  1.00  0.00     0.061 C 
ATOM      7  C   UNL A   1      38.240  31.748  32.826  1.00  0.00     0.023 C 
ATOM      8  C   UNL A   1      37.938  33.082  34.958  1.00  0.00     0.023 C 
BRANCH   6   9
ATOM      9  C   UNL A   1      38.031  34.271  32.783  1.00  0.00     0.137 C 
BRANCH   9  10
ATOM     10  N   UNL A   1      39.146  34.158  31.853  1.00  0.00    -0.353 N 
ATOM     11  C   UNL A   1      41.242  34.070  31.066  1.00  0.00     0.024 A 
ATOM     12  C   UNL A   1      40.326  33.808  30.003  1.00  0.00     0.029 A 
ATOM     13  C   UNL A   1      40.469  34.212  32.204  1.00  0.00     0.095 A 
ATOM     14  C   UNL A   1      39.051  33.861  30.519  1.00  0.00     0.086 A 
BRANCH  11  15
ATOM     15  C   UNL A   1      42.734  34.162  31.011  1.00  0.00     0.299 C 
BRANCH  15  16
ATOM     16  N   UNL A   1      43.380  32.885  31.310  1.00  0.00    -0.338 N 
ATOM     17  H   UNL A   1      43.992  33.037  32.112  1.00  0.00     0.347 HD
ATOM     18  H   UNL A   1      42.603  32.239  31.455  1.00  0.00     0.347 HD
BRANCH  16  19
ATOM     19  C   UNL A   1      44.191  32.244  30.259  1.00  0.00     0.088 C 
ATOM     20  C   UNL A   1      43.355  31.837  29.036  1.00  0.00     0.078 C 
ATOM     21  C   UNL A   1      45.001  31.032  30.750  1.00  0.00     0.078 C 
ATOM     22  C   UNL A   1      45.197  33.328  29.819  1.00  0.00     0.078 C 
ENDBRANCH  16  19
ENDBRANCH  15  16
ENDBRANCH  11  15
ENDBRANCH   9  10
ENDBRANCH   6   9
ENDBRANCH   3   6
ENDBRANCH   1   2
BRANCH   1  23
ATOM     23  C   UNL A   1      35.633  32.884  29.836  1.00  0.00     0.042 C 
BRANCH  23  24
ATOM     24  C   UNL A   1      36.249  32.376  28.539  1.00  0.00     0.118 C 
BRANCH  24  25
ATOM     25  N   UNL A   1      35.510  31.231  28.027  1.00  0.00    -0.352 N 
ATOM     26  C   UNL A   1      35.944  29.961  27.743  1.00  0.00     0.251 C 
ATOM     27  H   UNL A   1      34.553  31.393  27.860  1.00  0.00     0.163 HD
ATOM     28  O   UNL A   1      35.240  29.232  27.058  1.00  0.00    -0.269 OA
BRANCH  26  29
ATOM     29  C   UNL A   1      37.255  29.486  28.227  1.00  0.00     0.039 A 
ATOM     30  C   UNL A   1      37.297  28.835  29.465  1.00  0.00     0.014 A 
ATOM     31  C   UNL A   1      38.433  29.727  27.511  1.00  0.00     0.014 A 
ATOM     32  C   UNL A   1      38.510  28.366  29.953  1.00  0.00     0.010 A 
ATOM     33  C   UNL A   1      39.641  29.231  27.976  1.00  0.00     0.010 A 
ATOM     34  C   UNL A   1      39.672  28.539  29.189  1.00  0.00    -0.014 A 
BRANCH  34  35
ATOM     35  C   UNL A   1      40.913  27.855  29.601  1.00  0.00     0.031 A 
ATOM     36  C   UNL A   1      41.197  26.618  28.714  1.00  0.00     0.074 A 
ATOM     37  C   UNL A   1      41.566  28.403  30.672  1.00  0.00     0.049 A 
ATOM     38  N   UNL A   1      41.917  25.569  28.958  1.00  0.00    -0.248 NA
ATOM     39  C   UNL A   1      40.539  26.498  27.379  1.00  0.00     0.031 C 
ATOM     40  C   UNL A   1      41.143  29.639  31.379  1.00  0.00     0.029 A 
ATOM     41  N   UNL A   1      42.693  28.064  31.389  1.00  0.00    -0.354 N 
ATOM     42  C   UNL A   1      41.935  24.761  27.793  1.00  0.00     0.074 A 
ATOM     43  C   UNL A   1      41.005  25.349  26.881  1.00  0.00     0.031 C 
ATOM     44  C   UNL A   1      41.934  29.886  32.447  1.00  0.00     0.029 A 
ATOM     45  C   UNL A   1      42.951  28.859  32.539  1.00  0.00     0.049 A 
ATOM     46  H   UNL A   1      43.281  27.321  31.121  1.00  0.00     0.167 HD
ATOM     47  C   UNL A   1      42.791  23.707  27.628  1.00  0.00     0.031 A 
ATOM     48  C   UNL A   1      43.883  28.672  33.523  1.00  0.00     0.031 A 
ATOM     49  C   UNL A   1      43.558  23.526  28.813  1.00  0.00     0.049 A 
ATOM     50  C   UNL A   1      44.708  27.542  33.071  1.00  0.00     0.074 A 
ATOM     51  C   UNL A   1      43.235  23.026  30.046  1.00  0.00     0.029 A 
ATOM     52  N   UNL A   1      44.727  24.242  28.901  1.00  0.00    -0.354 N 
ATOM     53  N   UNL A   1      45.570  27.590  32.102  1.00  0.00    -0.248 NA
ATOM     54  C   UNL A   1      44.495  26.224  33.681  1.00  0.00     0.031 C 
ATOM     55  C   UNL A   1      43.922  23.890  30.923  1.00  0.00     0.029 A 
ATOM     56  C   UNL A   1      44.803  24.696  30.194  1.00  0.00     0.049 A 
ATOM     57  H   UNL A   1      45.380  24.398  28.180  1.00  0.00     0.167 HD
ATOM     58  C   UNL A   1      45.682  26.271  31.746  1.00  0.00     0.074 A 
ATOM     59  C   UNL A   1      45.295  25.496  32.908  1.00  0.00     0.031 C 
ATOM     60  C   UNL A   1      45.541  25.911  30.445  1.00  0.00     0.031 A 
BRANCH  47  61
ATOM     61  C   UNL A   1      43.193  22.872  26.439  1.00  0.00    -0.014 A 
ATOM     62  C   UNL A   1      42.606  21.580  26.338  1.00  0.00     0.010 A 
ATOM     63  C   UNL A   1      44.321  23.127  25.650  1.00  0.00     0.010 A 
ATOM     64  C   UNL A   1      43.201  20.548  25.612  1.00  0.00     0.020 A 
ATOM     65  C   UNL A   1      44.907  22.099  24.883  1.00  0.00     0.020 A 
ATOM     66  C   UNL A   1      44.373  20.806  24.915  1.00  0.00     0.054 A 
BRANCH  66  67
ATOM     67  S   UNL A   1      45.222  19.405  24.132  1.00  0.00     0.124 S 
ATOM     68  O   UNL A   1      44.788  18.280  24.956  1.00  0.00    -0.237 OA
ATOM     69  O   UNL A   1      44.682  19.427  22.773  1.00  0.00    -0.237 OA
ATOM     70  O   UNL A   1      46.636  19.756  24.238  1.00  0.00    -0.744 OA
ENDBRANCH  66  67
ENDBRANCH  47  61
BRANCH  48  71
ATOM     71  C   UNL A   1      44.173  29.181  34.920  1.00  0.00    -0.014 A 
ATOM     72  C   UNL A   1      45.430  29.498  35.448  1.00  0.00     0.010 A 
ATOM     73  C   UNL A   1      43.058  29.514  35.746  1.00  0.00     0.010 A 
ATOM     74  C   UNL A   1      45.548  30.259  36.638  1.00  0.00     0.020 A 
ATOM     75  C   UNL A   1      43.156  30.311  36.887  1.00  0.00     0.020 A 
ATOM     76  C   UNL A   1      44.408  30.714  37.312  1.00  0.00     0.054 A 
BRANCH  76  77
ATOM     77  S   UNL A   1      44.532  31.954  38.635  1.00  0.00     0.124 S 
ATOM     78  O   UNL A   1      43.603  32.986  38.189  1.00  0.00    -0.237 OA
ATOM     79  O   UNL A   1      44.123  31.203  39.820  1.00  0.00    -0.237 OA
ATOM     80  O   UNL A   1      45.944  32.334  38.615  1.00  0.00    -0.744 OA
ENDBRANCH  76  77
ENDBRANCH  48  71
BRANCH  60  81
ATOM     81  C   UNL A   1      45.819  27.008  29.421  1.00  0.00    -0.014 A 
ATOM     82  C   UNL A   1      44.744  27.738  28.880  1.00  0.00     0.010 A 
ATOM     83  C   UNL A   1      47.104  27.289  28.911  1.00  0.00     0.010 A 
ATOM     84  C   UNL A   1      44.938  28.701  27.878  1.00  0.00     0.020 A 
ATOM     85  C   UNL A   1      47.311  28.255  27.907  1.00  0.00     0.020 A 
ATOM     86  C   UNL A   1      46.222  28.959  27.398  1.00  0.00     0.054 A 
BRANCH  86  87
ATOM     87  S   UNL A   1      46.432  30.221  26.106  1.00  0.00     0.124 S 
ATOM     88  O   UNL A   1      46.595  29.423  24.894  1.00  0.00    -0.237 OA
ATOM     89  O   UNL A   1      45.182  30.973  26.194  1.00  0.00    -0.237 OA
ATOM     90  O   UNL A   1      47.625  30.956  26.524  1.00  0.00    -0.744 OA
ENDBRANCH  86  87
ENDBRANCH  60  81
ENDBRANCH  34  35
ENDBRANCH  26  29
ENDBRANCH  24  25
ENDBRANCH  23  24
ENDBRANCH   1  23
TORSDOF 18
ENDMDL
