MODEL 1
REMARK VINA RESULT:     -10.6      0.000      0.000
REMARK SMILES CC(C)CCOCC[N@@H+]1[C@@H](C(=O)NCCCNC(=O)c2ccc(-c3c4nc(c(-c5ccc(S(=O)(=O)[O-])cc5)c5ccc([nH]5)c(-c5ccc(S(=O)(=O)[O-])cc5)c5nc(c(-c6ccc(S(=O)(=O)[O-])cc6)c6ccc3[nH]6)C=C5)C=C4)cc2)CC[C@H]2CCCC[C@H]21
REMARK SMILES IDX 11 1 12 2 13 3 10 5 9 6 87 7 80 9 82 10 86 11 81 12 83 13
REMARK SMILES IDX 85 14 84 15 8 16 7 17 6 18 5 19 4 20 2 21 1 22 3 23 14 24
REMARK SMILES IDX 15 25 16 26 17 27 18 28 19 30 20 31 21 32 79 33 22 34 78 35
REMARK SMILES IDX 23 36 24 37 25 38 72 39 26 40 77 41 71 42 73 43 27 44 76 45
REMARK SMILES IDX 70 46 69 47 28 49 58 50 39 51 57 52 40 53 43 54 56 55 74 56
REMARK SMILES IDX 41 57 42 58 55 60 75 61 44 62 29 63 30 64 38 65 31 66 37 67
REMARK SMILES IDX 32 68 33 69 34 70 35 71 36 72 59 73 60 74 68 75 61 76 67 77
REMARK SMILES IDX 62 78 63 79 64 80 65 81 66 82 45 83 46 84 54 85 47 86 53 87
REMARK SMILES IDX 48 88 49 89 50 90 51 91 52 92
REMARK H PARENT 13 4 9 8 17 29 73 48 43 59
REMARK Flexibility Score: inf
ROOT
ATOM      1  C   UNL A   1      32.088  24.939  26.621  1.00  0.00     0.278 C 
ATOM      2  O   UNL A   1      31.443  24.025  27.142  1.00  0.00    -0.268 OA
ATOM      3  N   UNL A   1      31.998  26.163  27.208  1.00  0.00    -0.351 N 
ATOM      4  H   UNL A   1      32.263  26.260  28.151  1.00  0.00     0.163 HD
ENDROOT
BRANCH   1   5
ATOM      5  C   UNL A   1      32.973  24.697  25.378  1.00  0.00     0.274 C 
ATOM      6  N   UNL A   1      32.377  23.762  24.389  1.00  0.00    -0.320 N 
ATOM      7  C   UNL A   1      33.294  23.096  23.445  1.00  0.00     0.187 C 
ATOM      8  H   UNL A   1      32.109  22.996  25.006  1.00  0.00     0.349 HD
ATOM      9  C   UNL A   1      34.418  24.449  25.830  1.00  0.00     0.076 C 
ATOM     10  C   UNL A   1      34.612  22.634  24.102  1.00  0.00     0.048 C 
ATOM     11  C   UNL A   1      32.677  21.834  22.802  1.00  0.00     0.065 C 
ATOM     12  C   UNL A   1      35.297  23.836  24.749  1.00  0.00     0.016 C 
ATOM     13  C   UNL A   1      34.448  21.466  25.098  1.00  0.00     0.010 C 
ATOM     14  C   UNL A   1      32.252  20.831  23.869  1.00  0.00     0.006 C 
ATOM     15  C   UNL A   1      33.424  20.386  24.735  1.00  0.00     0.001 C 
BRANCH   6  16
ATOM     16  C   UNL A   1      31.124  24.232  23.762  1.00  0.00     0.291 C 
BRANCH  16  17
ATOM     17  C   UNL A   1      30.902  25.516  22.895  1.00  0.00     0.221 C 
BRANCH  17  18
ATOM     18  O   UNL A   1      30.270  26.689  23.356  1.00  0.00    -0.376 OA
BRANCH  18  19
ATOM     19  C   UNL A   1      30.389  27.921  22.682  1.00  0.00     0.160 C 
BRANCH  19  20
ATOM     20  C   UNL A   1      30.135  29.295  23.343  1.00  0.00     0.031 C 
BRANCH  20  21
ATOM     21  C   UNL A   1      29.034  30.374  23.094  1.00  0.00    -0.015 C 
ATOM     22  C   UNL A   1      27.570  30.010  22.921  1.00  0.00     0.007 C 
ATOM     23  C   UNL A   1      29.165  31.529  24.104  1.00  0.00     0.007 C 
ENDBRANCH  20  21
ENDBRANCH  19  20
ENDBRANCH  18  19
ENDBRANCH  17  18
ENDBRANCH  16  17
ENDBRANCH   6  16
ENDBRANCH   1   5
BRANCH   3  24
ATOM     24  C   UNL A   1      31.525  27.322  26.495  1.00  0.00     0.118 C 
BRANCH  24  25
ATOM     25  C   UNL A   1      32.706  28.147  25.978  1.00  0.00     0.042 C 
BRANCH  25  26
ATOM     26  C   UNL A   1      33.706  28.519  27.073  1.00  0.00     0.118 C 
BRANCH  26  27
ATOM     27  N   UNL A   1      33.644  29.937  27.405  1.00  0.00    -0.352 N 
ATOM     28  C   UNL A   1      34.536  30.693  28.129  1.00  0.00     0.251 C 
ATOM     29  H   UNL A   1      32.856  30.419  27.064  1.00  0.00     0.163 HD
ATOM     30  O   UNL A   1      34.222  31.792  28.548  1.00  0.00    -0.269 OA
BRANCH  28  31
ATOM     31  C   UNL A   1      35.877  30.134  28.394  1.00  0.00     0.039 A 
ATOM     32  C   UNL A   1      36.833  30.138  27.379  1.00  0.00     0.014 A 
ATOM     33  C   UNL A   1      36.185  29.639  29.664  1.00  0.00     0.014 A 
ATOM     34  C   UNL A   1      38.129  29.701  27.659  1.00  0.00     0.010 A 
ATOM     35  C   UNL A   1      37.494  29.284  29.961  1.00  0.00     0.010 A 
ATOM     36  C   UNL A   1      38.479  29.306  28.962  1.00  0.00    -0.014 A 
BRANCH  36  37
ATOM     37  C   UNL A   1      39.865  28.906  29.306  1.00  0.00     0.031 A 
ATOM     38  C   UNL A   1      40.785  29.892  29.974  1.00  0.00     0.074 A 
ATOM     39  C   UNL A   1      40.319  27.689  28.945  1.00  0.00     0.049 A 
ATOM     40  N   UNL A   1      42.051  29.764  30.277  1.00  0.00    -0.248 NA
ATOM     41  C   UNL A   1      40.216  31.206  30.318  1.00  0.00     0.031 C 
ATOM     42  C   UNL A   1      39.536  26.664  28.248  1.00  0.00     0.029 A 
ATOM     43  N   UNL A   1      41.552  27.110  29.104  1.00  0.00    -0.354 N 
ATOM     44  C   UNL A   1      42.434  30.985  30.822  1.00  0.00     0.074 A 
ATOM     45  C   UNL A   1      41.283  31.857  30.758  1.00  0.00     0.031 C 
ATOM     46  C   UNL A   1      40.300  25.575  28.066  1.00  0.00     0.029 A 
ATOM     47  C   UNL A   1      41.637  25.836  28.589  1.00  0.00     0.049 A 
ATOM     48  H   UNL A   1      42.307  27.563  29.545  1.00  0.00     0.167 HD
ATOM     49  C   UNL A   1      43.630  31.341  31.346  1.00  0.00     0.031 A 
ATOM     50  C   UNL A   1      42.675  24.980  28.537  1.00  0.00     0.031 A 
ATOM     51  C   UNL A   1      44.766  30.461  31.420  1.00  0.00     0.049 A 
ATOM     52  C   UNL A   1      43.994  25.397  29.130  1.00  0.00     0.074 A 
ATOM     53  C   UNL A   1      46.005  30.702  31.989  1.00  0.00     0.029 A 
ATOM     54  N   UNL A   1      44.803  29.172  30.911  1.00  0.00    -0.354 N 
ATOM     55  N   UNL A   1      44.317  26.532  29.704  1.00  0.00    -0.248 NA
ATOM     56  C   UNL A   1      45.085  24.414  29.080  1.00  0.00     0.031 C 
ATOM     57  C   UNL A   1      46.807  29.578  31.774  1.00  0.00     0.029 A 
ATOM     58  C   UNL A   1      46.050  28.612  31.131  1.00  0.00     0.049 A 
ATOM     59  H   UNL A   1      44.053  28.722  30.459  1.00  0.00     0.167 HD
ATOM     60  C   UNL A   1      45.639  26.387  30.111  1.00  0.00     0.074 A 
ATOM     61  C   UNL A   1      46.050  25.051  29.729  1.00  0.00     0.031 C 
ATOM     62  C   UNL A   1      46.439  27.279  30.747  1.00  0.00     0.031 A 
BRANCH  49  63
ATOM     63  C   UNL A   1      43.768  32.744  31.877  1.00  0.00    -0.014 A 
ATOM     64  C   UNL A   1      44.248  33.787  31.062  1.00  0.00     0.010 A 
ATOM     65  C   UNL A   1      43.383  33.034  33.198  1.00  0.00     0.010 A 
ATOM     66  C   UNL A   1      44.384  35.080  31.572  1.00  0.00     0.020 A 
ATOM     67  C   UNL A   1      43.486  34.334  33.703  1.00  0.00     0.020 A 
ATOM     68  C   UNL A   1      44.004  35.345  32.891  1.00  0.00     0.054 A 
BRANCH  68  69
ATOM     69  S   UNL A   1      44.171  37.039  33.518  1.00  0.00     0.124 S 
ATOM     70  O   UNL A   1      43.455  36.960  34.789  1.00  0.00    -0.237 OA
ATOM     71  O   UNL A   1      45.618  37.201  33.622  1.00  0.00    -0.237 OA
ATOM     72  O   UNL A   1      43.527  37.855  32.492  1.00  0.00    -0.744 OA
ENDBRANCH  68  69
ENDBRANCH  49  63
BRANCH  50  73
ATOM     73  C   UNL A   1      42.502  23.638  27.917  1.00  0.00    -0.014 A 
ATOM     74  C   UNL A   1      42.768  23.443  26.550  1.00  0.00     0.010 A 
ATOM     75  C   UNL A   1      42.087  22.540  28.694  1.00  0.00     0.010 A 
ATOM     76  C   UNL A   1      42.604  22.182  25.967  1.00  0.00     0.020 A 
ATOM     77  C   UNL A   1      41.950  21.273  28.122  1.00  0.00     0.020 A 
ATOM     78  C   UNL A   1      42.199  21.103  26.759  1.00  0.00     0.054 A 
BRANCH  78  79
ATOM     79  S   UNL A   1      42.044  19.466  25.992  1.00  0.00     0.124 S 
ATOM     80  O   UNL A   1      42.964  19.570  24.864  1.00  0.00    -0.237 OA
ATOM     81  O   UNL A   1      42.460  18.573  27.070  1.00  0.00    -0.237 OA
ATOM     82  O   UNL A   1      40.628  19.386  25.640  1.00  0.00    -0.744 OA
ENDBRANCH  78  79
ENDBRANCH  50  73
BRANCH  62  83
ATOM     83  C   UNL A   1      47.829  26.829  31.111  1.00  0.00    -0.014 A 
ATOM     84  C   UNL A   1      48.122  26.313  32.384  1.00  0.00     0.010 A 
ATOM     85  C   UNL A   1      48.842  26.865  30.135  1.00  0.00     0.010 A 
ATOM     86  C   UNL A   1      49.411  25.865  32.684  1.00  0.00     0.020 A 
ATOM     87  C   UNL A   1      50.124  26.390  30.421  1.00  0.00     0.020 A 
ATOM     88  C   UNL A   1      50.403  25.905  31.700  1.00  0.00     0.054 A 
BRANCH  88  89
ATOM     89  S   UNL A   1      52.054  25.269  32.098  1.00  0.00     0.124 S 
ATOM     90  O   UNL A   1      52.829  25.684  30.931  1.00  0.00    -0.237 OA
ATOM     91  O   UNL A   1      52.373  25.963  33.343  1.00  0.00    -0.237 OA
ATOM     92  O   UNL A   1      51.850  23.828  32.230  1.00  0.00    -0.744 OA
ENDBRANCH  88  89
ENDBRANCH  62  83
ENDBRANCH  36  37
ENDBRANCH  28  31
ENDBRANCH  26  27
ENDBRANCH  25  26
ENDBRANCH  24  25
ENDBRANCH   3  24
TORSDOF 19
ENDMDL
MODEL 2
REMARK VINA RESULT:     -10.5      2.628      9.377
REMARK SMILES CC(C)CCOCC[N@@H+]1[C@@H](C(=O)NCCCNC(=O)c2ccc(-c3c4nc(c(-c5ccc(S(=O)(=O)[O-])cc5)c5ccc([nH]5)c(-c5ccc(S(=O)(=O)[O-])cc5)c5nc(c(-c6ccc(S(=O)(=O)[O-])cc6)c6ccc3[nH]6)C=C5)C=C4)cc2)CC[C@H]2CCCC[C@H]21
REMARK SMILES IDX 11 1 12 2 13 3 10 5 9 6 87 7 80 9 82 10 86 11 81 12 83 13
REMARK SMILES IDX 85 14 84 15 8 16 7 17 6 18 5 19 4 20 2 21 1 22 3 23 14 24
REMARK SMILES IDX 15 25 16 26 17 27 18 28 19 30 20 31 21 32 79 33 22 34 78 35
REMARK SMILES IDX 23 36 24 37 25 38 72 39 26 40 77 41 71 42 73 43 27 44 76 45
REMARK SMILES IDX 70 46 69 47 28 49 58 50 39 51 57 52 40 53 43 54 56 55 74 56
REMARK SMILES IDX 41 57 42 58 55 60 75 61 44 62 29 63 30 64 38 65 31 66 37 67
REMARK SMILES IDX 32 68 33 69 34 70 35 71 36 72 59 73 60 74 68 75 61 76 67 77
REMARK SMILES IDX 62 78 63 79 64 80 65 81 66 82 45 83 46 84 54 85 47 86 53 87
REMARK SMILES IDX 48 88 49 89 50 90 51 91 52 92
REMARK H PARENT 13 4 9 8 17 29 73 48 43 59
REMARK Flexibility Score: inf
ROOT
ATOM      1  C   UNL A   1      32.121  24.168  26.404  1.00  0.00     0.278 C 
ATOM      2  O   UNL A   1      31.767  23.799  27.528  1.00  0.00    -0.268 OA
ATOM      3  N   UNL A   1      33.258  23.611  25.907  1.00  0.00    -0.351 N 
ATOM      4  H   UNL A   1      33.306  22.633  25.807  1.00  0.00     0.163 HD
ENDROOT
BRANCH   1   5
ATOM      5  C   UNL A   1      31.297  25.194  25.593  1.00  0.00     0.274 C 
ATOM      6  N   UNL A   1      31.439  25.049  24.122  1.00  0.00    -0.320 N 
ATOM      7  C   UNL A   1      31.114  26.222  23.289  1.00  0.00     0.187 C 
ATOM      8  H   UNL A   1      32.455  25.002  24.042  1.00  0.00     0.349 HD
ATOM      9  C   UNL A   1      31.489  26.587  26.205  1.00  0.00     0.076 C 
ATOM     10  C   UNL A   1      31.621  27.551  23.888  1.00  0.00     0.048 C 
ATOM     11  C   UNL A   1      31.725  26.137  21.872  1.00  0.00     0.065 C 
ATOM     12  C   UNL A   1      31.043  27.720  25.291  1.00  0.00     0.016 C 
ATOM     13  C   UNL A   1      33.157  27.704  23.881  1.00  0.00     0.010 C 
ATOM     14  C   UNL A   1      33.240  25.983  21.940  1.00  0.00     0.006 C 
ATOM     15  C   UNL A   1      33.902  27.151  22.662  1.00  0.00     0.001 C 
BRANCH   6  16
ATOM     16  C   UNL A   1      30.933  23.775  23.568  1.00  0.00     0.291 C 
BRANCH  16  17
ATOM     17  C   UNL A   1      31.749  22.633  22.876  1.00  0.00     0.221 C 
BRANCH  17  18
ATOM     18  O   UNL A   1      32.682  21.807  23.537  1.00  0.00    -0.376 OA
BRANCH  18  19
ATOM     19  C   UNL A   1      32.331  20.549  24.064  1.00  0.00     0.160 C 
BRANCH  19  20
ATOM     20  C   UNL A   1      33.348  19.543  24.651  1.00  0.00     0.031 C 
BRANCH  20  21
ATOM     21  C   UNL A   1      33.652  18.055  24.294  1.00  0.00    -0.015 C 
ATOM     22  C   UNL A   1      33.158  17.414  23.009  1.00  0.00     0.007 C 
ATOM     23  C   UNL A   1      35.148  17.743  24.485  1.00  0.00     0.007 C 
ENDBRANCH  20  21
ENDBRANCH  19  20
ENDBRANCH  18  19
ENDBRANCH  17  18
ENDBRANCH  16  17
ENDBRANCH   6  16
ENDBRANCH   1   5
BRANCH   3  24
ATOM     24  C   UNL A   1      34.397  24.407  25.524  1.00  0.00     0.118 C 
BRANCH  24  25
ATOM     25  C   UNL A   1      35.681  23.813  26.107  1.00  0.00     0.042 C 
BRANCH  25  26
ATOM     26  C   UNL A   1      36.824  23.736  25.095  1.00  0.00     0.118 C 
BRANCH  26  27
ATOM     27  N   UNL A   1      37.799  22.715  25.454  1.00  0.00    -0.352 N 
ATOM     28  C   UNL A   1      39.023  22.866  26.063  1.00  0.00     0.251 C 
ATOM     29  H   UNL A   1      37.547  21.790  25.229  1.00  0.00     0.163 HD
ATOM     30  O   UNL A   1      39.836  21.960  26.057  1.00  0.00    -0.269 OA
BRANCH  28  31
ATOM     31  C   UNL A   1      39.329  24.156  26.714  1.00  0.00     0.039 A 
ATOM     32  C   UNL A   1      38.922  24.372  28.030  1.00  0.00     0.014 A 
ATOM     33  C   UNL A   1      40.049  25.132  26.018  1.00  0.00     0.014 A 
ATOM     34  C   UNL A   1      39.297  25.552  28.676  1.00  0.00     0.010 A 
ATOM     35  C   UNL A   1      40.490  26.265  26.689  1.00  0.00     0.010 A 
ATOM     36  C   UNL A   1      40.115  26.490  28.022  1.00  0.00    -0.014 A 
BRANCH  36  37
ATOM     37  C   UNL A   1      40.589  27.717  28.708  1.00  0.00     0.031 A 
ATOM     38  C   UNL A   1      41.964  27.751  29.316  1.00  0.00     0.074 A 
ATOM     39  C   UNL A   1      39.754  28.766  28.853  1.00  0.00     0.049 A 
ATOM     40  N   UNL A   1      42.529  28.693  30.027  1.00  0.00    -0.248 NA
ATOM     41  C   UNL A   1      42.805  26.556  29.129  1.00  0.00     0.031 C 
ATOM     42  C   UNL A   1      38.380  28.833  28.349  1.00  0.00     0.029 A 
ATOM     43  N   UNL A   1      39.937  29.975  29.475  1.00  0.00    -0.354 N 
ATOM     44  C   UNL A   1      43.775  28.196  30.391  1.00  0.00     0.074 A 
ATOM     45  C   UNL A   1      43.864  26.850  29.870  1.00  0.00     0.031 C 
ATOM     46  C   UNL A   1      37.855  30.029  28.659  1.00  0.00     0.029 A 
ATOM     47  C   UNL A   1      38.834  30.797  29.420  1.00  0.00     0.049 A 
ATOM     48  H   UNL A   1      40.777  30.231  29.920  1.00  0.00     0.167 HD
ATOM     49  C   UNL A   1      44.765  28.811  31.079  1.00  0.00     0.031 A 
ATOM     50  C   UNL A   1      38.633  32.027  29.933  1.00  0.00     0.031 A 
ATOM     51  C   UNL A   1      44.675  30.157  31.582  1.00  0.00     0.049 A 
ATOM     52  C   UNL A   1      39.749  32.692  30.691  1.00  0.00     0.074 A 
ATOM     53  C   UNL A   1      45.644  30.896  32.238  1.00  0.00     0.029 A 
ATOM     54  N   UNL A   1      43.552  30.964  31.484  1.00  0.00    -0.354 N 
ATOM     55  N   UNL A   1      40.947  32.232  30.965  1.00  0.00    -0.248 NA
ATOM     56  C   UNL A   1      39.492  34.046  31.199  1.00  0.00     0.031 C 
ATOM     57  C   UNL A   1      45.087  32.131  32.583  1.00  0.00     0.029 A 
ATOM     58  C   UNL A   1      43.795  32.186  32.086  1.00  0.00     0.049 A 
ATOM     59  H   UNL A   1      42.707  30.706  31.050  1.00  0.00     0.167 HD
ATOM     60  C   UNL A   1      41.597  33.253  31.651  1.00  0.00     0.074 A 
ATOM     61  C   UNL A   1      40.663  34.358  31.738  1.00  0.00     0.031 C 
ATOM     62  C   UNL A   1      42.854  33.275  32.159  1.00  0.00     0.031 A 
BRANCH  49  63
ATOM     63  C   UNL A   1      46.029  28.030  31.332  1.00  0.00    -0.014 A 
ATOM     64  C   UNL A   1      46.176  27.236  32.485  1.00  0.00     0.010 A 
ATOM     65  C   UNL A   1      47.071  28.062  30.389  1.00  0.00     0.010 A 
ATOM     66  C   UNL A   1      47.358  26.528  32.712  1.00  0.00     0.020 A 
ATOM     67  C   UNL A   1      48.245  27.329  30.597  1.00  0.00     0.020 A 
ATOM     68  C   UNL A   1      48.386  26.581  31.767  1.00  0.00     0.054 A 
BRANCH  68  69
ATOM     69  S   UNL A   1      49.901  25.634  32.079  1.00  0.00     0.124 S 
ATOM     70  O   UNL A   1      50.158  25.039  30.770  1.00  0.00    -0.237 OA
ATOM     71  O   UNL A   1      50.846  26.667  32.495  1.00  0.00    -0.237 OA
ATOM     72  O   UNL A   1      49.513  24.691  33.125  1.00  0.00    -0.744 OA
ENDBRANCH  68  69
ENDBRANCH  49  63
BRANCH  50  73
ATOM     73  C   UNL A   1      37.328  32.714  29.728  1.00  0.00    -0.014 A 
ATOM     74  C   UNL A   1      36.365  32.738  30.752  1.00  0.00     0.010 A 
ATOM     75  C   UNL A   1      37.046  33.363  28.512  1.00  0.00     0.010 A 
ATOM     76  C   UNL A   1      35.139  33.381  30.559  1.00  0.00     0.020 A 
ATOM     77  C   UNL A   1      35.834  34.033  28.325  1.00  0.00     0.020 A 
ATOM     78  C   UNL A   1      34.882  34.029  29.347  1.00  0.00     0.054 A 
BRANCH  78  79
ATOM     79  S   UNL A   1      33.305  34.902  29.138  1.00  0.00     0.124 S 
ATOM     80  O   UNL A   1      32.632  34.079  28.139  1.00  0.00    -0.237 OA
ATOM     81  O   UNL A   1      32.739  34.856  30.484  1.00  0.00    -0.237 OA
ATOM     82  O   UNL A   1      33.709  36.233  28.687  1.00  0.00    -0.744 OA
ENDBRANCH  78  79
ENDBRANCH  50  73
BRANCH  62  83
ATOM     83  C   UNL A   1      43.315  34.548  32.819  1.00  0.00    -0.014 A 
ATOM     84  C   UNL A   1      44.004  35.538  32.099  1.00  0.00     0.010 A 
ATOM     85  C   UNL A   1      42.990  34.781  34.168  1.00  0.00     0.010 A 
ATOM     86  C   UNL A   1      44.386  36.728  32.725  1.00  0.00     0.020 A 
ATOM     87  C   UNL A   1      43.343  35.981  34.789  1.00  0.00     0.020 A 
ATOM     88  C   UNL A   1      44.051  36.943  34.065  1.00  0.00     0.054 A 
BRANCH  88  89
ATOM     89  S   UNL A   1      44.512  38.516  34.839  1.00  0.00     0.124 S 
ATOM     90  O   UNL A   1      45.863  38.724  34.323  1.00  0.00    -0.237 OA
ATOM     91  O   UNL A   1      43.496  39.434  34.329  1.00  0.00    -0.237 OA
ATOM     92  O   UNL A   1      44.429  38.238  36.271  1.00  0.00    -0.744 OA
ENDBRANCH  88  89
ENDBRANCH  62  83
ENDBRANCH  36  37
ENDBRANCH  28  31
ENDBRANCH  26  27
ENDBRANCH  25  26
ENDBRANCH  24  25
ENDBRANCH   3  24
TORSDOF 19
ENDMDL
MODEL 3
REMARK VINA RESULT:     -10.5      4.625     10.578
REMARK SMILES CC(C)CCOCC[N@@H+]1[C@@H](C(=O)NCCCNC(=O)c2ccc(-c3c4nc(c(-c5ccc(S(=O)(=O)[O-])cc5)c5ccc([nH]5)c(-c5ccc(S(=O)(=O)[O-])cc5)c5nc(c(-c6ccc(S(=O)(=O)[O-])cc6)c6ccc3[nH]6)C=C5)C=C4)cc2)CC[C@H]2CCCC[C@H]21
REMARK SMILES IDX 11 1 12 2 13 3 10 5 9 6 87 7 80 9 82 10 86 11 81 12 83 13
REMARK SMILES IDX 85 14 84 15 8 16 7 17 6 18 5 19 4 20 2 21 1 22 3 23 14 24
REMARK SMILES IDX 15 25 16 26 17 27 18 28 19 30 20 31 21 32 79 33 22 34 78 35
REMARK SMILES IDX 23 36 24 37 25 38 72 39 26 40 77 41 71 42 73 43 27 44 76 45
REMARK SMILES IDX 70 46 69 47 28 49 58 50 39 51 57 52 40 53 43 54 56 55 74 56
REMARK SMILES IDX 41 57 42 58 55 60 75 61 44 62 29 63 30 64 38 65 31 66 37 67
REMARK SMILES IDX 32 68 33 69 34 70 35 71 36 72 59 73 60 74 68 75 61 76 67 77
REMARK SMILES IDX 62 78 63 79 64 80 65 81 66 82 45 83 46 84 54 85 47 86 53 87
REMARK SMILES IDX 48 88 49 89 50 90 51 91 52 92
REMARK H PARENT 13 4 9 8 17 29 73 48 43 59
REMARK Flexibility Score: inf
ROOT
ATOM      1  C   UNL A   1      35.345  21.479  24.774  1.00  0.00     0.278 C 
ATOM      2  O   UNL A   1      35.690  20.319  25.016  1.00  0.00    -0.268 OA
ATOM      3  N   UNL A   1      36.231  22.249  24.086  1.00  0.00    -0.351 N 
ATOM      4  H   UNL A   1      36.530  21.953  23.197  1.00  0.00     0.163 HD
ENDROOT
BRANCH   1   5
ATOM      5  C   UNL A   1      33.966  22.021  25.211  1.00  0.00     0.274 C 
ATOM      6  N   UNL A   1      33.295  22.857  24.182  1.00  0.00    -0.320 N 
ATOM      7  C   UNL A   1      32.253  23.795  24.641  1.00  0.00     0.187 C 
ATOM      8  H   UNL A   1      34.059  23.486  23.936  1.00  0.00     0.349 HD
ATOM      9  C   UNL A   1      34.073  22.577  26.637  1.00  0.00     0.076 C 
ATOM     10  C   UNL A   1      32.618  24.510  25.958  1.00  0.00     0.048 C 
ATOM     11  C   UNL A   1      31.965  24.915  23.617  1.00  0.00     0.065 C 
ATOM     12  C   UNL A   1      32.902  23.464  27.035  1.00  0.00     0.016 C 
ATOM     13  C   UNL A   1      33.775  25.525  25.829  1.00  0.00     0.010 C 
ATOM     14  C   UNL A   1      33.231  25.701  23.298  1.00  0.00     0.006 C 
ATOM     15  C   UNL A   1      33.830  26.350  24.540  1.00  0.00     0.001 C 
BRANCH   6  16
ATOM     16  C   UNL A   1      32.941  22.147  22.935  1.00  0.00     0.291 C 
BRANCH  16  17
ATOM     17  C   UNL A   1      32.137  20.813  22.779  1.00  0.00     0.221 C 
BRANCH  17  18
ATOM     18  O   UNL A   1      32.103  19.786  23.744  1.00  0.00    -0.376 OA
BRANCH  18  19
ATOM     19  C   UNL A   1      32.770  18.559  23.559  1.00  0.00     0.160 C 
BRANCH  19  20
ATOM     20  C   UNL A   1      33.317  17.690  24.715  1.00  0.00     0.031 C 
BRANCH  20  21
ATOM     21  C   UNL A   1      33.825  16.214  24.747  1.00  0.00    -0.015 C 
ATOM     22  C   UNL A   1      35.199  15.843  25.274  1.00  0.00     0.007 C 
ATOM     23  C   UNL A   1      32.764  15.286  25.369  1.00  0.00     0.007 C 
ENDBRANCH  20  21
ENDBRANCH  19  20
ENDBRANCH  18  19
ENDBRANCH  17  18
ENDBRANCH  16  17
ENDBRANCH   6  16
ENDBRANCH   1   5
BRANCH   3  24
ATOM     24  C   UNL A   1      36.748  23.485  24.620  1.00  0.00     0.118 C 
BRANCH  24  25
ATOM     25  C   UNL A   1      37.538  23.220  25.903  1.00  0.00     0.042 C 
BRANCH  25  26
ATOM     26  C   UNL A   1      38.430  24.392  26.314  1.00  0.00     0.118 C 
BRANCH  26  27
ATOM     27  N   UNL A   1      39.845  24.070  26.178  1.00  0.00    -0.352 N 
ATOM     28  C   UNL A   1      40.937  24.775  26.627  1.00  0.00     0.251 C 
ATOM     29  H   UNL A   1      40.046  23.233  25.699  1.00  0.00     0.163 HD
ATOM     30  O   UNL A   1      42.053  24.523  26.210  1.00  0.00    -0.269 OA
BRANCH  28  31
ATOM     31  C   UNL A   1      40.721  25.850  27.616  1.00  0.00     0.039 A 
ATOM     32  C   UNL A   1      39.757  25.681  28.610  1.00  0.00     0.014 A 
ATOM     33  C   UNL A   1      41.504  27.006  27.567  1.00  0.00     0.014 A 
ATOM     34  C   UNL A   1      39.622  26.654  29.602  1.00  0.00     0.010 A 
ATOM     35  C   UNL A   1      41.424  27.930  28.601  1.00  0.00     0.010 A 
ATOM     36  C   UNL A   1      40.480  27.768  29.626  1.00  0.00    -0.014 A 
BRANCH  36  37
ATOM     37  C   UNL A   1      40.408  28.780  30.708  1.00  0.00     0.031 A 
ATOM     38  C   UNL A   1      41.295  28.649  31.916  1.00  0.00     0.074 A 
ATOM     39  C   UNL A   1      39.491  29.766  30.641  1.00  0.00     0.049 A 
ATOM     40  N   UNL A   1      41.323  29.377  33.002  1.00  0.00    -0.248 NA
ATOM     41  C   UNL A   1      42.256  27.532  31.919  1.00  0.00     0.031 C 
ATOM     42  C   UNL A   1      38.541  29.968  29.544  1.00  0.00     0.029 A 
ATOM     43  N   UNL A   1      39.199  30.778  31.520  1.00  0.00    -0.354 N 
ATOM     44  C   UNL A   1      42.282  28.794  33.823  1.00  0.00     0.074 A 
ATOM     45  C   UNL A   1      42.774  27.622  33.135  1.00  0.00     0.031 C 
ATOM     46  C   UNL A   1      37.793  31.053  29.803  1.00  0.00     0.029 A 
ATOM     47  C   UNL A   1      38.176  31.597  31.102  1.00  0.00     0.049 A 
ATOM     48  H   UNL A   1      39.677  30.907  32.371  1.00  0.00     0.167 HD
ATOM     49  C   UNL A   1      42.727  29.209  35.033  1.00  0.00     0.031 A 
ATOM     50  C   UNL A   1      37.604  32.660  31.700  1.00  0.00     0.031 A 
ATOM     51  C   UNL A   1      42.243  30.386  35.704  1.00  0.00     0.049 A 
ATOM     52  C   UNL A   1      38.119  33.104  33.042  1.00  0.00     0.074 A 
ATOM     53  C   UNL A   1      42.671  30.929  36.903  1.00  0.00     0.029 A 
ATOM     54  N   UNL A   1      41.224  31.201  35.236  1.00  0.00    -0.354 N 
ATOM     55  N   UNL A   1      39.075  32.580  33.772  1.00  0.00    -0.248 NA
ATOM     56  C   UNL A   1      37.486  34.290  33.637  1.00  0.00     0.031 C 
ATOM     57  C   UNL A   1      41.874  32.042  37.185  1.00  0.00     0.029 A 
ATOM     58  C   UNL A   1      40.994  32.231  36.131  1.00  0.00     0.049 A 
ATOM     59  H   UNL A   1      40.737  31.067  34.391  1.00  0.00     0.167 HD
ATOM     60  C   UNL A   1      39.179  33.391  34.897  1.00  0.00     0.074 A 
ATOM     61  C   UNL A   1      38.198  34.447  34.745  1.00  0.00     0.031 C 
ATOM     62  C   UNL A   1      40.015  33.275  35.960  1.00  0.00     0.031 A 
BRANCH  49  63
ATOM     63  C   UNL A   1      43.789  28.379  35.707  1.00  0.00    -0.014 A 
ATOM     64  C   UNL A   1      45.154  28.693  35.571  1.00  0.00     0.010 A 
ATOM     65  C   UNL A   1      43.417  27.289  36.514  1.00  0.00     0.010 A 
ATOM     66  C   UNL A   1      46.127  27.906  36.191  1.00  0.00     0.020 A 
ATOM     67  C   UNL A   1      44.387  26.518  37.163  1.00  0.00     0.020 A 
ATOM     68  C   UNL A   1      45.737  26.822  36.981  1.00  0.00     0.054 A 
BRANCH  68  69
ATOM     69  S   UNL A   1      47.023  25.832  37.792  1.00  0.00     0.124 S 
ATOM     70  O   UNL A   1      48.242  26.512  37.362  1.00  0.00    -0.237 OA
ATOM     71  O   UNL A   1      46.691  25.972  39.207  1.00  0.00    -0.237 OA
ATOM     72  O   UNL A   1      46.831  24.493  37.241  1.00  0.00    -0.744 OA
ENDBRANCH  68  69
ENDBRANCH  49  63
BRANCH  50  73
ATOM     73  C   UNL A   1      36.495  33.387  31.024  1.00  0.00    -0.014 A 
ATOM     74  C   UNL A   1      36.676  33.933  29.740  1.00  0.00     0.010 A 
ATOM     75  C   UNL A   1      35.243  33.524  31.652  1.00  0.00     0.010 A 
ATOM     76  C   UNL A   1      35.635  34.617  29.106  1.00  0.00     0.020 A 
ATOM     77  C   UNL A   1      34.191  34.181  31.009  1.00  0.00     0.020 A 
ATOM     78  C   UNL A   1      34.396  34.734  29.744  1.00  0.00     0.054 A 
BRANCH  78  79
ATOM     79  S   UNL A   1      33.043  35.580  28.879  1.00  0.00     0.124 S 
ATOM     80  O   UNL A   1      33.762  36.583  28.100  1.00  0.00    -0.237 OA
ATOM     81  O   UNL A   1      32.434  34.497  28.111  1.00  0.00    -0.237 OA
ATOM     82  O   UNL A   1      32.217  36.103  29.966  1.00  0.00    -0.744 OA
ENDBRANCH  78  79
ENDBRANCH  50  73
BRANCH  62  83
ATOM     83  C   UNL A   1      39.938  34.337  37.024  1.00  0.00    -0.014 A 
ATOM     84  C   UNL A   1      40.656  35.540  36.911  1.00  0.00     0.010 A 
ATOM     85  C   UNL A   1      39.079  34.151  38.123  1.00  0.00     0.010 A 
ATOM     86  C   UNL A   1      40.537  36.527  37.893  1.00  0.00     0.020 A 
ATOM     87  C   UNL A   1      38.934  35.147  39.091  1.00  0.00     0.020 A 
ATOM     88  C   UNL A   1      39.675  36.325  38.975  1.00  0.00     0.054 A 
BRANCH  88  89
ATOM     89  S   UNL A   1      39.498  37.643  40.208  1.00  0.00     0.124 S 
ATOM     90  O   UNL A   1      39.079  36.896  41.392  1.00  0.00    -0.237 OA
ATOM     91  O   UNL A   1      40.843  38.210  40.266  1.00  0.00    -0.237 OA
ATOM     92  O   UNL A   1      38.482  38.522  39.635  1.00  0.00    -0.744 OA
ENDBRANCH  88  89
ENDBRANCH  62  83
ENDBRANCH  36  37
ENDBRANCH  28  31
ENDBRANCH  26  27
ENDBRANCH  25  26
ENDBRANCH  24  25
ENDBRANCH   3  24
TORSDOF 19
ENDMDL
