MODEL 1
REMARK VINA RESULT:     -12.7      0.000      0.000
REMARK SMILES O=C(NCCCNC(=O)c1ccc(-n2cc(CSc3nc4ccccc4c(=O)n3-c3ccc(Cl)cc3)nn2)cc1)c1ccc(-c2c3nc(c(-c4ccc(S(=O)(=O)[O-])cc4)c4ccc([nH]4)c(-c4ccc(S(=O)(=O)[O-])cc4)c4nc(c(-c5ccc(S(=O)(=O)[O-])cc5)c5ccc2[nH]5)C=C4)C=C3)cc1
REMARK SMILES IDX 6 1 5 2 4 3 3 4 1 5 2 6 41 8 42 9 100 10 43 11 99 12 44 13
REMARK SMILES IDX 45 14 46 15 93 16 47 17 98 18 92 19 94 20 48 21 97 22 91 23
REMARK SMILES IDX 90 24 49 26 79 27 60 28 78 29 61 30 64 31 77 32 95 33 62 34
REMARK SMILES IDX 63 35 76 37 96 38 65 39 50 40 51 41 59 42 52 43 58 44 53 45
REMARK SMILES IDX 54 46 55 47 56 48 57 49 80 50 81 51 89 52 82 53 88 54 83 55
REMARK SMILES IDX 84 56 85 57 86 58 87 59 66 60 67 61 75 62 68 63 74 64 69 65
REMARK SMILES IDX 70 66 71 67 72 68 73 69 7 70 8 71 9 73 10 74 11 75 40 76
REMARK SMILES IDX 12 77 39 78 13 79 14 80 15 81 38 82 16 83 37 84 17 85 18 86
REMARK SMILES IDX 19 87 20 88 29 89 21 90 27 91 22 92 26 93 28 94 23 95 25 96
REMARK SMILES IDX 24 97 30 98 31 99 36 100 32 101 35 102 33 103 34 104
REMARK H PARENT 3 7 94 25 64 36 7 72
REMARK Flexibility Score: inf
ROOT
ATOM      1  C   UNL A   1      34.892  22.930  25.525  1.00  0.00     0.118 C 
ENDROOT
BRANCH   1   2
ATOM      2  C   UNL A   1      35.969  23.762  24.828  1.00  0.00     0.042 C 
BRANCH   2   3
ATOM      3  C   UNL A   1      37.347  23.731  25.485  1.00  0.00     0.118 C 
BRANCH   3   4
ATOM      4  N   UNL A   1      38.004  22.439  25.484  1.00  0.00    -0.352 N 
ATOM      5  O   UNL A   1      39.273  20.699  25.919  1.00  0.00    -0.269 OA
ATOM      6  C   UNL A   1      39.176  21.929  25.972  1.00  0.00     0.251 C 
ATOM      7  H   UNL A   1      37.474  21.756  25.014  1.00  0.00     0.163 HD
BRANCH   6   8
ATOM      8  C   UNL A   1      40.333  22.711  26.497  1.00  0.00     0.039 A 
ATOM      9  C   UNL A   1      40.270  23.836  27.320  1.00  0.00     0.014 A 
ATOM     10  C   UNL A   1      41.607  22.249  26.101  1.00  0.00     0.014 A 
ATOM     11  C   UNL A   1      41.446  24.500  27.697  1.00  0.00     0.010 A 
ATOM     12  C   UNL A   1      42.779  22.909  26.473  1.00  0.00     0.010 A 
ATOM     13  C   UNL A   1      42.701  24.050  27.262  1.00  0.00    -0.014 A 
BRANCH  13  14
ATOM     14  C   UNL A   1      43.912  24.672  27.813  1.00  0.00     0.031 A 
ATOM     15  C   UNL A   1      44.059  24.526  29.290  1.00  0.00     0.074 A 
ATOM     16  C   UNL A   1      44.938  25.194  27.106  1.00  0.00     0.049 A 
ATOM     17  N   UNL A   1      43.994  25.451  30.190  1.00  0.00    -0.248 NA
ATOM     18  C   UNL A   1      44.196  23.168  29.837  1.00  0.00     0.031 C 
ATOM     19  C   UNL A   1      45.155  25.147  25.660  1.00  0.00     0.029 A 
ATOM     20  N   UNL A   1      46.072  25.811  27.566  1.00  0.00    -0.354 N 
ATOM     21  C   UNL A   1      44.283  24.831  31.403  1.00  0.00     0.074 A 
ATOM     22  C   UNL A   1      44.245  23.413  31.147  1.00  0.00     0.031 C 
ATOM     23  C   UNL A   1      46.428  25.519  25.384  1.00  0.00     0.029 A 
ATOM     24  C   UNL A   1      47.074  25.962  26.610  1.00  0.00     0.049 A 
ATOM     25  H   UNL A   1      46.171  26.121  28.495  1.00  0.00     0.167 HD
ATOM     26  C   UNL A   1      44.744  25.530  32.480  1.00  0.00     0.031 A 
ATOM     27  C   UNL A   1      48.350  26.384  26.816  1.00  0.00     0.031 A 
ATOM     28  C   UNL A   1      44.566  26.949  32.315  1.00  0.00     0.049 A 
ATOM     29  C   UNL A   1      48.377  27.128  28.095  1.00  0.00     0.074 A 
ATOM     30  C   UNL A   1      43.487  27.784  32.099  1.00  0.00     0.029 A 
ATOM     31  N   UNL A   1      45.683  27.687  32.008  1.00  0.00    -0.354 N 
ATOM     32  N   UNL A   1      47.805  28.283  28.274  1.00  0.00    -0.248 NA
ATOM     33  C   UNL A   1      48.727  26.409  29.309  1.00  0.00     0.031 C 
ATOM     34  C   UNL A   1      43.977  28.798  31.225  1.00  0.00     0.029 A 
ATOM     35  C   UNL A   1      45.336  28.559  31.012  1.00  0.00     0.049 A 
ATOM     36  H   UNL A   1      46.570  27.604  32.427  1.00  0.00     0.167 HD
ATOM     37  C   UNL A   1      47.333  28.245  29.577  1.00  0.00     0.074 A 
ATOM     38  C   UNL A   1      48.023  27.116  30.195  1.00  0.00     0.031 C 
ATOM     39  C   UNL A   1      46.229  28.958  29.946  1.00  0.00     0.031 A 
BRANCH  26  40
ATOM     40  C   UNL A   1      45.718  24.974  33.499  1.00  0.00    -0.014 A 
ATOM     41  C   UNL A   1      47.097  25.218  33.318  1.00  0.00     0.010 A 
ATOM     42  C   UNL A   1      45.366  23.987  34.441  1.00  0.00     0.010 A 
ATOM     43  C   UNL A   1      48.068  24.444  33.966  1.00  0.00     0.020 A 
ATOM     44  C   UNL A   1      46.326  23.243  35.130  1.00  0.00     0.020 A 
ATOM     45  C   UNL A   1      47.672  23.446  34.855  1.00  0.00     0.054 A 
BRANCH  45  46
ATOM     46  S   UNL A   1      48.925  22.370  35.594  1.00  0.00     0.124 S 
ATOM     47  O   UNL A   1      48.437  21.045  35.221  1.00  0.00    -0.237 OA
ATOM     48  O   UNL A   1      50.145  22.809  34.924  1.00  0.00    -0.237 OA
ATOM     49  O   UNL A   1      48.852  22.688  37.018  1.00  0.00    -0.744 OA
ENDBRANCH  45  46
ENDBRANCH  26  40
BRANCH  27  50
ATOM     50  C   UNL A   1      49.604  25.992  26.120  1.00  0.00    -0.014 A 
ATOM     51  C   UNL A   1      49.962  26.571  24.884  1.00  0.00     0.010 A 
ATOM     52  C   UNL A   1      50.600  25.279  26.817  1.00  0.00     0.010 A 
ATOM     53  C   UNL A   1      51.282  26.506  24.404  1.00  0.00     0.020 A 
ATOM     54  C   UNL A   1      51.916  25.202  26.339  1.00  0.00     0.020 A 
ATOM     55  C   UNL A   1      52.258  25.840  25.149  1.00  0.00     0.054 A 
BRANCH  55  56
ATOM     56  S   UNL A   1      54.000  25.929  24.631  1.00  0.00     0.124 S 
ATOM     57  O   UNL A   1      54.495  24.599  24.975  1.00  0.00    -0.237 OA
ATOM     58  O   UNL A   1      53.894  26.214  23.202  1.00  0.00    -0.237 OA
ATOM     59  O   UNL A   1      54.543  27.020  25.437  1.00  0.00    -0.744 OA
ENDBRANCH  55  56
ENDBRANCH  27  50
BRANCH  39  60
ATOM     60  C   UNL A   1      45.759  30.088  29.064  1.00  0.00    -0.014 A 
ATOM     61  C   UNL A   1      46.168  31.428  29.201  1.00  0.00     0.010 A 
ATOM     62  C   UNL A   1      44.958  29.742  27.958  1.00  0.00     0.010 A 
ATOM     63  C   UNL A   1      45.758  32.399  28.274  1.00  0.00     0.020 A 
ATOM     64  C   UNL A   1      44.566  30.698  27.021  1.00  0.00     0.020 A 
ATOM     65  C   UNL A   1      44.958  32.024  27.189  1.00  0.00     0.054 A 
BRANCH  65  66
ATOM     66  S   UNL A   1      44.463  33.275  25.971  1.00  0.00     0.124 S 
ATOM     67  O   UNL A   1      43.669  34.201  26.772  1.00  0.00    -0.237 OA
ATOM     68  O   UNL A   1      45.746  33.791  25.498  1.00  0.00    -0.237 OA
ATOM     69  O   UNL A   1      43.708  32.513  24.977  1.00  0.00    -0.744 OA
ENDBRANCH  65  66
ENDBRANCH  39  60
ENDBRANCH  13  14
ENDBRANCH   6   8
ENDBRANCH   3   4
ENDBRANCH   2   3
ENDBRANCH   1   2
BRANCH   1  70
ATOM     70  N   UNL A   1      33.712  22.687  24.707  1.00  0.00    -0.352 N 
ATOM     71  C   UNL A   1      32.651  23.507  24.394  1.00  0.00     0.251 C 
ATOM     72  H   UNL A   1      33.665  21.787  24.312  1.00  0.00     0.163 HD
ATOM     73  O   UNL A   1      31.726  23.082  23.723  1.00  0.00    -0.269 OA
BRANCH  71  74
ATOM     74  C   UNL A   1      32.604  24.901  24.893  1.00  0.00     0.039 A 
ATOM     75  C   UNL A   1      33.204  25.901  24.120  1.00  0.00     0.016 A 
ATOM     76  C   UNL A   1      32.040  25.216  26.132  1.00  0.00     0.016 A 
ATOM     77  C   UNL A   1      33.175  27.232  24.545  1.00  0.00     0.029 A 
ATOM     78  C   UNL A   1      32.028  26.542  26.572  1.00  0.00     0.029 A 
ATOM     79  C   UNL A   1      32.597  27.555  25.778  1.00  0.00     0.066 A 
BRANCH  79  80
ATOM     80  N   UNL A   1      32.640  28.892  26.243  1.00  0.00    -0.220 N 
ATOM     81  C   UNL A   1      33.576  29.448  27.072  1.00  0.00     0.141 A 
ATOM     82  N   UNL A   1      31.748  29.845  25.880  1.00  0.00    -0.062 NA
ATOM     83  C   UNL A   1      33.237  30.777  27.187  1.00  0.00     0.093 A 
ATOM     84  N   UNL A   1      32.081  30.983  26.484  1.00  0.00    -0.134 NA
BRANCH  83  85
ATOM     85  C   UNL A   1      33.829  31.806  28.069  1.00  0.00     0.138 C 
BRANCH  85  86
ATOM     86  S   UNL A   1      35.558  32.289  27.967  1.00  0.00    -0.081 SA
BRANCH  86  87
ATOM     87  C   UNL A   1      36.599  31.166  28.803  1.00  0.00     0.176 A 
ATOM     88  N   UNL A   1      37.392  30.548  27.976  1.00  0.00    -0.223 NA
ATOM     89  N   UNL A   1      36.653  30.955  30.178  1.00  0.00    -0.255 N 
ATOM     90  C   UNL A   1      38.238  29.553  28.465  1.00  0.00     0.079 A 
ATOM     91  C   UNL A   1      36.999  29.643  30.546  1.00  0.00     0.266 A 
ATOM     92  C   UNL A   1      39.289  29.062  27.688  1.00  0.00     0.029 A 
ATOM     93  C   UNL A   1      37.978  28.958  29.688  1.00  0.00     0.066 A 
ATOM     94  O   UNL A   1      36.555  29.012  31.505  1.00  0.00    -0.268 OA
ATOM     95  C   UNL A   1      40.019  27.945  28.110  1.00  0.00     0.002 A 
ATOM     96  C   UNL A   1      38.663  27.810  30.101  1.00  0.00     0.016 A 
ATOM     97  C   UNL A   1      39.681  27.296  29.299  1.00  0.00     0.001 A 
BRANCH  89  98
ATOM     98  C   UNL A   1      36.341  31.909  31.235  1.00  0.00     0.051 A 
ATOM     99  C   UNL A   1      37.378  32.577  31.923  1.00  0.00     0.028 A 
ATOM    100  C   UNL A   1      35.044  32.260  31.638  1.00  0.00     0.028 A 
ATOM    101  C   UNL A   1      37.154  33.328  33.084  1.00  0.00     0.022 A 
ATOM    102  C   UNL A   1      34.806  32.966  32.831  1.00  0.00     0.022 A 
ATOM    103  C   UNL A   1      35.867  33.457  33.574  1.00  0.00     0.041 A 
ATOM    104  Cl  UNL A   1      35.593  34.210  35.091  1.00  0.00    -0.084 Cl
ENDBRANCH  89  98
ENDBRANCH  86  87
ENDBRANCH  85  86
ENDBRANCH  83  85
ENDBRANCH  79  80
ENDBRANCH  71  74
ENDBRANCH   1  70
TORSDOF 18
ENDMDL
MODEL 2
REMARK VINA RESULT:     -12.5      4.318      9.065
REMARK SMILES O=C(NCCCNC(=O)c1ccc(-n2cc(CSc3nc4ccccc4c(=O)n3-c3ccc(Cl)cc3)nn2)cc1)c1ccc(-c2c3nc(c(-c4ccc(S(=O)(=O)[O-])cc4)c4ccc([nH]4)c(-c4ccc(S(=O)(=O)[O-])cc4)c4nc(c(-c5ccc(S(=O)(=O)[O-])cc5)c5ccc2[nH]5)C=C4)C=C3)cc1
REMARK SMILES IDX 6 1 5 2 4 3 3 4 1 5 2 6 41 8 42 9 100 10 43 11 99 12 44 13
REMARK SMILES IDX 45 14 46 15 93 16 47 17 98 18 92 19 94 20 48 21 97 22 91 23
REMARK SMILES IDX 90 24 49 26 79 27 60 28 78 29 61 30 64 31 77 32 95 33 62 34
REMARK SMILES IDX 63 35 76 37 96 38 65 39 50 40 51 41 59 42 52 43 58 44 53 45
REMARK SMILES IDX 54 46 55 47 56 48 57 49 80 50 81 51 89 52 82 53 88 54 83 55
REMARK SMILES IDX 84 56 85 57 86 58 87 59 66 60 67 61 75 62 68 63 74 64 69 65
REMARK SMILES IDX 70 66 71 67 72 68 73 69 7 70 8 71 9 73 10 74 11 75 40 76
REMARK SMILES IDX 12 77 39 78 13 79 14 80 15 81 38 82 16 83 37 84 17 85 18 86
REMARK SMILES IDX 19 87 20 88 29 89 21 90 27 91 22 92 26 93 28 94 23 95 25 96
REMARK SMILES IDX 24 97 30 98 31 99 36 100 32 101 35 102 33 103 34 104
REMARK H PARENT 3 7 94 25 64 36 7 72
REMARK Flexibility Score: inf
ROOT
ATOM      1  C   UNL A   1      32.898  35.993  31.647  1.00  0.00     0.118 C 
ENDROOT
BRANCH   1   2
ATOM      2  C   UNL A   1      34.027  34.969  31.766  1.00  0.00     0.042 C 
BRANCH   2   3
ATOM      3  C   UNL A   1      35.200  35.388  32.649  1.00  0.00     0.118 C 
BRANCH   3   4
ATOM      4  N   UNL A   1      35.270  34.730  33.939  1.00  0.00    -0.352 N 
ATOM      5  O   UNL A   1      35.918  33.693  35.764  1.00  0.00    -0.269 OA
ATOM      6  C   UNL A   1      36.133  33.869  34.561  1.00  0.00     0.251 C 
ATOM      7  H   UNL A   1      34.503  34.959  34.512  1.00  0.00     0.163 HD
BRANCH   6   8
ATOM      8  C   UNL A   1      37.245  33.109  33.918  1.00  0.00     0.039 A 
ATOM      9  C   UNL A   1      38.479  33.621  33.521  1.00  0.00     0.014 A 
ATOM     10  C   UNL A   1      36.992  31.738  33.695  1.00  0.00     0.014 A 
ATOM     11  C   UNL A   1      39.414  32.793  32.882  1.00  0.00     0.010 A 
ATOM     12  C   UNL A   1      37.917  30.912  33.057  1.00  0.00     0.010 A 
ATOM     13  C   UNL A   1      39.130  31.442  32.632  1.00  0.00    -0.014 A 
BRANCH  13  14
ATOM     14  C   UNL A   1      40.194  30.574  32.114  1.00  0.00     0.031 A 
ATOM     15  C   UNL A   1      41.216  30.183  33.127  1.00  0.00     0.074 A 
ATOM     16  C   UNL A   1      40.231  29.990  30.896  1.00  0.00     0.049 A 
ATOM     17  N   UNL A   1      42.459  30.534  33.178  1.00  0.00    -0.248 NA
ATOM     18  C   UNL A   1      40.773  29.385  34.280  1.00  0.00     0.031 C 
ATOM     19  C   UNL A   1      39.185  29.968  29.873  1.00  0.00     0.029 A 
ATOM     20  N   UNL A   1      41.209  29.200  30.351  1.00  0.00    -0.354 N 
ATOM     21  C   UNL A   1      43.013  29.842  34.253  1.00  0.00     0.074 A 
ATOM     22  C   UNL A   1      41.903  29.278  34.980  1.00  0.00     0.031 C 
ATOM     23  C   UNL A   1      39.495  29.043  28.933  1.00  0.00     0.029 A 
ATOM     24  C   UNL A   1      40.819  28.506  29.208  1.00  0.00     0.049 A 
ATOM     25  H   UNL A   1      42.112  29.128  30.736  1.00  0.00     0.167 HD
ATOM     26  C   UNL A   1      44.353  29.602  34.345  1.00  0.00     0.031 A 
ATOM     27  C   UNL A   1      41.515  27.536  28.557  1.00  0.00     0.031 A 
ATOM     28  C   UNL A   1      45.107  30.414  33.425  1.00  0.00     0.049 A 
ATOM     29  C   UNL A   1      42.940  27.675  28.935  1.00  0.00     0.074 A 
ATOM     30  C   UNL A   1      45.255  31.769  33.206  1.00  0.00     0.029 A 
ATOM     31  N   UNL A   1      45.596  29.793  32.302  1.00  0.00    -0.354 N 
ATOM     32  N   UNL A   1      43.693  28.672  28.571  1.00  0.00    -0.248 NA
ATOM     33  C   UNL A   1      43.443  26.884  30.046  1.00  0.00     0.031 C 
ATOM     34  C   UNL A   1      45.371  31.902  31.792  1.00  0.00     0.029 A 
ATOM     35  C   UNL A   1      45.352  30.620  31.239  1.00  0.00     0.049 A 
ATOM     36  H   UNL A   1      46.041  28.916  32.267  1.00  0.00     0.167 HD
ATOM     37  C   UNL A   1      44.523  28.901  29.656  1.00  0.00     0.074 A 
ATOM     38  C   UNL A   1      44.398  27.706  30.486  1.00  0.00     0.031 C 
ATOM     39  C   UNL A   1      45.018  30.147  29.913  1.00  0.00     0.031 A 
BRANCH  26  40
ATOM     40  C   UNL A   1      44.951  28.358  34.968  1.00  0.00    -0.014 A 
ATOM     41  C   UNL A   1      44.906  27.149  34.238  1.00  0.00     0.010 A 
ATOM     42  C   UNL A   1      45.277  28.262  36.335  1.00  0.00     0.010 A 
ATOM     43  C   UNL A   1      45.076  25.909  34.867  1.00  0.00     0.020 A 
ATOM     44  C   UNL A   1      45.496  27.033  36.962  1.00  0.00     0.020 A 
ATOM     45  C   UNL A   1      45.351  25.861  36.232  1.00  0.00     0.054 A 
BRANCH  45  46
ATOM     46  S   UNL A   1      45.445  24.255  37.061  1.00  0.00     0.124 S 
ATOM     47  O   UNL A   1      46.843  23.893  36.850  1.00  0.00    -0.237 OA
ATOM     48  O   UNL A   1      45.077  24.592  38.433  1.00  0.00    -0.237 OA
ATOM     49  O   UNL A   1      44.469  23.441  36.340  1.00  0.00    -0.744 OA
ENDBRANCH  45  46
ENDBRANCH  26  40
BRANCH  27  50
ATOM     50  C   UNL A   1      41.020  26.343  27.821  1.00  0.00    -0.014 A 
ATOM     51  C   UNL A   1      41.833  25.683  26.875  1.00  0.00     0.010 A 
ATOM     52  C   UNL A   1      39.868  25.669  28.271  1.00  0.00     0.010 A 
ATOM     53  C   UNL A   1      41.546  24.371  26.456  1.00  0.00     0.020 A 
ATOM     54  C   UNL A   1      39.570  24.365  27.851  1.00  0.00     0.020 A 
ATOM     55  C   UNL A   1      40.426  23.712  26.967  1.00  0.00     0.054 A 
BRANCH  55  56
ATOM     56  S   UNL A   1      40.168  21.952  26.584  1.00  0.00     0.124 S 
ATOM     57  O   UNL A   1      38.764  21.922  26.186  1.00  0.00    -0.237 OA
ATOM     58  O   UNL A   1      41.134  21.713  25.513  1.00  0.00    -0.237 OA
ATOM     59  O   UNL A   1      40.470  21.277  27.845  1.00  0.00    -0.744 OA
ENDBRANCH  55  56
ENDBRANCH  27  50
BRANCH  39  60
ATOM     60  C   UNL A   1      44.997  31.183  28.816  1.00  0.00    -0.014 A 
ATOM     61  C   UNL A   1      43.989  32.153  28.656  1.00  0.00     0.010 A 
ATOM     62  C   UNL A   1      46.130  31.251  27.983  1.00  0.00     0.010 A 
ATOM     63  C   UNL A   1      44.100  33.142  27.667  1.00  0.00     0.020 A 
ATOM     64  C   UNL A   1      46.256  32.245  27.012  1.00  0.00     0.020 A 
ATOM     65  C   UNL A   1      45.235  33.180  26.851  1.00  0.00     0.054 A 
BRANCH  65  66
ATOM     66  S   UNL A   1      45.392  34.484  25.599  1.00  0.00     0.124 S 
ATOM     67  O   UNL A   1      44.966  35.675  26.327  1.00  0.00    -0.237 OA
ATOM     68  O   UNL A   1      46.812  34.431  25.254  1.00  0.00    -0.237 OA
ATOM     69  O   UNL A   1      44.489  34.054  24.533  1.00  0.00    -0.744 OA
ENDBRANCH  65  66
ENDBRANCH  39  60
ENDBRANCH  13  14
ENDBRANCH   6   8
ENDBRANCH   3   4
ENDBRANCH   2   3
ENDBRANCH   1   2
BRANCH   1  70
ATOM     70  N   UNL A   1      33.034  36.893  30.512  1.00  0.00    -0.352 N 
ATOM     71  C   UNL A   1      33.451  36.655  29.221  1.00  0.00     0.251 C 
ATOM     72  H   UNL A   1      32.788  37.828  30.697  1.00  0.00     0.163 HD
ATOM     73  O   UNL A   1      33.542  37.576  28.427  1.00  0.00    -0.269 OA
BRANCH  71  74
ATOM     74  C   UNL A   1      33.822  35.288  28.789  1.00  0.00     0.039 A 
ATOM     75  C   UNL A   1      32.798  34.413  28.410  1.00  0.00     0.016 A 
ATOM     76  C   UNL A   1      35.147  34.845  28.821  1.00  0.00     0.016 A 
ATOM     77  C   UNL A   1      33.101  33.117  27.985  1.00  0.00     0.029 A 
ATOM     78  C   UNL A   1      35.453  33.542  28.418  1.00  0.00     0.029 A 
ATOM     79  C   UNL A   1      34.429  32.674  27.999  1.00  0.00     0.066 A 
BRANCH  79  80
ATOM     80  N   UNL A   1      34.724  31.335  27.645  1.00  0.00    -0.220 N 
ATOM     81  C   UNL A   1      33.856  30.403  27.143  1.00  0.00     0.141 A 
ATOM     82  N   UNL A   1      35.962  30.790  27.721  1.00  0.00    -0.062 NA
ATOM     83  C   UNL A   1      34.610  29.279  26.896  1.00  0.00     0.093 A 
ATOM     84  N   UNL A   1      35.892  29.527  27.307  1.00  0.00    -0.134 NA
BRANCH  83  85
ATOM     85  C   UNL A   1      34.152  27.935  26.479  1.00  0.00     0.138 C 
BRANCH  85  86
ATOM     86  S   UNL A   1      32.423  27.445  26.528  1.00  0.00    -0.081 SA
BRANCH  86  87
ATOM     87  C   UNL A   1      32.072  26.176  25.385  1.00  0.00     0.176 A 
ATOM     88  N   UNL A   1      32.283  25.000  25.902  1.00  0.00    -0.223 NA
ATOM     89  N   UNL A   1      31.581  26.338  24.092  1.00  0.00    -0.255 N 
ATOM     90  C   UNL A   1      32.131  23.869  25.099  1.00  0.00     0.079 A 
ATOM     91  C   UNL A   1      32.006  25.352  23.186  1.00  0.00     0.266 A 
ATOM     92  C   UNL A   1      32.071  22.594  25.663  1.00  0.00     0.029 A 
ATOM     93  C   UNL A   1      32.148  23.989  23.720  1.00  0.00     0.066 A 
ATOM     94  O   UNL A   1      32.280  25.520  21.998  1.00  0.00    -0.268 OA
ATOM     95  C   UNL A   1      32.100  21.457  24.847  1.00  0.00     0.002 A 
ATOM     96  C   UNL A   1      32.230  22.864  22.891  1.00  0.00     0.016 A 
ATOM     97  C   UNL A   1      32.217  21.592  23.462  1.00  0.00     0.001 A 
BRANCH  89  98
ATOM     98  C   UNL A   1      30.746  27.423  23.591  1.00  0.00     0.051 A 
ATOM     99  C   UNL A   1      29.339  27.345  23.687  1.00  0.00     0.028 A 
ATOM    100  C   UNL A   1      31.233  28.605  23.013  1.00  0.00     0.028 A 
ATOM    101  C   UNL A   1      28.486  28.242  23.031  1.00  0.00     0.022 A 
ATOM    102  C   UNL A   1      30.394  29.483  22.305  1.00  0.00     0.022 A 
ATOM    103  C   UNL A   1      29.024  29.270  22.279  1.00  0.00     0.041 A 
ATOM    104  Cl  UNL A   1      28.007  30.261  21.318  1.00  0.00    -0.084 Cl
ENDBRANCH  89  98
ENDBRANCH  86  87
ENDBRANCH  85  86
ENDBRANCH  83  85
ENDBRANCH  79  80
ENDBRANCH  71  74
ENDBRANCH   1  70
TORSDOF 18
ENDMDL
MODEL 3
REMARK VINA RESULT:     -12.4      5.133     12.221
REMARK SMILES O=C(NCCCNC(=O)c1ccc(-n2cc(CSc3nc4ccccc4c(=O)n3-c3ccc(Cl)cc3)nn2)cc1)c1ccc(-c2c3nc(c(-c4ccc(S(=O)(=O)[O-])cc4)c4ccc([nH]4)c(-c4ccc(S(=O)(=O)[O-])cc4)c4nc(c(-c5ccc(S(=O)(=O)[O-])cc5)c5ccc2[nH]5)C=C4)C=C3)cc1
REMARK SMILES IDX 6 1 5 2 4 3 3 4 1 5 2 6 41 8 42 9 100 10 43 11 99 12 44 13
REMARK SMILES IDX 45 14 46 15 93 16 47 17 98 18 92 19 94 20 48 21 97 22 91 23
REMARK SMILES IDX 90 24 49 26 79 27 60 28 78 29 61 30 64 31 77 32 95 33 62 34
REMARK SMILES IDX 63 35 76 37 96 38 65 39 50 40 51 41 59 42 52 43 58 44 53 45
REMARK SMILES IDX 54 46 55 47 56 48 57 49 80 50 81 51 89 52 82 53 88 54 83 55
REMARK SMILES IDX 84 56 85 57 86 58 87 59 66 60 67 61 75 62 68 63 74 64 69 65
REMARK SMILES IDX 70 66 71 67 72 68 73 69 7 70 8 71 9 73 10 74 11 75 40 76
REMARK SMILES IDX 12 77 39 78 13 79 14 80 15 81 38 82 16 83 37 84 17 85 18 86
REMARK SMILES IDX 19 87 20 88 29 89 21 90 27 91 22 92 26 93 28 94 23 95 25 96
REMARK SMILES IDX 24 97 30 98 31 99 36 100 32 101 35 102 33 103 34 104
REMARK H PARENT 3 7 94 25 64 36 7 72
REMARK Flexibility Score: inf
ROOT
ATOM      1  C   UNL A   1      32.559  27.937  25.195  1.00  0.00     0.118 C 
ENDROOT
BRANCH   1   2
ATOM      2  C   UNL A   1      33.250  27.664  26.531  1.00  0.00     0.042 C 
BRANCH   2   3
ATOM      3  C   UNL A   1      34.161  28.781  27.037  1.00  0.00     0.118 C 
BRANCH   3   4
ATOM      4  N   UNL A   1      33.524  30.072  27.201  1.00  0.00    -0.352 N 
ATOM      5  O   UNL A   1      33.087  32.205  27.499  1.00  0.00    -0.269 OA
ATOM      6  C   UNL A   1      33.871  31.281  27.739  1.00  0.00     0.251 C 
ATOM      7  H   UNL A   1      32.611  30.083  26.833  1.00  0.00     0.163 HD
BRANCH   6   8
ATOM      8  C   UNL A   1      35.051  31.559  28.609  1.00  0.00     0.039 A 
ATOM      9  C   UNL A   1      36.352  31.094  28.416  1.00  0.00     0.014 A 
ATOM     10  C   UNL A   1      34.796  32.370  29.737  1.00  0.00     0.014 A 
ATOM     11  C   UNL A   1      37.355  31.399  29.349  1.00  0.00     0.010 A 
ATOM     12  C   UNL A   1      35.790  32.672  30.667  1.00  0.00     0.010 A 
ATOM     13  C   UNL A   1      37.074  32.173  30.485  1.00  0.00    -0.014 A 
BRANCH  13  14
ATOM     14  C   UNL A   1      38.183  32.605  31.344  1.00  0.00     0.031 A 
ATOM     15  C   UNL A   1      39.261  33.348  30.629  1.00  0.00     0.074 A 
ATOM     16  C   UNL A   1      38.226  32.538  32.692  1.00  0.00     0.049 A 
ATOM     17  N   UNL A   1      40.476  32.967  30.407  1.00  0.00    -0.248 NA
ATOM     18  C   UNL A   1      38.911  34.628  29.996  1.00  0.00     0.031 C 
ATOM     19  C   UNL A   1      37.155  32.155  33.612  1.00  0.00     0.029 A 
ATOM     20  N   UNL A   1      39.242  32.897  33.539  1.00  0.00    -0.354 N 
ATOM     21  C   UNL A   1      41.110  34.039  29.784  1.00  0.00     0.074 A 
ATOM     22  C   UNL A   1      40.067  34.965  29.421  1.00  0.00     0.031 C 
ATOM     23  C   UNL A   1      37.503  32.498  34.876  1.00  0.00     0.029 A 
ATOM     24  C   UNL A   1      38.870  32.995  34.877  1.00  0.00     0.049 A 
ATOM     25  H   UNL A   1      40.159  33.071  33.227  1.00  0.00     0.167 HD
ATOM     26  C   UNL A   1      42.466  34.188  29.806  1.00  0.00     0.031 A 
ATOM     27  C   UNL A   1      39.616  33.483  35.905  1.00  0.00     0.031 A 
ATOM     28  C   UNL A   1      43.131  32.982  30.224  1.00  0.00     0.049 A 
ATOM     29  C   UNL A   1      41.037  33.429  35.495  1.00  0.00     0.074 A 
ATOM     30  C   UNL A   1      43.174  31.678  29.773  1.00  0.00     0.029 A 
ATOM     31  N   UNL A   1      43.631  32.956  31.503  1.00  0.00    -0.354 N 
ATOM     32  N   UNL A   1      41.704  32.322  35.335  1.00  0.00    -0.248 NA
ATOM     33  C   UNL A   1      41.629  34.609  34.886  1.00  0.00     0.031 C 
ATOM     34  C   UNL A   1      43.238  30.882  30.954  1.00  0.00     0.029 A 
ATOM     35  C   UNL A   1      43.295  31.747  32.049  1.00  0.00     0.049 A 
ATOM     36  H   UNL A   1      44.137  33.675  31.946  1.00  0.00     0.167 HD
ATOM     37  C   UNL A   1      42.548  32.570  34.265  1.00  0.00     0.074 A 
ATOM     38  C   UNL A   1      42.535  34.022  34.102  1.00  0.00     0.031 C 
ATOM     39  C   UNL A   1      42.957  31.560  33.443  1.00  0.00     0.031 A 
BRANCH  26  40
ATOM     40  C   UNL A   1      43.172  35.528  29.843  1.00  0.00    -0.014 A 
ATOM     41  C   UNL A   1      43.511  36.079  31.098  1.00  0.00     0.010 A 
ATOM     42  C   UNL A   1      43.243  36.391  28.731  1.00  0.00     0.010 A 
ATOM     43  C   UNL A   1      43.803  37.440  31.245  1.00  0.00     0.020 A 
ATOM     44  C   UNL A   1      43.581  37.740  28.860  1.00  0.00     0.020 A 
ATOM     45  C   UNL A   1      43.815  38.266  30.123  1.00  0.00     0.054 A 
BRANCH  45  46
ATOM     46  S   UNL A   1      44.071  40.046  30.335  1.00  0.00     0.124 S 
ATOM     47  O   UNL A   1      44.352  40.137  31.765  1.00  0.00    -0.237 OA
ATOM     48  O   UNL A   1      45.200  40.305  29.448  1.00  0.00    -0.237 OA
ATOM     49  O   UNL A   1      42.800  40.626  29.906  1.00  0.00    -0.744 OA
ENDBRANCH  45  46
ENDBRANCH  26  40
BRANCH  27  50
ATOM     50  C   UNL A   1      39.187  34.220  37.123  1.00  0.00    -0.014 A 
ATOM     51  C   UNL A   1      38.674  33.536  38.245  1.00  0.00     0.010 A 
ATOM     52  C   UNL A   1      39.570  35.564  37.300  1.00  0.00     0.010 A 
ATOM     53  C   UNL A   1      38.620  34.148  39.510  1.00  0.00     0.020 A 
ATOM     54  C   UNL A   1      39.509  36.184  38.556  1.00  0.00     0.020 A 
ATOM     55  C   UNL A   1      39.062  35.464  39.661  1.00  0.00     0.054 A 
BRANCH  55  56
ATOM     56  S   UNL A   1      39.181  36.185  41.327  1.00  0.00     0.124 S 
ATOM     57  O   UNL A   1      39.232  37.616  41.044  1.00  0.00    -0.237 OA
ATOM     58  O   UNL A   1      37.958  35.711  41.969  1.00  0.00    -0.237 OA
ATOM     59  O   UNL A   1      40.416  35.615  41.861  1.00  0.00    -0.744 OA
ENDBRANCH  55  56
ENDBRANCH  27  50
BRANCH  39  60
ATOM     60  C   UNL A   1      42.828  30.133  33.918  1.00  0.00    -0.014 A 
ATOM     61  C   UNL A   1      43.875  29.387  34.492  1.00  0.00     0.010 A 
ATOM     62  C   UNL A   1      41.538  29.569  33.893  1.00  0.00     0.010 A 
ATOM     63  C   UNL A   1      43.641  28.099  34.997  1.00  0.00     0.020 A 
ATOM     64  C   UNL A   1      41.295  28.298  34.414  1.00  0.00     0.020 A 
ATOM     65  C   UNL A   1      42.350  27.564  34.954  1.00  0.00     0.054 A 
BRANCH  65  66
ATOM     66  S   UNL A   1      42.044  25.914  35.644  1.00  0.00     0.124 S 
ATOM     67  O   UNL A   1      42.458  26.070  37.035  1.00  0.00    -0.237 OA
ATOM     68  O   UNL A   1      40.609  25.735  35.430  1.00  0.00    -0.237 OA
ATOM     69  O   UNL A   1      42.894  25.037  34.840  1.00  0.00    -0.744 OA
ENDBRANCH  65  66
ENDBRANCH  39  60
ENDBRANCH  13  14
ENDBRANCH   6   8
ENDBRANCH   3   4
ENDBRANCH   2   3
ENDBRANCH   1   2
BRANCH   1  70
ATOM     70  N   UNL A   1      31.474  27.015  24.892  1.00  0.00    -0.352 N 
ATOM     71  C   UNL A   1      31.472  25.646  24.746  1.00  0.00     0.251 C 
ATOM     72  H   UNL A   1      30.595  27.442  24.772  1.00  0.00     0.163 HD
ATOM     73  O   UNL A   1      30.446  25.065  24.437  1.00  0.00    -0.269 OA
BRANCH  71  74
ATOM     74  C   UNL A   1      32.718  24.867  24.931  1.00  0.00     0.039 A 
ATOM     75  C   UNL A   1      33.630  24.815  23.871  1.00  0.00     0.016 A 
ATOM     76  C   UNL A   1      32.961  24.142  26.101  1.00  0.00     0.016 A 
ATOM     77  C   UNL A   1      34.825  24.103  24.004  1.00  0.00     0.029 A 
ATOM     78  C   UNL A   1      34.143  23.409  26.230  1.00  0.00     0.029 A 
ATOM     79  C   UNL A   1      35.079  23.388  25.180  1.00  0.00     0.066 A 
BRANCH  79  80
ATOM     80  N   UNL A   1      36.253  22.601  25.281  1.00  0.00    -0.220 N 
ATOM     81  C   UNL A   1      37.472  22.995  25.763  1.00  0.00     0.141 A 
ATOM     82  N   UNL A   1      36.314  21.293  24.937  1.00  0.00    -0.062 NA
ATOM     83  C   UNL A   1      38.273  21.877  25.721  1.00  0.00     0.093 A 
ATOM     84  N   UNL A   1      37.552  20.857  25.163  1.00  0.00    -0.134 NA
BRANCH  83  85
ATOM     85  C   UNL A   1      39.723  21.771  25.996  1.00  0.00     0.138 C 
BRANCH  85  86
ATOM     86  S   UNL A   1      40.473  22.429  27.492  1.00  0.00    -0.081 SA
BRANCH  86  87
ATOM     87  C   UNL A   1      40.753  24.147  27.379  1.00  0.00     0.176 A 
ATOM     88  N   UNL A   1      40.010  24.805  28.222  1.00  0.00    -0.223 NA
ATOM     89  N   UNL A   1      41.673  24.783  26.551  1.00  0.00    -0.255 N 
ATOM     90  C   UNL A   1      40.045  26.200  28.211  1.00  0.00     0.079 A 
ATOM     91  C   UNL A   1      41.280  26.066  26.130  1.00  0.00     0.266 A 
ATOM     92  C   UNL A   1      39.494  26.938  29.260  1.00  0.00     0.029 A 
ATOM     93  C   UNL A   1      40.531  26.874  27.104  1.00  0.00     0.066 A 
ATOM     94  O   UNL A   1      41.491  26.569  25.027  1.00  0.00    -0.268 OA
ATOM     95  C   UNL A   1      39.371  28.328  29.160  1.00  0.00     0.002 A 
ATOM     96  C   UNL A   1      40.371  28.257  26.964  1.00  0.00     0.016 A 
ATOM     97  C   UNL A   1      39.776  28.984  27.996  1.00  0.00     0.001 A 
BRANCH  89  98
ATOM     98  C   UNL A   1      42.933  24.248  26.049  1.00  0.00     0.051 A 
ATOM     99  C   UNL A   1      44.158  24.634  26.636  1.00  0.00     0.028 A 
ATOM    100  C   UNL A   1      43.047  23.323  25.000  1.00  0.00     0.028 A 
ATOM    101  C   UNL A   1      45.400  24.332  26.062  1.00  0.00     0.022 A 
ATOM    102  C   UNL A   1      44.280  23.055  24.381  1.00  0.00     0.022 A 
ATOM    103  C   UNL A   1      45.449  23.600  24.890  1.00  0.00     0.041 A 
ATOM    104  Cl  UNL A   1      46.940  23.380  24.071  1.00  0.00    -0.084 Cl
ENDBRANCH  89  98
ENDBRANCH  86  87
ENDBRANCH  85  86
ENDBRANCH  83  85
ENDBRANCH  79  80
ENDBRANCH  71  74
ENDBRANCH   1  70
TORSDOF 18
ENDMDL
