MODEL 1
REMARK VINA RESULT:     -11.0      0.000      0.000
REMARK SMILES C[C@H](c1ccc(C(=O)NCCCNC(=O)c2ccc(-c3c4nc(c(-c5ccc(S(=O)(=O)[O-])cc5)c5ccc([nH]5)c(-c5ccc(S(=O)(=O)[O-])cc5)c5nc(c(-c6ccc(S(=O)(=O)[O-])cc6)c6ccc3[nH]6)C=C5)C=C4)cc2)o1)[NH+]1Cc2ccccc2C1
REMARK SMILES IDX 11 1 10 2 9 3 7 4 8 5 6 7 3 8 4 9 76 10 5 11 2 12 1 13 77 14
REMARK SMILES IDX 78 15 85 16 79 18 84 19 80 20 83 21 81 22 82 23 12 24 13 25
REMARK SMILES IDX 14 26 15 28 16 29 17 30 75 31 18 32 74 33 19 34 20 35 21 36
REMARK SMILES IDX 68 37 22 38 73 39 67 40 69 41 23 42 72 43 66 44 65 45 24 47
REMARK SMILES IDX 54 48 35 49 53 50 36 51 39 52 52 53 70 54 37 55 38 56 51 58
REMARK SMILES IDX 71 59 40 60 25 61 26 62 34 63 27 64 33 65 28 66 29 67 30 68
REMARK SMILES IDX 31 69 32 70 55 71 56 72 64 73 57 74 63 75 58 76 59 77 60 78
REMARK SMILES IDX 61 79 62 80 41 81 42 82 50 83 43 84 49 85 44 86 45 87 46 88
REMARK SMILES IDX 47 89 48 90
REMARK H PARENT 9 6 77 17 13 27 69 46 39 57
REMARK Flexibility Score: inf
ROOT
ATOM      1  C   UNL A   1      32.927  28.133  25.511  1.00  0.00     0.042 C 
ENDROOT
BRANCH   1   2
ATOM      2  C   UNL A   1      31.528  27.697  25.937  1.00  0.00     0.118 C 
BRANCH   2   3
ATOM      3  N   UNL A   1      30.683  27.257  24.840  1.00  0.00    -0.349 N 
ATOM      4  C   UNL A   1      30.107  26.016  24.646  1.00  0.00     0.287 C 
ATOM      5  O   UNL A   1      29.135  25.963  23.892  1.00  0.00    -0.266 OA
ATOM      6  H   UNL A   1      30.498  27.929  24.145  1.00  0.00     0.163 HD
BRANCH   4   7
ATOM      7  C   UNL A   1      30.680  24.852  25.289  1.00  0.00     0.191 A 
ATOM      8  C   UNL A   1      32.262  23.361  25.702  1.00  0.00     0.162 A 
ATOM      9  C   UNL A   1      31.255  23.147  26.626  1.00  0.00     0.053 A 
ATOM     10  O   UNL A   1      31.937  24.431  24.915  1.00  0.00    -0.450 OA
ATOM     11  C   UNL A   1      30.224  24.055  26.322  1.00  0.00     0.057 A 
BRANCH   8  12
ATOM     12  C   UNL A   1      33.579  22.646  25.447  1.00  0.00     0.248 C 
ATOM     13  C   UNL A   1      33.261  21.180  25.076  1.00  0.00     0.084 C 
BRANCH  12  14
ATOM     14  N   UNL A   1      34.493  23.431  24.553  1.00  0.00    -0.319 N 
ATOM     15  C   UNL A   1      35.444  22.583  23.797  1.00  0.00     0.300 C 
ATOM     16  C   UNL A   1      35.412  24.377  25.277  1.00  0.00     0.300 C 
ATOM     17  H   UNL A   1      33.823  23.918  23.961  1.00  0.00     0.349 HD
ATOM     18  C   UNL A   1      36.626  22.455  24.690  1.00  0.00     0.015 A 
ATOM     19  C   UNL A   1      36.709  23.628  25.440  1.00  0.00     0.015 A 
ATOM     20  C   UNL A   1      37.528  21.422  24.845  1.00  0.00     0.010 A 
ATOM     21  C   UNL A   1      37.839  23.901  26.184  1.00  0.00     0.010 A 
ATOM     22  C   UNL A   1      38.617  21.642  25.685  1.00  0.00     0.001 A 
ATOM     23  C   UNL A   1      38.806  22.895  26.295  1.00  0.00     0.001 A 
ENDBRANCH  12  14
ENDBRANCH   8  12
ENDBRANCH   4   7
ENDBRANCH   2   3
ENDBRANCH   1   2
BRANCH   1  24
ATOM     24  C   UNL A   1      33.887  28.453  26.655  1.00  0.00     0.118 C 
BRANCH  24  25
ATOM     25  N   UNL A   1      33.742  29.811  27.154  1.00  0.00    -0.352 N 
ATOM     26  C   UNL A   1      34.567  30.568  27.952  1.00  0.00     0.251 C 
ATOM     27  H   UNL A   1      32.915  30.264  26.875  1.00  0.00     0.163 HD
ATOM     28  O   UNL A   1      34.147  31.638  28.386  1.00  0.00    -0.269 OA
BRANCH  26  29
ATOM     29  C   UNL A   1      35.936  30.121  28.307  1.00  0.00     0.039 A 
ATOM     30  C   UNL A   1      36.930  30.161  27.322  1.00  0.00     0.014 A 
ATOM     31  C   UNL A   1      36.242  29.606  29.570  1.00  0.00     0.014 A 
ATOM     32  C   UNL A   1      38.231  29.742  27.617  1.00  0.00     0.010 A 
ATOM     33  C   UNL A   1      37.555  29.255  29.885  1.00  0.00     0.010 A 
ATOM     34  C   UNL A   1      38.563  29.312  28.911  1.00  0.00    -0.014 A 
BRANCH  34  35
ATOM     35  C   UNL A   1      39.955  28.921  29.260  1.00  0.00     0.031 A 
ATOM     36  C   UNL A   1      40.867  29.890  29.964  1.00  0.00     0.074 A 
ATOM     37  C   UNL A   1      40.420  27.711  28.889  1.00  0.00     0.049 A 
ATOM     38  N   UNL A   1      42.125  29.747  30.298  1.00  0.00    -0.248 NA
ATOM     39  C   UNL A   1      40.297  31.199  30.320  1.00  0.00     0.031 C 
ATOM     40  C   UNL A   1      39.652  26.692  28.174  1.00  0.00     0.029 A 
ATOM     41  N   UNL A   1      41.656  27.136  29.060  1.00  0.00    -0.354 N 
ATOM     42  C   UNL A   1      42.502  30.950  30.884  1.00  0.00     0.074 A 
ATOM     43  C   UNL A   1      41.352  31.827  30.819  1.00  0.00     0.031 C 
ATOM     44  C   UNL A   1      40.421  25.607  27.991  1.00  0.00     0.029 A 
ATOM     45  C   UNL A   1      41.749  25.867  28.539  1.00  0.00     0.049 A 
ATOM     46  H   UNL A   1      42.403  27.589  29.512  1.00  0.00     0.167 HD
ATOM     47  C   UNL A   1      43.691  31.292  31.440  1.00  0.00     0.031 A 
ATOM     48  C   UNL A   1      42.786  25.007  28.502  1.00  0.00     0.031 A 
ATOM     49  C   UNL A   1      44.831  30.417  31.511  1.00  0.00     0.049 A 
ATOM     50  C   UNL A   1      44.097  25.408  29.118  1.00  0.00     0.074 A 
ATOM     51  C   UNL A   1      46.062  30.652  32.099  1.00  0.00     0.029 A 
ATOM     52  N   UNL A   1      44.882  29.138  30.976  1.00  0.00    -0.354 N 
ATOM     53  N   UNL A   1      44.417  26.532  29.714  1.00  0.00    -0.248 NA
ATOM     54  C   UNL A   1      45.183  24.420  29.067  1.00  0.00     0.031 C 
ATOM     55  C   UNL A   1      46.873  29.532  31.879  1.00  0.00     0.029 A 
ATOM     56  C   UNL A   1      46.129  28.579  31.200  1.00  0.00     0.049 A 
ATOM     57  H   UNL A   1      44.141  28.693  30.505  1.00  0.00     0.167 HD
ATOM     58  C   UNL A   1      45.734  26.378  30.129  1.00  0.00     0.074 A 
ATOM     59  C   UNL A   1      46.146  25.047  29.729  1.00  0.00     0.031 C 
ATOM     60  C   UNL A   1      46.529  27.257  30.788  1.00  0.00     0.031 A 
BRANCH  47  61
ATOM     61  C   UNL A   1      43.814  32.684  32.003  1.00  0.00    -0.014 A 
ATOM     62  C   UNL A   1      44.275  33.752  31.210  1.00  0.00     0.010 A 
ATOM     63  C   UNL A   1      43.452  32.934  33.339  1.00  0.00     0.010 A 
ATOM     64  C   UNL A   1      44.426  35.028  31.758  1.00  0.00     0.020 A 
ATOM     65  C   UNL A   1      43.575  34.217  33.884  1.00  0.00     0.020 A 
ATOM     66  C   UNL A   1      44.085  35.250  33.096  1.00  0.00     0.054 A 
BRANCH  66  67
ATOM     67  S   UNL A   1      44.300  36.914  33.786  1.00  0.00     0.124 S 
ATOM     68  O   UNL A   1      44.698  36.619  35.160  1.00  0.00    -0.237 OA
ATOM     69  O   UNL A   1      45.346  37.482  32.939  1.00  0.00    -0.237 OA
ATOM     70  O   UNL A   1      42.982  37.524  33.637  1.00  0.00    -0.744 OA
ENDBRANCH  66  67
ENDBRANCH  47  61
BRANCH  48  71
ATOM     71  C   UNL A   1      42.609  23.668  27.879  1.00  0.00    -0.014 A 
ATOM     72  C   UNL A   1      42.919  23.470  26.522  1.00  0.00     0.010 A 
ATOM     73  C   UNL A   1      42.169  22.575  28.648  1.00  0.00     0.010 A 
ATOM     74  C   UNL A   1      42.787  22.205  25.943  1.00  0.00     0.020 A 
ATOM     75  C   UNL A   1      42.060  21.303  28.078  1.00  0.00     0.020 A 
ATOM     76  C   UNL A   1      42.364  21.127  26.726  1.00  0.00     0.054 A 
BRANCH  76  77
ATOM     77  S   UNL A   1      42.277  19.479  25.973  1.00  0.00     0.124 S 
ATOM     78  O   UNL A   1      40.855  19.358  25.670  1.00  0.00    -0.237 OA
ATOM     79  O   UNL A   1      43.161  19.611  24.818  1.00  0.00    -0.237 OA
ATOM     80  O   UNL A   1      42.770  18.596  27.027  1.00  0.00    -0.744 OA
ENDBRANCH  76  77
ENDBRANCH  48  71
BRANCH  60  81
ATOM     81  C   UNL A   1      47.919  26.802  31.140  1.00  0.00    -0.014 A 
ATOM     82  C   UNL A   1      48.173  26.083  32.322  1.00  0.00     0.010 A 
ATOM     83  C   UNL A   1      48.980  27.060  30.252  1.00  0.00     0.010 A 
ATOM     84  C   UNL A   1      49.470  25.659  32.624  1.00  0.00     0.020 A 
ATOM     85  C   UNL A   1      50.273  26.614  30.539  1.00  0.00     0.020 A 
ATOM     86  C   UNL A   1      50.512  25.928  31.732  1.00  0.00     0.054 A 
BRANCH  86  87
ATOM     87  S   UNL A   1      52.179  25.332  32.126  1.00  0.00     0.124 S 
ATOM     88  O   UNL A   1      52.464  26.033  33.375  1.00  0.00    -0.237 OA
ATOM     89  O   UNL A   1      51.985  23.889  32.247  1.00  0.00    -0.237 OA
ATOM     90  O   UNL A   1      52.978  25.752  30.978  1.00  0.00    -0.744 OA
ENDBRANCH  86  87
ENDBRANCH  60  81
ENDBRANCH  34  35
ENDBRANCH  26  29
ENDBRANCH  24  25
ENDBRANCH   1  24
TORSDOF 15
ENDMDL
MODEL 2
REMARK VINA RESULT:     -10.8      2.408      2.958
REMARK SMILES C[C@H](c1ccc(C(=O)NCCCNC(=O)c2ccc(-c3c4nc(c(-c5ccc(S(=O)(=O)[O-])cc5)c5ccc([nH]5)c(-c5ccc(S(=O)(=O)[O-])cc5)c5nc(c(-c6ccc(S(=O)(=O)[O-])cc6)c6ccc3[nH]6)C=C5)C=C4)cc2)o1)[NH+]1Cc2ccccc2C1
REMARK SMILES IDX 11 1 10 2 9 3 7 4 8 5 6 7 3 8 4 9 76 10 5 11 2 12 1 13 77 14
REMARK SMILES IDX 78 15 85 16 79 18 84 19 80 20 83 21 81 22 82 23 12 24 13 25
REMARK SMILES IDX 14 26 15 28 16 29 17 30 75 31 18 32 74 33 19 34 20 35 21 36
REMARK SMILES IDX 68 37 22 38 73 39 67 40 69 41 23 42 72 43 66 44 65 45 24 47
REMARK SMILES IDX 54 48 35 49 53 50 36 51 39 52 52 53 70 54 37 55 38 56 51 58
REMARK SMILES IDX 71 59 40 60 25 61 26 62 34 63 27 64 33 65 28 66 29 67 30 68
REMARK SMILES IDX 31 69 32 70 55 71 56 72 64 73 57 74 63 75 58 76 59 77 60 78
REMARK SMILES IDX 61 79 62 80 41 81 42 82 50 83 43 84 49 85 44 86 45 87 46 88
REMARK SMILES IDX 47 89 48 90
REMARK H PARENT 9 6 77 17 13 27 69 46 39 57
REMARK Flexibility Score: inf
ROOT
ATOM      1  C   UNL A   1      33.019  27.162  26.535  1.00  0.00     0.042 C 
ENDROOT
BRANCH   1   2
ATOM      2  C   UNL A   1      31.968  26.663  25.546  1.00  0.00     0.118 C 
BRANCH   2   3
ATOM      3  N   UNL A   1      30.903  25.885  26.155  1.00  0.00    -0.349 N 
ATOM      4  C   UNL A   1      30.827  24.515  26.316  1.00  0.00     0.287 C 
ATOM      5  O   UNL A   1      30.060  24.095  27.183  1.00  0.00    -0.266 OA
ATOM      6  H   UNL A   1      30.137  26.400  26.497  1.00  0.00     0.163 HD
BRANCH   4   7
ATOM      7  C   UNL A   1      31.603  23.648  25.453  1.00  0.00     0.191 A 
ATOM      8  C   UNL A   1      33.349  22.407  24.900  1.00  0.00     0.162 A 
ATOM      9  C   UNL A   1      32.383  22.199  23.932  1.00  0.00     0.053 A 
ATOM     10  O   UNL A   1      32.860  23.254  25.856  1.00  0.00    -0.450 OA
ATOM     11  C   UNL A   1      31.298  23.037  24.253  1.00  0.00     0.057 A 
BRANCH   8  12
ATOM     12  C   UNL A   1      34.765  21.877  25.056  1.00  0.00     0.248 C 
ATOM     13  C   UNL A   1      34.722  20.342  24.882  1.00  0.00     0.084 C 
BRANCH  12  14
ATOM     14  N   UNL A   1      35.762  22.662  24.255  1.00  0.00    -0.319 N 
ATOM     15  C   UNL A   1      37.009  21.913  23.974  1.00  0.00     0.300 C 
ATOM     16  C   UNL A   1      36.277  23.898  24.941  1.00  0.00     0.300 C 
ATOM     17  H   UNL A   1      35.220  22.879  23.420  1.00  0.00     0.349 HD
ATOM     18  C   UNL A   1      37.892  22.205  25.134  1.00  0.00     0.015 A 
ATOM     19  C   UNL A   1      37.575  23.485  25.586  1.00  0.00     0.015 A 
ATOM     20  C   UNL A   1      38.862  21.434  25.741  1.00  0.00     0.010 A 
ATOM     21  C   UNL A   1      38.389  24.124  26.499  1.00  0.00     0.010 A 
ATOM     22  C   UNL A   1      39.619  22.030  26.747  1.00  0.00     0.001 A 
ATOM     23  C   UNL A   1      39.429  23.384  27.075  1.00  0.00     0.001 A 
ENDBRANCH  12  14
ENDBRANCH   8  12
ENDBRANCH   4   7
ENDBRANCH   2   3
ENDBRANCH   1   2
BRANCH   1  24
ATOM     24  C   UNL A   1      34.001  28.191  25.978  1.00  0.00     0.118 C 
BRANCH  24  25
ATOM     25  N   UNL A   1      33.644  29.558  26.319  1.00  0.00    -0.352 N 
ATOM     26  C   UNL A   1      34.203  30.436  27.217  1.00  0.00     0.251 C 
ATOM     27  H   UNL A   1      32.873  29.916  25.824  1.00  0.00     0.163 HD
ATOM     28  O   UNL A   1      33.615  31.488  27.457  1.00  0.00    -0.269 OA
BRANCH  26  29
ATOM     29  C   UNL A   1      35.482  30.138  27.908  1.00  0.00     0.039 A 
ATOM     30  C   UNL A   1      35.435  29.614  29.206  1.00  0.00     0.014 A 
ATOM     31  C   UNL A   1      36.721  30.424  27.328  1.00  0.00     0.014 A 
ATOM     32  C   UNL A   1      36.619  29.326  29.892  1.00  0.00     0.010 A 
ATOM     33  C   UNL A   1      37.901  30.071  27.984  1.00  0.00     0.010 A 
ATOM     34  C   UNL A   1      37.864  29.525  29.276  1.00  0.00    -0.014 A 
BRANCH  34  35
ATOM     35  C   UNL A   1      39.132  29.168  29.966  1.00  0.00     0.031 A 
ATOM     36  C   UNL A   1      39.570  29.921  31.195  1.00  0.00     0.074 A 
ATOM     37  C   UNL A   1      39.923  28.205  29.454  1.00  0.00     0.049 A 
ATOM     38  N   UNL A   1      40.667  29.789  31.897  1.00  0.00    -0.248 NA
ATOM     39  C   UNL A   1      38.666  30.973  31.687  1.00  0.00     0.031 C 
ATOM     40  C   UNL A   1      39.632  27.422  28.251  1.00  0.00     0.029 A 
ATOM     41  N   UNL A   1      41.137  27.723  29.878  1.00  0.00    -0.354 N 
ATOM     42  C   UNL A   1      40.596  30.752  32.897  1.00  0.00     0.074 A 
ATOM     43  C   UNL A   1      39.369  31.490  32.684  1.00  0.00     0.031 C 
ATOM     44  C   UNL A   1      40.624  26.540  28.050  1.00  0.00     0.029 A 
ATOM     45  C   UNL A   1      41.639  26.720  29.082  1.00  0.00     0.049 A 
ATOM     46  H   UNL A   1      41.603  28.062  30.675  1.00  0.00     0.167 HD
ATOM     47  C   UNL A   1      41.464  30.994  33.912  1.00  0.00     0.031 A 
ATOM     48  C   UNL A   1      42.790  26.023  29.169  1.00  0.00     0.031 A 
ATOM     49  C   UNL A   1      42.680  30.255  34.127  1.00  0.00     0.049 A 
ATOM     50  C   UNL A   1      43.741  26.310  30.298  1.00  0.00     0.074 A 
ATOM     51  C   UNL A   1      43.599  30.389  35.154  1.00  0.00     0.029 A 
ATOM     52  N   UNL A   1      43.149  29.245  33.301  1.00  0.00    -0.354 N 
ATOM     53  N   UNL A   1      43.629  27.190  31.264  1.00  0.00    -0.248 NA
ATOM     54  C   UNL A   1      44.967  25.503  30.353  1.00  0.00     0.031 C 
ATOM     55  C   UNL A   1      44.647  29.490  34.924  1.00  0.00     0.029 A 
ATOM     56  C   UNL A   1      44.355  28.760  33.782  1.00  0.00     0.049 A 
ATOM     57  H   UNL A   1      42.693  28.919  32.492  1.00  0.00     0.167 HD
ATOM     58  C   UNL A   1      44.759  27.026  32.056  1.00  0.00     0.074 A 
ATOM     59  C   UNL A   1      45.534  25.955  31.463  1.00  0.00     0.031 C 
ATOM     60  C   UNL A   1      45.120  27.699  33.176  1.00  0.00     0.031 A 
BRANCH  47  61
ATOM     61  C   UNL A   1      41.125  32.117  34.857  1.00  0.00    -0.014 A 
ATOM     62  C   UNL A   1      41.518  33.441  34.584  1.00  0.00     0.010 A 
ATOM     63  C   UNL A   1      40.391  31.851  36.027  1.00  0.00     0.010 A 
ATOM     64  C   UNL A   1      41.236  34.465  35.492  1.00  0.00     0.020 A 
ATOM     65  C   UNL A   1      40.082  32.879  36.925  1.00  0.00     0.020 A 
ATOM     66  C   UNL A   1      40.528  34.175  36.662  1.00  0.00     0.054 A 
BRANCH  66  67
ATOM     67  S   UNL A   1      40.183  35.521  37.828  1.00  0.00     0.124 S 
ATOM     68  O   UNL A   1      38.956  35.055  38.469  1.00  0.00    -0.237 OA
ATOM     69  O   UNL A   1      41.371  35.524  38.678  1.00  0.00    -0.237 OA
ATOM     70  O   UNL A   1      40.032  36.693  36.970  1.00  0.00    -0.744 OA
ENDBRANCH  66  67
ENDBRANCH  47  61
BRANCH  48  71
ATOM     71  C   UNL A   1      43.086  24.965  28.167  1.00  0.00    -0.014 A 
ATOM     72  C   UNL A   1      43.645  25.303  26.922  1.00  0.00     0.010 A 
ATOM     73  C   UNL A   1      42.848  23.611  28.467  1.00  0.00     0.010 A 
ATOM     74  C   UNL A   1      43.958  24.306  25.992  1.00  0.00     0.020 A 
ATOM     75  C   UNL A   1      43.183  22.611  27.549  1.00  0.00     0.020 A 
ATOM     76  C   UNL A   1      43.730  22.966  26.314  1.00  0.00     0.054 A 
BRANCH  76  77
ATOM     77  S   UNL A   1      44.216  21.685  25.124  1.00  0.00     0.124 S 
ATOM     78  O   UNL A   1      43.197  20.665  25.342  1.00  0.00    -0.237 OA
ATOM     79  O   UNL A   1      44.140  22.394  23.849  1.00  0.00    -0.237 OA
ATOM     80  O   UNL A   1      45.567  21.323  25.546  1.00  0.00    -0.744 OA
ENDBRANCH  76  77
ENDBRANCH  48  71
BRANCH  60  81
ATOM     81  C   UNL A   1      46.399  27.282  33.851  1.00  0.00    -0.014 A 
ATOM     82  C   UNL A   1      46.413  26.260  34.817  1.00  0.00     0.010 A 
ATOM     83  C   UNL A   1      47.611  27.893  33.481  1.00  0.00     0.010 A 
ATOM     84  C   UNL A   1      47.613  25.878  35.423  1.00  0.00     0.020 A 
ATOM     85  C   UNL A   1      48.816  27.497  34.066  1.00  0.00     0.020 A 
ATOM     86  C   UNL A   1      48.807  26.500  35.045  1.00  0.00     0.054 A 
BRANCH  86  87
ATOM     87  S   UNL A   1      50.357  25.961  35.816  1.00  0.00     0.124 S 
ATOM     88  O   UNL A   1      50.241  24.507  35.748  1.00  0.00    -0.237 OA
ATOM     89  O   UNL A   1      51.372  26.550  34.947  1.00  0.00    -0.237 OA
ATOM     90  O   UNL A   1      50.292  26.529  37.160  1.00  0.00    -0.744 OA
ENDBRANCH  86  87
ENDBRANCH  60  81
ENDBRANCH  34  35
ENDBRANCH  26  29
ENDBRANCH  24  25
ENDBRANCH   1  24
TORSDOF 15
ENDMDL
MODEL 3
REMARK VINA RESULT:     -10.8      1.174      2.195
REMARK SMILES C[C@H](c1ccc(C(=O)NCCCNC(=O)c2ccc(-c3c4nc(c(-c5ccc(S(=O)(=O)[O-])cc5)c5ccc([nH]5)c(-c5ccc(S(=O)(=O)[O-])cc5)c5nc(c(-c6ccc(S(=O)(=O)[O-])cc6)c6ccc3[nH]6)C=C5)C=C4)cc2)o1)[NH+]1Cc2ccccc2C1
REMARK SMILES IDX 11 1 10 2 9 3 7 4 8 5 6 7 3 8 4 9 76 10 5 11 2 12 1 13 77 14
REMARK SMILES IDX 78 15 85 16 79 18 84 19 80 20 83 21 81 22 82 23 12 24 13 25
REMARK SMILES IDX 14 26 15 28 16 29 17 30 75 31 18 32 74 33 19 34 20 35 21 36
REMARK SMILES IDX 68 37 22 38 73 39 67 40 69 41 23 42 72 43 66 44 65 45 24 47
REMARK SMILES IDX 54 48 35 49 53 50 36 51 39 52 52 53 70 54 37 55 38 56 51 58
REMARK SMILES IDX 71 59 40 60 25 61 26 62 34 63 27 64 33 65 28 66 29 67 30 68
REMARK SMILES IDX 31 69 32 70 55 71 56 72 64 73 57 74 63 75 58 76 59 77 60 78
REMARK SMILES IDX 61 79 62 80 41 81 42 82 50 83 43 84 49 85 44 86 45 87 46 88
REMARK SMILES IDX 47 89 48 90
REMARK H PARENT 9 6 77 17 13 27 69 46 39 57
REMARK Flexibility Score: inf
ROOT
ATOM      1  C   UNL A   1      32.274  27.645  26.594  1.00  0.00     0.042 C 
ENDROOT
BRANCH   1   2
ATOM      2  C   UNL A   1      31.910  28.154  25.202  1.00  0.00     0.118 C 
BRANCH   2   3
ATOM      3  N   UNL A   1      30.821  27.428  24.571  1.00  0.00    -0.349 N 
ATOM      4  C   UNL A   1      30.825  26.139  24.073  1.00  0.00     0.287 C 
ATOM      5  O   UNL A   1      29.733  25.585  23.947  1.00  0.00    -0.266 OA
ATOM      6  H   UNL A   1      29.971  27.917  24.487  1.00  0.00     0.163 HD
BRANCH   4   7
ATOM      7  C   UNL A   1      32.079  25.523  23.692  1.00  0.00     0.191 A 
ATOM      8  C   UNL A   1      33.525  23.858  23.515  1.00  0.00     0.162 A 
ATOM      9  C   UNL A   1      34.035  24.915  22.782  1.00  0.00     0.053 A 
ATOM     10  O   UNL A   1      32.310  24.208  24.033  1.00  0.00    -0.450 OA
ATOM     11  C   UNL A   1      33.144  25.992  22.948  1.00  0.00     0.057 A 
BRANCH   8  12
ATOM     12  C   UNL A   1      34.067  22.469  23.809  1.00  0.00     0.248 C 
ATOM     13  C   UNL A   1      35.557  22.609  24.193  1.00  0.00     0.084 C 
BRANCH  12  14
ATOM     14  N   UNL A   1      33.165  21.682  24.713  1.00  0.00    -0.319 N 
ATOM     15  C   UNL A   1      33.885  20.686  25.540  1.00  0.00     0.300 C 
ATOM     16  C   UNL A   1      32.152  20.832  23.995  1.00  0.00     0.300 C 
ATOM     17  H   UNL A   1      32.730  22.426  25.258  1.00  0.00     0.349 HD
ATOM     18  C   UNL A   1      33.918  19.457  24.703  1.00  0.00     0.015 A 
ATOM     19  C   UNL A   1      32.767  19.459  23.916  1.00  0.00     0.015 A 
ATOM     20  C   UNL A   1      34.857  18.448  24.625  1.00  0.00     0.010 A 
ATOM     21  C   UNL A   1      32.403  18.329  23.212  1.00  0.00     0.010 A 
ATOM     22  C   UNL A   1      34.553  17.349  23.826  1.00  0.00     0.001 A 
ATOM     23  C   UNL A   1      33.307  17.261  23.180  1.00  0.00     0.001 A 
ENDBRANCH  12  14
ENDBRANCH   8  12
ENDBRANCH   4   7
ENDBRANCH   2   3
ENDBRANCH   1   2
BRANCH   1  24
ATOM     24  C   UNL A   1      33.573  28.202  27.172  1.00  0.00     0.118 C 
BRANCH  24  25
ATOM     25  N   UNL A   1      33.537  29.643  27.365  1.00  0.00    -0.352 N 
ATOM     26  C   UNL A   1      34.464  30.500  27.907  1.00  0.00     0.251 C 
ATOM     27  H   UNL A   1      32.710  30.077  27.056  1.00  0.00     0.163 HD
ATOM     28  O   UNL A   1      34.135  31.664  28.123  1.00  0.00    -0.269 OA
BRANCH  26  29
ATOM     29  C   UNL A   1      35.837  30.053  28.247  1.00  0.00     0.039 A 
ATOM     30  C   UNL A   1      36.820  30.095  27.251  1.00  0.00     0.014 A 
ATOM     31  C   UNL A   1      36.158  29.537  29.506  1.00  0.00     0.014 A 
ATOM     32  C   UNL A   1      38.125  29.677  27.532  1.00  0.00     0.010 A 
ATOM     33  C   UNL A   1      37.475  29.186  29.806  1.00  0.00     0.010 A 
ATOM     34  C   UNL A   1      38.471  29.245  28.821  1.00  0.00    -0.014 A 
BRANCH  34  35
ATOM     35  C   UNL A   1      39.867  28.853  29.154  1.00  0.00     0.031 A 
ATOM     36  C   UNL A   1      40.794  29.830  29.829  1.00  0.00     0.074 A 
ATOM     37  C   UNL A   1      40.322  27.637  28.795  1.00  0.00     0.049 A 
ATOM     38  N   UNL A   1      42.056  29.687  30.145  1.00  0.00    -0.248 NA
ATOM     39  C   UNL A   1      40.234  31.147  30.174  1.00  0.00     0.031 C 
ATOM     40  C   UNL A   1      39.539  26.609  28.107  1.00  0.00     0.029 A 
ATOM     41  N   UNL A   1      41.558  27.060  28.954  1.00  0.00    -0.354 N 
ATOM     42  C   UNL A   1      42.447  30.898  30.706  1.00  0.00     0.074 A 
ATOM     43  C   UNL A   1      41.299  31.778  30.645  1.00  0.00     0.031 C 
ATOM     44  C   UNL A   1      40.302  25.519  27.929  1.00  0.00     0.029 A 
ATOM     45  C   UNL A   1      41.639  25.782  28.452  1.00  0.00     0.049 A 
ATOM     46  H   UNL A   1      42.314  27.517  29.388  1.00  0.00     0.167 HD
ATOM     47  C   UNL A   1      43.645  31.244  31.238  1.00  0.00     0.031 A 
ATOM     48  C   UNL A   1      42.673  24.918  28.411  1.00  0.00     0.031 A 
ATOM     49  C   UNL A   1      44.783  30.365  31.305  1.00  0.00     0.049 A 
ATOM     50  C   UNL A   1      43.995  25.323  29.001  1.00  0.00     0.074 A 
ATOM     51  C   UNL A   1      46.024  30.605  31.870  1.00  0.00     0.029 A 
ATOM     52  N   UNL A   1      44.821  29.079  30.788  1.00  0.00    -0.354 N 
ATOM     53  N   UNL A   1      44.327  26.455  29.574  1.00  0.00    -0.248 NA
ATOM     54  C   UNL A   1      45.076  24.330  28.948  1.00  0.00     0.031 C 
ATOM     55  C   UNL A   1      46.828  29.479  31.654  1.00  0.00     0.029 A 
ATOM     56  C   UNL A   1      46.070  28.519  31.002  1.00  0.00     0.049 A 
ATOM     57  H   UNL A   1      44.072  28.629  30.337  1.00  0.00     0.167 HD
ATOM     58  C   UNL A   1      45.651  26.302  29.971  1.00  0.00     0.074 A 
ATOM     59  C   UNL A   1      46.052  24.964  29.585  1.00  0.00     0.031 C 
ATOM     60  C   UNL A   1      46.459  27.189  30.604  1.00  0.00     0.031 A 
BRANCH  47  61
ATOM     61  C   UNL A   1      43.782  32.644  31.778  1.00  0.00    -0.014 A 
ATOM     62  C   UNL A   1      44.183  33.708  30.948  1.00  0.00     0.010 A 
ATOM     63  C   UNL A   1      43.494  32.905  33.129  1.00  0.00     0.010 A 
ATOM     64  C   UNL A   1      44.349  34.992  31.473  1.00  0.00     0.020 A 
ATOM     65  C   UNL A   1      43.631  34.196  33.652  1.00  0.00     0.020 A 
ATOM     66  C   UNL A   1      44.082  35.225  32.825  1.00  0.00     0.054 A 
BRANCH  66  67
ATOM     67  S   UNL A   1      44.315  36.900  33.483  1.00  0.00     0.124 S 
ATOM     68  O   UNL A   1      45.428  36.706  34.409  1.00  0.00    -0.237 OA
ATOM     69  O   UNL A   1      44.623  37.677  32.285  1.00  0.00    -0.237 OA
ATOM     70  O   UNL A   1      43.031  37.208  34.108  1.00  0.00    -0.744 OA
ENDBRANCH  66  67
ENDBRANCH  47  61
BRANCH  48  71
ATOM     71  C   UNL A   1      42.481  23.570  27.812  1.00  0.00    -0.014 A 
ATOM     72  C   UNL A   1      42.790  23.345  26.459  1.00  0.00     0.010 A 
ATOM     73  C   UNL A   1      42.027  22.496  28.600  1.00  0.00     0.010 A 
ATOM     74  C   UNL A   1      42.645  22.071  25.902  1.00  0.00     0.020 A 
ATOM     75  C   UNL A   1      41.905  21.216  28.052  1.00  0.00     0.020 A 
ATOM     76  C   UNL A   1      42.208  21.012  26.704  1.00  0.00     0.054 A 
BRANCH  76  77
ATOM     77  S   UNL A   1      42.103  19.352  25.981  1.00  0.00     0.124 S 
ATOM     78  O   UNL A   1      40.670  19.214  25.744  1.00  0.00    -0.237 OA
ATOM     79  O   UNL A   1      42.933  19.475  24.785  1.00  0.00    -0.237 OA
ATOM     80  O   UNL A   1      42.652  18.490  27.024  1.00  0.00    -0.744 OA
ENDBRANCH  76  77
ENDBRANCH  48  71
BRANCH  60  81
ATOM     81  C   UNL A   1      47.853  26.733  30.941  1.00  0.00    -0.014 A 
ATOM     82  C   UNL A   1      48.922  26.940  30.051  1.00  0.00     0.010 A 
ATOM     83  C   UNL A   1      48.104  26.129  32.186  1.00  0.00     0.010 A 
ATOM     84  C   UNL A   1      50.212  26.521  30.388  1.00  0.00     0.020 A 
ATOM     85  C   UNL A   1      49.397  25.733  32.538  1.00  0.00     0.020 A 
ATOM     86  C   UNL A   1      50.441  25.919  31.629  1.00  0.00     0.054 A 
BRANCH  86  87
ATOM     87  S   UNL A   1      52.130  25.420  32.061  1.00  0.00     0.124 S 
ATOM     88  O   UNL A   1      52.897  25.934  30.931  1.00  0.00    -0.237 OA
ATOM     89  O   UNL A   1      52.353  26.102  33.334  1.00  0.00    -0.237 OA
ATOM     90  O   UNL A   1      52.050  23.964  32.149  1.00  0.00    -0.744 OA
ENDBRANCH  86  87
ENDBRANCH  60  81
ENDBRANCH  34  35
ENDBRANCH  26  29
ENDBRANCH  24  25
ENDBRANCH   1  24
TORSDOF 15
ENDMDL
