MODEL 1
REMARK VINA RESULT:     -11.9      0.000      0.000
REMARK SMILES O=C(NCCCNC(=O)c1cc(Cl)ccc1NC(=O)c1ccc2c(c1)C(=O)N(Cc1ccco1)C2=O)c1ccc(-c2c3nc(c(-c4ccc(S(=O)(=O)[O-])cc4)c4ccc([nH]4)c(-c4ccc(S(=O)(=O)[O-])cc4)c4nc(c(-c5ccc(S(=O)(=O)[O-])cc5)c5ccc2[nH]5)C=C4)C=C3)cc1
REMARK SMILES IDX 5 1 4 2 3 3 1 4 2 5 37 7 38 8 96 9 39 10 95 11 40 12 41 13
REMARK SMILES IDX 42 14 89 15 43 16 94 17 88 18 90 19 44 20 93 21 87 22 86 23
REMARK SMILES IDX 45 25 75 26 56 27 74 28 57 29 60 30 73 31 91 32 58 33 59 34
REMARK SMILES IDX 72 36 92 37 61 38 46 39 47 40 55 41 48 42 54 43 49 44 50 45
REMARK SMILES IDX 51 46 52 47 53 48 76 49 77 50 85 51 78 52 84 53 79 54 80 55
REMARK SMILES IDX 81 56 82 57 83 58 62 59 63 60 71 61 64 62 70 63 65 64 66 65
REMARK SMILES IDX 67 66 68 67 69 68 6 69 7 70 8 71 9 73 10 74 11 75 16 76
REMARK SMILES IDX 12 77 15 78 13 79 14 80 17 81 18 82 19 84 20 85 21 86 25 87
REMARK SMILES IDX 22 88 24 89 23 90 26 91 35 92 27 93 28 94 36 95 29 96 30 97
REMARK SMILES IDX 31 98 34 99 32 100 33 101
REMARK H PARENT 3 6 90 24 60 35 7 72 17 83
REMARK Flexibility Score: inf
ROOT
ATOM      1  C   UNL A   1      32.599  27.688  26.896  1.00  0.00     0.042 C 
ENDROOT
BRANCH   1   2
ATOM      2  C   UNL A   1      33.870  28.375  27.363  1.00  0.00     0.118 C 
BRANCH   2   3
ATOM      3  N   UNL A   1      33.687  29.801  27.604  1.00  0.00    -0.352 N 
ATOM      4  O   UNL A   1      34.115  31.844  28.442  1.00  0.00    -0.269 OA
ATOM      5  C   UNL A   1      34.536  30.724  28.167  1.00  0.00     0.251 C 
ATOM      6  H   UNL A   1      32.815  30.160  27.318  1.00  0.00     0.163 HD
BRANCH   5   7
ATOM      7  C   UNL A   1      35.940  30.363  28.463  1.00  0.00     0.039 A 
ATOM      8  C   UNL A   1      36.933  30.528  27.499  1.00  0.00     0.014 A 
ATOM      9  C   UNL A   1      36.272  29.868  29.728  1.00  0.00     0.014 A 
ATOM     10  C   UNL A   1      38.211  30.036  27.730  1.00  0.00     0.010 A 
ATOM     11  C   UNL A   1      37.589  29.482  30.000  1.00  0.00     0.010 A 
ATOM     12  C   UNL A   1      38.564  29.534  28.992  1.00  0.00    -0.014 A 
BRANCH  12  13
ATOM     13  C   UNL A   1      39.978  29.156  29.248  1.00  0.00     0.031 A 
ATOM     14  C   UNL A   1      40.519  27.813  28.842  1.00  0.00     0.074 A 
ATOM     15  C   UNL A   1      40.786  30.064  29.833  1.00  0.00     0.049 A 
ATOM     16  N   UNL A   1      41.733  27.343  28.980  1.00  0.00    -0.248 NA
ATOM     17  C   UNL A   1      39.583  26.871  28.206  1.00  0.00     0.031 C 
ATOM     18  C   UNL A   1      40.372  31.401  30.275  1.00  0.00     0.029 A 
ATOM     19  N   UNL A   1      42.121  30.018  30.140  1.00  0.00    -0.354 N 
ATOM     20  C   UNL A   1      41.705  26.051  28.469  1.00  0.00     0.074 A 
ATOM     21  C   UNL A   1      40.347  25.799  28.037  1.00  0.00     0.031 C 
ATOM     22  C   UNL A   1      41.438  32.062  30.745  1.00  0.00     0.029 A 
ATOM     23  C   UNL A   1      42.593  31.174  30.716  1.00  0.00     0.049 A 
ATOM     24  H   UNL A   1      42.687  29.232  29.965  1.00  0.00     0.167 HD
ATOM     25  C   UNL A   1      42.722  25.160  28.367  1.00  0.00     0.031 A 
ATOM     26  C   UNL A   1      43.811  31.485  31.194  1.00  0.00     0.031 A 
ATOM     27  C   UNL A   1      44.071  25.421  28.803  1.00  0.00     0.049 A 
ATOM     28  C   UNL A   1      44.905  30.459  31.109  1.00  0.00     0.074 A 
ATOM     29  C   UNL A   1      45.177  24.593  28.712  1.00  0.00     0.029 A 
ATOM     30  N   UNL A   1      44.498  26.589  29.416  1.00  0.00    -0.354 N 
ATOM     31  N   UNL A   1      44.866  29.258  30.584  1.00  0.00    -0.248 NA
ATOM     32  C   UNL A   1      46.206  30.832  31.676  1.00  0.00     0.031 C 
ATOM     33  C   UNL A   1      46.255  25.234  29.329  1.00  0.00     0.029 A 
ATOM     34  C   UNL A   1      45.842  26.491  29.737  1.00  0.00     0.049 A 
ATOM     35  H   UNL A   1      43.930  27.373  29.596  1.00  0.00     0.167 HD
ATOM     36  C   UNL A   1      46.145  28.739  30.738  1.00  0.00     0.074 A 
ATOM     37  C   UNL A   1      46.939  29.767  31.382  1.00  0.00     0.031 C 
ATOM     38  C   UNL A   1      46.620  27.522  30.377  1.00  0.00     0.031 A 
BRANCH  25  39
ATOM     39  C   UNL A   1      42.420  23.801  27.787  1.00  0.00    -0.014 A 
ATOM     40  C   UNL A   1      42.712  23.497  26.445  1.00  0.00     0.010 A 
ATOM     41  C   UNL A   1      41.914  22.786  28.621  1.00  0.00     0.010 A 
ATOM     42  C   UNL A   1      42.480  22.212  25.944  1.00  0.00     0.020 A 
ATOM     43  C   UNL A   1      41.707  21.493  28.131  1.00  0.00     0.020 A 
ATOM     44  C   UNL A   1      41.982  21.218  26.791  1.00  0.00     0.054 A 
BRANCH  44  45
ATOM     45  S   UNL A   1      41.735  19.549  26.122  1.00  0.00     0.124 S 
ATOM     46  O   UNL A   1      42.599  19.566  24.944  1.00  0.00    -0.237 OA
ATOM     47  O   UNL A   1      42.186  18.696  27.218  1.00  0.00    -0.237 OA
ATOM     48  O   UNL A   1      40.302  19.493  25.842  1.00  0.00    -0.744 OA
ENDBRANCH  44  45
ENDBRANCH  25  39
BRANCH  26  49
ATOM     49  C   UNL A   1      44.046  32.811  31.828  1.00  0.00    -0.014 A 
ATOM     50  C   UNL A   1      43.869  32.992  33.210  1.00  0.00     0.010 A 
ATOM     51  C   UNL A   1      44.452  33.906  31.041  1.00  0.00     0.010 A 
ATOM     52  C   UNL A   1      44.065  34.250  33.788  1.00  0.00     0.020 A 
ATOM     53  C   UNL A   1      44.685  35.154  31.620  1.00  0.00     0.020 A 
ATOM     54  C   UNL A   1      44.471  35.323  32.990  1.00  0.00     0.054 A 
BRANCH  54  55
ATOM     55  S   UNL A   1      44.742  36.939  33.766  1.00  0.00     0.124 S 
ATOM     56  O   UNL A   1      46.152  37.179  33.477  1.00  0.00    -0.237 OA
ATOM     57  O   UNL A   1      43.794  37.792  33.055  1.00  0.00    -0.237 OA
ATOM     58  O   UNL A   1      44.422  36.700  35.172  1.00  0.00    -0.744 OA
ENDBRANCH  54  55
ENDBRANCH  26  49
BRANCH  38  59
ATOM     59  C   UNL A   1      48.079  27.248  30.634  1.00  0.00    -0.014 A 
ATOM     60  C   UNL A   1      48.518  26.683  31.844  1.00  0.00     0.010 A 
ATOM     61  C   UNL A   1      49.020  27.524  29.625  1.00  0.00     0.010 A 
ATOM     62  C   UNL A   1      49.876  26.433  32.056  1.00  0.00     0.020 A 
ATOM     63  C   UNL A   1      50.374  27.244  29.819  1.00  0.00     0.020 A 
ATOM     64  C   UNL A   1      50.796  26.713  31.040  1.00  0.00     0.054 A 
BRANCH  64  65
ATOM     65  S   UNL A   1      52.547  26.338  31.323  1.00  0.00     0.124 S 
ATOM     66  O   UNL A   1      53.104  26.452  29.978  1.00  0.00    -0.237 OA
ATOM     67  O   UNL A   1      52.949  27.383  32.261  1.00  0.00    -0.237 OA
ATOM     68  O   UNL A   1      52.527  24.986  31.876  1.00  0.00    -0.744 OA
ENDBRANCH  64  65
ENDBRANCH  38  59
ENDBRANCH  12  13
ENDBRANCH   5   7
ENDBRANCH   2   3
ENDBRANCH   1   2
BRANCH   1  69
ATOM     69  C   UNL A   1      32.758  26.929  25.588  1.00  0.00     0.118 C 
BRANCH  69  70
ATOM     70  N   UNL A   1      33.691  27.575  24.668  1.00  0.00    -0.352 N 
ATOM     71  C   UNL A   1      33.441  28.285  23.519  1.00  0.00     0.253 C 
ATOM     72  H   UNL A   1      34.642  27.487  24.907  1.00  0.00     0.163 HD
ATOM     73  O   UNL A   1      34.356  28.590  22.761  1.00  0.00    -0.269 OA
BRANCH  71  74
ATOM     74  C   UNL A   1      32.047  28.628  23.169  1.00  0.00     0.064 A 
ATOM     75  C   UNL A   1      31.450  29.723  23.814  1.00  0.00     0.036 A 
ATOM     76  C   UNL A   1      31.327  27.854  22.243  1.00  0.00     0.054 A 
ATOM     77  C   UNL A   1      30.087  29.940  23.681  1.00  0.00     0.041 A 
ATOM     78  C   UNL A   1      29.938  28.014  22.236  1.00  0.00     0.028 A 
ATOM     79  Cl  UNL A   1      29.342  31.247  24.509  1.00  0.00    -0.084 Cl
ATOM     80  C   UNL A   1      29.319  29.060  22.934  1.00  0.00     0.023 A 
BRANCH  76  81
ATOM     81  N   UNL A   1      32.021  26.978  21.364  1.00  0.00    -0.321 N 
ATOM     82  C   UNL A   1      32.552  25.714  21.536  1.00  0.00     0.255 C 
ATOM     83  H   UNL A   1      32.147  27.342  20.458  1.00  0.00     0.170 HD
ATOM     84  O   UNL A   1      33.199  25.160  20.652  1.00  0.00    -0.269 OA
BRANCH  82  85
ATOM     85  C   UNL A   1      32.330  24.973  22.793  1.00  0.00     0.041 A 
ATOM     86  C   UNL A   1      30.990  24.770  23.197  1.00  0.00     0.015 A 
ATOM     87  C   UNL A   1      33.404  24.342  23.439  1.00  0.00     0.028 A 
ATOM     88  C   UNL A   1      30.690  23.805  24.158  1.00  0.00     0.015 A 
ATOM     89  C   UNL A   1      33.071  23.376  24.368  1.00  0.00     0.054 A 
ATOM     90  C   UNL A   1      31.753  23.093  24.684  1.00  0.00     0.053 A 
ATOM     91  C   UNL A   1      33.905  22.348  24.992  1.00  0.00     0.261 C 
ATOM     92  C   UNL A   1      31.745  21.863  25.466  1.00  0.00     0.261 C 
ATOM     93  O   UNL A   1      35.108  22.268  24.837  1.00  0.00    -0.269 OA
ATOM     94  N   UNL A   1      33.052  21.508  25.650  1.00  0.00    -0.267 N 
ATOM     95  O   UNL A   1      30.728  21.273  25.777  1.00  0.00    -0.269 OA
BRANCH  94  96
ATOM     96  C   UNL A   1      33.466  20.288  26.312  1.00  0.00     0.204 C 
BRANCH  96  97
ATOM     97  C   UNL A   1      33.317  19.143  25.376  1.00  0.00     0.123 A 
ATOM     98  C   UNL A   1      34.056  18.708  24.294  1.00  0.00     0.047 A 
ATOM     99  O   UNL A   1      32.249  18.317  25.571  1.00  0.00    -0.467 OA
ATOM    100  C   UNL A   1      33.390  17.571  23.783  1.00  0.00     0.042 A 
ATOM    101  C   UNL A   1      32.302  17.369  24.600  1.00  0.00     0.195 A 
ENDBRANCH  96  97
ENDBRANCH  94  96
ENDBRANCH  82  85
ENDBRANCH  76  81
ENDBRANCH  71  74
ENDBRANCH  69  70
ENDBRANCH   1  69
TORSDOF 17
ENDMDL
MODEL 2
REMARK VINA RESULT:     -11.6      1.271      2.015
REMARK SMILES O=C(NCCCNC(=O)c1cc(Cl)ccc1NC(=O)c1ccc2c(c1)C(=O)N(Cc1ccco1)C2=O)c1ccc(-c2c3nc(c(-c4ccc(S(=O)(=O)[O-])cc4)c4ccc([nH]4)c(-c4ccc(S(=O)(=O)[O-])cc4)c4nc(c(-c5ccc(S(=O)(=O)[O-])cc5)c5ccc2[nH]5)C=C4)C=C3)cc1
REMARK SMILES IDX 5 1 4 2 3 3 1 4 2 5 37 7 38 8 96 9 39 10 95 11 40 12 41 13
REMARK SMILES IDX 42 14 89 15 43 16 94 17 88 18 90 19 44 20 93 21 87 22 86 23
REMARK SMILES IDX 45 25 75 26 56 27 74 28 57 29 60 30 73 31 91 32 58 33 59 34
REMARK SMILES IDX 72 36 92 37 61 38 46 39 47 40 55 41 48 42 54 43 49 44 50 45
REMARK SMILES IDX 51 46 52 47 53 48 76 49 77 50 85 51 78 52 84 53 79 54 80 55
REMARK SMILES IDX 81 56 82 57 83 58 62 59 63 60 71 61 64 62 70 63 65 64 66 65
REMARK SMILES IDX 67 66 68 67 69 68 6 69 7 70 8 71 9 73 10 74 11 75 16 76
REMARK SMILES IDX 12 77 15 78 13 79 14 80 17 81 18 82 19 84 20 85 21 86 25 87
REMARK SMILES IDX 22 88 24 89 23 90 26 91 35 92 27 93 28 94 36 95 29 96 30 97
REMARK SMILES IDX 31 98 34 99 32 100 33 101
REMARK H PARENT 3 6 90 24 60 35 7 72 17 83
REMARK Flexibility Score: inf
ROOT
ATOM      1  C   UNL A   1      33.321  28.336  25.032  1.00  0.00     0.042 C 
ENDROOT
BRANCH   1   2
ATOM      2  C   UNL A   1      34.262  28.625  26.189  1.00  0.00     0.118 C 
BRANCH   2   3
ATOM      3  N   UNL A   1      33.886  29.816  26.940  1.00  0.00    -0.352 N 
ATOM      4  O   UNL A   1      33.985  31.376  28.557  1.00  0.00    -0.269 OA
ATOM      5  C   UNL A   1      34.562  30.495  27.926  1.00  0.00     0.251 C 
ATOM      6  H   UNL A   1      33.008  30.194  26.704  1.00  0.00     0.163 HD
BRANCH   5   7
ATOM      7  C   UNL A   1      35.966  30.151  28.241  1.00  0.00     0.039 A 
ATOM      8  C   UNL A   1      36.978  30.371  27.307  1.00  0.00     0.014 A 
ATOM      9  C   UNL A   1      36.279  29.617  29.495  1.00  0.00     0.014 A 
ATOM     10  C   UNL A   1      38.260  29.896  27.550  1.00  0.00     0.010 A 
ATOM     11  C   UNL A   1      37.597  29.247  29.783  1.00  0.00     0.010 A 
ATOM     12  C   UNL A   1      38.594  29.355  28.800  1.00  0.00    -0.014 A 
BRANCH  12  13
ATOM     13  C   UNL A   1      40.009  28.995  29.076  1.00  0.00     0.031 A 
ATOM     14  C   UNL A   1      40.569  27.654  28.689  1.00  0.00     0.074 A 
ATOM     15  C   UNL A   1      40.801  29.919  29.660  1.00  0.00     0.049 A 
ATOM     16  N   UNL A   1      41.787  27.200  28.845  1.00  0.00    -0.248 NA
ATOM     17  C   UNL A   1      39.651  26.696  28.053  1.00  0.00     0.031 C 
ATOM     18  C   UNL A   1      40.366  31.255  30.084  1.00  0.00     0.029 A 
ATOM     19  N   UNL A   1      42.132  29.890  29.982  1.00  0.00    -0.354 N 
ATOM     20  C   UNL A   1      41.780  25.902  28.347  1.00  0.00     0.074 A 
ATOM     21  C   UNL A   1      40.429  25.631  27.903  1.00  0.00     0.031 C 
ATOM     22  C   UNL A   1      41.420  31.933  30.559  1.00  0.00     0.029 A 
ATOM     23  C   UNL A   1      42.585  31.058  30.551  1.00  0.00     0.049 A 
ATOM     24  H   UNL A   1      42.709  29.109  29.821  1.00  0.00     0.167 HD
ATOM     25  C   UNL A   1      42.807  25.022  28.265  1.00  0.00     0.031 A 
ATOM     26  C   UNL A   1      43.794  31.386  31.040  1.00  0.00     0.031 A 
ATOM     27  C   UNL A   1      44.148  25.303  28.713  1.00  0.00     0.049 A 
ATOM     28  C   UNL A   1      44.900  30.373  30.977  1.00  0.00     0.074 A 
ATOM     29  C   UNL A   1      45.264  24.486  28.643  1.00  0.00     0.029 A 
ATOM     30  N   UNL A   1      44.556  26.481  29.319  1.00  0.00    -0.354 N 
ATOM     31  N   UNL A   1      44.880  29.166  30.464  1.00  0.00    -0.248 NA
ATOM     32  C   UNL A   1      46.191  30.766  31.554  1.00  0.00     0.031 C 
ATOM     33  C   UNL A   1      46.329  25.145  29.265  1.00  0.00     0.029 A 
ATOM     34  C   UNL A   1      45.897  26.402  29.656  1.00  0.00     0.049 A 
ATOM     35  H   UNL A   1      43.977  27.261  29.485  1.00  0.00     0.167 HD
ATOM     36  C   UNL A   1      46.164  28.663  30.637  1.00  0.00     0.074 A 
ATOM     37  C   UNL A   1      46.939  29.706  31.279  1.00  0.00     0.031 C 
ATOM     38  C   UNL A   1      46.657  27.448  30.294  1.00  0.00     0.031 A 
BRANCH  25  39
ATOM     39  C   UNL A   1      42.527  23.654  27.696  1.00  0.00    -0.014 A 
ATOM     40  C   UNL A   1      42.697  23.382  26.327  1.00  0.00     0.010 A 
ATOM     41  C   UNL A   1      42.168  22.602  28.560  1.00  0.00     0.010 A 
ATOM     42  C   UNL A   1      42.490  22.092  25.830  1.00  0.00     0.020 A 
ATOM     43  C   UNL A   1      41.987  21.304  28.072  1.00  0.00     0.020 A 
ATOM     44  C   UNL A   1      42.139  21.060  26.706  1.00  0.00     0.054 A 
BRANCH  44  45
ATOM     45  S   UNL A   1      41.923  19.387  26.038  1.00  0.00     0.124 S 
ATOM     46  O   UNL A   1      40.486  19.354  25.771  1.00  0.00    -0.237 OA
ATOM     47  O   UNL A   1      42.779  19.403  24.855  1.00  0.00    -0.237 OA
ATOM     48  O   UNL A   1      42.374  18.517  27.120  1.00  0.00    -0.744 OA
ENDBRANCH  44  45
ENDBRANCH  25  39
BRANCH  26  49
ATOM     49  C   UNL A   1      44.007  32.722  31.662  1.00  0.00    -0.014 A 
ATOM     50  C   UNL A   1      44.378  33.830  30.882  1.00  0.00     0.010 A 
ATOM     51  C   UNL A   1      43.836  32.889  33.049  1.00  0.00     0.010 A 
ATOM     52  C   UNL A   1      44.603  35.073  31.482  1.00  0.00     0.020 A 
ATOM     53  C   UNL A   1      44.023  34.137  33.647  1.00  0.00     0.020 A 
ATOM     54  C   UNL A   1      44.425  35.218  32.860  1.00  0.00     0.054 A 
BRANCH  54  55
ATOM     55  S   UNL A   1      44.699  36.845  33.613  1.00  0.00     0.124 S 
ATOM     56  O   UNL A   1      45.177  37.626  32.478  1.00  0.00    -0.237 OA
ATOM     57  O   UNL A   1      43.369  37.190  34.108  1.00  0.00    -0.237 OA
ATOM     58  O   UNL A   1      45.692  36.577  34.652  1.00  0.00    -0.744 OA
ENDBRANCH  54  55
ENDBRANCH  26  49
BRANCH  38  59
ATOM     59  C   UNL A   1      48.115  27.193  30.569  1.00  0.00    -0.014 A 
ATOM     60  C   UNL A   1      49.107  27.506  29.623  1.00  0.00     0.010 A 
ATOM     61  C   UNL A   1      48.500  26.672  31.818  1.00  0.00     0.010 A 
ATOM     62  C   UNL A   1      50.454  27.266  29.906  1.00  0.00     0.020 A 
ATOM     63  C   UNL A   1      49.848  26.463  32.118  1.00  0.00     0.020 A 
ATOM     64  C   UNL A   1      50.816  26.748  31.153  1.00  0.00     0.054 A 
BRANCH  64  65
ATOM     65  S   UNL A   1      52.574  26.487  31.511  1.00  0.00     0.124 S 
ATOM     66  O   UNL A   1      52.587  25.106  31.983  1.00  0.00    -0.237 OA
ATOM     67  O   UNL A   1      53.201  26.715  30.212  1.00  0.00    -0.237 OA
ATOM     68  O   UNL A   1      52.873  27.494  32.526  1.00  0.00    -0.744 OA
ENDBRANCH  64  65
ENDBRANCH  38  59
ENDBRANCH  12  13
ENDBRANCH   5   7
ENDBRANCH   2   3
ENDBRANCH   1   2
BRANCH   1  69
ATOM     69  C   UNL A   1      31.990  29.065  25.127  1.00  0.00     0.118 C 
BRANCH  69  70
ATOM     70  N   UNL A   1      31.293  29.140  23.846  1.00  0.00    -0.352 N 
ATOM     71  C   UNL A   1      30.657  28.151  23.134  1.00  0.00     0.253 C 
ATOM     72  H   UNL A   1      31.276  30.032  23.430  1.00  0.00     0.163 HD
ATOM     73  O   UNL A   1      30.293  28.348  21.979  1.00  0.00    -0.269 OA
BRANCH  71  74
ATOM     74  C   UNL A   1      30.467  26.823  23.751  1.00  0.00     0.064 A 
ATOM     75  C   UNL A   1      29.577  26.712  24.832  1.00  0.00     0.036 A 
ATOM     76  C   UNL A   1      31.188  25.707  23.292  1.00  0.00     0.054 A 
ATOM     77  C   UNL A   1      29.539  25.542  25.574  1.00  0.00     0.041 A 
ATOM     78  C   UNL A   1      31.228  24.593  24.137  1.00  0.00     0.028 A 
ATOM     79  Cl  UNL A   1      28.490  25.419  26.928  1.00  0.00    -0.084 Cl
ATOM     80  C   UNL A   1      30.397  24.498  25.261  1.00  0.00     0.023 A 
BRANCH  76  81
ATOM     81  N   UNL A   1      31.815  25.748  22.017  1.00  0.00    -0.321 N 
ATOM     82  C   UNL A   1      32.892  25.063  21.486  1.00  0.00     0.255 C 
ATOM     83  H   UNL A   1      31.403  26.387  21.391  1.00  0.00     0.170 HD
ATOM     84  O   UNL A   1      33.330  25.317  20.367  1.00  0.00    -0.269 OA
BRANCH  82  85
ATOM     85  C   UNL A   1      33.536  23.975  22.245  1.00  0.00     0.041 A 
ATOM     86  C   UNL A   1      34.616  24.325  23.088  1.00  0.00     0.015 A 
ATOM     87  C   UNL A   1      32.965  22.693  22.265  1.00  0.00     0.028 A 
ATOM     88  C   UNL A   1      35.043  23.442  24.080  1.00  0.00     0.015 A 
ATOM     89  C   UNL A   1      33.392  21.854  23.274  1.00  0.00     0.054 A 
ATOM     90  C   UNL A   1      34.372  22.236  24.175  1.00  0.00     0.053 A 
ATOM     91  C   UNL A   1      32.815  20.599  23.758  1.00  0.00     0.261 C 
ATOM     92  C   UNL A   1      34.385  21.254  25.252  1.00  0.00     0.261 C 
ATOM     93  O   UNL A   1      31.871  20.041  23.231  1.00  0.00    -0.269 OA
ATOM     94  N   UNL A   1      33.475  20.291  24.914  1.00  0.00    -0.267 N 
ATOM     95  O   UNL A   1      35.037  21.383  26.269  1.00  0.00    -0.269 OA
BRANCH  94  96
ATOM     96  C   UNL A   1      33.131  19.177  25.772  1.00  0.00     0.204 C 
BRANCH  96  97
ATOM     97  C   UNL A   1      33.472  17.902  25.087  1.00  0.00     0.123 A 
ATOM     98  C   UNL A   1      34.461  17.549  24.190  1.00  0.00     0.047 A 
ATOM     99  O   UNL A   1      32.682  16.823  25.354  1.00  0.00    -0.467 OA
ATOM    100  C   UNL A   1      34.248  16.189  23.872  1.00  0.00     0.042 A 
ATOM    101  C   UNL A   1      33.160  15.791  24.613  1.00  0.00     0.195 A 
ENDBRANCH  96  97
ENDBRANCH  94  96
ENDBRANCH  82  85
ENDBRANCH  76  81
ENDBRANCH  71  74
ENDBRANCH  69  70
ENDBRANCH   1  69
TORSDOF 17
ENDMDL
MODEL 3
REMARK VINA RESULT:     -11.6      1.329      7.960
REMARK SMILES O=C(NCCCNC(=O)c1cc(Cl)ccc1NC(=O)c1ccc2c(c1)C(=O)N(Cc1ccco1)C2=O)c1ccc(-c2c3nc(c(-c4ccc(S(=O)(=O)[O-])cc4)c4ccc([nH]4)c(-c4ccc(S(=O)(=O)[O-])cc4)c4nc(c(-c5ccc(S(=O)(=O)[O-])cc5)c5ccc2[nH]5)C=C4)C=C3)cc1
REMARK SMILES IDX 5 1 4 2 3 3 1 4 2 5 37 7 38 8 96 9 39 10 95 11 40 12 41 13
REMARK SMILES IDX 42 14 89 15 43 16 94 17 88 18 90 19 44 20 93 21 87 22 86 23
REMARK SMILES IDX 45 25 75 26 56 27 74 28 57 29 60 30 73 31 91 32 58 33 59 34
REMARK SMILES IDX 72 36 92 37 61 38 46 39 47 40 55 41 48 42 54 43 49 44 50 45
REMARK SMILES IDX 51 46 52 47 53 48 76 49 77 50 85 51 78 52 84 53 79 54 80 55
REMARK SMILES IDX 81 56 82 57 83 58 62 59 63 60 71 61 64 62 70 63 65 64 66 65
REMARK SMILES IDX 67 66 68 67 69 68 6 69 7 70 8 71 9 73 10 74 11 75 16 76
REMARK SMILES IDX 12 77 15 78 13 79 14 80 17 81 18 82 19 84 20 85 21 86 25 87
REMARK SMILES IDX 22 88 24 89 23 90 26 91 35 92 27 93 28 94 36 95 29 96 30 97
REMARK SMILES IDX 31 98 34 99 32 100 33 101
REMARK H PARENT 3 6 90 24 60 35 7 72 17 83
REMARK Flexibility Score: inf
ROOT
ATOM      1  C   UNL A   1      33.400  28.417  24.844  1.00  0.00     0.042 C 
ENDROOT
BRANCH   1   2
ATOM      2  C   UNL A   1      34.377  28.786  25.947  1.00  0.00     0.118 C 
BRANCH   2   3
ATOM      3  N   UNL A   1      33.945  29.942  26.722  1.00  0.00    -0.352 N 
ATOM      4  O   UNL A   1      33.930  31.432  28.407  1.00  0.00    -0.269 OA
ATOM      5  C   UNL A   1      34.552  30.582  27.776  1.00  0.00     0.251 C 
ATOM      6  H   UNL A   1      33.081  30.325  26.447  1.00  0.00     0.163 HD
BRANCH   5   7
ATOM      7  C   UNL A   1      35.937  30.233  28.165  1.00  0.00     0.039 A 
ATOM      8  C   UNL A   1      36.999  30.463  27.292  1.00  0.00     0.014 A 
ATOM      9  C   UNL A   1      36.179  29.682  29.427  1.00  0.00     0.014 A 
ATOM     10  C   UNL A   1      38.265  29.984  27.600  1.00  0.00     0.010 A 
ATOM     11  C   UNL A   1      37.479  29.307  29.784  1.00  0.00     0.010 A 
ATOM     12  C   UNL A   1      38.529  29.426  28.860  1.00  0.00    -0.014 A 
BRANCH  12  13
ATOM     13  C   UNL A   1      39.926  29.062  29.209  1.00  0.00     0.031 A 
ATOM     14  C   UNL A   1      40.831  30.019  29.935  1.00  0.00     0.074 A 
ATOM     15  C   UNL A   1      40.364  27.827  28.886  1.00  0.00     0.049 A 
ATOM     16  N   UNL A   1      42.067  29.841  30.326  1.00  0.00    -0.248 NA
ATOM     17  C   UNL A   1      40.288  31.348  30.260  1.00  0.00     0.031 C 
ATOM     18  C   UNL A   1      39.576  26.812  28.177  1.00  0.00     0.029 A 
ATOM     19  N   UNL A   1      41.562  27.205  29.123  1.00  0.00    -0.354 N 
ATOM     20  C   UNL A   1      42.457  31.033  30.924  1.00  0.00     0.074 A 
ATOM     21  C   UNL A   1      41.333  31.939  30.825  1.00  0.00     0.031 C 
ATOM     22  C   UNL A   1      40.291  25.682  28.084  1.00  0.00     0.029 A 
ATOM     23  C   UNL A   1      41.613  25.914  28.651  1.00  0.00     0.049 A 
ATOM     24  H   UNL A   1      42.314  27.640  29.586  1.00  0.00     0.167 HD
ATOM     25  C   UNL A   1      43.643  31.340  31.504  1.00  0.00     0.031 A 
ATOM     26  C   UNL A   1      42.617  25.018  28.647  1.00  0.00     0.031 A 
ATOM     27  C   UNL A   1      44.757  30.430  31.595  1.00  0.00     0.049 A 
ATOM     28  C   UNL A   1      43.934  25.405  29.256  1.00  0.00     0.074 A 
ATOM     29  C   UNL A   1      45.989  30.638  32.193  1.00  0.00     0.029 A 
ATOM     30  N   UNL A   1      44.782  29.146  31.071  1.00  0.00    -0.354 N 
ATOM     31  N   UNL A   1      44.266  26.525  29.852  1.00  0.00    -0.248 NA
ATOM     32  C   UNL A   1      45.009  24.406  29.196  1.00  0.00     0.031 C 
ATOM     33  C   UNL A   1      46.779  29.507  31.973  1.00  0.00     0.029 A 
ATOM     34  C   UNL A   1      46.017  28.563  31.303  1.00  0.00     0.049 A 
ATOM     35  H   UNL A   1      44.032  28.712  30.602  1.00  0.00     0.167 HD
ATOM     36  C   UNL A   1      45.584  26.356  30.259  1.00  0.00     0.074 A 
ATOM     37  C   UNL A   1      45.977  25.019  29.863  1.00  0.00     0.031 C 
ATOM     38  C   UNL A   1      46.395  27.231  30.904  1.00  0.00     0.031 A 
BRANCH  25  39
ATOM     39  C   UNL A   1      43.820  32.728  32.067  1.00  0.00    -0.014 A 
ATOM     40  C   UNL A   1      43.537  33.013  33.414  1.00  0.00     0.010 A 
ATOM     41  C   UNL A   1      44.360  33.743  31.254  1.00  0.00     0.010 A 
ATOM     42  C   UNL A   1      43.766  34.292  33.930  1.00  0.00     0.020 A 
ATOM     43  C   UNL A   1      44.617  35.016  31.774  1.00  0.00     0.020 A 
ATOM     44  C   UNL A   1      44.307  35.285  33.108  1.00  0.00     0.054 A 
BRANCH  44  45
ATOM     45  S   UNL A   1      44.635  36.921  33.820  1.00  0.00     0.124 S 
ATOM     46  O   UNL A   1      43.417  37.650  33.474  1.00  0.00    -0.237 OA
ATOM     47  O   UNL A   1      44.805  36.623  35.240  1.00  0.00    -0.237 OA
ATOM     48  O   UNL A   1      45.844  37.367  33.130  1.00  0.00    -0.744 OA
ENDBRANCH  44  45
ENDBRANCH  25  39
BRANCH  26  49
ATOM     49  C   UNL A   1      42.422  23.685  28.013  1.00  0.00    -0.014 A 
ATOM     50  C   UNL A   1      41.948  22.594  28.761  1.00  0.00     0.010 A 
ATOM     51  C   UNL A   1      42.712  23.505  26.647  1.00  0.00     0.010 A 
ATOM     52  C   UNL A   1      41.796  21.340  28.161  1.00  0.00     0.020 A 
ATOM     53  C   UNL A   1      42.527  22.264  26.036  1.00  0.00     0.020 A 
ATOM     54  C   UNL A   1      42.088  21.183  26.803  1.00  0.00     0.054 A 
BRANCH  54  55
ATOM     55  S   UNL A   1      41.861  19.553  26.041  1.00  0.00     0.124 S 
ATOM     56  O   UNL A   1      42.303  18.658  27.105  1.00  0.00    -0.237 OA
ATOM     57  O   UNL A   1      40.429  19.538  25.752  1.00  0.00    -0.237 OA
ATOM     58  O   UNL A   1      42.726  19.604  24.864  1.00  0.00    -0.744 OA
ENDBRANCH  54  55
ENDBRANCH  26  49
BRANCH  38  59
ATOM     59  C   UNL A   1      47.779  26.753  31.259  1.00  0.00    -0.014 A 
ATOM     60  C   UNL A   1      48.038  26.089  32.471  1.00  0.00     0.010 A 
ATOM     61  C   UNL A   1      48.827  26.936  30.339  1.00  0.00     0.010 A 
ATOM     62  C   UNL A   1      49.330  25.650  32.773  1.00  0.00     0.020 A 
ATOM     63  C   UNL A   1      50.112  26.468  30.622  1.00  0.00     0.020 A 
ATOM     64  C   UNL A   1      50.358  25.841  31.845  1.00  0.00     0.054 A 
BRANCH  64  65
ATOM     65  S   UNL A   1      52.016  25.222  32.243  1.00  0.00     0.124 S 
ATOM     66  O   UNL A   1      52.798  25.693  31.103  1.00  0.00    -0.237 OA
ATOM     67  O   UNL A   1      52.303  25.877  33.516  1.00  0.00    -0.237 OA
ATOM     68  O   UNL A   1      51.836  23.775  32.320  1.00  0.00    -0.744 OA
ENDBRANCH  64  65
ENDBRANCH  38  59
ENDBRANCH  12  13
ENDBRANCH   5   7
ENDBRANCH   2   3
ENDBRANCH   1   2
BRANCH   1  69
ATOM     69  C   UNL A   1      32.023  29.039  25.012  1.00  0.00     0.118 C 
BRANCH  69  70
ATOM     70  N   UNL A   1      31.277  29.110  23.758  1.00  0.00    -0.352 N 
ATOM     71  C   UNL A   1      30.610  28.121  23.077  1.00  0.00     0.253 C 
ATOM     72  H   UNL A   1      31.250  29.999  23.337  1.00  0.00     0.163 HD
ATOM     73  O   UNL A   1      30.203  28.313  21.935  1.00  0.00    -0.269 OA
BRANCH  71  74
ATOM     74  C   UNL A   1      30.437  26.796  23.709  1.00  0.00     0.064 A 
ATOM     75  C   UNL A   1      29.550  26.687  24.792  1.00  0.00     0.036 A 
ATOM     76  C   UNL A   1      31.170  25.684  23.260  1.00  0.00     0.054 A 
ATOM     77  C   UNL A   1      29.527  25.525  25.548  1.00  0.00     0.041 A 
ATOM     78  C   UNL A   1      31.224  24.580  24.117  1.00  0.00     0.028 A 
ATOM     79  Cl  UNL A   1      28.483  25.405  26.905  1.00  0.00    -0.084 Cl
ATOM     80  C   UNL A   1      30.397  24.488  25.244  1.00  0.00     0.023 A 
BRANCH  76  81
ATOM     81  N   UNL A   1      31.794  25.719  21.983  1.00  0.00    -0.321 N 
ATOM     82  C   UNL A   1      32.867  25.029  21.452  1.00  0.00     0.255 C 
ATOM     83  H   UNL A   1      31.381  26.356  21.356  1.00  0.00     0.170 HD
ATOM     84  O   UNL A   1      33.303  25.278  20.331  1.00  0.00    -0.269 OA
BRANCH  82  85
ATOM     85  C   UNL A   1      33.511  23.943  22.214  1.00  0.00     0.041 A 
ATOM     86  C   UNL A   1      34.595  24.294  23.051  1.00  0.00     0.015 A 
ATOM     87  C   UNL A   1      32.936  22.663  22.242  1.00  0.00     0.028 A 
ATOM     88  C   UNL A   1      35.023  23.414  24.046  1.00  0.00     0.015 A 
ATOM     89  C   UNL A   1      33.364  21.827  23.253  1.00  0.00     0.054 A 
ATOM     90  C   UNL A   1      34.349  22.210  24.148  1.00  0.00     0.053 A 
ATOM     91  C   UNL A   1      32.785  20.576  23.745  1.00  0.00     0.261 C 
ATOM     92  C   UNL A   1      34.362  21.233  25.229  1.00  0.00     0.261 C 
ATOM     93  O   UNL A   1      31.838  20.019  23.223  1.00  0.00    -0.269 OA
ATOM     94  N   UNL A   1      33.448  20.271  24.900  1.00  0.00    -0.267 N 
ATOM     95  O   UNL A   1      35.019  21.364  26.244  1.00  0.00    -0.269 OA
BRANCH  94  96
ATOM     96  C   UNL A   1      33.104  19.162  25.764  1.00  0.00     0.204 C 
BRANCH  96  97
ATOM     97  C   UNL A   1      33.468  17.884  25.097  1.00  0.00     0.123 A 
ATOM     98  C   UNL A   1      34.467  17.535  24.210  1.00  0.00     0.047 A 
ATOM     99  O   UNL A   1      32.692  16.797  25.372  1.00  0.00    -0.467 OA
ATOM    100  C   UNL A   1      34.276  16.168  23.907  1.00  0.00     0.042 A 
ATOM    101  C   UNL A   1      33.190  15.763  24.646  1.00  0.00     0.195 A 
ENDBRANCH  96  97
ENDBRANCH  94  96
ENDBRANCH  82  85
ENDBRANCH  76  81
ENDBRANCH  71  74
ENDBRANCH  69  70
ENDBRANCH   1  69
TORSDOF 17
ENDMDL
