MODEL 1
REMARK VINA RESULT:     -11.2      0.000      0.000
REMARK SMILES CCCCCCNC(=O)Oc1cccc(-c2ccc([C@@H](C)C(=O)NCCCNC(=O)c3ccc(-c4c5nc(c(-c6ccc(S(=O)(=O)[O-])cc6)c6ccc([nH]6)c(-c6ccc(S(=O)(=O)[O-])cc6)c6nc(c(-c7ccc(S(=O)(=O)[O-])cc7)c7ccc4[nH]7)C=C6)C=C5)cc3)cc2Cl)c1
REMARK SMILES IDX 20 1 21 2 19 3 16 4 17 5 92 6 18 7 91 8 93 9 15 10 11 11
REMARK SMILES IDX 12 12 94 13 13 14 14 15 10 16 8 17 7 18 9 20 6 21 5 22 4 23
REMARK SMILES IDX 3 24 2 25 1 26 22 27 23 28 24 29 25 31 26 32 27 33 28 34
REMARK SMILES IDX 29 35 30 37 31 38 32 39 90 40 33 41 89 42 34 43 35 44 36 45
REMARK SMILES IDX 83 46 37 47 88 48 82 49 84 50 38 51 87 52 81 53 80 54 39 56
REMARK SMILES IDX 69 57 50 58 68 59 51 60 54 61 67 62 85 63 52 64 53 65 66 67
REMARK SMILES IDX 86 68 55 69 40 70 41 71 49 72 42 73 48 74 43 75 44 76 45 77
REMARK SMILES IDX 46 78 47 79 70 80 71 81 79 82 72 83 78 84 73 85 74 86 75 87
REMARK SMILES IDX 76 88 77 89 56 90 57 91 65 92 58 93 64 94 59 95 60 96 61 97
REMARK SMILES IDX 62 98 63 99
REMARK H PARENT 7 19 24 30 28 36 84 55 54 66
REMARK Flexibility Score: inf
ROOT
ATOM      1  C   UNL A   1      33.535  26.707  25.152  1.00  0.00     0.105 C 
ATOM      2  C   UNL A   1      33.041  27.208  23.797  1.00  0.00     0.023 C 
ENDROOT
BRANCH   1   3
ATOM      3  C   UNL A   1      34.131  25.309  25.152  1.00  0.00    -0.034 A 
ATOM      4  C   UNL A   1      35.053  22.590  25.159  1.00  0.00     0.000 A 
ATOM      5  C   UNL A   1      35.216  23.435  24.045  1.00  0.00     0.010 A 
ATOM      6  C   UNL A   1      34.478  23.173  26.306  1.00  0.00     0.049 A 
ATOM      7  C   UNL A   1      34.809  24.774  24.058  1.00  0.00     0.005 A 
ATOM      8  C   UNL A   1      33.993  24.493  26.285  1.00  0.00     0.025 A 
ATOM      9  Cl  UNL A   1      34.381  22.358  27.835  1.00  0.00    -0.084 Cl
BRANCH   4  10
ATOM     10  C   UNL A   1      35.471  21.171  25.042  1.00  0.00    -0.013 A 
ATOM     11  C   UNL A   1      34.957  18.818  24.683  1.00  0.00     0.133 A 
ATOM     12  C   UNL A   1      36.301  18.472  24.760  1.00  0.00     0.047 A 
ATOM     13  C   UNL A   1      34.541  20.146  24.803  1.00  0.00     0.056 A 
ATOM     14  C   UNL A   1      37.244  19.473  24.962  1.00  0.00     0.004 A 
ATOM     15  C   UNL A   1      36.831  20.801  25.117  1.00  0.00     0.009 A 
BRANCH  11  16
ATOM     16  O   UNL A   1      34.034  17.758  24.637  1.00  0.00    -0.410 OA
BRANCH  16  17
ATOM     17  C   UNL A   1      33.752  17.135  23.432  1.00  0.00     0.412 C 
ATOM     18  N   UNL A   1      32.643  17.649  22.817  1.00  0.00    -0.321 N 
ATOM     19  H   UNL A   1      32.348  17.204  21.989  1.00  0.00     0.167 HD
ATOM     20  O   UNL A   1      34.392  16.226  22.921  1.00  0.00    -0.224 OA
BRANCH  18  21
ATOM     21  C   UNL A   1      31.857  18.782  23.261  1.00  0.00     0.119 C 
BRANCH  21  22
ATOM     22  C   UNL A   1      32.097  20.014  22.387  1.00  0.00     0.021 C 
BRANCH  22  23
ATOM     23  C   UNL A   1      32.380  21.308  23.162  1.00  0.00     0.002 C 
BRANCH  23  24
ATOM     24  C   UNL A   1      31.464  22.489  22.825  1.00  0.00    -0.000 C 
BRANCH  24  25
ATOM     25  C   UNL A   1      31.139  23.421  23.996  1.00  0.00    -0.003 C 
ATOM     26  C   UNL A   1      30.470  24.716  23.565  1.00  0.00     0.004 C 
ENDBRANCH  24  25
ENDBRANCH  23  24
ENDBRANCH  22  23
ENDBRANCH  21  22
ENDBRANCH  18  21
ENDBRANCH  16  17
ENDBRANCH  11  16
ENDBRANCH   4  10
ENDBRANCH   1   3
BRANCH   1  27
ATOM     27  C   UNL A   1      32.576  26.974  26.323  1.00  0.00     0.227 C 
ATOM     28  O   UNL A   1      31.736  26.120  26.633  1.00  0.00    -0.274 OA
ATOM     29  N   UNL A   1      32.586  28.103  27.081  1.00  0.00    -0.356 N 
ATOM     30  H   UNL A   1      31.941  28.091  27.824  1.00  0.00     0.163 HD
BRANCH  29  31
ATOM     31  C   UNL A   1      33.367  29.323  27.004  1.00  0.00     0.117 C 
BRANCH  31  32
ATOM     32  C   UNL A   1      34.839  29.092  27.337  1.00  0.00     0.042 C 
BRANCH  32  33
ATOM     33  C   UNL A   1      35.538  30.313  27.920  1.00  0.00     0.118 C 
BRANCH  33  34
ATOM     34  N   UNL A   1      35.482  30.334  29.376  1.00  0.00    -0.352 N 
ATOM     35  C   UNL A   1      36.415  29.956  30.310  1.00  0.00     0.251 C 
ATOM     36  H   UNL A   1      34.638  30.675  29.751  1.00  0.00     0.163 HD
ATOM     37  O   UNL A   1      36.070  29.841  31.484  1.00  0.00    -0.269 OA
BRANCH  35  38
ATOM     38  C   UNL A   1      37.817  29.675  29.922  1.00  0.00     0.039 A 
ATOM     39  C   UNL A   1      38.722  29.262  30.906  1.00  0.00     0.014 A 
ATOM     40  C   UNL A   1      38.257  29.855  28.610  1.00  0.00     0.014 A 
ATOM     41  C   UNL A   1      40.044  28.968  30.560  1.00  0.00     0.010 A 
ATOM     42  C   UNL A   1      39.550  29.483  28.250  1.00  0.00     0.010 A 
ATOM     43  C   UNL A   1      40.460  29.040  29.221  1.00  0.00    -0.014 A 
BRANCH  43  44
ATOM     44  C   UNL A   1      41.836  28.658  28.812  1.00  0.00     0.031 A 
ATOM     45  C   UNL A   1      42.924  29.696  28.748  1.00  0.00     0.074 A 
ATOM     46  C   UNL A   1      42.089  27.391  28.427  1.00  0.00     0.049 A 
ATOM     47  N   UNL A   1      44.159  29.575  28.331  1.00  0.00    -0.248 NA
ATOM     48  C   UNL A   1      42.572  31.057  29.188  1.00  0.00     0.031 C 
ATOM     49  C   UNL A   1      41.112  26.300  28.409  1.00  0.00     0.029 A 
ATOM     50  N   UNL A   1      43.242  26.809  27.962  1.00  0.00    -0.354 N 
ATOM     51  C   UNL A   1      44.723  30.842  28.439  1.00  0.00     0.074 A 
ATOM     52  C   UNL A   1      43.683  31.727  28.915  1.00  0.00     0.031 C 
ATOM     53  C   UNL A   1      41.712  25.178  27.980  1.00  0.00     0.029 A 
ATOM     54  C   UNL A   1      43.100  25.479  27.645  1.00  0.00     0.049 A 
ATOM     55  H   UNL A   1      44.092  27.299  27.864  1.00  0.00     0.167 HD
ATOM     56  C   UNL A   1      45.995  31.229  28.181  1.00  0.00     0.031 A 
ATOM     57  C   UNL A   1      43.982  24.600  27.129  1.00  0.00     0.031 A 
ATOM     58  C   UNL A   1      47.027  30.343  27.711  1.00  0.00     0.049 A 
ATOM     59  C   UNL A   1      45.382  25.059  26.827  1.00  0.00     0.074 A 
ATOM     60  C   UNL A   1      48.360  30.628  27.468  1.00  0.00     0.029 A 
ATOM     61  N   UNL A   1      46.843  29.002  27.409  1.00  0.00    -0.354 N 
ATOM     62  N   UNL A   1      45.913  26.247  26.994  1.00  0.00    -0.248 NA
ATOM     63  C   UNL A   1      46.305  24.058  26.275  1.00  0.00     0.031 C 
ATOM     64  C   UNL A   1      48.969  29.472  26.970  1.00  0.00     0.029 A 
ATOM     65  C   UNL A   1      48.031  28.451  26.958  1.00  0.00     0.049 A 
ATOM     66  H   UNL A   1      45.993  28.514  27.501  1.00  0.00     0.167 HD
ATOM     67  C   UNL A   1      47.239  26.130  26.592  1.00  0.00     0.074 A 
ATOM     68  C   UNL A   1      47.432  24.751  26.188  1.00  0.00     0.031 C 
ATOM     69  C   UNL A   1      48.208  27.077  26.561  1.00  0.00     0.031 A 
BRANCH  56  70
ATOM     70  C   UNL A   1      46.336  32.682  28.394  1.00  0.00    -0.014 A 
ATOM     71  C   UNL A   1      46.188  33.622  27.359  1.00  0.00     0.010 A 
ATOM     72  C   UNL A   1      46.779  33.120  29.655  1.00  0.00     0.010 A 
ATOM     73  C   UNL A   1      46.520  34.964  27.565  1.00  0.00     0.020 A 
ATOM     74  C   UNL A   1      47.085  34.466  29.876  1.00  0.00     0.020 A 
ATOM     75  C   UNL A   1      46.971  35.377  28.822  1.00  0.00     0.054 A 
BRANCH  75  76
ATOM     76  S   UNL A   1      47.382  37.126  29.066  1.00  0.00     0.124 S 
ATOM     77  O   UNL A   1      46.472  37.501  30.146  1.00  0.00    -0.237 OA
ATOM     78  O   UNL A   1      48.796  37.077  29.428  1.00  0.00    -0.237 OA
ATOM     79  O   UNL A   1      47.094  37.736  27.769  1.00  0.00    -0.744 OA
ENDBRANCH  75  76
ENDBRANCH  56  70
BRANCH  57  80
ATOM     80  C   UNL A   1      43.565  23.194  26.875  1.00  0.00    -0.014 A 
ATOM     81  C   UNL A   1      43.596  22.665  25.572  1.00  0.00     0.010 A 
ATOM     82  C   UNL A   1      43.154  22.368  27.938  1.00  0.00     0.010 A 
ATOM     83  C   UNL A   1      43.211  21.342  25.336  1.00  0.00     0.020 A 
ATOM     84  C   UNL A   1      42.796  21.037  27.709  1.00  0.00     0.020 A 
ATOM     85  C   UNL A   1      42.817  20.534  26.406  1.00  0.00     0.054 A 
BRANCH  85  86
ATOM     86  S   UNL A   1      42.380  18.804  26.085  1.00  0.00     0.124 S 
ATOM     87  O   UNL A   1      43.309  18.449  25.016  1.00  0.00    -0.237 OA
ATOM     88  O   UNL A   1      42.629  18.169  27.377  1.00  0.00    -0.237 OA
ATOM     89  O   UNL A   1      40.973  18.873  25.696  1.00  0.00    -0.744 OA
ENDBRANCH  85  86
ENDBRANCH  57  80
BRANCH  69  90
ATOM     90  C   UNL A   1      49.579  26.653  26.105  1.00  0.00    -0.014 A 
ATOM     91  C   UNL A   1      50.054  26.977  24.823  1.00  0.00     0.010 A 
ATOM     92  C   UNL A   1      50.427  25.976  27.001  1.00  0.00     0.010 A 
ATOM     93  C   UNL A   1      51.347  26.610  24.436  1.00  0.00     0.020 A 
ATOM     94  C   UNL A   1      51.729  25.633  26.628  1.00  0.00     0.020 A 
ATOM     95  C   UNL A   1      52.177  25.942  25.342  1.00  0.00     0.054 A 
BRANCH  95  96
ATOM     96  S   UNL A   1      53.867  25.527  24.835  1.00  0.00     0.124 S 
ATOM     97  O   UNL A   1      54.667  26.296  25.785  1.00  0.00    -0.237 OA
ATOM     98  O   UNL A   1      53.907  24.077  25.007  1.00  0.00    -0.237 OA
ATOM     99  O   UNL A   1      53.936  25.986  23.450  1.00  0.00    -0.744 OA
ENDBRANCH  95  96
ENDBRANCH  69  90
ENDBRANCH  43  44
ENDBRANCH  35  38
ENDBRANCH  33  34
ENDBRANCH  32  33
ENDBRANCH  31  32
ENDBRANCH  29  31
ENDBRANCH   1  27
TORSDOF 22
ENDMDL
MODEL 2
REMARK VINA RESULT:     -11.0      1.447      2.046
REMARK SMILES CCCCCCNC(=O)Oc1cccc(-c2ccc([C@@H](C)C(=O)NCCCNC(=O)c3ccc(-c4c5nc(c(-c6ccc(S(=O)(=O)[O-])cc6)c6ccc([nH]6)c(-c6ccc(S(=O)(=O)[O-])cc6)c6nc(c(-c7ccc(S(=O)(=O)[O-])cc7)c7ccc4[nH]7)C=C6)C=C5)cc3)cc2Cl)c1
REMARK SMILES IDX 20 1 21 2 19 3 16 4 17 5 92 6 18 7 91 8 93 9 15 10 11 11
REMARK SMILES IDX 12 12 94 13 13 14 14 15 10 16 8 17 7 18 9 20 6 21 5 22 4 23
REMARK SMILES IDX 3 24 2 25 1 26 22 27 23 28 24 29 25 31 26 32 27 33 28 34
REMARK SMILES IDX 29 35 30 37 31 38 32 39 90 40 33 41 89 42 34 43 35 44 36 45
REMARK SMILES IDX 83 46 37 47 88 48 82 49 84 50 38 51 87 52 81 53 80 54 39 56
REMARK SMILES IDX 69 57 50 58 68 59 51 60 54 61 67 62 85 63 52 64 53 65 66 67
REMARK SMILES IDX 86 68 55 69 40 70 41 71 49 72 42 73 48 74 43 75 44 76 45 77
REMARK SMILES IDX 46 78 47 79 70 80 71 81 79 82 72 83 78 84 73 85 74 86 75 87
REMARK SMILES IDX 76 88 77 89 56 90 57 91 65 92 58 93 64 94 59 95 60 96 61 97
REMARK SMILES IDX 62 98 63 99
REMARK H PARENT 7 19 24 30 28 36 84 55 54 66
REMARK Flexibility Score: inf
ROOT
ATOM      1  C   UNL A   1      33.075  28.705  24.149  1.00  0.00     0.105 C 
ATOM      2  C   UNL A   1      33.028  29.229  22.715  1.00  0.00     0.023 C 
ENDROOT
BRANCH   1   3
ATOM      3  C   UNL A   1      33.564  27.274  24.304  1.00  0.00    -0.034 A 
ATOM      4  C   UNL A   1      34.633  24.613  24.439  1.00  0.00     0.000 A 
ATOM      5  C   UNL A   1      34.770  25.532  25.497  1.00  0.00     0.010 A 
ATOM      6  C   UNL A   1      33.873  25.044  23.332  1.00  0.00     0.049 A 
ATOM      7  C   UNL A   1      34.208  26.813  25.450  1.00  0.00     0.005 A 
ATOM      8  C   UNL A   1      33.385  26.361  23.255  1.00  0.00     0.025 A 
ATOM      9  Cl  UNL A   1      33.422  23.994  22.026  1.00  0.00    -0.084 Cl
BRANCH   4  10
ATOM     10  C   UNL A   1      35.300  23.293  24.553  1.00  0.00    -0.013 A 
ATOM     11  C   UNL A   1      35.210  20.868  24.769  1.00  0.00     0.133 A 
ATOM     12  C   UNL A   1      36.595  20.773  24.705  1.00  0.00     0.047 A 
ATOM     13  C   UNL A   1      34.563  22.103  24.677  1.00  0.00     0.056 A 
ATOM     14  C   UNL A   1      37.345  21.933  24.548  1.00  0.00     0.004 A 
ATOM     15  C   UNL A   1      36.705  23.176  24.489  1.00  0.00     0.009 A 
BRANCH  11  16
ATOM     16  O   UNL A   1      34.509  19.692  25.086  1.00  0.00    -0.410 OA
BRANCH  16  17
ATOM     17  C   UNL A   1      33.149  19.744  25.348  1.00  0.00     0.412 C 
ATOM     18  N   UNL A   1      32.864  20.305  26.562  1.00  0.00    -0.321 N 
ATOM     19  H   UNL A   1      31.919  20.309  26.838  1.00  0.00     0.167 HD
ATOM     20  O   UNL A   1      32.256  19.352  24.608  1.00  0.00    -0.224 OA
BRANCH  18  21
ATOM     21  C   UNL A   1      33.814  20.895  27.484  1.00  0.00     0.119 C 
BRANCH  21  22
ATOM     22  C   UNL A   1      33.464  22.350  27.802  1.00  0.00     0.021 C 
BRANCH  22  23
ATOM     23  C   UNL A   1      32.024  22.755  27.458  1.00  0.00     0.002 C 
BRANCH  23  24
ATOM     24  C   UNL A   1      31.875  24.097  26.732  1.00  0.00    -0.000 C 
BRANCH  24  25
ATOM     25  C   UNL A   1      30.484  24.380  26.158  1.00  0.00    -0.003 C 
ATOM     26  C   UNL A   1      30.348  25.777  25.576  1.00  0.00     0.004 C 
ENDBRANCH  24  25
ENDBRANCH  23  24
ENDBRANCH  22  23
ENDBRANCH  21  22
ENDBRANCH  18  21
ENDBRANCH  16  17
ENDBRANCH  11  16
ENDBRANCH   4  10
ENDBRANCH   1   3
BRANCH   1  27
ATOM     27  C   UNL A   1      31.834  29.034  24.992  1.00  0.00     0.227 C 
ATOM     28  O   UNL A   1      30.729  29.132  24.443  1.00  0.00    -0.274 OA
ATOM     29  N   UNL A   1      31.847  29.216  26.340  1.00  0.00    -0.356 N 
ATOM     30  H   UNL A   1      30.957  29.366  26.732  1.00  0.00     0.163 HD
BRANCH  29  31
ATOM     31  C   UNL A   1      32.924  29.228  27.312  1.00  0.00     0.117 C 
BRANCH  31  32
ATOM     32  C   UNL A   1      33.919  30.358  27.062  1.00  0.00     0.042 C 
BRANCH  32  33
ATOM     33  C   UNL A   1      35.269  30.151  27.737  1.00  0.00     0.118 C 
BRANCH  33  34
ATOM     34  N   UNL A   1      35.261  30.591  29.126  1.00  0.00    -0.352 N 
ATOM     35  C   UNL A   1      36.244  30.539  30.084  1.00  0.00     0.251 C 
ATOM     36  H   UNL A   1      34.413  30.990  29.427  1.00  0.00     0.163 HD
ATOM     37  O   UNL A   1      35.945  30.755  31.257  1.00  0.00    -0.269 OA
BRANCH  35  38
ATOM     38  C   UNL A   1      37.645  30.217  29.726  1.00  0.00     0.039 A 
ATOM     39  C   UNL A   1      38.566  29.975  30.751  1.00  0.00     0.014 A 
ATOM     40  C   UNL A   1      38.068  30.194  28.396  1.00  0.00     0.014 A 
ATOM     41  C   UNL A   1      39.889  29.646  30.439  1.00  0.00     0.010 A 
ATOM     42  C   UNL A   1      39.363  29.786  28.083  1.00  0.00     0.010 A 
ATOM     43  C   UNL A   1      40.289  29.512  29.100  1.00  0.00    -0.014 A 
BRANCH  43  44
ATOM     44  C   UNL A   1      41.666  29.086  28.737  1.00  0.00     0.031 A 
ATOM     45  C   UNL A   1      42.784  30.093  28.693  1.00  0.00     0.074 A 
ATOM     46  C   UNL A   1      41.895  27.807  28.377  1.00  0.00     0.049 A 
ATOM     47  N   UNL A   1      44.026  29.932  28.316  1.00  0.00    -0.248 NA
ATOM     48  C   UNL A   1      42.456  31.469  29.104  1.00  0.00     0.031 C 
ATOM     49  C   UNL A   1      40.889  26.744  28.343  1.00  0.00     0.029 A 
ATOM     50  N   UNL A   1      43.045  27.188  27.955  1.00  0.00    -0.354 N 
ATOM     51  C   UNL A   1      44.622  31.184  28.424  1.00  0.00     0.074 A 
ATOM     52  C   UNL A   1      43.593  32.104  28.857  1.00  0.00     0.031 C 
ATOM     53  C   UNL A   1      41.470  25.600  27.947  1.00  0.00     0.029 A 
ATOM     54  C   UNL A   1      42.875  25.857  27.651  1.00  0.00     0.049 A 
ATOM     55  H   UNL A   1      43.910  27.652  27.877  1.00  0.00     0.167 HD
ATOM     56  C   UNL A   1      45.911  31.533  28.200  1.00  0.00     0.031 A 
ATOM     57  C   UNL A   1      43.747  24.947  27.173  1.00  0.00     0.031 A 
ATOM     58  C   UNL A   1      46.933  30.613  27.773  1.00  0.00     0.049 A 
ATOM     59  C   UNL A   1      45.168  25.364  26.909  1.00  0.00     0.074 A 
ATOM     60  C   UNL A   1      48.279  30.857  27.568  1.00  0.00     0.029 A 
ATOM     61  N   UNL A   1      46.720  29.273  27.483  1.00  0.00    -0.354 N 
ATOM     62  N   UNL A   1      45.727  26.539  27.077  1.00  0.00    -0.248 NA
ATOM     63  C   UNL A   1      46.078  24.330  26.398  1.00  0.00     0.031 C 
ATOM     64  C   UNL A   1      48.870  29.678  27.103  1.00  0.00     0.029 A 
ATOM     65  C   UNL A   1      47.906  28.684  27.076  1.00  0.00     0.049 A 
ATOM     66  H   UNL A   1      45.854  28.810  27.556  1.00  0.00     0.167 HD
ATOM     67  C   UNL A   1      47.060  26.380  26.716  1.00  0.00     0.074 A 
ATOM     68  C   UNL A   1      47.227  24.991  26.337  1.00  0.00     0.031 C 
ATOM     69  C   UNL A   1      48.056  27.300  26.703  1.00  0.00     0.031 A 
BRANCH  56  70
ATOM     70  C   UNL A   1      46.287  32.979  28.405  1.00  0.00    -0.014 A 
ATOM     71  C   UNL A   1      46.684  33.453  29.668  1.00  0.00     0.010 A 
ATOM     72  C   UNL A   1      46.277  33.867  27.314  1.00  0.00     0.010 A 
ATOM     73  C   UNL A   1      47.017  34.799  29.847  1.00  0.00     0.020 A 
ATOM     74  C   UNL A   1      46.638  35.207  27.482  1.00  0.00     0.020 A 
ATOM     75  C   UNL A   1      46.988  35.669  28.753  1.00  0.00     0.054 A 
BRANCH  75  76
ATOM     76  S   UNL A   1      47.439  37.406  29.013  1.00  0.00     0.124 S 
ATOM     77  O   UNL A   1      46.692  38.072  27.949  1.00  0.00    -0.237 OA
ATOM     78  O   UNL A   1      46.962  37.663  30.369  1.00  0.00    -0.237 OA
ATOM     79  O   UNL A   1      48.892  37.416  28.853  1.00  0.00    -0.744 OA
ENDBRANCH  75  76
ENDBRANCH  56  70
BRANCH  57  80
ATOM     80  C   UNL A   1      43.299  23.550  26.926  1.00  0.00    -0.014 A 
ATOM     81  C   UNL A   1      42.983  23.123  25.623  1.00  0.00     0.010 A 
ATOM     82  C   UNL A   1      43.204  22.632  27.988  1.00  0.00     0.010 A 
ATOM     83  C   UNL A   1      42.570  21.809  25.390  1.00  0.00     0.020 A 
ATOM     84  C   UNL A   1      42.818  21.310  27.753  1.00  0.00     0.020 A 
ATOM     85  C   UNL A   1      42.493  20.908  26.456  1.00  0.00     0.054 A 
BRANCH  85  86
ATOM     86  S   UNL A   1      42.012  19.192  26.121  1.00  0.00     0.124 S 
ATOM     87  O   UNL A   1      42.785  18.887  24.922  1.00  0.00    -0.237 OA
ATOM     88  O   UNL A   1      42.434  18.502  27.339  1.00  0.00    -0.237 OA
ATOM     89  O   UNL A   1      40.565  19.273  25.931  1.00  0.00    -0.744 OA
ENDBRANCH  85  86
ENDBRANCH  57  80
BRANCH  69  90
ATOM     90  C   UNL A   1      49.428  26.832  26.295  1.00  0.00    -0.014 A 
ATOM     91  C   UNL A   1      50.209  26.032  27.146  1.00  0.00     0.010 A 
ATOM     92  C   UNL A   1      49.913  27.147  25.011  1.00  0.00     0.010 A 
ATOM     93  C   UNL A   1      51.462  25.573  26.730  1.00  0.00     0.020 A 
ATOM     94  C   UNL A   1      51.152  26.667  24.581  1.00  0.00     0.020 A 
ATOM     95  C   UNL A   1      51.925  25.892  25.448  1.00  0.00     0.054 A 
BRANCH  95  96
ATOM     96  S   UNL A   1      53.529  25.238  24.912  1.00  0.00     0.124 S 
ATOM     97  O   UNL A   1      54.464  26.129  25.595  1.00  0.00    -0.237 OA
ATOM     98  O   UNL A   1      53.495  23.863  25.406  1.00  0.00    -0.237 OA
ATOM     99  O   UNL A   1      53.490  25.373  23.459  1.00  0.00    -0.744 OA
ENDBRANCH  95  96
ENDBRANCH  69  90
ENDBRANCH  43  44
ENDBRANCH  35  38
ENDBRANCH  33  34
ENDBRANCH  32  33
ENDBRANCH  31  32
ENDBRANCH  29  31
ENDBRANCH   1  27
TORSDOF 22
ENDMDL
MODEL 3
REMARK VINA RESULT:     -10.6      6.222     11.441
REMARK SMILES CCCCCCNC(=O)Oc1cccc(-c2ccc([C@@H](C)C(=O)NCCCNC(=O)c3ccc(-c4c5nc(c(-c6ccc(S(=O)(=O)[O-])cc6)c6ccc([nH]6)c(-c6ccc(S(=O)(=O)[O-])cc6)c6nc(c(-c7ccc(S(=O)(=O)[O-])cc7)c7ccc4[nH]7)C=C6)C=C5)cc3)cc2Cl)c1
REMARK SMILES IDX 20 1 21 2 19 3 16 4 17 5 92 6 18 7 91 8 93 9 15 10 11 11
REMARK SMILES IDX 12 12 94 13 13 14 14 15 10 16 8 17 7 18 9 20 6 21 5 22 4 23
REMARK SMILES IDX 3 24 2 25 1 26 22 27 23 28 24 29 25 31 26 32 27 33 28 34
REMARK SMILES IDX 29 35 30 37 31 38 32 39 90 40 33 41 89 42 34 43 35 44 36 45
REMARK SMILES IDX 83 46 37 47 88 48 82 49 84 50 38 51 87 52 81 53 80 54 39 56
REMARK SMILES IDX 69 57 50 58 68 59 51 60 54 61 67 62 85 63 52 64 53 65 66 67
REMARK SMILES IDX 86 68 55 69 40 70 41 71 49 72 42 73 48 74 43 75 44 76 45 77
REMARK SMILES IDX 46 78 47 79 70 80 71 81 79 82 72 83 78 84 73 85 74 86 75 87
REMARK SMILES IDX 76 88 77 89 56 90 57 91 65 92 58 93 64 94 59 95 60 96 61 97
REMARK SMILES IDX 62 98 63 99
REMARK H PARENT 7 19 24 30 28 36 84 55 54 66
REMARK Flexibility Score: inf
ROOT
ATOM      1  C   UNL A   1      40.168  23.506  27.071  1.00  0.00     0.105 C 
ATOM      2  C   UNL A   1      39.985  24.459  28.250  1.00  0.00     0.023 C 
ENDROOT
BRANCH   1   3
ATOM      3  C   UNL A   1      38.886  23.073  26.379  1.00  0.00    -0.034 A 
ATOM      4  C   UNL A   1      36.429  22.120  25.240  1.00  0.00     0.000 A 
ATOM      5  C   UNL A   1      36.585  23.445  25.687  1.00  0.00     0.010 A 
ATOM      6  C   UNL A   1      37.572  21.298  25.311  1.00  0.00     0.049 A 
ATOM      7  C   UNL A   1      37.797  23.923  26.198  1.00  0.00     0.005 A 
ATOM      8  C   UNL A   1      38.762  21.758  25.905  1.00  0.00     0.025 A 
ATOM      9  Cl  UNL A   1      37.638  19.705  24.626  1.00  0.00    -0.084 Cl
BRANCH   4  10
ATOM     10  C   UNL A   1      35.096  21.685  24.755  1.00  0.00    -0.013 A 
ATOM     11  C   UNL A   1      33.043  22.089  23.508  1.00  0.00     0.133 A 
ATOM     12  C   UNL A   1      32.577  20.809  23.786  1.00  0.00     0.047 A 
ATOM     13  C   UNL A   1      34.289  22.522  23.967  1.00  0.00     0.056 A 
ATOM     14  C   UNL A   1      33.372  19.949  24.535  1.00  0.00     0.004 A 
ATOM     15  C   UNL A   1      34.607  20.389  25.026  1.00  0.00     0.009 A 
BRANCH  11  16
ATOM     16  O   UNL A   1      32.140  22.969  22.887  1.00  0.00    -0.410 OA
BRANCH  16  17
ATOM     17  C   UNL A   1      31.347  23.806  23.655  1.00  0.00     0.412 C 
ATOM     18  N   UNL A   1      31.515  25.127  23.344  1.00  0.00    -0.321 N 
ATOM     19  H   UNL A   1      31.031  25.780  23.900  1.00  0.00     0.167 HD
ATOM     20  O   UNL A   1      30.559  23.458  24.525  1.00  0.00    -0.224 OA
BRANCH  18  21
ATOM     21  C   UNL A   1      32.335  25.665  22.277  1.00  0.00     0.119 C 
BRANCH  21  22
ATOM     22  C   UNL A   1      33.655  26.228  22.807  1.00  0.00     0.021 C 
BRANCH  22  23
ATOM     23  C   UNL A   1      33.676  26.502  24.317  1.00  0.00     0.002 C 
BRANCH  23  24
ATOM     24  C   UNL A   1      33.594  27.979  24.717  1.00  0.00    -0.000 C 
BRANCH  24  25
ATOM     25  C   UNL A   1      33.536  28.247  26.224  1.00  0.00    -0.003 C 
ATOM     26  C   UNL A   1      32.251  27.758  26.871  1.00  0.00     0.004 C 
ENDBRANCH  24  25
ENDBRANCH  23  24
ENDBRANCH  22  23
ENDBRANCH  21  22
ENDBRANCH  18  21
ENDBRANCH  16  17
ENDBRANCH  11  16
ENDBRANCH   4  10
ENDBRANCH   1   3
BRANCH   1  27
ATOM     27  C   UNL A   1      41.159  22.359  27.322  1.00  0.00     0.227 C 
ATOM     28  O   UNL A   1      40.958  21.570  28.255  1.00  0.00    -0.274 OA
ATOM     29  N   UNL A   1      42.265  22.120  26.567  1.00  0.00    -0.356 N 
ATOM     30  H   UNL A   1      42.762  21.313  26.832  1.00  0.00     0.163 HD
BRANCH  29  31
ATOM     31  C   UNL A   1      42.852  22.828  25.446  1.00  0.00     0.117 C 
BRANCH  31  32
ATOM     32  C   UNL A   1      44.014  23.724  25.868  1.00  0.00     0.042 C 
BRANCH  32  33
ATOM     33  C   UNL A   1      43.580  25.085  26.397  1.00  0.00     0.118 C 
BRANCH  33  34
ATOM     34  N   UNL A   1      43.397  26.057  25.327  1.00  0.00    -0.352 N 
ATOM     35  C   UNL A   1      42.762  27.276  25.327  1.00  0.00     0.251 C 
ATOM     36  H   UNL A   1      43.792  25.798  24.463  1.00  0.00     0.163 HD
ATOM     37  O   UNL A   1      42.526  27.824  24.252  1.00  0.00    -0.269 OA
BRANCH  35  38
ATOM     38  C   UNL A   1      42.352  27.925  26.593  1.00  0.00     0.039 A 
ATOM     39  C   UNL A   1      41.307  27.361  27.335  1.00  0.00     0.014 A 
ATOM     40  C   UNL A   1      42.955  29.104  27.034  1.00  0.00     0.014 A 
ATOM     41  C   UNL A   1      40.917  27.942  28.545  1.00  0.00     0.010 A 
ATOM     42  C   UNL A   1      42.623  29.635  28.278  1.00  0.00     0.010 A 
ATOM     43  C   UNL A   1      41.598  29.063  29.046  1.00  0.00    -0.014 A 
BRANCH  43  44
ATOM     44  C   UNL A   1      41.259  29.654  30.366  1.00  0.00     0.031 A 
ATOM     45  C   UNL A   1      40.076  30.576  30.503  1.00  0.00     0.074 A 
ATOM     46  C   UNL A   1      42.058  29.421  31.427  1.00  0.00     0.049 A 
ATOM     47  N   UNL A   1      39.675  31.256  31.546  1.00  0.00    -0.248 NA
ATOM     48  C   UNL A   1      39.249  30.780  29.301  1.00  0.00     0.031 C 
ATOM     49  C   UNL A   1      43.254  28.575  31.415  1.00  0.00     0.029 A 
ATOM     50  N   UNL A   1      41.993  29.885  32.716  1.00  0.00    -0.354 N 
ATOM     51  C   UNL A   1      38.565  31.981  31.125  1.00  0.00     0.074 A 
ATOM     52  C   UNL A   1      38.385  31.694  29.718  1.00  0.00     0.031 C 
ATOM     53  C   UNL A   1      43.796  28.562  32.644  1.00  0.00     0.029 A 
ATOM     54  C   UNL A   1      43.017  29.435  33.517  1.00  0.00     0.049 A 
ATOM     55  H   UNL A   1      41.281  30.484  33.039  1.00  0.00     0.167 HD
ATOM     56  C   UNL A   1      37.760  32.796  31.846  1.00  0.00     0.031 A 
ATOM     57  C   UNL A   1      43.309  29.704  34.805  1.00  0.00     0.031 A 
ATOM     58  C   UNL A   1      37.941  33.075  33.247  1.00  0.00     0.049 A 
ATOM     59  C   UNL A   1      42.414  30.633  35.579  1.00  0.00     0.074 A 
ATOM     60  C   UNL A   1      37.150  33.847  34.079  1.00  0.00     0.029 A 
ATOM     61  N   UNL A   1      38.987  32.594  34.021  1.00  0.00    -0.354 N 
ATOM     62  N   UNL A   1      41.333  31.260  35.178  1.00  0.00    -0.248 NA
ATOM     63  C   UNL A   1      42.773  30.885  36.981  1.00  0.00     0.031 C 
ATOM     64  C   UNL A   1      37.747  33.876  35.343  1.00  0.00     0.029 A 
ATOM     65  C   UNL A   1      38.876  33.073  35.315  1.00  0.00     0.049 A 
ATOM     66  H   UNL A   1      39.702  32.000  33.697  1.00  0.00     0.167 HD
ATOM     67  C   UNL A   1      40.869  31.960  36.286  1.00  0.00     0.074 A 
ATOM     68  C   UNL A   1      41.777  31.667  37.376  1.00  0.00     0.031 C 
ATOM     69  C   UNL A   1      39.787  32.771  36.390  1.00  0.00     0.031 A 
BRANCH  56  70
ATOM     70  C   UNL A   1      36.611  33.455  31.125  1.00  0.00    -0.014 A 
ATOM     71  C   UNL A   1      35.416  33.767  31.797  1.00  0.00     0.010 A 
ATOM     72  C   UNL A   1      36.740  33.799  29.767  1.00  0.00     0.010 A 
ATOM     73  C   UNL A   1      34.353  34.366  31.114  1.00  0.00     0.020 A 
ATOM     74  C   UNL A   1      35.692  34.425  29.087  1.00  0.00     0.020 A 
ATOM     75  C   UNL A   1      34.497  34.687  29.762  1.00  0.00     0.054 A 
BRANCH  75  76
ATOM     76  S   UNL A   1      33.107  35.477  28.905  1.00  0.00     0.124 S 
ATOM     77  O   UNL A   1      33.777  36.549  28.171  1.00  0.00    -0.237 OA
ATOM     78  O   UNL A   1      32.577  34.392  28.083  1.00  0.00    -0.237 OA
ATOM     79  O   UNL A   1      32.233  35.918  29.990  1.00  0.00    -0.744 OA
ENDBRANCH  75  76
ENDBRANCH  56  70
BRANCH  57  80
ATOM     80  C   UNL A   1      44.498  29.076  35.442  1.00  0.00    -0.014 A 
ATOM     81  C   UNL A   1      44.420  27.773  35.966  1.00  0.00     0.010 A 
ATOM     82  C   UNL A   1      45.720  29.769  35.512  1.00  0.00     0.010 A 
ATOM     83  C   UNL A   1      45.539  27.180  36.558  1.00  0.00     0.020 A 
ATOM     84  C   UNL A   1      46.848  29.168  36.078  1.00  0.00     0.020 A 
ATOM     85  C   UNL A   1      46.748  27.880  36.607  1.00  0.00     0.054 A 
BRANCH  85  86
ATOM     86  S   UNL A   1      48.202  27.069  37.326  1.00  0.00     0.124 S 
ATOM     87  O   UNL A   1      48.101  27.451  38.731  1.00  0.00    -0.237 OA
ATOM     88  O   UNL A   1      47.954  25.659  37.033  1.00  0.00    -0.237 OA
ATOM     89  O   UNL A   1      49.320  27.661  36.594  1.00  0.00    -0.744 OA
ENDBRANCH  85  86
ENDBRANCH  57  80
BRANCH  69  90
ATOM     90  C   UNL A   1      39.502  33.377  37.738  1.00  0.00    -0.014 A 
ATOM     91  C   UNL A   1      38.617  32.764  38.641  1.00  0.00     0.010 A 
ATOM     92  C   UNL A   1      40.182  34.547  38.129  1.00  0.00     0.010 A 
ATOM     93  C   UNL A   1      38.399  33.321  39.905  1.00  0.00     0.020 A 
ATOM     94  C   UNL A   1      39.988  35.090  39.401  1.00  0.00     0.020 A 
ATOM     95  C   UNL A   1      39.088  34.481  40.278  1.00  0.00     0.054 A 
BRANCH  95  96
ATOM     96  S   UNL A   1      38.830  35.152  41.942  1.00  0.00     0.124 S 
ATOM     97  O   UNL A   1      39.581  36.403  41.885  1.00  0.00    -0.237 OA
ATOM     98  O   UNL A   1      37.377  35.292  42.009  1.00  0.00    -0.237 OA
ATOM     99  O   UNL A   1      39.392  34.128  42.820  1.00  0.00    -0.744 OA
ENDBRANCH  95  96
ENDBRANCH  69  90
ENDBRANCH  43  44
ENDBRANCH  35  38
ENDBRANCH  33  34
ENDBRANCH  32  33
ENDBRANCH  31  32
ENDBRANCH  29  31
ENDBRANCH   1  27
TORSDOF 22
ENDMDL
