MODEL 1
REMARK VINA RESULT:     -12.5      0.000      0.000
REMARK SMILES Cc1nnc(SCC(=O)Nc2cccc(C(=O)NCCCNC(=O)c3ccc(-c4c5nc(c(-c6ccc(S(=O)(=O)[O-])cc6)c6ccc([nH]6)c(-c6ccc(S(=O)(=O)[O-])cc6)c6nc(c(-c7ccc(S(=O)(=O)[O-])cc7)c7ccc4[nH]7)C=C6)C=C5)cc3)c2)n1-c1ccccc1
REMARK SMILES IDX 19 1 18 2 16 3 17 4 15 6 11 7 12 8 85 9 13 10 14 11 10 12
REMARK SMILES IDX 8 13 9 14 7 16 6 17 5 18 1 19 2 20 3 21 86 22 4 23 87 24
REMARK SMILES IDX 88 25 92 26 89 27 91 28 90 29 20 30 21 31 22 32 23 33 24 35
REMARK SMILES IDX 25 36 26 37 84 38 27 39 83 40 28 41 29 42 30 43 77 44 31 45
REMARK SMILES IDX 82 46 76 47 78 48 32 49 81 50 75 51 74 52 33 54 63 55 44 56
REMARK SMILES IDX 62 57 45 58 48 59 61 60 79 61 46 62 47 63 60 65 80 66 49 67
REMARK SMILES IDX 34 68 35 69 43 70 36 71 42 72 37 73 38 74 39 75 40 76 41 77
REMARK SMILES IDX 64 78 65 79 73 80 66 81 72 82 67 83 68 84 69 85 70 86 71 87
REMARK SMILES IDX 50 88 51 89 59 90 52 91 58 92 53 93 54 94 55 95 56 96 57 97
REMARK H PARENT 18 5 10 15 22 34 78 53 48 64
REMARK Flexibility Score: inf
ROOT
ATOM      1  C   UNL A   1      38.142  22.028  25.707  1.00  0.00     0.118 C 
ENDROOT
BRANCH   1   2
ATOM      2  N   UNL A   1      37.636  22.289  24.375  1.00  0.00    -0.352 N 
ATOM      3  C   UNL A   1      36.498  22.853  23.875  1.00  0.00     0.251 C 
ATOM      4  O   UNL A   1      36.427  22.927  22.646  1.00  0.00    -0.269 OA
ATOM      5  H   UNL A   1      38.255  21.992  23.669  1.00  0.00     0.163 HD
BRANCH   3   6
ATOM      6  C   UNL A   1      35.358  23.386  24.683  1.00  0.00     0.041 A 
ATOM      7  C   UNL A   1      33.191  23.325  25.770  1.00  0.00     0.041 A 
ATOM      8  C   UNL A   1      33.298  24.680  26.090  1.00  0.00     0.026 A 
ATOM      9  C   UNL A   1      34.202  22.688  25.049  1.00  0.00     0.040 A 
ATOM     10  C   UNL A   1      34.448  25.382  25.765  1.00  0.00     0.003 A 
ATOM     11  C   UNL A   1      35.468  24.737  25.071  1.00  0.00     0.014 A 
BRANCH   7  12
ATOM     12  N   UNL A   1      32.009  22.696  26.156  1.00  0.00    -0.325 N 
ATOM     13  C   UNL A   1      30.699  22.994  25.964  1.00  0.00     0.234 C 
ATOM     14  O   UNL A   1      29.932  22.099  26.334  1.00  0.00    -0.274 OA
ATOM     15  H   UNL A   1      32.154  21.869  26.670  1.00  0.00     0.169 HD
BRANCH  13  16
ATOM     16  C   UNL A   1      30.204  24.137  25.112  1.00  0.00     0.178 C 
BRANCH  16  17
ATOM     17  S   UNL A   1      30.539  24.260  23.360  1.00  0.00    -0.076 SA
BRANCH  17  18
ATOM     18  C   UNL A   1      31.990  25.116  22.979  1.00  0.00     0.196 A 
ATOM     19  C   UNL A   1      34.042  27.971  22.040  1.00  0.00     0.090 C 
ATOM     20  C   UNL A   1      33.365  26.679  22.272  1.00  0.00     0.135 A 
ATOM     21  N   UNL A   1      33.813  25.519  21.846  1.00  0.00    -0.134 NA
ATOM     22  N   UNL A   1      32.188  26.478  22.967  1.00  0.00    -0.274 N 
ATOM     23  N   UNL A   1      32.936  24.564  22.260  1.00  0.00    -0.123 NA
BRANCH  22  24
ATOM     24  C   UNL A   1      31.297  27.438  23.443  1.00  0.00     0.049 A 
ATOM     25  C   UNL A   1      30.249  27.810  22.610  1.00  0.00     0.027 A 
ATOM     26  C   UNL A   1      31.678  28.210  24.539  1.00  0.00     0.027 A 
ATOM     27  C   UNL A   1      29.652  29.050  22.799  1.00  0.00     0.002 A 
ATOM     28  C   UNL A   1      31.038  29.426  24.750  1.00  0.00     0.002 A 
ATOM     29  C   UNL A   1      30.056  29.864  23.857  1.00  0.00     0.000 A 
ENDBRANCH  22  24
ENDBRANCH  17  18
ENDBRANCH  16  17
ENDBRANCH  13  16
ENDBRANCH   7  12
ENDBRANCH   3   6
ENDBRANCH   1   2
BRANCH   1  30
ATOM     30  C   UNL A   1      38.496  23.323  26.433  1.00  0.00     0.042 C 
BRANCH  30  31
ATOM     31  C   UNL A   1      39.763  23.219  27.278  1.00  0.00     0.118 C 
BRANCH  31  32
ATOM     32  N   UNL A   1      40.931  22.596  26.623  1.00  0.00    -0.352 N 
ATOM     33  C   UNL A   1      41.995  23.209  25.965  1.00  0.00     0.251 C 
ATOM     34  H   UNL A   1      40.961  21.612  26.654  1.00  0.00     0.163 HD
ATOM     35  O   UNL A   1      42.706  22.608  25.179  1.00  0.00    -0.269 OA
BRANCH  33  36
ATOM     36  C   UNL A   1      42.230  24.637  26.251  1.00  0.00     0.039 A 
ATOM     37  C   UNL A   1      41.580  25.668  25.562  1.00  0.00     0.014 A 
ATOM     38  C   UNL A   1      42.960  24.891  27.396  1.00  0.00     0.014 A 
ATOM     39  C   UNL A   1      41.561  26.940  26.136  1.00  0.00     0.010 A 
ATOM     40  C   UNL A   1      42.670  26.031  28.083  1.00  0.00     0.010 A 
ATOM     41  C   UNL A   1      42.070  27.100  27.432  1.00  0.00    -0.014 A 
BRANCH  41  42
ATOM     42  C   UNL A   1      41.921  28.325  28.211  1.00  0.00     0.031 A 
ATOM     43  C   UNL A   1      42.979  29.348  27.994  1.00  0.00     0.074 A 
ATOM     44  C   UNL A   1      40.766  28.619  28.854  1.00  0.00     0.049 A 
ATOM     45  N   UNL A   1      43.918  29.691  28.811  1.00  0.00    -0.248 NA
ATOM     46  C   UNL A   1      43.103  29.961  26.661  1.00  0.00     0.031 C 
ATOM     47  C   UNL A   1      39.503  27.859  28.865  1.00  0.00     0.029 A 
ATOM     48  N   UNL A   1      40.422  29.748  29.523  1.00  0.00    -0.354 N 
ATOM     49  C   UNL A   1      44.593  30.742  28.198  1.00  0.00     0.074 A 
ATOM     50  C   UNL A   1      44.200  30.708  26.812  1.00  0.00     0.031 C 
ATOM     51  C   UNL A   1      38.489  28.658  29.261  1.00  0.00     0.029 A 
ATOM     52  C   UNL A   1      39.056  29.903  29.737  1.00  0.00     0.049 A 
ATOM     53  H   UNL A   1      41.086  30.405  29.834  1.00  0.00     0.167 HD
ATOM     54  C   UNL A   1      45.199  31.721  28.931  1.00  0.00     0.031 A 
ATOM     55  C   UNL A   1      38.428  30.985  30.261  1.00  0.00     0.031 A 
ATOM     56  C   UNL A   1      45.256  31.366  30.329  1.00  0.00     0.049 A 
ATOM     57  C   UNL A   1      39.459  31.747  31.006  1.00  0.00     0.074 A 
ATOM     58  C   UNL A   1      45.801  30.322  31.048  1.00  0.00     0.029 A 
ATOM     59  N   UNL A   1      44.304  31.935  31.146  1.00  0.00    -0.354 N 
ATOM     60  N   UNL A   1      40.070  31.280  32.060  1.00  0.00    -0.248 NA
ATOM     61  C   UNL A   1      40.154  32.815  30.305  1.00  0.00     0.031 C 
ATOM     62  C   UNL A   1      44.825  30.017  32.043  1.00  0.00     0.029 A 
ATOM     63  C   UNL A   1      43.785  30.944  31.939  1.00  0.00     0.049 A 
ATOM     64  H   UNL A   1      44.043  32.885  31.159  1.00  0.00     0.167 HD
ATOM     65  C   UNL A   1      41.396  31.663  31.900  1.00  0.00     0.074 A 
ATOM     66  C   UNL A   1      41.365  32.690  30.859  1.00  0.00     0.031 C 
ATOM     67  C   UNL A   1      42.417  30.914  32.416  1.00  0.00     0.031 A 
BRANCH  54  68
ATOM     68  C   UNL A   1      45.352  33.157  28.482  1.00  0.00    -0.014 A 
ATOM     69  C   UNL A   1      46.629  33.752  28.554  1.00  0.00     0.010 A 
ATOM     70  C   UNL A   1      44.261  34.019  28.254  1.00  0.00     0.010 A 
ATOM     71  C   UNL A   1      46.793  35.142  28.487  1.00  0.00     0.020 A 
ATOM     72  C   UNL A   1      44.417  35.403  28.141  1.00  0.00     0.020 A 
ATOM     73  C   UNL A   1      45.679  35.959  28.296  1.00  0.00     0.054 A 
BRANCH  73  74
ATOM     74  S   UNL A   1      45.884  37.756  28.316  1.00  0.00     0.124 S 
ATOM     75  O   UNL A   1      47.200  37.901  28.931  1.00  0.00    -0.237 OA
ATOM     76  O   UNL A   1      45.807  38.092  26.897  1.00  0.00    -0.237 OA
ATOM     77  O   UNL A   1      44.759  38.220  29.123  1.00  0.00    -0.744 OA
ENDBRANCH  73  74
ENDBRANCH  54  68
BRANCH  55  78
ATOM     78  C   UNL A   1      37.095  31.540  29.912  1.00  0.00    -0.014 A 
ATOM     79  C   UNL A   1      36.203  31.968  30.913  1.00  0.00     0.010 A 
ATOM     80  C   UNL A   1      36.815  31.917  28.582  1.00  0.00     0.010 A 
ATOM     81  C   UNL A   1      35.112  32.799  30.603  1.00  0.00     0.020 A 
ATOM     82  C   UNL A   1      35.726  32.741  28.265  1.00  0.00     0.020 A 
ATOM     83  C   UNL A   1      34.893  33.200  29.283  1.00  0.00     0.054 A 
BRANCH  83  84
ATOM     84  S   UNL A   1      33.598  34.426  28.922  1.00  0.00     0.124 S 
ATOM     85  O   UNL A   1      33.027  34.676  30.242  1.00  0.00    -0.237 OA
ATOM     86  O   UNL A   1      34.356  35.530  28.342  1.00  0.00    -0.237 OA
ATOM     87  O   UNL A   1      32.715  33.729  27.987  1.00  0.00    -0.744 OA
ENDBRANCH  83  84
ENDBRANCH  55  78
BRANCH  67  88
ATOM     88  C   UNL A   1      42.084  29.819  33.407  1.00  0.00    -0.014 A 
ATOM     89  C   UNL A   1      41.778  28.490  33.050  1.00  0.00     0.010 A 
ATOM     90  C   UNL A   1      42.248  30.121  34.770  1.00  0.00     0.010 A 
ATOM     91  C   UNL A   1      41.620  27.500  34.036  1.00  0.00     0.020 A 
ATOM     92  C   UNL A   1      42.111  29.139  35.753  1.00  0.00     0.020 A 
ATOM     93  C   UNL A   1      41.787  27.834  35.383  1.00  0.00     0.054 A 
BRANCH  93  94
ATOM     94  S   UNL A   1      41.620  26.550  36.656  1.00  0.00     0.124 S 
ATOM     95  O   UNL A   1      41.446  25.336  35.863  1.00  0.00    -0.237 OA
ATOM     96  O   UNL A   1      42.882  26.647  37.386  1.00  0.00    -0.237 OA
ATOM     97  O   UNL A   1      40.442  26.964  37.417  1.00  0.00    -0.744 OA
ENDBRANCH  93  94
ENDBRANCH  67  88
ENDBRANCH  41  42
ENDBRANCH  33  36
ENDBRANCH  31  32
ENDBRANCH  30  31
ENDBRANCH   1  30
TORSDOF 18
ENDMDL
MODEL 2
REMARK VINA RESULT:     -12.4      3.338      7.805
REMARK SMILES Cc1nnc(SCC(=O)Nc2cccc(C(=O)NCCCNC(=O)c3ccc(-c4c5nc(c(-c6ccc(S(=O)(=O)[O-])cc6)c6ccc([nH]6)c(-c6ccc(S(=O)(=O)[O-])cc6)c6nc(c(-c7ccc(S(=O)(=O)[O-])cc7)c7ccc4[nH]7)C=C6)C=C5)cc3)c2)n1-c1ccccc1
REMARK SMILES IDX 19 1 18 2 16 3 17 4 15 6 11 7 12 8 85 9 13 10 14 11 10 12
REMARK SMILES IDX 8 13 9 14 7 16 6 17 5 18 1 19 2 20 3 21 86 22 4 23 87 24
REMARK SMILES IDX 88 25 92 26 89 27 91 28 90 29 20 30 21 31 22 32 23 33 24 35
REMARK SMILES IDX 25 36 26 37 84 38 27 39 83 40 28 41 29 42 30 43 77 44 31 45
REMARK SMILES IDX 82 46 76 47 78 48 32 49 81 50 75 51 74 52 33 54 63 55 44 56
REMARK SMILES IDX 62 57 45 58 48 59 61 60 79 61 46 62 47 63 60 65 80 66 49 67
REMARK SMILES IDX 34 68 35 69 43 70 36 71 42 72 37 73 38 74 39 75 40 76 41 77
REMARK SMILES IDX 64 78 65 79 73 80 66 81 72 82 67 83 68 84 69 85 70 86 71 87
REMARK SMILES IDX 50 88 51 89 59 90 52 91 58 92 53 93 54 94 55 95 56 96 57 97
REMARK H PARENT 18 5 10 15 22 34 78 53 48 64
REMARK Flexibility Score: inf
ROOT
ATOM      1  C   UNL A   1      36.136  21.844  25.601  1.00  0.00     0.118 C 
ENDROOT
BRANCH   1   2
ATOM      2  N   UNL A   1      35.115  20.826  25.736  1.00  0.00    -0.352 N 
ATOM      3  C   UNL A   1      33.816  20.710  25.331  1.00  0.00     0.251 C 
ATOM      4  O   UNL A   1      33.254  19.651  25.620  1.00  0.00    -0.269 OA
ATOM      5  H   UNL A   1      35.430  20.037  26.233  1.00  0.00     0.163 HD
BRANCH   3   6
ATOM      6  C   UNL A   1      33.041  21.740  24.574  1.00  0.00     0.041 A 
ATOM      7  C   UNL A   1      32.568  23.256  22.741  1.00  0.00     0.041 A 
ATOM      8  C   UNL A   1      31.481  23.784  23.440  1.00  0.00     0.026 A 
ATOM      9  C   UNL A   1      33.359  22.259  23.315  1.00  0.00     0.040 A 
ATOM     10  C   UNL A   1      31.128  23.262  24.675  1.00  0.00     0.003 A 
ATOM     11  C   UNL A   1      31.902  22.247  25.232  1.00  0.00     0.014 A 
BRANCH   7  12
ATOM     12  N   UNL A   1      32.834  23.828  21.499  1.00  0.00    -0.325 N 
ATOM     13  C   UNL A   1      32.670  25.081  21.004  1.00  0.00     0.234 C 
ATOM     14  O   UNL A   1      33.172  25.238  19.886  1.00  0.00    -0.274 OA
ATOM     15  H   UNL A   1      33.218  23.195  20.850  1.00  0.00     0.169 HD
BRANCH  13  16
ATOM     16  C   UNL A   1      32.213  26.263  21.823  1.00  0.00     0.178 C 
BRANCH  16  17
ATOM     17  S   UNL A   1      33.344  27.333  22.702  1.00  0.00    -0.076 SA
BRANCH  17  18
ATOM     18  C   UNL A   1      33.162  27.292  24.419  1.00  0.00     0.196 A 
ATOM     19  C   UNL A   1      31.729  28.148  27.653  1.00  0.00     0.090 C 
ATOM     20  C   UNL A   1      32.533  27.804  26.463  1.00  0.00     0.135 A 
ATOM     21  N   UNL A   1      33.819  27.533  26.487  1.00  0.00    -0.134 NA
ATOM     22  N   UNL A   1      32.077  27.700  25.163  1.00  0.00    -0.274 N 
ATOM     23  N   UNL A   1      34.203  27.251  25.213  1.00  0.00    -0.123 NA
BRANCH  22  24
ATOM     24  C   UNL A   1      30.829  28.059  24.658  1.00  0.00     0.049 A 
ATOM     25  C   UNL A   1      29.912  27.040  24.429  1.00  0.00     0.027 A 
ATOM     26  C   UNL A   1      30.681  29.324  24.094  1.00  0.00     0.027 A 
ATOM     27  C   UNL A   1      28.893  27.251  23.509  1.00  0.00     0.002 A 
ATOM     28  C   UNL A   1      29.627  29.541  23.213  1.00  0.00     0.002 A 
ATOM     29  C   UNL A   1      28.760  28.494  22.890  1.00  0.00     0.000 A 
ENDBRANCH  22  24
ENDBRANCH  17  18
ENDBRANCH  16  17
ENDBRANCH  13  16
ENDBRANCH   7  12
ENDBRANCH   3   6
ENDBRANCH   1   2
BRANCH   1  30
ATOM     30  C   UNL A   1      37.347  21.323  24.833  1.00  0.00     0.042 C 
BRANCH  30  31
ATOM     31  C   UNL A   1      38.635  21.326  25.651  1.00  0.00     0.118 C 
BRANCH  31  32
ATOM     32  N   UNL A   1      39.338  20.031  25.759  1.00  0.00    -0.352 N 
ATOM     33  C   UNL A   1      40.693  19.786  25.971  1.00  0.00     0.251 C 
ATOM     34  H   UNL A   1      38.770  19.231  25.668  1.00  0.00     0.163 HD
ATOM     35  O   UNL A   1      41.209  18.715  25.703  1.00  0.00    -0.269 OA
BRANCH  33  36
ATOM     36  C   UNL A   1      41.496  20.889  26.532  1.00  0.00     0.039 A 
ATOM     37  C   UNL A   1      42.161  21.827  25.734  1.00  0.00     0.014 A 
ATOM     38  C   UNL A   1      41.364  21.072  27.895  1.00  0.00     0.014 A 
ATOM     39  C   UNL A   1      42.562  23.029  26.320  1.00  0.00     0.010 A 
ATOM     40  C   UNL A   1      41.473  22.345  28.367  1.00  0.00     0.010 A 
ATOM     41  C   UNL A   1      42.165  23.301  27.636  1.00  0.00    -0.014 A 
BRANCH  41  42
ATOM     42  C   UNL A   1      42.346  24.596  28.282  1.00  0.00     0.031 A 
ATOM     43  C   UNL A   1      41.257  25.581  28.046  1.00  0.00     0.074 A 
ATOM     44  C   UNL A   1      43.279  24.782  29.247  1.00  0.00     0.049 A 
ATOM     45  N   UNL A   1      41.307  26.646  27.318  1.00  0.00    -0.248 NA
ATOM     46  C   UNL A   1      39.910  25.279  28.558  1.00  0.00     0.031 C 
ATOM     47  C   UNL A   1      44.199  23.793  29.837  1.00  0.00     0.029 A 
ATOM     48  N   UNL A   1      43.507  25.874  30.019  1.00  0.00    -0.354 N 
ATOM     49  C   UNL A   1      40.080  27.282  27.485  1.00  0.00     0.074 A 
ATOM     50  C   UNL A   1      39.201  26.296  28.062  1.00  0.00     0.031 C 
ATOM     51  C   UNL A   1      44.667  24.248  31.019  1.00  0.00     0.029 A 
ATOM     52  C   UNL A   1      44.262  25.630  31.162  1.00  0.00     0.049 A 
ATOM     53  H   UNL A   1      43.166  26.769  29.789  1.00  0.00     0.167 HD
ATOM     54  C   UNL A   1      39.965  28.638  27.396  1.00  0.00     0.031 A 
ATOM     55  C   UNL A   1      44.531  26.502  32.166  1.00  0.00     0.031 A 
ATOM     56  C   UNL A   1      41.172  29.231  26.871  1.00  0.00     0.049 A 
ATOM     57  C   UNL A   1      44.310  27.860  31.612  1.00  0.00     0.074 A 
ATOM     58  C   UNL A   1      41.896  29.095  25.703  1.00  0.00     0.029 A 
ATOM     59  N   UNL A   1      42.032  29.791  27.789  1.00  0.00    -0.354 N 
ATOM     60  N   UNL A   1      45.030  28.363  30.647  1.00  0.00    -0.248 NA
ATOM     61  C   UNL A   1      42.999  28.462  31.789  1.00  0.00     0.031 C 
ATOM     62  C   UNL A   1      43.261  29.120  26.118  1.00  0.00     0.029 A 
ATOM     63  C   UNL A   1      43.299  29.361  27.494  1.00  0.00     0.049 A 
ATOM     64  H   UNL A   1      41.781  30.393  28.527  1.00  0.00     0.167 HD
ATOM     65  C   UNL A   1      44.117  29.013  29.826  1.00  0.00     0.074 A 
ATOM     66  C   UNL A   1      42.903  29.128  30.634  1.00  0.00     0.031 C 
ATOM     67  C   UNL A   1      44.337  29.138  28.482  1.00  0.00     0.031 A 
BRANCH  54  68
ATOM     68  C   UNL A   1      38.959  29.465  28.165  1.00  0.00    -0.014 A 
ATOM     69  C   UNL A   1      37.657  29.601  27.640  1.00  0.00     0.010 A 
ATOM     70  C   UNL A   1      39.310  30.327  29.224  1.00  0.00     0.010 A 
ATOM     71  C   UNL A   1      36.786  30.601  28.093  1.00  0.00     0.020 A 
ATOM     72  C   UNL A   1      38.434  31.299  29.713  1.00  0.00     0.020 A 
ATOM     73  C   UNL A   1      37.191  31.454  29.119  1.00  0.00     0.054 A 
BRANCH  73  74
ATOM     74  S   UNL A   1      36.103  32.808  29.625  1.00  0.00     0.124 S 
ATOM     75  O   UNL A   1      35.022  32.090  30.293  1.00  0.00    -0.237 OA
ATOM     76  O   UNL A   1      36.973  33.595  30.494  1.00  0.00    -0.237 OA
ATOM     77  O   UNL A   1      35.746  33.450  28.363  1.00  0.00    -0.744 OA
ENDBRANCH  73  74
ENDBRANCH  54  68
BRANCH  55  78
ATOM     78  C   UNL A   1      44.669  26.226  33.618  1.00  0.00    -0.014 A 
ATOM     79  C   UNL A   1      45.711  26.799  34.370  1.00  0.00     0.010 A 
ATOM     80  C   UNL A   1      43.606  25.627  34.326  1.00  0.00     0.010 A 
ATOM     81  C   UNL A   1      45.657  26.834  35.775  1.00  0.00     0.020 A 
ATOM     82  C   UNL A   1      43.548  25.654  35.727  1.00  0.00     0.020 A 
ATOM     83  C   UNL A   1      44.564  26.281  36.445  1.00  0.00     0.054 A 
BRANCH  83  84
ATOM     84  S   UNL A   1      44.410  26.500  38.244  1.00  0.00     0.124 S 
ATOM     85  O   UNL A   1      45.297  25.462  38.762  1.00  0.00    -0.237 OA
ATOM     86  O   UNL A   1      44.866  27.873  38.439  1.00  0.00    -0.237 OA
ATOM     87  O   UNL A   1      42.987  26.283  38.499  1.00  0.00    -0.744 OA
ENDBRANCH  83  84
ENDBRANCH  55  78
BRANCH  67  88
ATOM     88  C   UNL A   1      45.713  28.817  27.939  1.00  0.00    -0.014 A 
ATOM     89  C   UNL A   1      46.150  27.520  27.599  1.00  0.00     0.010 A 
ATOM     90  C   UNL A   1      46.539  29.905  27.609  1.00  0.00     0.010 A 
ATOM     91  C   UNL A   1      47.390  27.322  26.968  1.00  0.00     0.020 A 
ATOM     92  C   UNL A   1      47.763  29.718  26.965  1.00  0.00     0.020 A 
ATOM     93  C   UNL A   1      48.190  28.426  26.657  1.00  0.00     0.054 A 
BRANCH  93  94
ATOM     94  S   UNL A   1      49.775  28.178  25.808  1.00  0.00     0.124 S 
ATOM     95  O   UNL A   1      50.444  29.462  25.998  1.00  0.00    -0.237 OA
ATOM     96  O   UNL A   1      50.361  27.051  26.531  1.00  0.00    -0.237 OA
ATOM     97  O   UNL A   1      49.390  27.882  24.428  1.00  0.00    -0.744 OA
ENDBRANCH  93  94
ENDBRANCH  67  88
ENDBRANCH  41  42
ENDBRANCH  33  36
ENDBRANCH  31  32
ENDBRANCH  30  31
ENDBRANCH   1  30
TORSDOF 18
ENDMDL
MODEL 3
REMARK VINA RESULT:     -12.4      1.417      2.372
REMARK SMILES Cc1nnc(SCC(=O)Nc2cccc(C(=O)NCCCNC(=O)c3ccc(-c4c5nc(c(-c6ccc(S(=O)(=O)[O-])cc6)c6ccc([nH]6)c(-c6ccc(S(=O)(=O)[O-])cc6)c6nc(c(-c7ccc(S(=O)(=O)[O-])cc7)c7ccc4[nH]7)C=C6)C=C5)cc3)c2)n1-c1ccccc1
REMARK SMILES IDX 19 1 18 2 16 3 17 4 15 6 11 7 12 8 85 9 13 10 14 11 10 12
REMARK SMILES IDX 8 13 9 14 7 16 6 17 5 18 1 19 2 20 3 21 86 22 4 23 87 24
REMARK SMILES IDX 88 25 92 26 89 27 91 28 90 29 20 30 21 31 22 32 23 33 24 35
REMARK SMILES IDX 25 36 26 37 84 38 27 39 83 40 28 41 29 42 30 43 77 44 31 45
REMARK SMILES IDX 82 46 76 47 78 48 32 49 81 50 75 51 74 52 33 54 63 55 44 56
REMARK SMILES IDX 62 57 45 58 48 59 61 60 79 61 46 62 47 63 60 65 80 66 49 67
REMARK SMILES IDX 34 68 35 69 43 70 36 71 42 72 37 73 38 74 39 75 40 76 41 77
REMARK SMILES IDX 64 78 65 79 73 80 66 81 72 82 67 83 68 84 69 85 70 86 71 87
REMARK SMILES IDX 50 88 51 89 59 90 52 91 58 92 53 93 54 94 55 95 56 96 57 97
REMARK H PARENT 18 5 10 15 22 34 78 53 48 64
REMARK Flexibility Score: inf
ROOT
ATOM      1  C   UNL A   1      36.782  23.416  26.092  1.00  0.00     0.118 C 
ENDROOT
BRANCH   1   2
ATOM      2  N   UNL A   1      36.661  22.004  25.790  1.00  0.00    -0.352 N 
ATOM      3  C   UNL A   1      35.761  21.244  25.099  1.00  0.00     0.251 C 
ATOM      4  O   UNL A   1      36.010  20.038  25.035  1.00  0.00    -0.269 OA
ATOM      5  H   UNL A   1      37.396  21.471  26.170  1.00  0.00     0.163 HD
BRANCH   3   6
ATOM      6  C   UNL A   1      34.527  21.751  24.422  1.00  0.00     0.041 A 
ATOM      7  C   UNL A   1      33.250  23.061  22.831  1.00  0.00     0.041 A 
ATOM      8  C   UNL A   1      32.057  22.655  23.432  1.00  0.00     0.026 A 
ATOM      9  C   UNL A   1      34.478  22.633  23.338  1.00  0.00     0.040 A 
ATOM     10  C   UNL A   1      32.082  21.755  24.487  1.00  0.00     0.003 A 
ATOM     11  C   UNL A   1      33.308  21.307  24.972  1.00  0.00     0.014 A 
BRANCH   7  12
ATOM     12  N   UNL A   1      33.127  23.949  21.764  1.00  0.00    -0.325 N 
ATOM     13  C   UNL A   1      32.998  25.299  21.696  1.00  0.00     0.234 C 
ATOM     14  O   UNL A   1      33.069  25.741  20.545  1.00  0.00    -0.274 OA
ATOM     15  H   UNL A   1      33.133  23.509  20.885  1.00  0.00     0.169 HD
BRANCH  13  16
ATOM     16  C   UNL A   1      33.078  26.221  22.888  1.00  0.00     0.178 C 
BRANCH  16  17
ATOM     17  S   UNL A   1      32.930  27.998  22.756  1.00  0.00    -0.076 SA
BRANCH  17  18
ATOM     18  C   UNL A   1      31.301  28.569  22.739  1.00  0.00     0.196 A 
ATOM     19  C   UNL A   1      27.723  28.498  23.402  1.00  0.00     0.090 C 
ATOM     20  C   UNL A   1      29.110  28.629  22.910  1.00  0.00     0.135 A 
ATOM     21  N   UNL A   1      29.449  29.247  21.801  1.00  0.00    -0.134 NA
ATOM     22  N   UNL A   1      30.250  28.149  23.524  1.00  0.00    -0.274 N 
ATOM     23  N   UNL A   1      30.803  29.174  21.689  1.00  0.00    -0.123 NA
BRANCH  22  24
ATOM     24  C   UNL A   1      30.341  27.299  24.624  1.00  0.00     0.049 A 
ATOM     25  C   UNL A   1      31.144  27.704  25.683  1.00  0.00     0.027 A 
ATOM     26  C   UNL A   1      29.929  25.976  24.476  1.00  0.00     0.027 A 
ATOM     27  C   UNL A   1      31.655  26.740  26.543  1.00  0.00     0.002 A 
ATOM     28  C   UNL A   1      30.406  25.026  25.373  1.00  0.00     0.002 A 
ATOM     29  C   UNL A   1      31.299  25.402  26.379  1.00  0.00     0.000 A 
ENDBRANCH  22  24
ENDBRANCH  17  18
ENDBRANCH  16  17
ENDBRANCH  13  16
ENDBRANCH   7  12
ENDBRANCH   3   6
ENDBRANCH   1   2
BRANCH   1  30
ATOM     30  C   UNL A   1      38.223  23.896  25.947  1.00  0.00     0.042 C 
BRANCH  30  31
ATOM     31  C   UNL A   1      39.152  23.375  27.040  1.00  0.00     0.118 C 
BRANCH  31  32
ATOM     32  N   UNL A   1      40.324  22.602  26.581  1.00  0.00    -0.352 N 
ATOM     33  C   UNL A   1      41.544  23.069  26.097  1.00  0.00     0.251 C 
ATOM     34  H   UNL A   1      40.230  21.623  26.622  1.00  0.00     0.163 HD
ATOM     35  O   UNL A   1      42.292  22.369  25.436  1.00  0.00    -0.269 OA
BRANCH  33  36
ATOM     36  C   UNL A   1      41.901  24.466  26.409  1.00  0.00     0.039 A 
ATOM     37  C   UNL A   1      41.464  25.552  25.642  1.00  0.00     0.014 A 
ATOM     38  C   UNL A   1      42.506  24.654  27.637  1.00  0.00     0.014 A 
ATOM     39  C   UNL A   1      41.516  26.827  26.207  1.00  0.00     0.010 A 
ATOM     40  C   UNL A   1      42.262  25.830  28.280  1.00  0.00     0.010 A 
ATOM     41  C   UNL A   1      41.874  26.950  27.557  1.00  0.00    -0.014 A 
BRANCH  41  42
ATOM     42  C   UNL A   1      41.768  28.195  28.310  1.00  0.00     0.031 A 
ATOM     43  C   UNL A   1      42.838  29.192  28.041  1.00  0.00     0.074 A 
ATOM     44  C   UNL A   1      40.635  28.526  28.975  1.00  0.00     0.049 A 
ATOM     45  N   UNL A   1      43.804  29.537  28.825  1.00  0.00    -0.248 NA
ATOM     46  C   UNL A   1      42.938  29.771  26.691  1.00  0.00     0.031 C 
ATOM     47  C   UNL A   1      39.359  27.791  29.037  1.00  0.00     0.029 A 
ATOM     48  N   UNL A   1      40.329  29.676  29.626  1.00  0.00    -0.354 N 
ATOM     49  C   UNL A   1      44.482  30.561  28.170  1.00  0.00     0.074 A 
ATOM     50  C   UNL A   1      44.052  30.501  26.796  1.00  0.00     0.031 C 
ATOM     51  C   UNL A   1      38.371  28.618  29.440  1.00  0.00     0.029 A 
ATOM     52  C   UNL A   1      38.972  29.863  29.870  1.00  0.00     0.049 A 
ATOM     53  H   UNL A   1      41.014  30.328  29.904  1.00  0.00     0.167 HD
ATOM     54  C   UNL A   1      45.124  31.545  28.863  1.00  0.00     0.031 A 
ATOM     55  C   UNL A   1      38.378  30.969  30.384  1.00  0.00     0.031 A 
ATOM     56  C   UNL A   1      45.211  31.222  30.267  1.00  0.00     0.049 A 
ATOM     57  C   UNL A   1      39.442  31.729  31.084  1.00  0.00     0.074 A 
ATOM     58  C   UNL A   1      45.757  30.186  30.997  1.00  0.00     0.029 A 
ATOM     59  N   UNL A   1      44.292  31.828  31.095  1.00  0.00    -0.354 N 
ATOM     60  N   UNL A   1      40.072  31.275  32.132  1.00  0.00    -0.248 NA
ATOM     61  C   UNL A   1      40.138  32.766  30.340  1.00  0.00     0.031 C 
ATOM     62  C   UNL A   1      44.802  29.923  32.024  1.00  0.00     0.029 A 
ATOM     63  C   UNL A   1      43.776  30.867  31.924  1.00  0.00     0.049 A 
ATOM     64  H   UNL A   1      44.049  32.783  31.091  1.00  0.00     0.167 HD
ATOM     65  C   UNL A   1      41.400  31.629  31.929  1.00  0.00     0.074 A 
ATOM     66  C   UNL A   1      41.361  32.632  30.865  1.00  0.00     0.031 C 
ATOM     67  C   UNL A   1      42.420  30.873  32.437  1.00  0.00     0.031 A 
BRANCH  54  68
ATOM     68  C   UNL A   1      45.292  32.966  28.376  1.00  0.00    -0.014 A 
ATOM     69  C   UNL A   1      46.559  33.576  28.499  1.00  0.00     0.010 A 
ATOM     70  C   UNL A   1      44.209  33.811  28.058  1.00  0.00     0.010 A 
ATOM     71  C   UNL A   1      46.715  34.964  28.395  1.00  0.00     0.020 A 
ATOM     72  C   UNL A   1      44.361  35.191  27.908  1.00  0.00     0.020 A 
ATOM     73  C   UNL A   1      45.608  35.763  28.114  1.00  0.00     0.054 A 
BRANCH  73  74
ATOM     74  S   UNL A   1      45.799  37.562  28.086  1.00  0.00     0.124 S 
ATOM     75  O   UNL A   1      44.579  37.983  27.405  1.00  0.00    -0.237 OA
ATOM     76  O   UNL A   1      45.877  37.888  29.508  1.00  0.00    -0.237 OA
ATOM     77  O   UNL A   1      47.037  37.763  27.338  1.00  0.00    -0.744 OA
ENDBRANCH  73  74
ENDBRANCH  54  68
BRANCH  55  78
ATOM     78  C   UNL A   1      37.048  31.540  30.056  1.00  0.00    -0.014 A 
ATOM     79  C   UNL A   1      36.239  32.115  31.055  1.00  0.00     0.010 A 
ATOM     80  C   UNL A   1      36.695  31.779  28.712  1.00  0.00     0.010 A 
ATOM     81  C   UNL A   1      35.162  32.955  30.720  1.00  0.00     0.020 A 
ATOM     82  C   UNL A   1      35.619  32.611  28.371  1.00  0.00     0.020 A 
ATOM     83  C   UNL A   1      34.872  33.217  29.378  1.00  0.00     0.054 A 
BRANCH  83  84
ATOM     84  S   UNL A   1      33.603  34.451  28.960  1.00  0.00     0.124 S 
ATOM     85  O   UNL A   1      34.397  35.534  28.388  1.00  0.00    -0.237 OA
ATOM     86  O   UNL A   1      32.752  33.728  28.020  1.00  0.00    -0.237 OA
ATOM     87  O   UNL A   1      32.978  34.753  30.247  1.00  0.00    -0.744 OA
ENDBRANCH  83  84
ENDBRANCH  55  78
BRANCH  67  88
ATOM     88  C   UNL A   1      42.093  29.809  33.463  1.00  0.00    -0.014 A 
ATOM     89  C   UNL A   1      41.624  28.518  33.146  1.00  0.00     0.010 A 
ATOM     90  C   UNL A   1      42.434  30.085  34.799  1.00  0.00     0.010 A 
ATOM     91  C   UNL A   1      41.479  27.541  34.147  1.00  0.00     0.020 A 
ATOM     92  C   UNL A   1      42.311  29.113  35.794  1.00  0.00     0.020 A 
ATOM     93  C   UNL A   1      41.824  27.848  35.466  1.00  0.00     0.054 A 
BRANCH  93  94
ATOM     94  S   UNL A   1      41.674  26.577  36.754  1.00  0.00     0.124 S 
ATOM     95  O   UNL A   1      41.648  25.339  35.980  1.00  0.00    -0.237 OA
ATOM     96  O   UNL A   1      42.873  26.787  37.563  1.00  0.00    -0.237 OA
ATOM     97  O   UNL A   1      40.420  26.910  37.429  1.00  0.00    -0.744 OA
ENDBRANCH  93  94
ENDBRANCH  67  88
ENDBRANCH  41  42
ENDBRANCH  33  36
ENDBRANCH  31  32
ENDBRANCH  30  31
ENDBRANCH   1  30
TORSDOF 18
ENDMDL
