MODEL 1
REMARK VINA RESULT:     -11.1      0.000      0.000
REMARK SMILES Cc1nc(C(=O)NCCCNC(=O)c2ccc(-c3c4nc(c(-c5ccc(S(=O)(=O)[O-])cc5)c5ccc([nH]5)c(-c5ccc(S(=O)(=O)[O-])cc5)c5nc(c(-c6ccc(S(=O)(=O)[O-])cc6)c6ccc3[nH]6)C=C5)C=C4)cc2)c(-c2ccccc2F)s1
REMARK SMILES IDX 10 1 9 2 8 3 7 4 5 5 6 6 4 8 1 9 2 10 3 11 82 12 74 13 75 14
REMARK SMILES IDX 76 15 80 16 77 17 79 18 81 19 78 20 11 21 12 22 13 24 14 25
REMARK SMILES IDX 15 26 73 27 16 28 72 29 17 30 18 31 19 32 66 33 20 34 71 35
REMARK SMILES IDX 65 36 67 37 21 38 70 39 64 40 63 41 22 43 52 44 33 45 51 46
REMARK SMILES IDX 34 47 37 48 50 49 68 50 35 51 36 52 49 54 69 55 38 56 23 57
REMARK SMILES IDX 24 58 32 59 25 60 31 61 26 62 27 63 28 64 29 65 30 66 53 67
REMARK SMILES IDX 54 68 62 69 55 70 61 71 56 72 57 73 58 74 59 75 60 76 39 77
REMARK SMILES IDX 40 78 48 79 41 80 47 81 42 82 43 83 44 84 45 85 46 86
REMARK H PARENT 7 7 11 23 67 42 37 53
REMARK Flexibility Score: inf
ROOT
ATOM      1  C   UNL A   1      33.396  28.407  27.480  1.00  0.00     0.118 C 
ENDROOT
BRANCH   1   2
ATOM      2  C   UNL A   1      34.045  27.908  26.191  1.00  0.00     0.042 C 
BRANCH   2   3
ATOM      3  C   UNL A   1      33.699  28.756  24.972  1.00  0.00     0.118 C 
BRANCH   3   4
ATOM      4  N   UNL A   1      33.915  28.040  23.727  1.00  0.00    -0.351 N 
ATOM      5  C   UNL A   1      33.068  27.716  22.694  1.00  0.00     0.271 C 
ATOM      6  O   UNL A   1      33.589  27.140  21.733  1.00  0.00    -0.267 OA
ATOM      7  H   UNL A   1      34.840  27.729  23.599  1.00  0.00     0.163 HD
BRANCH   5   8
ATOM      8  C   UNL A   1      31.638  28.072  22.724  1.00  0.00     0.147 A 
ATOM      9  C   UNL A   1      29.022  30.438  21.714  1.00  0.00     0.079 C 
ATOM     10  C   UNL A   1      29.838  29.319  22.256  1.00  0.00     0.091 A 
ATOM     11  N   UNL A   1      31.144  29.252  22.160  1.00  0.00    -0.236 NA
ATOM     12  S   UNL A   1      29.096  27.998  23.043  1.00  0.00    -0.118 S 
ATOM     13  C   UNL A   1      30.641  27.270  23.277  1.00  0.00     0.070 A 
BRANCH  13  14
ATOM     14  C   UNL A   1      30.718  25.993  23.985  1.00  0.00     0.030 A 
ATOM     15  C   UNL A   1      30.769  24.780  23.282  1.00  0.00     0.013 A 
ATOM     16  C   UNL A   1      30.763  25.955  25.384  1.00  0.00     0.131 A 
ATOM     17  C   UNL A   1      30.870  23.566  23.968  1.00  0.00     0.001 A 
ATOM     18  C   UNL A   1      30.870  24.749  26.072  1.00  0.00     0.040 A 
ATOM     19  F   UNL A   1      30.698  27.093  26.094  1.00  0.00    -0.206 F 
ATOM     20  C   UNL A   1      30.924  23.550  25.362  1.00  0.00     0.003 A 
ENDBRANCH  13  14
ENDBRANCH   5   8
ENDBRANCH   3   4
ENDBRANCH   2   3
ENDBRANCH   1   2
BRANCH   1  21
ATOM     21  N   UNL A   1      33.435  29.862  27.602  1.00  0.00    -0.352 N 
ATOM     22  C   UNL A   1      34.430  30.685  28.069  1.00  0.00     0.251 C 
ATOM     23  H   UNL A   1      32.619  30.326  27.304  1.00  0.00     0.163 HD
ATOM     24  O   UNL A   1      34.191  31.870  28.288  1.00  0.00    -0.269 OA
BRANCH  22  25
ATOM     25  C   UNL A   1      35.779  30.141  28.322  1.00  0.00     0.039 A 
ATOM     26  C   UNL A   1      36.711  30.112  27.281  1.00  0.00     0.014 A 
ATOM     27  C   UNL A   1      36.121  29.659  29.587  1.00  0.00     0.014 A 
ATOM     28  C   UNL A   1      38.014  29.678  27.533  1.00  0.00     0.010 A 
ATOM     29  C   UNL A   1      37.437  29.301  29.854  1.00  0.00     0.010 A 
ATOM     30  C   UNL A   1      38.399  29.313  28.833  1.00  0.00    -0.014 A 
BRANCH  30  31
ATOM     31  C   UNL A   1      39.801  28.954  29.165  1.00  0.00     0.031 A 
ATOM     32  C   UNL A   1      40.725  29.992  29.742  1.00  0.00     0.074 A 
ATOM     33  C   UNL A   1      40.269  27.729  28.851  1.00  0.00     0.049 A 
ATOM     34  N   UNL A   1      42.010  29.915  29.970  1.00  0.00    -0.248 NA
ATOM     35  C   UNL A   1      40.130  31.296  30.080  1.00  0.00     0.031 C 
ATOM     36  C   UNL A   1      39.480  26.645  28.258  1.00  0.00     0.029 A 
ATOM     37  N   UNL A   1      41.528  27.193  28.971  1.00  0.00    -0.354 N 
ATOM     38  C   UNL A   1      42.383  31.165  30.454  1.00  0.00     0.074 A 
ATOM     39  C   UNL A   1      41.197  31.992  30.445  1.00  0.00     0.031 C 
ATOM     40  C   UNL A   1      40.269  25.573  28.080  1.00  0.00     0.029 A 
ATOM     41  C   UNL A   1      41.627  25.906  28.496  1.00  0.00     0.049 A 
ATOM     42  H   UNL A   1      42.287  27.685  29.359  1.00  0.00     0.167 HD
ATOM     43  C   UNL A   1      43.598  31.580  30.880  1.00  0.00     0.031 A 
ATOM     44  C   UNL A   1      42.694  25.091  28.386  1.00  0.00     0.031 A 
ATOM     45  C   UNL A   1      44.772  30.747  30.896  1.00  0.00     0.049 A 
ATOM     46  C   UNL A   1      44.042  25.583  28.843  1.00  0.00     0.074 A 
ATOM     47  C   UNL A   1      46.038  31.056  31.361  1.00  0.00     0.029 A 
ATOM     48  N   UNL A   1      44.826  29.444  30.422  1.00  0.00    -0.354 N 
ATOM     49  N   UNL A   1      44.362  26.747  29.355  1.00  0.00    -0.248 NA
ATOM     50  C   UNL A   1      45.169  24.650  28.717  1.00  0.00     0.031 C 
ATOM     51  C   UNL A   1      46.871  29.961  31.115  1.00  0.00     0.029 A 
ATOM     52  C   UNL A   1      46.110  28.945  30.560  1.00  0.00     0.049 A 
ATOM     53  H   UNL A   1      44.064  28.949  30.044  1.00  0.00     0.167 HD
ATOM     54  C   UNL A   1      45.721  26.675  29.640  1.00  0.00     0.074 A 
ATOM     55  C   UNL A   1      46.159  25.350  29.253  1.00  0.00     0.031 C 
ATOM     56  C   UNL A   1      46.530  27.620  30.178  1.00  0.00     0.031 A 
BRANCH  43  57
ATOM     57  C   UNL A   1      43.725  33.004  31.356  1.00  0.00    -0.014 A 
ATOM     58  C   UNL A   1      44.060  34.041  30.467  1.00  0.00     0.010 A 
ATOM     59  C   UNL A   1      43.461  33.316  32.702  1.00  0.00     0.010 A 
ATOM     60  C   UNL A   1      44.171  35.357  30.925  1.00  0.00     0.020 A 
ATOM     61  C   UNL A   1      43.540  34.636  33.158  1.00  0.00     0.020 A 
ATOM     62  C   UNL A   1      43.913  35.645  32.268  1.00  0.00     0.054 A 
BRANCH  62  63
ATOM     63  S   UNL A   1      44.041  37.366  32.827  1.00  0.00     0.124 S 
ATOM     64  O   UNL A   1      43.778  38.103  31.593  1.00  0.00    -0.237 OA
ATOM     65  O   UNL A   1      42.996  37.451  33.844  1.00  0.00    -0.237 OA
ATOM     66  O   UNL A   1      45.408  37.467  33.332  1.00  0.00    -0.744 OA
ENDBRANCH  62  63
ENDBRANCH  43  57
BRANCH  44  67
ATOM     67  C   UNL A   1      42.531  23.723  27.820  1.00  0.00    -0.014 A 
ATOM     68  C   UNL A   1      42.300  22.624  28.666  1.00  0.00     0.010 A 
ATOM     69  C   UNL A   1      42.590  23.513  26.430  1.00  0.00     0.010 A 
ATOM     70  C   UNL A   1      42.149  21.339  28.135  1.00  0.00     0.020 A 
ATOM     71  C   UNL A   1      42.411  22.235  25.892  1.00  0.00     0.020 A 
ATOM     72  C   UNL A   1      42.203  21.154  26.750  1.00  0.00     0.054 A 
BRANCH  72  73
ATOM     73  S   UNL A   1      41.954  19.486  26.082  1.00  0.00     0.124 S 
ATOM     74  O   UNL A   1      42.841  19.486  24.924  1.00  0.00    -0.237 OA
ATOM     75  O   UNL A   1      42.366  18.635  27.196  1.00  0.00    -0.237 OA
ATOM     76  O   UNL A   1      40.525  19.448  25.777  1.00  0.00    -0.744 OA
ENDBRANCH  72  73
ENDBRANCH  44  67
BRANCH  56  77
ATOM     77  C   UNL A   1      47.968  27.251  30.429  1.00  0.00    -0.014 A 
ATOM     78  C   UNL A   1      48.985  27.619  29.533  1.00  0.00     0.010 A 
ATOM     79  C   UNL A   1      48.313  26.601  31.630  1.00  0.00     0.010 A 
ATOM     80  C   UNL A   1      50.321  27.330  29.825  1.00  0.00     0.020 A 
ATOM     81  C   UNL A   1      49.649  26.336  31.938  1.00  0.00     0.020 A 
ATOM     82  C   UNL A   1      50.645  26.696  31.029  1.00  0.00     0.054 A 
BRANCH  82  83
ATOM     83  S   UNL A   1      52.391  26.400  31.417  1.00  0.00     0.124 S 
ATOM     84  O   UNL A   1      52.319  25.213  32.265  1.00  0.00    -0.237 OA
ATOM     85  O   UNL A   1      52.983  26.195  30.097  1.00  0.00    -0.237 OA
ATOM     86  O   UNL A   1      52.809  27.625  32.096  1.00  0.00    -0.744 OA
ENDBRANCH  82  83
ENDBRANCH  56  77
ENDBRANCH  30  31
ENDBRANCH  22  25
ENDBRANCH   1  21
TORSDOF 14
ENDMDL
MODEL 2
REMARK VINA RESULT:     -11.1      1.344      2.414
REMARK SMILES Cc1nc(C(=O)NCCCNC(=O)c2ccc(-c3c4nc(c(-c5ccc(S(=O)(=O)[O-])cc5)c5ccc([nH]5)c(-c5ccc(S(=O)(=O)[O-])cc5)c5nc(c(-c6ccc(S(=O)(=O)[O-])cc6)c6ccc3[nH]6)C=C5)C=C4)cc2)c(-c2ccccc2F)s1
REMARK SMILES IDX 10 1 9 2 8 3 7 4 5 5 6 6 4 8 1 9 2 10 3 11 82 12 74 13 75 14
REMARK SMILES IDX 76 15 80 16 77 17 79 18 81 19 78 20 11 21 12 22 13 24 14 25
REMARK SMILES IDX 15 26 73 27 16 28 72 29 17 30 18 31 19 32 66 33 20 34 71 35
REMARK SMILES IDX 65 36 67 37 21 38 70 39 64 40 63 41 22 43 52 44 33 45 51 46
REMARK SMILES IDX 34 47 37 48 50 49 68 50 35 51 36 52 49 54 69 55 38 56 23 57
REMARK SMILES IDX 24 58 32 59 25 60 31 61 26 62 27 63 28 64 29 65 30 66 53 67
REMARK SMILES IDX 54 68 62 69 55 70 61 71 56 72 57 73 58 74 59 75 60 76 39 77
REMARK SMILES IDX 40 78 48 79 41 80 47 81 42 82 43 83 44 84 45 85 46 86
REMARK H PARENT 7 7 11 23 67 42 37 53
REMARK Flexibility Score: inf
ROOT
ATOM      1  C   UNL A   1      34.051  28.904  26.287  1.00  0.00     0.118 C 
ENDROOT
BRANCH   1   2
ATOM      2  C   UNL A   1      33.110  27.820  26.808  1.00  0.00     0.042 C 
BRANCH   2   3
ATOM      3  C   UNL A   1      31.639  28.215  26.745  1.00  0.00     0.118 C 
BRANCH   3   4
ATOM      4  N   UNL A   1      30.758  27.067  26.863  1.00  0.00    -0.351 N 
ATOM      5  C   UNL A   1      30.485  26.024  26.009  1.00  0.00     0.271 C 
ATOM      6  O   UNL A   1      29.714  25.162  26.443  1.00  0.00    -0.267 OA
ATOM      7  H   UNL A   1      30.263  27.027  27.713  1.00  0.00     0.163 HD
BRANCH   5   8
ATOM      8  C   UNL A   1      31.109  25.932  24.676  1.00  0.00     0.147 A 
ATOM      9  C   UNL A   1      33.525  24.221  22.509  1.00  0.00     0.079 C 
ATOM     10  C   UNL A   1      32.485  25.088  23.125  1.00  0.00     0.091 A 
ATOM     11  N   UNL A   1      32.135  25.028  24.387  1.00  0.00    -0.236 NA
ATOM     12  S   UNL A   1      31.639  26.238  22.188  1.00  0.00    -0.118 S 
ATOM     13  C   UNL A   1      30.726  26.697  23.575  1.00  0.00     0.070 A 
BRANCH  13  14
ATOM     14  C   UNL A   1      29.735  27.764  23.446  1.00  0.00     0.030 A 
ATOM     15  C   UNL A   1      30.132  29.099  23.273  1.00  0.00     0.013 A 
ATOM     16  C   UNL A   1      28.366  27.473  23.473  1.00  0.00     0.131 A 
ATOM     17  C   UNL A   1      29.176  30.109  23.124  1.00  0.00     0.001 A 
ATOM     18  C   UNL A   1      27.410  28.475  23.319  1.00  0.00     0.040 A 
ATOM     19  F   UNL A   1      27.946  26.211  23.655  1.00  0.00    -0.206 F 
ATOM     20  C   UNL A   1      27.817  29.798  23.143  1.00  0.00     0.003 A 
ENDBRANCH  13  14
ENDBRANCH   5   8
ENDBRANCH   3   4
ENDBRANCH   2   3
ENDBRANCH   1   2
BRANCH   1  21
ATOM     21  N   UNL A   1      33.919  30.162  27.019  1.00  0.00    -0.352 N 
ATOM     22  C   UNL A   1      34.729  30.715  27.981  1.00  0.00     0.251 C 
ATOM     23  H   UNL A   1      33.125  30.696  26.788  1.00  0.00     0.163 HD
ATOM     24  O   UNL A   1      34.335  31.683  28.627  1.00  0.00    -0.269 OA
BRANCH  22  25
ATOM     25  C   UNL A   1      36.061  30.138  28.245  1.00  0.00     0.039 A 
ATOM     26  C   UNL A   1      37.040  30.193  27.250  1.00  0.00     0.014 A 
ATOM     27  C   UNL A   1      36.340  29.542  29.477  1.00  0.00     0.014 A 
ATOM     28  C   UNL A   1      38.328  29.725  27.523  1.00  0.00     0.010 A 
ATOM     29  C   UNL A   1      37.641  29.149  29.771  1.00  0.00     0.010 A 
ATOM     30  C   UNL A   1      38.649  29.242  28.801  1.00  0.00    -0.014 A 
BRANCH  30  31
ATOM     31  C   UNL A   1      40.033  28.841  29.164  1.00  0.00     0.031 A 
ATOM     32  C   UNL A   1      40.968  29.846  29.781  1.00  0.00     0.074 A 
ATOM     33  C   UNL A   1      40.476  27.609  28.844  1.00  0.00     0.049 A 
ATOM     34  N   UNL A   1      42.244  29.731  30.041  1.00  0.00    -0.248 NA
ATOM     35  C   UNL A   1      40.398  31.160  30.123  1.00  0.00     0.031 C 
ATOM     36  C   UNL A   1      39.675  26.555  28.213  1.00  0.00     0.029 A 
ATOM     37  N   UNL A   1      41.717  27.038  28.988  1.00  0.00    -0.354 N 
ATOM     38  C   UNL A   1      42.636  30.963  30.553  1.00  0.00     0.074 A 
ATOM     39  C   UNL A   1      41.472  31.822  30.526  1.00  0.00     0.031 C 
ATOM     40  C   UNL A   1      40.440  25.466  28.040  1.00  0.00     0.029 A 
ATOM     41  C   UNL A   1      41.795  25.756  28.496  1.00  0.00     0.049 A 
ATOM     42  H   UNL A   1      42.478  27.504  29.403  1.00  0.00     0.167 HD
ATOM     43  C   UNL A   1      43.850  31.340  31.018  1.00  0.00     0.031 A 
ATOM     44  C   UNL A   1      42.843  24.915  28.401  1.00  0.00     0.031 A 
ATOM     45  C   UNL A   1      45.001  30.476  31.051  1.00  0.00     0.049 A 
ATOM     46  C   UNL A   1      44.190  25.364  28.901  1.00  0.00     0.074 A 
ATOM     47  C   UNL A   1      46.262  30.745  31.553  1.00  0.00     0.029 A 
ATOM     48  N   UNL A   1      45.034  29.179  30.559  1.00  0.00    -0.354 N 
ATOM     49  N   UNL A   1      44.527  26.512  29.439  1.00  0.00    -0.248 NA
ATOM     50  C   UNL A   1      45.296  24.403  28.789  1.00  0.00     0.031 C 
ATOM     51  C   UNL A   1      47.072  29.631  31.313  1.00  0.00     0.029 A 
ATOM     52  C   UNL A   1      46.300  28.645  30.722  1.00  0.00     0.049 A 
ATOM     53  H   UNL A   1      44.269  28.710  30.154  1.00  0.00     0.167 HD
ATOM     54  C   UNL A   1      45.876  26.399  29.758  1.00  0.00     0.074 A 
ATOM     55  C   UNL A   1      46.289  25.068  29.362  1.00  0.00     0.031 C 
ATOM     56  C   UNL A   1      46.695  27.314  30.331  1.00  0.00     0.031 A 
BRANCH  43  57
ATOM     57  C   UNL A   1      44.001  32.753  31.518  1.00  0.00    -0.014 A 
ATOM     58  C   UNL A   1      44.385  33.794  30.655  1.00  0.00     0.010 A 
ATOM     59  C   UNL A   1      43.712  33.052  32.862  1.00  0.00     0.010 A 
ATOM     60  C   UNL A   1      44.519  35.100  31.135  1.00  0.00     0.020 A 
ATOM     61  C   UNL A   1      43.813  34.362  33.340  1.00  0.00     0.020 A 
ATOM     62  C   UNL A   1      44.234  35.375  32.476  1.00  0.00     0.054 A 
BRANCH  62  63
ATOM     63  S   UNL A   1      44.393  37.083  33.064  1.00  0.00     0.124 S 
ATOM     64  O   UNL A   1      45.684  37.047  33.748  1.00  0.00    -0.237 OA
ATOM     65  O   UNL A   1      44.361  37.853  31.824  1.00  0.00    -0.237 OA
ATOM     66  O   UNL A   1      43.233  37.261  33.935  1.00  0.00    -0.744 OA
ENDBRANCH  62  63
ENDBRANCH  43  57
BRANCH  44  67
ATOM     67  C   UNL A   1      42.659  23.560  27.810  1.00  0.00    -0.014 A 
ATOM     68  C   UNL A   1      42.917  23.337  26.445  1.00  0.00     0.010 A 
ATOM     69  C   UNL A   1      42.238  22.482  28.609  1.00  0.00     0.010 A 
ATOM     70  C   UNL A   1      42.742  22.067  25.889  1.00  0.00     0.020 A 
ATOM     71  C   UNL A   1      42.089  21.203  28.064  1.00  0.00     0.020 A 
ATOM     72  C   UNL A   1      42.331  21.007  26.703  1.00  0.00     0.054 A 
BRANCH  72  73
ATOM     73  S   UNL A   1      42.159  19.357  25.968  1.00  0.00     0.124 S 
ATOM     74  O   UNL A   1      42.984  19.469  24.771  1.00  0.00    -0.237 OA
ATOM     75  O   UNL A   1      42.682  18.488  27.019  1.00  0.00    -0.237 OA
ATOM     76  O   UNL A   1      40.722  19.236  25.730  1.00  0.00    -0.744 OA
ENDBRANCH  72  73
ENDBRANCH  44  67
BRANCH  56  77
ATOM     77  C   UNL A   1      48.115  26.903  30.614  1.00  0.00    -0.014 A 
ATOM     78  C   UNL A   1      49.149  27.166  29.699  1.00  0.00     0.010 A 
ATOM     79  C   UNL A   1      48.430  26.324  31.858  1.00  0.00     0.010 A 
ATOM     80  C   UNL A   1      50.471  26.842  30.017  1.00  0.00     0.020 A 
ATOM     81  C   UNL A   1      49.753  26.025  32.191  1.00  0.00     0.020 A 
ATOM     82  C   UNL A   1      50.766  26.280  31.264  1.00  0.00     0.054 A 
BRANCH  82  83
ATOM     83  S   UNL A   1      52.497  25.939  31.679  1.00  0.00     0.124 S 
ATOM     84  O   UNL A   1      53.157  26.088  30.385  1.00  0.00    -0.237 OA
ATOM     85  O   UNL A   1      52.801  26.976  32.662  1.00  0.00    -0.237 OA
ATOM     86  O   UNL A   1      52.467  24.578  32.209  1.00  0.00    -0.744 OA
ENDBRANCH  82  83
ENDBRANCH  56  77
ENDBRANCH  30  31
ENDBRANCH  22  25
ENDBRANCH   1  21
TORSDOF 14
ENDMDL
MODEL 3
REMARK VINA RESULT:     -11.0      1.331      1.872
REMARK SMILES Cc1nc(C(=O)NCCCNC(=O)c2ccc(-c3c4nc(c(-c5ccc(S(=O)(=O)[O-])cc5)c5ccc([nH]5)c(-c5ccc(S(=O)(=O)[O-])cc5)c5nc(c(-c6ccc(S(=O)(=O)[O-])cc6)c6ccc3[nH]6)C=C5)C=C4)cc2)c(-c2ccccc2F)s1
REMARK SMILES IDX 10 1 9 2 8 3 7 4 5 5 6 6 4 8 1 9 2 10 3 11 82 12 74 13 75 14
REMARK SMILES IDX 76 15 80 16 77 17 79 18 81 19 78 20 11 21 12 22 13 24 14 25
REMARK SMILES IDX 15 26 73 27 16 28 72 29 17 30 18 31 19 32 66 33 20 34 71 35
REMARK SMILES IDX 65 36 67 37 21 38 70 39 64 40 63 41 22 43 52 44 33 45 51 46
REMARK SMILES IDX 34 47 37 48 50 49 68 50 35 51 36 52 49 54 69 55 38 56 23 57
REMARK SMILES IDX 24 58 32 59 25 60 31 61 26 62 27 63 28 64 29 65 30 66 53 67
REMARK SMILES IDX 54 68 62 69 55 70 61 71 56 72 57 73 58 74 59 75 60 76 39 77
REMARK SMILES IDX 40 78 48 79 41 80 47 81 42 82 43 83 44 84 45 85 46 86
REMARK H PARENT 7 7 11 23 67 42 37 53
REMARK Flexibility Score: inf
ROOT
ATOM      1  C   UNL A   1      33.351  28.542  27.306  1.00  0.00     0.118 C 
ENDROOT
BRANCH   1   2
ATOM      2  C   UNL A   1      33.986  28.148  25.975  1.00  0.00     0.042 C 
BRANCH   2   3
ATOM      3  C   UNL A   1      33.613  29.079  24.827  1.00  0.00     0.118 C 
BRANCH   3   4
ATOM      4  N   UNL A   1      33.933  28.508  23.531  1.00  0.00    -0.351 N 
ATOM      5  C   UNL A   1      33.373  27.475  22.817  1.00  0.00     0.271 C 
ATOM      6  O   UNL A   1      33.854  27.274  21.697  1.00  0.00    -0.267 OA
ATOM      7  H   UNL A   1      34.694  28.940  23.080  1.00  0.00     0.163 HD
BRANCH   5   8
ATOM      8  C   UNL A   1      32.243  26.690  23.348  1.00  0.00     0.147 A 
ATOM      9  C   UNL A   1      28.620  26.457  23.875  1.00  0.00     0.079 C 
ATOM     10  C   UNL A   1      30.093  26.263  23.799  1.00  0.00     0.091 A 
ATOM     11  N   UNL A   1      30.927  27.159  23.332  1.00  0.00    -0.236 NA
ATOM     12  S   UNL A   1      30.809  24.800  24.316  1.00  0.00    -0.118 S 
ATOM     13  C   UNL A   1      32.361  25.407  23.880  1.00  0.00     0.070 A 
BRANCH  13  14
ATOM     14  C   UNL A   1      33.536  24.568  24.112  1.00  0.00     0.030 A 
ATOM     15  C   UNL A   1      34.159  23.890  23.053  1.00  0.00     0.013 A 
ATOM     16  C   UNL A   1      34.078  24.439  25.397  1.00  0.00     0.131 A 
ATOM     17  C   UNL A   1      35.298  23.111  23.281  1.00  0.00     0.001 A 
ATOM     18  C   UNL A   1      35.215  23.669  25.629  1.00  0.00     0.040 A 
ATOM     19  F   UNL A   1      33.500  25.056  26.440  1.00  0.00    -0.206 F 
ATOM     20  C   UNL A   1      35.828  23.004  24.567  1.00  0.00     0.003 A 
ENDBRANCH  13  14
ENDBRANCH   5   8
ENDBRANCH   3   4
ENDBRANCH   2   3
ENDBRANCH   1   2
BRANCH   1  21
ATOM     21  N   UNL A   1      33.351  29.987  27.523  1.00  0.00    -0.352 N 
ATOM     22  C   UNL A   1      34.308  30.797  28.084  1.00  0.00     0.251 C 
ATOM     23  H   UNL A   1      32.538  30.453  27.221  1.00  0.00     0.163 HD
ATOM     24  O   UNL A   1      34.033  31.960  28.368  1.00  0.00    -0.269 OA
BRANCH  22  25
ATOM     25  C   UNL A   1      35.657  30.264  28.359  1.00  0.00     0.039 A 
ATOM     26  C   UNL A   1      36.623  30.297  27.350  1.00  0.00     0.014 A 
ATOM     27  C   UNL A   1      35.965  29.734  29.613  1.00  0.00     0.014 A 
ATOM     28  C   UNL A   1      37.925  29.873  27.628  1.00  0.00     0.010 A 
ATOM     29  C   UNL A   1      37.278  29.387  29.909  1.00  0.00     0.010 A 
ATOM     30  C   UNL A   1      38.273  29.458  28.923  1.00  0.00    -0.014 A 
BRANCH  30  31
ATOM     31  C   UNL A   1      39.670  29.109  29.286  1.00  0.00     0.031 A 
ATOM     32  C   UNL A   1      40.568  30.147  29.901  1.00  0.00     0.074 A 
ATOM     33  C   UNL A   1      40.158  27.892  28.969  1.00  0.00     0.049 A 
ATOM     34  N   UNL A   1      41.848  30.080  30.162  1.00  0.00    -0.248 NA
ATOM     35  C   UNL A   1      39.951  31.441  30.241  1.00  0.00     0.031 C 
ATOM     36  C   UNL A   1      39.395  26.809  28.341  1.00  0.00     0.029 A 
ATOM     37  N   UNL A   1      41.418  27.367  29.114  1.00  0.00    -0.354 N 
ATOM     38  C   UNL A   1      42.195  31.326  30.671  1.00  0.00     0.074 A 
ATOM     39  C   UNL A   1      41.001  32.143  30.642  1.00  0.00     0.031 C 
ATOM     40  C   UNL A   1      40.198  25.747  28.170  1.00  0.00     0.029 A 
ATOM     41  C   UNL A   1      41.542  26.087  28.625  1.00  0.00     0.049 A 
ATOM     42  H   UNL A   1      42.162  27.861  29.528  1.00  0.00     0.167 HD
ATOM     43  C   UNL A   1      43.395  31.747  31.134  1.00  0.00     0.031 A 
ATOM     44  C   UNL A   1      42.620  25.284  28.533  1.00  0.00     0.031 A 
ATOM     45  C   UNL A   1      44.576  30.926  31.170  1.00  0.00     0.049 A 
ATOM     46  C   UNL A   1      43.950  25.782  29.031  1.00  0.00     0.074 A 
ATOM     47  C   UNL A   1      45.827  31.240  31.672  1.00  0.00     0.029 A 
ATOM     48  N   UNL A   1      44.655  29.630  30.680  1.00  0.00    -0.354 N 
ATOM     49  N   UNL A   1      44.245  26.943  29.567  1.00  0.00    -0.248 NA
ATOM     50  C   UNL A   1      45.089  24.862  28.921  1.00  0.00     0.031 C 
ATOM     51  C   UNL A   1      46.676  30.156  31.433  1.00  0.00     0.029 A 
ATOM     52  C   UNL A   1      45.940  29.141  30.845  1.00  0.00     0.049 A 
ATOM     53  H   UNL A   1      43.908  29.132  30.276  1.00  0.00     0.167 HD
ATOM     54  C   UNL A   1      45.597  26.880  29.886  1.00  0.00     0.074 A 
ATOM     55  C   UNL A   1      46.058  25.564  29.493  1.00  0.00     0.031 C 
ATOM     56  C   UNL A   1      46.383  27.825  30.457  1.00  0.00     0.031 A 
BRANCH  43  57
ATOM     57  C   UNL A   1      43.495  33.166  31.632  1.00  0.00    -0.014 A 
ATOM     58  C   UNL A   1      43.268  33.481  32.984  1.00  0.00     0.010 A 
ATOM     59  C   UNL A   1      43.863  34.193  30.744  1.00  0.00     0.010 A 
ATOM     60  C   UNL A   1      43.366  34.802  33.429  1.00  0.00     0.020 A 
ATOM     61  C   UNL A   1      43.994  35.511  31.191  1.00  0.00     0.020 A 
ATOM     62  C   UNL A   1      43.726  35.809  32.529  1.00  0.00     0.054 A 
BRANCH  62  63
ATOM     63  S   UNL A   1      43.870  37.510  33.141  1.00  0.00     0.124 S 
ATOM     64  O   UNL A   1      43.888  38.277  31.897  1.00  0.00    -0.237 OA
ATOM     65  O   UNL A   1      42.665  37.661  33.952  1.00  0.00    -0.237 OA
ATOM     66  O   UNL A   1      45.125  37.507  33.888  1.00  0.00    -0.744 OA
ENDBRANCH  62  63
ENDBRANCH  43  57
BRANCH  44  67
ATOM     67  C   UNL A   1      42.484  23.922  27.944  1.00  0.00    -0.014 A 
ATOM     68  C   UNL A   1      42.561  23.737  26.552  1.00  0.00     0.010 A 
ATOM     69  C   UNL A   1      42.293  22.801  28.772  1.00  0.00     0.010 A 
ATOM     70  C   UNL A   1      42.431  22.460  25.999  1.00  0.00     0.020 A 
ATOM     71  C   UNL A   1      42.192  21.519  28.225  1.00  0.00     0.020 A 
ATOM     72  C   UNL A   1      42.250  21.358  26.840  1.00  0.00     0.054 A 
BRANCH  72  73
ATOM     73  S   UNL A   1      42.134  19.704  26.101  1.00  0.00     0.124 S 
ATOM     74  O   UNL A   1      42.506  18.845  27.220  1.00  0.00    -0.237 OA
ATOM     75  O   UNL A   1      40.734  19.640  25.691  1.00  0.00    -0.237 OA
ATOM     76  O   UNL A   1      43.095  19.753  25.001  1.00  0.00    -0.744 OA
ENDBRANCH  72  73
ENDBRANCH  44  67
BRANCH  56  77
ATOM     77  C   UNL A   1      47.817  27.466  30.741  1.00  0.00    -0.014 A 
ATOM     78  C   UNL A   1      48.189  26.830  31.937  1.00  0.00     0.010 A 
ATOM     79  C   UNL A   1      48.793  27.693  29.752  1.00  0.00     0.010 A 
ATOM     80  C   UNL A   1      49.515  26.440  32.146  1.00  0.00     0.020 A 
ATOM     81  C   UNL A   1      50.113  27.280  29.944  1.00  0.00     0.020 A 
ATOM     82  C   UNL A   1      50.467  26.661  31.145  1.00  0.00     0.054 A 
BRANCH  82  83
ATOM     83  S   UNL A   1      52.163  26.078  31.410  1.00  0.00     0.124 S 
ATOM     84  O   UNL A   1      52.650  27.007  32.427  1.00  0.00    -0.237 OA
ATOM     85  O   UNL A   1      51.962  24.703  31.861  1.00  0.00    -0.237 OA
ATOM     86  O   UNL A   1      52.787  26.212  30.096  1.00  0.00    -0.744 OA
ENDBRANCH  82  83
ENDBRANCH  56  77
ENDBRANCH  30  31
ENDBRANCH  22  25
ENDBRANCH   1  21
TORSDOF 14
ENDMDL
