MODEL 1
REMARK VINA RESULT:     -11.8      0.000      0.000
REMARK SMILES Cc1nn(C)c(=O)c(C(=O)N2CCCC[C@H]2C(=O)NCCCNC(=O)c2ccc(-c3c4nc(c(-c5ccc(S(=O)(=O)[O-])cc5)c5ccc([nH]5)c(-c5ccc(S(=O)(=O)[O-])cc5)c5nc(c(-c6ccc(S(=O)(=O)[O-])cc6)c6ccc3[nH]6)C=C5)C=C4)cc2)c1C
REMARK SMILES IDX 21 1 20 2 19 3 17 4 18 5 16 7 11 8 12 9 13 10 15 11 14 12
REMARK SMILES IDX 9 13 10 14 8 15 1 16 2 17 3 18 86 19 4 20 87 21 5 22 6 23
REMARK SMILES IDX 7 24 22 25 23 26 24 27 25 29 26 30 27 31 85 32 28 33 84 34
REMARK SMILES IDX 29 35 30 36 31 37 78 38 32 39 83 40 77 41 79 42 33 43 82 44
REMARK SMILES IDX 76 45 75 46 34 48 64 49 45 50 63 51 46 52 49 53 62 54 80 55
REMARK SMILES IDX 47 56 48 57 61 59 81 60 50 61 35 62 36 63 44 64 37 65 43 66
REMARK SMILES IDX 38 67 39 68 40 69 41 70 42 71 65 72 66 73 74 74 67 75 73 76
REMARK SMILES IDX 68 77 69 78 70 79 71 80 72 81 51 82 52 83 60 84 53 85 59 86
REMARK SMILES IDX 54 87 55 88 56 89 57 90 58 91
REMARK H PARENT 19 6 23 28 79 47 49 58
REMARK Flexibility Score: inf
ROOT
ATOM      1  C   UNL A   1      35.718  23.945  26.196  1.00  0.00     0.042 C 
ENDROOT
BRANCH   1   2
ATOM      2  C   UNL A   1      34.352  23.342  25.913  1.00  0.00     0.117 C 
BRANCH   2   3
ATOM      3  N   UNL A   1      33.227  24.086  26.431  1.00  0.00    -0.354 N 
ATOM      4  C   UNL A   1      32.123  24.596  25.822  1.00  0.00     0.242 C 
ATOM      5  O   UNL A   1      31.156  24.803  26.569  1.00  0.00    -0.273 OA
ATOM      6  H   UNL A   1      33.267  24.254  27.400  1.00  0.00     0.163 HD
BRANCH   4   7
ATOM      7  C   UNL A   1      31.971  24.864  24.298  1.00  0.00     0.174 C 
ATOM      8  N   UNL A   1      33.127  25.339  23.506  1.00  0.00    -0.326 N 
ATOM      9  C   UNL A   1      33.926  24.337  22.795  1.00  0.00     0.120 C 
ATOM     10  C   UNL A   1      33.217  23.055  22.336  1.00  0.00     0.022 C 
ATOM     11  C   UNL A   1      31.169  23.757  23.605  1.00  0.00     0.035 C 
ATOM     12  C   UNL A   1      32.027  22.588  23.167  1.00  0.00     0.004 C 
BRANCH   8  13
ATOM     13  C   UNL A   1      32.952  26.543  22.808  1.00  0.00     0.260 C 
ATOM     14  O   UNL A   1      33.320  26.579  21.633  1.00  0.00    -0.269 OA
BRANCH  13  15
ATOM     15  C   UNL A   1      32.310  27.760  23.484  1.00  0.00     0.111 A 
ATOM     16  C   UNL A   1      32.270  30.108  26.501  1.00  0.00     0.069 C 
ATOM     17  C   UNL A   1      31.896  29.479  25.169  1.00  0.00     0.062 A 
ATOM     18  N   UNL A   1      30.791  29.899  24.657  1.00  0.00    -0.175 NA
ATOM     19  C   UNL A   1      32.785  28.446  24.549  1.00  0.00    -0.010 A 
ATOM     20  N   UNL A   1      30.380  29.334  23.495  1.00  0.00    -0.232 N 
ATOM     21  C   UNL A   1      34.113  28.313  25.207  1.00  0.00     0.047 C 
ATOM     22  C   UNL A   1      29.173  29.924  22.935  1.00  0.00     0.178 C 
ATOM     23  C   UNL A   1      31.009  28.259  22.875  1.00  0.00     0.279 A 
ATOM     24  O   UNL A   1      30.551  27.770  21.843  1.00  0.00    -0.267 OA
ENDBRANCH  13  15
ENDBRANCH   8  13
ENDBRANCH   4   7
ENDBRANCH   2   3
ENDBRANCH   1   2
BRANCH   1  25
ATOM     25  C   UNL A   1      36.729  23.728  25.087  1.00  0.00     0.118 C 
BRANCH  25  26
ATOM     26  N   UNL A   1      37.747  22.751  25.452  1.00  0.00    -0.352 N 
ATOM     27  C   UNL A   1      38.980  22.907  26.042  1.00  0.00     0.251 C 
ATOM     28  H   UNL A   1      37.512  21.820  25.238  1.00  0.00     0.163 HD
ATOM     29  O   UNL A   1      39.781  21.979  25.997  1.00  0.00    -0.269 OA
BRANCH  27  30
ATOM     30  C   UNL A   1      39.344  24.173  26.712  1.00  0.00     0.039 A 
ATOM     31  C   UNL A   1      38.959  24.385  28.040  1.00  0.00     0.014 A 
ATOM     32  C   UNL A   1      40.026  25.176  26.022  1.00  0.00     0.014 A 
ATOM     33  C   UNL A   1      39.318  25.571  28.685  1.00  0.00     0.010 A 
ATOM     34  C   UNL A   1      40.491  26.295  26.698  1.00  0.00     0.010 A 
ATOM     35  C   UNL A   1      40.120  26.520  28.028  1.00  0.00    -0.014 A 
BRANCH  35  36
ATOM     36  C   UNL A   1      40.538  27.781  28.689  1.00  0.00     0.031 A 
ATOM     37  C   UNL A   1      41.949  27.926  29.198  1.00  0.00     0.074 A 
ATOM     38  C   UNL A   1      39.644  28.770  28.873  1.00  0.00     0.049 A 
ATOM     39  N   UNL A   1      42.497  28.926  29.838  1.00  0.00    -0.248 NA
ATOM     40  C   UNL A   1      42.856  26.783  28.985  1.00  0.00     0.031 C 
ATOM     41  C   UNL A   1      38.243  28.736  28.447  1.00  0.00     0.029 A 
ATOM     42  N   UNL A   1      39.783  30.005  29.454  1.00  0.00    -0.354 N 
ATOM     43  C   UNL A   1      43.803  28.531  30.104  1.00  0.00     0.074 A 
ATOM     44  C   UNL A   1      43.940  27.170  29.638  1.00  0.00     0.031 C 
ATOM     45  C   UNL A   1      37.670  29.918  28.726  1.00  0.00     0.029 A 
ATOM     46  C   UNL A   1      38.646  30.775  29.392  1.00  0.00     0.049 A 
ATOM     47  H   UNL A   1      40.619  30.311  29.876  1.00  0.00     0.167 HD
ATOM     48  C   UNL A   1      44.814  29.249  30.649  1.00  0.00     0.031 A 
ATOM     49  C   UNL A   1      38.419  32.034  29.813  1.00  0.00     0.031 A 
ATOM     50  C   UNL A   1      44.673  30.602  31.109  1.00  0.00     0.049 A 
ATOM     51  C   UNL A   1      39.538  32.796  30.467  1.00  0.00     0.074 A 
ATOM     52  C   UNL A   1      45.633  31.428  31.662  1.00  0.00     0.029 A 
ATOM     53  N   UNL A   1      43.492  31.330  31.066  1.00  0.00    -0.354 N 
ATOM     54  N   UNL A   1      40.775  32.418  30.680  1.00  0.00    -0.248 NA
ATOM     55  C   UNL A   1      39.230  34.155  30.932  1.00  0.00     0.031 C 
ATOM     56  C   UNL A   1      45.020  32.639  32.002  1.00  0.00     0.029 A 
ATOM     57  C   UNL A   1      43.693  32.589  31.602  1.00  0.00     0.049 A 
ATOM     58  H   UNL A   1      42.637  30.998  30.706  1.00  0.00     0.167 HD
ATOM     59  C   UNL A   1      41.404  33.501  31.283  1.00  0.00     0.074 A 
ATOM     60  C   UNL A   1      40.411  34.553  31.389  1.00  0.00     0.031 C 
ATOM     61  C   UNL A   1      42.687  33.617  31.708  1.00  0.00     0.031 A 
BRANCH  48  62
ATOM     62  C   UNL A   1      46.155  28.570  30.760  1.00  0.00    -0.014 A 
ATOM     63  C   UNL A   1      46.521  27.883  31.933  1.00  0.00     0.010 A 
ATOM     64  C   UNL A   1      47.064  28.619  29.688  1.00  0.00     0.010 A 
ATOM     65  C   UNL A   1      47.790  27.314  32.057  1.00  0.00     0.020 A 
ATOM     66  C   UNL A   1      48.324  28.019  29.794  1.00  0.00     0.020 A 
ATOM     67  C   UNL A   1      48.686  27.392  30.988  1.00  0.00     0.054 A 
BRANCH  67  68
ATOM     68  S   UNL A   1      50.332  26.656  31.185  1.00  0.00     0.124 S 
ATOM     69  O   UNL A   1      50.864  27.409  32.318  1.00  0.00    -0.237 OA
ATOM     70  O   UNL A   1      50.024  25.254  31.453  1.00  0.00    -0.237 OA
ATOM     71  O   UNL A   1      50.985  26.915  29.904  1.00  0.00    -0.744 OA
ENDBRANCH  67  68
ENDBRANCH  48  62
BRANCH  49  72
ATOM     72  C   UNL A   1      37.093  32.663  29.561  1.00  0.00    -0.014 A 
ATOM     73  C   UNL A   1      36.140  32.725  30.592  1.00  0.00     0.010 A 
ATOM     74  C   UNL A   1      36.801  33.262  28.322  1.00  0.00     0.010 A 
ATOM     75  C   UNL A   1      34.923  33.383  30.395  1.00  0.00     0.020 A 
ATOM     76  C   UNL A   1      35.594  33.942  28.128  1.00  0.00     0.020 A 
ATOM     77  C   UNL A   1      34.663  33.999  29.167  1.00  0.00     0.054 A 
BRANCH  77  78
ATOM     78  S   UNL A   1      33.115  34.924  28.971  1.00  0.00     0.124 S 
ATOM     79  O   UNL A   1      32.419  34.144  27.952  1.00  0.00    -0.237 OA
ATOM     80  O   UNL A   1      32.545  34.864  30.315  1.00  0.00    -0.237 OA
ATOM     81  O   UNL A   1      33.559  36.251  28.550  1.00  0.00    -0.744 OA
ENDBRANCH  77  78
ENDBRANCH  49  72
BRANCH  61  82
ATOM     82  C   UNL A   1      43.104  34.928  32.318  1.00  0.00    -0.014 A 
ATOM     83  C   UNL A   1      43.607  35.971  31.522  1.00  0.00     0.010 A 
ATOM     84  C   UNL A   1      42.901  35.149  33.694  1.00  0.00     0.010 A 
ATOM     85  C   UNL A   1      43.913  37.208  32.092  1.00  0.00     0.020 A 
ATOM     86  C   UNL A   1      43.179  36.395  34.261  1.00  0.00     0.020 A 
ATOM     87  C   UNL A   1      43.690  37.414  33.458  1.00  0.00     0.054 A 
BRANCH  87  88
ATOM     88  S   UNL A   1      44.032  39.053  34.154  1.00  0.00     0.124 S 
ATOM     89  O   UNL A   1      42.898  39.834  33.669  1.00  0.00    -0.237 OA
ATOM     90  O   UNL A   1      44.047  38.790  35.591  1.00  0.00    -0.237 OA
ATOM     91  O   UNL A   1      45.326  39.412  33.579  1.00  0.00    -0.744 OA
ENDBRANCH  87  88
ENDBRANCH  61  82
ENDBRANCH  35  36
ENDBRANCH  27  30
ENDBRANCH  25  26
ENDBRANCH   1  25
TORSDOF 15
ENDMDL
MODEL 2
REMARK VINA RESULT:     -11.8      2.570      9.285
REMARK SMILES Cc1nn(C)c(=O)c(C(=O)N2CCCC[C@H]2C(=O)NCCCNC(=O)c2ccc(-c3c4nc(c(-c5ccc(S(=O)(=O)[O-])cc5)c5ccc([nH]5)c(-c5ccc(S(=O)(=O)[O-])cc5)c5nc(c(-c6ccc(S(=O)(=O)[O-])cc6)c6ccc3[nH]6)C=C5)C=C4)cc2)c1C
REMARK SMILES IDX 21 1 20 2 19 3 17 4 18 5 16 7 11 8 12 9 13 10 15 11 14 12
REMARK SMILES IDX 9 13 10 14 8 15 1 16 2 17 3 18 86 19 4 20 87 21 5 22 6 23
REMARK SMILES IDX 7 24 22 25 23 26 24 27 25 29 26 30 27 31 85 32 28 33 84 34
REMARK SMILES IDX 29 35 30 36 31 37 78 38 32 39 83 40 77 41 79 42 33 43 82 44
REMARK SMILES IDX 76 45 75 46 34 48 64 49 45 50 63 51 46 52 49 53 62 54 80 55
REMARK SMILES IDX 47 56 48 57 61 59 81 60 50 61 35 62 36 63 44 64 37 65 43 66
REMARK SMILES IDX 38 67 39 68 40 69 41 70 42 71 65 72 66 73 74 74 67 75 73 76
REMARK SMILES IDX 68 77 69 78 70 79 71 80 72 81 51 82 52 83 60 84 53 85 59 86
REMARK SMILES IDX 54 87 55 88 56 89 57 90 58 91
REMARK H PARENT 19 6 23 28 79 47 49 58
REMARK Flexibility Score: inf
ROOT
ATOM      1  C   UNL A   1      34.135  27.811  26.022  1.00  0.00     0.042 C 
ENDROOT
BRANCH   1   2
ATOM      2  C   UNL A   1      33.285  27.595  24.781  1.00  0.00     0.117 C 
BRANCH   2   3
ATOM      3  N   UNL A   1      33.809  26.641  23.831  1.00  0.00    -0.354 N 
ATOM      4  C   UNL A   1      33.358  25.420  23.435  1.00  0.00     0.242 C 
ATOM      5  O   UNL A   1      33.769  25.039  22.329  1.00  0.00    -0.273 OA
ATOM      6  H   UNL A   1      34.643  26.925  23.392  1.00  0.00     0.163 HD
BRANCH   4   7
ATOM      7  C   UNL A   1      32.345  24.532  24.211  1.00  0.00     0.174 C 
ATOM      8  N   UNL A   1      32.255  24.619  25.686  1.00  0.00    -0.326 N 
ATOM      9  C   UNL A   1      31.233  25.502  26.256  1.00  0.00     0.120 C 
ATOM     10  C   UNL A   1      29.951  25.729  25.441  1.00  0.00     0.022 C 
ATOM     11  C   UNL A   1      30.979  24.489  23.516  1.00  0.00     0.035 C 
ATOM     12  C   UNL A   1      30.071  25.630  23.924  1.00  0.00     0.004 C 
BRANCH   8  13
ATOM     13  C   UNL A   1      32.450  23.425  26.394  1.00  0.00     0.260 C 
ATOM     14  O   UNL A   1      31.821  23.275  27.442  1.00  0.00    -0.269 OA
BRANCH  13  15
ATOM     15  C   UNL A   1      33.402  22.344  25.870  1.00  0.00     0.111 A 
ATOM     16  C   UNL A   1      36.955  21.447  24.780  1.00  0.00     0.069 C 
ATOM     17  C   UNL A   1      35.471  21.314  25.082  1.00  0.00     0.062 A 
ATOM     18  N   UNL A   1      34.923  20.228  24.657  1.00  0.00    -0.175 NA
ATOM     19  C   UNL A   1      34.752  22.403  25.816  1.00  0.00    -0.010 A 
ATOM     20  N   UNL A   1      33.589  20.079  24.851  1.00  0.00    -0.232 N 
ATOM     21  C   UNL A   1      35.650  23.431  26.409  1.00  0.00     0.047 C 
ATOM     22  C   UNL A   1      33.062  18.790  24.427  1.00  0.00     0.178 C 
ATOM     23  C   UNL A   1      32.753  21.060  25.375  1.00  0.00     0.279 A 
ATOM     24  O   UNL A   1      31.543  20.868  25.480  1.00  0.00    -0.267 OA
ENDBRANCH  13  15
ENDBRANCH   8  13
ENDBRANCH   4   7
ENDBRANCH   2   3
ENDBRANCH   1   2
BRANCH   1  25
ATOM     25  C   UNL A   1      33.347  28.265  27.236  1.00  0.00     0.118 C 
BRANCH  25  26
ATOM     26  N   UNL A   1      33.337  29.716  27.377  1.00  0.00    -0.352 N 
ATOM     27  C   UNL A   1      34.254  30.576  27.936  1.00  0.00     0.251 C 
ATOM     28  H   UNL A   1      32.537  30.155  27.010  1.00  0.00     0.163 HD
ATOM     29  O   UNL A   1      33.909  31.725  28.195  1.00  0.00    -0.269 OA
BRANCH  27  30
ATOM     30  C   UNL A   1      35.630  30.127  28.234  1.00  0.00     0.039 A 
ATOM     31  C   UNL A   1      36.599  30.162  27.226  1.00  0.00     0.014 A 
ATOM     32  C   UNL A   1      35.962  29.627  29.493  1.00  0.00     0.014 A 
ATOM     33  C   UNL A   1      37.906  29.758  27.506  1.00  0.00     0.010 A 
ATOM     34  C   UNL A   1      37.284  29.348  29.806  1.00  0.00     0.010 A 
ATOM     35  C   UNL A   1      38.267  29.382  28.811  1.00  0.00    -0.014 A 
BRANCH  35  36
ATOM     36  C   UNL A   1      39.651  28.969  29.151  1.00  0.00     0.031 A 
ATOM     37  C   UNL A   1      40.545  29.908  29.919  1.00  0.00     0.074 A 
ATOM     38  C   UNL A   1      40.117  27.777  28.731  1.00  0.00     0.049 A 
ATOM     39  N   UNL A   1      41.793  29.752  30.275  1.00  0.00    -0.248 NA
ATOM     40  C   UNL A   1      39.968  31.206  30.312  1.00  0.00     0.031 C 
ATOM     41  C   UNL A   1      39.354  26.794  27.958  1.00  0.00     0.029 A 
ATOM     42  N   UNL A   1      41.341  27.183  28.907  1.00  0.00    -0.354 N 
ATOM     43  C   UNL A   1      42.147  30.927  30.928  1.00  0.00     0.074 A 
ATOM     44  C   UNL A   1      41.015  31.820  30.840  1.00  0.00     0.031 C 
ATOM     45  C   UNL A   1      40.106  25.696  27.781  1.00  0.00     0.029 A 
ATOM     46  C   UNL A   1      41.417  25.914  28.383  1.00  0.00     0.049 A 
ATOM     47  H   UNL A   1      42.092  27.624  29.365  1.00  0.00     0.167 HD
ATOM     48  C   UNL A   1      43.296  31.225  31.580  1.00  0.00     0.031 A 
ATOM     49  C   UNL A   1      42.427  25.023  28.398  1.00  0.00     0.031 A 
ATOM     50  C   UNL A   1      44.418  30.333  31.666  1.00  0.00     0.049 A 
ATOM     51  C   UNL A   1      43.715  25.392  29.079  1.00  0.00     0.074 A 
ATOM     52  C   UNL A   1      45.624  30.525  32.314  1.00  0.00     0.029 A 
ATOM     53  N   UNL A   1      44.470  29.074  31.085  1.00  0.00    -0.354 N 
ATOM     54  N   UNL A   1      44.020  26.496  29.719  1.00  0.00    -0.248 NA
ATOM     55  C   UNL A   1      44.793  24.395  29.042  1.00  0.00     0.031 C 
ATOM     56  C   UNL A   1      46.425  29.402  32.080  1.00  0.00     0.029 A 
ATOM     57  C   UNL A   1      45.695  28.485  31.341  1.00  0.00     0.049 A 
ATOM     58  H   UNL A   1      43.741  28.660  30.567  1.00  0.00     0.167 HD
ATOM     59  C   UNL A   1      45.318  26.318  30.184  1.00  0.00     0.074 A 
ATOM     60  C   UNL A   1      45.734  24.995  29.761  1.00  0.00     0.031 C 
ATOM     61  C   UNL A   1      46.093  27.170  30.900  1.00  0.00     0.031 A 
BRANCH  48  62
ATOM     62  C   UNL A   1      43.373  32.571  32.254  1.00  0.00    -0.014 A 
ATOM     63  C   UNL A   1      42.968  32.731  33.593  1.00  0.00     0.010 A 
ATOM     64  C   UNL A   1      43.851  33.690  31.549  1.00  0.00     0.010 A 
ATOM     65  C   UNL A   1      42.977  33.993  34.192  1.00  0.00     0.020 A 
ATOM     66  C   UNL A   1      43.895  34.949  32.156  1.00  0.00     0.020 A 
ATOM     67  C   UNL A   1      43.435  35.095  33.466  1.00  0.00     0.054 A 
BRANCH  67  68
ATOM     68  S   UNL A   1      43.420  36.723  34.267  1.00  0.00     0.124 S 
ATOM     69  O   UNL A   1      42.114  36.724  34.921  1.00  0.00    -0.237 OA
ATOM     70  O   UNL A   1      44.570  36.646  35.163  1.00  0.00    -0.237 OA
ATOM     71  O   UNL A   1      43.560  37.659  33.155  1.00  0.00    -0.744 OA
ENDBRANCH  67  68
ENDBRANCH  48  62
BRANCH  49  72
ATOM     72  C   UNL A   1      42.221  23.673  27.802  1.00  0.00    -0.014 A 
ATOM     73  C   UNL A   1      42.728  23.388  26.523  1.00  0.00     0.010 A 
ATOM     74  C   UNL A   1      41.585  22.651  28.530  1.00  0.00     0.010 A 
ATOM     75  C   UNL A   1      42.613  22.103  25.985  1.00  0.00     0.020 A 
ATOM     76  C   UNL A   1      41.490  21.358  28.005  1.00  0.00     0.020 A 
ATOM     77  C   UNL A   1      42.006  21.093  26.735  1.00  0.00     0.054 A 
BRANCH  77  78
ATOM     78  S   UNL A   1      41.954  19.414  26.049  1.00  0.00     0.124 S 
ATOM     79  O   UNL A   1      42.502  18.619  27.144  1.00  0.00    -0.237 OA
ATOM     80  O   UNL A   1      40.529  19.230  25.785  1.00  0.00    -0.237 OA
ATOM     81  O   UNL A   1      42.795  19.504  24.858  1.00  0.00    -0.744 OA
ENDBRANCH  77  78
ENDBRANCH  49  72
BRANCH  61  82
ATOM     82  C   UNL A   1      47.470  26.703  31.286  1.00  0.00    -0.014 A 
ATOM     83  C   UNL A   1      48.587  27.000  30.486  1.00  0.00     0.010 A 
ATOM     84  C   UNL A   1      47.660  26.038  32.512  1.00  0.00     0.010 A 
ATOM     85  C   UNL A   1      49.868  26.629  30.899  1.00  0.00     0.020 A 
ATOM     86  C   UNL A   1      48.943  25.691  32.941  1.00  0.00     0.020 A 
ATOM     87  C   UNL A   1      50.039  25.983  32.128  1.00  0.00     0.054 A 
BRANCH  87  88
ATOM     88  S   UNL A   1      51.721  25.576  32.667  1.00  0.00     0.124 S 
ATOM     89  O   UNL A   1      51.527  24.287  33.326  1.00  0.00    -0.237 OA
ATOM     90  O   UNL A   1      52.457  25.533  31.406  1.00  0.00    -0.237 OA
ATOM     91  O   UNL A   1      52.079  26.680  33.554  1.00  0.00    -0.744 OA
ENDBRANCH  87  88
ENDBRANCH  61  82
ENDBRANCH  35  36
ENDBRANCH  27  30
ENDBRANCH  25  26
ENDBRANCH   1  25
TORSDOF 15
ENDMDL
MODEL 3
REMARK VINA RESULT:     -11.7      1.184      1.830
REMARK SMILES Cc1nn(C)c(=O)c(C(=O)N2CCCC[C@H]2C(=O)NCCCNC(=O)c2ccc(-c3c4nc(c(-c5ccc(S(=O)(=O)[O-])cc5)c5ccc([nH]5)c(-c5ccc(S(=O)(=O)[O-])cc5)c5nc(c(-c6ccc(S(=O)(=O)[O-])cc6)c6ccc3[nH]6)C=C5)C=C4)cc2)c1C
REMARK SMILES IDX 21 1 20 2 19 3 17 4 18 5 16 7 11 8 12 9 13 10 15 11 14 12
REMARK SMILES IDX 9 13 10 14 8 15 1 16 2 17 3 18 86 19 4 20 87 21 5 22 6 23
REMARK SMILES IDX 7 24 22 25 23 26 24 27 25 29 26 30 27 31 85 32 28 33 84 34
REMARK SMILES IDX 29 35 30 36 31 37 78 38 32 39 83 40 77 41 79 42 33 43 82 44
REMARK SMILES IDX 76 45 75 46 34 48 64 49 45 50 63 51 46 52 49 53 62 54 80 55
REMARK SMILES IDX 47 56 48 57 61 59 81 60 50 61 35 62 36 63 44 64 37 65 43 66
REMARK SMILES IDX 38 67 39 68 40 69 41 70 42 71 65 72 66 73 74 74 67 75 73 76
REMARK SMILES IDX 68 77 69 78 70 79 71 80 72 81 51 82 52 83 60 84 53 85 59 86
REMARK SMILES IDX 54 87 55 88 56 89 57 90 58 91
REMARK H PARENT 19 6 23 28 79 47 49 58
REMARK Flexibility Score: inf
ROOT
ATOM      1  C   UNL A   1      36.633  23.549  23.858  1.00  0.00     0.042 C 
ENDROOT
BRANCH   1   2
ATOM      2  C   UNL A   1      35.312  22.929  23.434  1.00  0.00     0.117 C 
BRANCH   2   3
ATOM      3  N   UNL A   1      34.544  22.322  24.497  1.00  0.00    -0.354 N 
ATOM      4  C   UNL A   1      33.265  22.521  24.916  1.00  0.00     0.242 C 
ATOM      5  O   UNL A   1      32.765  21.581  25.550  1.00  0.00    -0.273 OA
ATOM      6  H   UNL A   1      35.035  21.641  25.011  1.00  0.00     0.163 HD
BRANCH   4   7
ATOM      7  C   UNL A   1      32.395  23.772  24.607  1.00  0.00     0.174 C 
ATOM      8  N   UNL A   1      32.845  25.117  25.030  1.00  0.00    -0.326 N 
ATOM      9  C   UNL A   1      33.569  25.933  24.052  1.00  0.00     0.120 C 
ATOM     10  C   UNL A   1      33.251  25.715  22.565  1.00  0.00     0.022 C 
ATOM     11  C   UNL A   1      31.836  23.735  23.180  1.00  0.00     0.035 C 
ATOM     12  C   UNL A   1      32.786  24.322  22.156  1.00  0.00     0.004 C 
BRANCH   8  13
ATOM     13  C   UNL A   1      31.967  25.838  25.851  1.00  0.00     0.260 C 
ATOM     14  O   UNL A   1      31.538  25.274  26.859  1.00  0.00    -0.269 OA
BRANCH  13  15
ATOM     15  C   UNL A   1      31.572  27.279  25.510  1.00  0.00     0.111 A 
ATOM     16  C   UNL A   1      29.843  29.638  23.049  1.00  0.00     0.069 C 
ATOM     17  C   UNL A   1      30.616  29.147  24.262  1.00  0.00     0.062 A 
ATOM     18  N   UNL A   1      31.166  30.073  24.969  1.00  0.00    -0.175 NA
ATOM     19  C   UNL A   1      30.701  27.682  24.557  1.00  0.00    -0.010 A 
ATOM     20  N   UNL A   1      31.914  29.690  26.033  1.00  0.00    -0.232 N 
ATOM     21  C   UNL A   1      29.784  26.843  23.739  1.00  0.00     0.047 C 
ATOM     22  C   UNL A   1      32.426  30.793  26.834  1.00  0.00     0.178 C 
ATOM     23  C   UNL A   1      32.219  28.370  26.350  1.00  0.00     0.279 A 
ATOM     24  O   UNL A   1      32.942  28.102  27.309  1.00  0.00    -0.267 OA
ENDBRANCH  13  15
ENDBRANCH   8  13
ENDBRANCH   4   7
ENDBRANCH   2   3
ENDBRANCH   1   2
BRANCH   1  25
ATOM     25  C   UNL A   1      36.827  23.617  25.360  1.00  0.00     0.118 C 
BRANCH  25  26
ATOM     26  N   UNL A   1      37.815  22.655  25.833  1.00  0.00    -0.352 N 
ATOM     27  C   UNL A   1      39.032  22.837  26.446  1.00  0.00     0.251 C 
ATOM     28  H   UNL A   1      37.568  21.714  25.687  1.00  0.00     0.163 HD
ATOM     29  O   UNL A   1      39.817  21.895  26.500  1.00  0.00    -0.269 OA
BRANCH  27  30
ATOM     30  C   UNL A   1      39.402  24.147  27.023  1.00  0.00     0.039 A 
ATOM     31  C   UNL A   1      39.016  24.456  28.331  1.00  0.00     0.014 A 
ATOM     32  C   UNL A   1      40.090  25.093  26.264  1.00  0.00     0.014 A 
ATOM     33  C   UNL A   1      39.379  25.684  28.889  1.00  0.00     0.010 A 
ATOM     34  C   UNL A   1      40.560  26.256  26.859  1.00  0.00     0.010 A 
ATOM     35  C   UNL A   1      40.187  26.579  28.168  1.00  0.00    -0.014 A 
BRANCH  35  36
ATOM     36  C   UNL A   1      40.611  27.882  28.736  1.00  0.00     0.031 A 
ATOM     37  C   UNL A   1      42.041  28.081  29.166  1.00  0.00     0.074 A 
ATOM     38  C   UNL A   1      39.706  28.864  28.910  1.00  0.00     0.049 A 
ATOM     39  N   UNL A   1      42.598  29.125  29.722  1.00  0.00    -0.248 NA
ATOM     40  C   UNL A   1      42.960  26.945  28.971  1.00  0.00     0.031 C 
ATOM     41  C   UNL A   1      38.287  28.780  28.557  1.00  0.00     0.029 A 
ATOM     42  N   UNL A   1      39.847  30.132  29.415  1.00  0.00    -0.354 N 
ATOM     43  C   UNL A   1      43.924  28.770  29.944  1.00  0.00     0.074 A 
ATOM     44  C   UNL A   1      44.066  27.388  29.548  1.00  0.00     0.031 C 
ATOM     45  C   UNL A   1      37.703  29.965  28.799  1.00  0.00     0.029 A 
ATOM     46  C   UNL A   1      38.692  30.876  29.367  1.00  0.00     0.049 A 
ATOM     47  H   UNL A   1      40.696  30.475  29.777  1.00  0.00     0.167 HD
ATOM     48  C   UNL A   1      44.945  29.536  30.398  1.00  0.00     0.031 A 
ATOM     49  C   UNL A   1      38.460  32.152  29.729  1.00  0.00     0.031 A 
ATOM     50  C   UNL A   1      44.798  30.909  30.789  1.00  0.00     0.049 A 
ATOM     51  C   UNL A   1      39.593  32.970  30.283  1.00  0.00     0.074 A 
ATOM     52  C   UNL A   1      45.766  31.783  31.248  1.00  0.00     0.029 A 
ATOM     53  N   UNL A   1      43.602  31.612  30.765  1.00  0.00    -0.354 N 
ATOM     54  N   UNL A   1      40.847  32.627  30.455  1.00  0.00    -0.248 NA
ATOM     55  C   UNL A   1      39.280  34.347  30.688  1.00  0.00     0.031 C 
ATOM     56  C   UNL A   1      45.145  32.999  31.550  1.00  0.00     0.029 A 
ATOM     57  C   UNL A   1      43.802  32.902  31.220  1.00  0.00     0.049 A 
ATOM     58  H   UNL A   1      42.737  31.245  30.467  1.00  0.00     0.167 HD
ATOM     59  C   UNL A   1      41.481  33.754  30.966  1.00  0.00     0.074 A 
ATOM     60  C   UNL A   1      40.473  34.791  31.063  1.00  0.00     0.031 C 
ATOM     61  C   UNL A   1      42.781  33.917  31.319  1.00  0.00     0.031 A 
BRANCH  48  62
ATOM     62  C   UNL A   1      46.304  28.889  30.479  1.00  0.00    -0.014 A 
ATOM     63  C   UNL A   1      46.727  28.246  31.657  1.00  0.00     0.010 A 
ATOM     64  C   UNL A   1      47.171  28.923  29.373  1.00  0.00     0.010 A 
ATOM     65  C   UNL A   1      48.013  27.708  31.751  1.00  0.00     0.020 A 
ATOM     66  C   UNL A   1      48.447  28.354  29.450  1.00  0.00     0.020 A 
ATOM     67  C   UNL A   1      48.867  27.771  30.648  1.00  0.00     0.054 A 
BRANCH  67  68
ATOM     68  S   UNL A   1      50.535  27.076  30.805  1.00  0.00     0.124 S 
ATOM     69  O   UNL A   1      50.292  25.895  31.630  1.00  0.00    -0.237 OA
ATOM     70  O   UNL A   1      50.899  26.807  29.417  1.00  0.00    -0.237 OA
ATOM     71  O   UNL A   1      51.296  28.141  31.453  1.00  0.00    -0.744 OA
ENDBRANCH  67  68
ENDBRANCH  48  62
BRANCH  49  72
ATOM     72  C   UNL A   1      37.110  32.742  29.509  1.00  0.00    -0.014 A 
ATOM     73  C   UNL A   1      36.245  32.937  30.600  1.00  0.00     0.010 A 
ATOM     74  C   UNL A   1      36.709  33.173  28.231  1.00  0.00     0.010 A 
ATOM     75  C   UNL A   1      35.008  33.563  30.421  1.00  0.00     0.020 A 
ATOM     76  C   UNL A   1      35.482  33.821  28.053  1.00  0.00     0.020 A 
ATOM     77  C   UNL A   1      34.640  34.013  29.149  1.00  0.00     0.054 A 
BRANCH  77  78
ATOM     78  S   UNL A   1      33.070  34.903  28.965  1.00  0.00     0.124 S 
ATOM     79  O   UNL A   1      32.355  34.067  28.005  1.00  0.00    -0.237 OA
ATOM     80  O   UNL A   1      32.545  34.893  30.328  1.00  0.00    -0.237 OA
ATOM     81  O   UNL A   1      33.477  36.217  28.471  1.00  0.00    -0.744 OA
ENDBRANCH  77  78
ENDBRANCH  49  72
BRANCH  61  82
ATOM     82  C   UNL A   1      43.199  35.267  31.835  1.00  0.00    -0.014 A 
ATOM     83  C   UNL A   1      43.722  36.243  30.970  1.00  0.00     0.010 A 
ATOM     84  C   UNL A   1      42.978  35.593  33.186  1.00  0.00     0.010 A 
ATOM     85  C   UNL A   1      44.029  37.518  31.450  1.00  0.00     0.020 A 
ATOM     86  C   UNL A   1      43.258  36.876  33.663  1.00  0.00     0.020 A 
ATOM     87  C   UNL A   1      43.788  37.828  32.792  1.00  0.00     0.054 A 
BRANCH  87  88
ATOM     88  S   UNL A   1      44.134  39.512  33.368  1.00  0.00     0.124 S 
ATOM     89  O   UNL A   1      44.429  39.297  34.782  1.00  0.00    -0.237 OA
ATOM     90  O   UNL A   1      45.272  39.904  32.540  1.00  0.00    -0.237 OA
ATOM     91  O   UNL A   1      42.894  40.235  33.094  1.00  0.00    -0.744 OA
ENDBRANCH  87  88
ENDBRANCH  61  82
ENDBRANCH  35  36
ENDBRANCH  27  30
ENDBRANCH  25  26
ENDBRANCH   1  25
TORSDOF 15
ENDMDL
