MODEL 1
REMARK VINA RESULT:     -10.5      0.000      0.000
REMARK SMILES CN1C(=O)Cc2cc([C@@H](O)CCCCC(=O)NCCCNC(=O)c3ccc(-c4c5nc(c(-c6ccc(S(=O)(=O)[O-])cc6)c6ccc([nH]6)c(-c6ccc(S(=O)(=O)[O-])cc6)c6nc(c(-c7ccc(S(=O)(=O)[O-])cc7)c7ccc4[nH]7)C=C6)C=C5)cc3)ccc21
REMARK SMILES IDX 18 1 17 2 15 3 16 4 14 6 13 7 12 8 11 9 9 10 8 11 1 12 2 13
REMARK SMILES IDX 3 14 86 15 4 16 5 17 6 18 85 19 7 20 84 21 10 22 19 24 20 25
REMARK SMILES IDX 21 26 22 27 23 29 24 30 25 31 83 32 26 33 82 34 27 35 28 36
REMARK SMILES IDX 29 37 76 38 30 39 81 40 75 41 77 42 31 43 80 44 74 45 73 46
REMARK SMILES IDX 32 48 62 49 43 50 61 51 44 52 47 53 60 54 78 55 45 56 46 57
REMARK SMILES IDX 59 59 79 60 48 61 33 62 34 63 42 64 35 65 41 66 36 67 37 68
REMARK SMILES IDX 38 69 39 70 40 71 63 72 64 73 72 74 65 75 71 76 66 77 67 78
REMARK SMILES IDX 68 79 69 80 70 81 49 82 50 83 58 84 51 85 57 86 52 87 53 88
REMARK SMILES IDX 54 89 55 90 56 91
REMARK H PARENT 17 5 10 23 21 28 77 47 47 58
REMARK Flexibility Score: inf
ROOT
ATOM      1  C   UNL A   1      31.719  27.553  26.002  1.00  0.00     0.117 C 
ENDROOT
BRANCH   1   2
ATOM      2  N   UNL A   1      31.462  26.156  25.705  1.00  0.00    -0.356 N 
ATOM      3  C   UNL A   1      30.464  25.572  24.987  1.00  0.00     0.219 C 
ATOM      4  O   UNL A   1      30.439  24.341  24.924  1.00  0.00    -0.275 OA
ATOM      5  H   UNL A   1      32.118  25.527  26.083  1.00  0.00     0.163 HD
BRANCH   3   6
ATOM      6  C   UNL A   1      29.429  26.404  24.252  1.00  0.00     0.100 C 
BRANCH   6   7
ATOM      7  C   UNL A   1      29.996  27.313  23.159  1.00  0.00     0.010 C 
BRANCH   7   8
ATOM      8  C   UNL A   1      31.011  26.679  22.214  1.00  0.00     0.004 C 
BRANCH   8   9
ATOM      9  C   UNL A   1      32.473  27.104  22.421  1.00  0.00     0.037 C 
BRANCH   9  10
ATOM     10  C   UNL A   1      33.501  26.128  21.849  1.00  0.00     0.144 C 
BRANCH  10  11
ATOM     11  C   UNL A   1      33.594  24.880  22.699  1.00  0.00    -0.019 A 
ATOM     12  C   UNL A   1      33.818  21.279  26.459  1.00  0.00     0.153 C 
ATOM     13  N   UNL A   1      33.310  21.545  25.141  1.00  0.00    -0.315 N 
ATOM     14  C   UNL A   1      32.530  20.651  24.402  1.00  0.00     0.231 C 
ATOM     15  C   UNL A   1      33.517  22.732  24.440  1.00  0.00     0.047 A 
ATOM     16  O   UNL A   1      32.164  19.539  24.730  1.00  0.00    -0.274 OA
ATOM     17  C   UNL A   1      32.194  21.329  23.073  1.00  0.00     0.138 C 
ATOM     18  C   UNL A   1      32.889  22.649  23.199  1.00  0.00    -0.014 A 
ATOM     19  C   UNL A   1      34.203  23.863  24.838  1.00  0.00     0.027 A 
ATOM     20  C   UNL A   1      32.927  23.704  22.311  1.00  0.00     0.012 A 
ATOM     21  C   UNL A   1      34.241  24.942  23.954  1.00  0.00     0.008 A 
ENDBRANCH  10  11
BRANCH  10  22
ATOM     22  O   UNL A   1      33.113  25.791  20.518  1.00  0.00    -0.388 OA
ATOM     23  H   UNL A   1      33.126  26.589  19.965  1.00  0.00     0.211 HD
ENDBRANCH  10  22
ENDBRANCH   9  10
ENDBRANCH   8   9
ENDBRANCH   7   8
ENDBRANCH   6   7
ENDBRANCH   3   6
ENDBRANCH   1   2
BRANCH   1  24
ATOM     24  C   UNL A   1      33.186  27.909  25.772  1.00  0.00     0.042 C 
BRANCH  24  25
ATOM     25  C   UNL A   1      33.933  28.293  27.036  1.00  0.00     0.118 C 
BRANCH  25  26
ATOM     26  N   UNL A   1      33.709  29.678  27.410  1.00  0.00    -0.352 N 
ATOM     27  C   UNL A   1      34.525  30.548  28.092  1.00  0.00     0.251 C 
ATOM     28  H   UNL A   1      32.840  30.051  27.133  1.00  0.00     0.163 HD
ATOM     29  O   UNL A   1      34.066  31.619  28.477  1.00  0.00    -0.269 OA
BRANCH  27  30
ATOM     30  C   UNL A   1      35.935  30.195  28.386  1.00  0.00     0.039 A 
ATOM     31  C   UNL A   1      36.267  29.765  29.675  1.00  0.00     0.014 A 
ATOM     32  C   UNL A   1      36.936  30.307  27.418  1.00  0.00     0.014 A 
ATOM     33  C   UNL A   1      37.585  29.405  29.971  1.00  0.00     0.010 A 
ATOM     34  C   UNL A   1      38.220  29.842  27.681  1.00  0.00     0.010 A 
ATOM     35  C   UNL A   1      38.567  29.411  28.968  1.00  0.00    -0.014 A 
BRANCH  35  36
ATOM     36  C   UNL A   1      39.968  29.003  29.254  1.00  0.00     0.031 A 
ATOM     37  C   UNL A   1      40.925  29.979  29.887  1.00  0.00     0.074 A 
ATOM     38  C   UNL A   1      40.393  27.777  28.889  1.00  0.00     0.049 A 
ATOM     39  N   UNL A   1      42.191  29.822  30.180  1.00  0.00    -0.248 NA
ATOM     40  C   UNL A   1      40.402  31.318  30.201  1.00  0.00     0.031 C 
ATOM     41  C   UNL A   1      39.577  26.762  28.220  1.00  0.00     0.029 A 
ATOM     42  N   UNL A   1      41.621  27.179  29.024  1.00  0.00    -0.354 N 
ATOM     43  C   UNL A   1      42.617  31.044  30.687  1.00  0.00     0.074 A 
ATOM     44  C   UNL A   1      41.493  31.950  30.603  1.00  0.00     0.031 C 
ATOM     45  C   UNL A   1      40.314  25.657  28.034  1.00  0.00     0.029 A 
ATOM     46  C   UNL A   1      41.666  25.898  28.527  1.00  0.00     0.049 A 
ATOM     47  H   UNL A   1      42.395  27.624  29.439  1.00  0.00     0.167 HD
ATOM     48  C   UNL A   1      43.827  31.380  31.196  1.00  0.00     0.031 A 
ATOM     49  C   UNL A   1      42.683  25.016  28.466  1.00  0.00     0.031 A 
ATOM     50  C   UNL A   1      44.939  30.470  31.279  1.00  0.00     0.049 A 
ATOM     51  C   UNL A   1      44.019  25.403  29.038  1.00  0.00     0.074 A 
ATOM     52  C   UNL A   1      46.186  30.684  31.838  1.00  0.00     0.029 A 
ATOM     53  N   UNL A   1      44.940  29.176  30.777  1.00  0.00    -0.354 N 
ATOM     54  N   UNL A   1      44.380  26.537  29.593  1.00  0.00    -0.248 NA
ATOM     55  C   UNL A   1      45.081  24.390  28.992  1.00  0.00     0.031 C 
ATOM     56  C   UNL A   1      46.965  29.543  31.611  1.00  0.00     0.029 A 
ATOM     57  C   UNL A   1      46.179  28.591  30.980  1.00  0.00     0.049 A 
ATOM     58  H   UNL A   1      44.174  28.738  30.341  1.00  0.00     0.167 HD
ATOM     59  C   UNL A   1      45.704  26.366  29.983  1.00  0.00     0.074 A 
ATOM     60  C   UNL A   1      46.073  25.013  29.614  1.00  0.00     0.031 C 
ATOM     61  C   UNL A   1      46.536  27.247  30.594  1.00  0.00     0.031 A 
BRANCH  48  62
ATOM     62  C   UNL A   1      44.009  32.801  31.674  1.00  0.00    -0.014 A 
ATOM     63  C   UNL A   1      44.498  33.808  30.820  1.00  0.00     0.010 A 
ATOM     64  C   UNL A   1      43.688  33.134  33.003  1.00  0.00     0.010 A 
ATOM     65  C   UNL A   1      44.730  35.098  31.304  1.00  0.00     0.020 A 
ATOM     66  C   UNL A   1      43.884  34.434  33.481  1.00  0.00     0.020 A 
ATOM     67  C   UNL A   1      44.431  35.400  32.636  1.00  0.00     0.054 A 
BRANCH  67  68
ATOM     68  S   UNL A   1      44.761  37.077  33.244  1.00  0.00     0.124 S 
ATOM     69  O   UNL A   1      43.415  37.549  33.563  1.00  0.00    -0.237 OA
ATOM     70  O   UNL A   1      45.630  36.836  34.393  1.00  0.00    -0.237 OA
ATOM     71  O   UNL A   1      45.400  37.738  32.109  1.00  0.00    -0.744 OA
ENDBRANCH  67  68
ENDBRANCH  48  62
BRANCH  49  72
ATOM     72  C   UNL A   1      42.453  23.675  27.857  1.00  0.00    -0.014 A 
ATOM     73  C   UNL A   1      42.741  23.444  26.501  1.00  0.00     0.010 A 
ATOM     74  C   UNL A   1      42.004  22.601  28.651  1.00  0.00     0.010 A 
ATOM     75  C   UNL A   1      42.576  22.169  25.949  1.00  0.00     0.020 A 
ATOM     76  C   UNL A   1      41.870  21.319  28.111  1.00  0.00     0.020 A 
ATOM     77  C   UNL A   1      42.149  21.112  26.759  1.00  0.00     0.054 A 
BRANCH  77  78
ATOM     78  S   UNL A   1      41.990  19.461  26.021  1.00  0.00     0.124 S 
ATOM     79  O   UNL A   1      42.835  19.576  24.836  1.00  0.00    -0.237 OA
ATOM     80  O   UNL A   1      42.506  18.594  27.079  1.00  0.00    -0.237 OA
ATOM     81  O   UNL A   1      40.560  19.335  25.750  1.00  0.00    -0.744 OA
ENDBRANCH  77  78
ENDBRANCH  49  72
BRANCH  61  82
ATOM     82  C   UNL A   1      47.927  26.771  30.927  1.00  0.00    -0.014 A 
ATOM     83  C   UNL A   1      49.009  27.002  30.059  1.00  0.00     0.010 A 
ATOM     84  C   UNL A   1      48.164  26.138  32.160  1.00  0.00     0.010 A 
ATOM     85  C   UNL A   1      50.295  26.577  30.403  1.00  0.00     0.020 A 
ATOM     86  C   UNL A   1      49.454  25.740  32.523  1.00  0.00     0.020 A 
ATOM     87  C   UNL A   1      50.509  25.950  31.635  1.00  0.00     0.054 A 
BRANCH  87  88
ATOM     88  S   UNL A   1      52.195  25.449  32.078  1.00  0.00     0.124 S 
ATOM     89  O   UNL A   1      52.045  24.007  32.257  1.00  0.00    -0.237 OA
ATOM     90  O   UNL A   1      52.968  25.859  30.909  1.00  0.00    -0.237 OA
ATOM     91  O   UNL A   1      52.472  26.202  33.298  1.00  0.00    -0.744 OA
ENDBRANCH  87  88
ENDBRANCH  61  82
ENDBRANCH  35  36
ENDBRANCH  27  30
ENDBRANCH  25  26
ENDBRANCH  24  25
ENDBRANCH   1  24
TORSDOF 19
ENDMDL
MODEL 2
REMARK VINA RESULT:     -10.5      2.511      9.240
REMARK SMILES CN1C(=O)Cc2cc([C@@H](O)CCCCC(=O)NCCCNC(=O)c3ccc(-c4c5nc(c(-c6ccc(S(=O)(=O)[O-])cc6)c6ccc([nH]6)c(-c6ccc(S(=O)(=O)[O-])cc6)c6nc(c(-c7ccc(S(=O)(=O)[O-])cc7)c7ccc4[nH]7)C=C6)C=C5)cc3)ccc21
REMARK SMILES IDX 18 1 17 2 15 3 16 4 14 6 13 7 12 8 11 9 9 10 8 11 1 12 2 13
REMARK SMILES IDX 3 14 86 15 4 16 5 17 6 18 85 19 7 20 84 21 10 22 19 24 20 25
REMARK SMILES IDX 21 26 22 27 23 29 24 30 25 31 83 32 26 33 82 34 27 35 28 36
REMARK SMILES IDX 29 37 76 38 30 39 81 40 75 41 77 42 31 43 80 44 74 45 73 46
REMARK SMILES IDX 32 48 62 49 43 50 61 51 44 52 47 53 60 54 78 55 45 56 46 57
REMARK SMILES IDX 59 59 79 60 48 61 33 62 34 63 42 64 35 65 41 66 36 67 37 68
REMARK SMILES IDX 38 69 39 70 40 71 63 72 64 73 72 74 65 75 71 76 66 77 67 78
REMARK SMILES IDX 68 79 69 80 70 81 49 82 50 83 58 84 51 85 57 86 52 87 53 88
REMARK SMILES IDX 54 89 55 90 56 91
REMARK H PARENT 17 5 10 23 21 28 77 47 47 58
REMARK Flexibility Score: inf
ROOT
ATOM      1  C   UNL A   1      34.979  22.197  24.244  1.00  0.00     0.117 C 
ENDROOT
BRANCH   1   2
ATOM      2  N   UNL A   1      33.987  21.204  24.613  1.00  0.00    -0.356 N 
ATOM      3  C   UNL A   1      32.647  21.157  24.374  1.00  0.00     0.219 C 
ATOM      4  O   UNL A   1      32.007  20.216  24.845  1.00  0.00    -0.275 OA
ATOM      5  H   UNL A   1      34.341  20.436  25.117  1.00  0.00     0.163 HD
BRANCH   3   6
ATOM      6  C   UNL A   1      31.961  22.210  23.523  1.00  0.00     0.100 C 
BRANCH   6   7
ATOM      7  C   UNL A   1      31.157  23.247  24.311  1.00  0.00     0.010 C 
BRANCH   7   8
ATOM      8  C   UNL A   1      31.515  24.708  24.062  1.00  0.00     0.004 C 
BRANCH   8   9
ATOM      9  C   UNL A   1      31.643  25.123  22.589  1.00  0.00     0.037 C 
BRANCH   9  10
ATOM     10  C   UNL A   1      32.808  26.071  22.299  1.00  0.00     0.144 C 
BRANCH  10  11
ATOM     11  C   UNL A   1      32.751  27.288  23.196  1.00  0.00    -0.019 A 
ATOM     12  C   UNL A   1      31.485  31.278  26.298  1.00  0.00     0.153 C 
ATOM     13  N   UNL A   1      32.476  30.264  26.064  1.00  0.00    -0.315 N 
ATOM     14  C   UNL A   1      33.608  30.072  26.861  1.00  0.00     0.231 C 
ATOM     15  C   UNL A   1      32.427  29.338  25.023  1.00  0.00     0.047 A 
ATOM     16  O   UNL A   1      33.939  30.701  27.846  1.00  0.00    -0.274 OA
ATOM     17  C   UNL A   1      34.384  28.891  26.273  1.00  0.00     0.138 C 
ATOM     18  C   UNL A   1      33.545  28.509  25.093  1.00  0.00    -0.014 A 
ATOM     19  C   UNL A   1      31.461  29.182  24.049  1.00  0.00     0.027 A 
ATOM     20  C   UNL A   1      33.732  27.489  24.183  1.00  0.00     0.012 A 
ATOM     21  C   UNL A   1      31.631  28.147  23.129  1.00  0.00     0.008 A 
ENDBRANCH  10  11
BRANCH  10  22
ATOM     22  O   UNL A   1      34.029  25.362  22.504  1.00  0.00    -0.388 OA
ATOM     23  H   UNL A   1      33.855  24.561  23.023  1.00  0.00     0.211 HD
ENDBRANCH  10  22
ENDBRANCH   9  10
ENDBRANCH   8   9
ENDBRANCH   7   8
ENDBRANCH   6   7
ENDBRANCH   3   6
ENDBRANCH   1   2
BRANCH   1  24
ATOM     24  C   UNL A   1      34.997  23.358  25.234  1.00  0.00     0.042 C 
BRANCH  24  25
ATOM     25  C   UNL A   1      36.383  23.911  25.511  1.00  0.00     0.118 C 
BRANCH  25  26
ATOM     26  N   UNL A   1      37.385  22.864  25.614  1.00  0.00    -0.352 N 
ATOM     27  C   UNL A   1      38.671  22.922  26.093  1.00  0.00     0.251 C 
ATOM     28  H   UNL A   1      37.098  21.978  25.292  1.00  0.00     0.163 HD
ATOM     29  O   UNL A   1      39.418  21.965  25.911  1.00  0.00    -0.269 OA
BRANCH  27  30
ATOM     30  C   UNL A   1      39.166  24.128  26.799  1.00  0.00     0.039 A 
ATOM     31  C   UNL A   1      39.916  25.067  26.084  1.00  0.00     0.014 A 
ATOM     32  C   UNL A   1      38.923  24.333  28.160  1.00  0.00     0.014 A 
ATOM     33  C   UNL A   1      40.375  26.224  26.721  1.00  0.00     0.010 A 
ATOM     34  C   UNL A   1      39.282  25.535  28.762  1.00  0.00     0.010 A 
ATOM     35  C   UNL A   1      40.036  26.482  28.058  1.00  0.00    -0.014 A 
BRANCH  35  36
ATOM     36  C   UNL A   1      40.487  27.720  28.746  1.00  0.00     0.031 A 
ATOM     37  C   UNL A   1      41.863  27.788  29.355  1.00  0.00     0.074 A 
ATOM     38  C   UNL A   1      39.639  28.760  28.874  1.00  0.00     0.049 A 
ATOM     39  N   UNL A   1      42.424  28.763  30.024  1.00  0.00    -0.248 NA
ATOM     40  C   UNL A   1      42.710  26.590  29.225  1.00  0.00     0.031 C 
ATOM     41  C   UNL A   1      38.263  28.796  28.374  1.00  0.00     0.029 A 
ATOM     42  N   UNL A   1      39.807  29.984  29.469  1.00  0.00    -0.354 N 
ATOM     43  C   UNL A   1      43.671  28.287  30.413  1.00  0.00     0.074 A 
ATOM     44  C   UNL A   1      43.760  26.917  29.961  1.00  0.00     0.031 C 
ATOM     45  C   UNL A   1      37.725  29.993  28.653  1.00  0.00     0.029 A 
ATOM     46  C   UNL A   1      38.697  30.792  29.391  1.00  0.00     0.049 A 
ATOM     47  H   UNL A   1      40.644  30.260  29.910  1.00  0.00     0.167 HD
ATOM     48  C   UNL A   1      44.662  28.936  31.070  1.00  0.00     0.031 A 
ATOM     49  C   UNL A   1      38.481  32.035  29.865  1.00  0.00     0.031 A 
ATOM     50  C   UNL A   1      44.566  30.302  31.513  1.00  0.00     0.049 A 
ATOM     51  C   UNL A   1      39.593  32.742  30.589  1.00  0.00     0.074 A 
ATOM     52  C   UNL A   1      45.533  31.078  32.126  1.00  0.00     0.029 A 
ATOM     53  N   UNL A   1      43.429  31.090  31.402  1.00  0.00    -0.354 N 
ATOM     54  N   UNL A   1      40.799  32.307  30.873  1.00  0.00    -0.248 NA
ATOM     55  C   UNL A   1      39.324  34.112  31.043  1.00  0.00     0.031 C 
ATOM     56  C   UNL A   1      44.959  32.313  32.448  1.00  0.00     0.029 A 
ATOM     57  C   UNL A   1      43.659  32.334  31.968  1.00  0.00     0.049 A 
ATOM     58  H   UNL A   1      42.584  30.809  30.983  1.00  0.00     0.167 HD
ATOM     59  C   UNL A   1      41.440  33.358  31.519  1.00  0.00     0.074 A 
ATOM     60  C   UNL A   1      40.493  34.455  31.568  1.00  0.00     0.031 C 
ATOM     61  C   UNL A   1      42.700  33.412  32.022  1.00  0.00     0.031 A 
BRANCH  48  62
ATOM     62  C   UNL A   1      45.922  28.159  31.369  1.00  0.00    -0.014 A 
ATOM     63  C   UNL A   1      46.082  27.453  32.576  1.00  0.00     0.010 A 
ATOM     64  C   UNL A   1      46.965  28.137  30.425  1.00  0.00     0.010 A 
ATOM     65  C   UNL A   1      47.287  26.804  32.864  1.00  0.00     0.020 A 
ATOM     66  C   UNL A   1      48.158  27.457  30.694  1.00  0.00     0.020 A 
ATOM     67  C   UNL A   1      48.321  26.819  31.924  1.00  0.00     0.054 A 
BRANCH  67  68
ATOM     68  S   UNL A   1      49.879  25.985  32.331  1.00  0.00     0.124 S 
ATOM     69  O   UNL A   1      50.778  27.118  32.542  1.00  0.00    -0.237 OA
ATOM     70  O   UNL A   1      49.533  25.227  33.530  1.00  0.00    -0.237 OA
ATOM     71  O   UNL A   1      50.162  25.178  31.147  1.00  0.00    -0.744 OA
ENDBRANCH  67  68
ENDBRANCH  48  62
BRANCH  49  72
ATOM     72  C   UNL A   1      37.158  32.683  29.640  1.00  0.00    -0.014 A 
ATOM     73  C   UNL A   1      36.244  32.835  30.696  1.00  0.00     0.010 A 
ATOM     74  C   UNL A   1      36.833  33.214  28.376  1.00  0.00     0.010 A 
ATOM     75  C   UNL A   1      35.027  33.494  30.492  1.00  0.00     0.020 A 
ATOM     76  C   UNL A   1      35.633  33.903  28.176  1.00  0.00     0.020 A 
ATOM     77  C   UNL A   1      34.732  34.032  29.235  1.00  0.00     0.054 A 
BRANCH  77  78
ATOM     78  S   UNL A   1      33.165  34.921  29.017  1.00  0.00     0.124 S 
ATOM     79  O   UNL A   1      33.621  36.238  28.584  1.00  0.00    -0.237 OA
ATOM     80  O   UNL A   1      32.491  34.123  27.995  1.00  0.00    -0.237 OA
ATOM     81  O   UNL A   1      32.554  34.885  30.343  1.00  0.00    -0.744 OA
ENDBRANCH  77  78
ENDBRANCH  49  72
BRANCH  61  82
ATOM     82  C   UNL A   1      43.142  34.708  32.652  1.00  0.00    -0.014 A 
ATOM     83  C   UNL A   1      43.653  35.764  31.877  1.00  0.00     0.010 A 
ATOM     84  C   UNL A   1      42.982  34.892  34.038  1.00  0.00     0.010 A 
ATOM     85  C   UNL A   1      44.030  36.967  32.481  1.00  0.00     0.020 A 
ATOM     86  C   UNL A   1      43.326  36.105  34.641  1.00  0.00     0.020 A 
ATOM     87  C   UNL A   1      43.861  37.130  33.860  1.00  0.00     0.054 A 
BRANCH  87  88
ATOM     88  S   UNL A   1      44.315  38.716  34.613  1.00  0.00     0.124 S 
ATOM     89  O   UNL A   1      45.713  38.852  34.216  1.00  0.00    -0.237 OA
ATOM     90  O   UNL A   1      43.388  39.649  33.976  1.00  0.00    -0.237 OA
ATOM     91  O   UNL A   1      44.090  38.500  36.040  1.00  0.00    -0.744 OA
ENDBRANCH  87  88
ENDBRANCH  61  82
ENDBRANCH  35  36
ENDBRANCH  27  30
ENDBRANCH  25  26
ENDBRANCH  24  25
ENDBRANCH   1  24
TORSDOF 19
ENDMDL
MODEL 3
REMARK VINA RESULT:     -10.5      4.465     11.494
REMARK SMILES CN1C(=O)Cc2cc([C@@H](O)CCCCC(=O)NCCCNC(=O)c3ccc(-c4c5nc(c(-c6ccc(S(=O)(=O)[O-])cc6)c6ccc([nH]6)c(-c6ccc(S(=O)(=O)[O-])cc6)c6nc(c(-c7ccc(S(=O)(=O)[O-])cc7)c7ccc4[nH]7)C=C6)C=C5)cc3)ccc21
REMARK SMILES IDX 18 1 17 2 15 3 16 4 14 6 13 7 12 8 11 9 9 10 8 11 1 12 2 13
REMARK SMILES IDX 3 14 86 15 4 16 5 17 6 18 85 19 7 20 84 21 10 22 19 24 20 25
REMARK SMILES IDX 21 26 22 27 23 29 24 30 25 31 83 32 26 33 82 34 27 35 28 36
REMARK SMILES IDX 29 37 76 38 30 39 81 40 75 41 77 42 31 43 80 44 74 45 73 46
REMARK SMILES IDX 32 48 62 49 43 50 61 51 44 52 47 53 60 54 78 55 45 56 46 57
REMARK SMILES IDX 59 59 79 60 48 61 33 62 34 63 42 64 35 65 41 66 36 67 37 68
REMARK SMILES IDX 38 69 39 70 40 71 63 72 64 73 72 74 65 75 71 76 66 77 67 78
REMARK SMILES IDX 68 79 69 80 70 81 49 82 50 83 58 84 51 85 57 86 52 87 53 88
REMARK SMILES IDX 54 89 55 90 56 91
REMARK H PARENT 17 5 10 23 21 28 77 47 47 58
REMARK Flexibility Score: inf
ROOT
ATOM      1  C   UNL A   1      42.974  21.245  25.793  1.00  0.00     0.117 C 
ENDROOT
BRANCH   1   2
ATOM      2  N   UNL A   1      43.682  21.789  24.648  1.00  0.00    -0.356 N 
ATOM      3  C   UNL A   1      44.912  22.365  24.558  1.00  0.00     0.219 C 
ATOM      4  O   UNL A   1      45.269  22.799  23.462  1.00  0.00    -0.275 OA
ATOM      5  H   UNL A   1      43.193  21.729  23.796  1.00  0.00     0.163 HD
BRANCH   3   6
ATOM      6  C   UNL A   1      45.837  22.442  25.759  1.00  0.00     0.100 C 
BRANCH   6   7
ATOM      7  C   UNL A   1      46.029  23.849  26.331  1.00  0.00     0.010 C 
BRANCH   7   8
ATOM      8  C   UNL A   1      44.760  24.663  26.559  1.00  0.00     0.004 C 
BRANCH   8   9
ATOM      9  C   UNL A   1      44.972  26.139  26.928  1.00  0.00     0.037 C 
BRANCH   9  10
ATOM     10  C   UNL A   1      44.289  27.130  25.984  1.00  0.00     0.144 C 
BRANCH  10  11
ATOM     11  C   UNL A   1      44.368  28.539  26.528  1.00  0.00    -0.019 A 
ATOM     12  C   UNL A   1      43.646  33.174  28.797  1.00  0.00     0.153 C 
ATOM     13  N   UNL A   1      44.628  32.161  28.522  1.00  0.00    -0.315 N 
ATOM     14  C   UNL A   1      45.957  32.217  28.950  1.00  0.00     0.231 C 
ATOM     15  C   UNL A   1      44.376  30.991  27.807  1.00  0.00     0.047 A 
ATOM     16  O   UNL A   1      46.492  33.094  29.600  1.00  0.00    -0.274 OA
ATOM     17  C   UNL A   1      46.648  30.943  28.458  1.00  0.00     0.138 C 
ATOM     18  C   UNL A   1      45.547  30.240  27.727  1.00  0.00    -0.014 A 
ATOM     19  C   UNL A   1      43.189  30.557  27.250  1.00  0.00     0.027 A 
ATOM     20  C   UNL A   1      45.567  29.021  27.082  1.00  0.00     0.012 A 
ATOM     21  C   UNL A   1      43.192  29.320  26.604  1.00  0.00     0.008 A 
ENDBRANCH  10  11
BRANCH  10  22
ATOM     22  O   UNL A   1      44.929  27.055  24.710  1.00  0.00    -0.388 OA
ATOM     23  H   UNL A   1      44.441  27.599  24.071  1.00  0.00     0.211 HD
ENDBRANCH  10  22
ENDBRANCH   9  10
ENDBRANCH   8   9
ENDBRANCH   7   8
ENDBRANCH   6   7
ENDBRANCH   3   6
ENDBRANCH   1   2
BRANCH   1  24
ATOM     24  C   UNL A   1      41.988  22.257  26.369  1.00  0.00     0.042 C 
BRANCH  24  25
ATOM     25  C   UNL A   1      40.704  21.639  26.892  1.00  0.00     0.118 C 
BRANCH  25  26
ATOM     26  N   UNL A   1      39.546  22.025  26.106  1.00  0.00    -0.352 N 
ATOM     27  C   UNL A   1      38.825  23.195  26.116  1.00  0.00     0.251 C 
ATOM     28  H   UNL A   1      39.228  21.345  25.468  1.00  0.00     0.163 HD
ATOM     29  O   UNL A   1      37.759  23.244  25.510  1.00  0.00    -0.269 OA
BRANCH  27  30
ATOM     30  C   UNL A   1      39.308  24.378  26.868  1.00  0.00     0.039 A 
ATOM     31  C   UNL A   1      40.108  25.315  26.206  1.00  0.00     0.014 A 
ATOM     32  C   UNL A   1      39.004  24.563  28.219  1.00  0.00     0.014 A 
ATOM     33  C   UNL A   1      40.557  26.452  26.886  1.00  0.00     0.010 A 
ATOM     34  C   UNL A   1      39.356  25.746  28.860  1.00  0.00     0.010 A 
ATOM     35  C   UNL A   1      40.159  26.692  28.210  1.00  0.00    -0.014 A 
BRANCH  35  36
ATOM     36  C   UNL A   1      40.600  27.908  28.942  1.00  0.00     0.031 A 
ATOM     37  C   UNL A   1      41.966  27.957  29.576  1.00  0.00     0.074 A 
ATOM     38  C   UNL A   1      39.750  28.944  29.087  1.00  0.00     0.049 A 
ATOM     39  N   UNL A   1      42.516  28.911  30.282  1.00  0.00    -0.248 NA
ATOM     40  C   UNL A   1      42.814  26.762  29.424  1.00  0.00     0.031 C 
ATOM     41  C   UNL A   1      38.382  28.997  28.567  1.00  0.00     0.029 A 
ATOM     42  N   UNL A   1      39.909  30.151  29.722  1.00  0.00    -0.354 N 
ATOM     43  C   UNL A   1      43.756  28.423  30.678  1.00  0.00     0.074 A 
ATOM     44  C   UNL A   1      43.852  27.067  30.186  1.00  0.00     0.031 C 
ATOM     45  C   UNL A   1      37.840  30.185  28.873  1.00  0.00     0.029 A 
ATOM     46  C   UNL A   1      38.801  30.961  29.649  1.00  0.00     0.049 A 
ATOM     47  H   UNL A   1      40.739  30.412  30.184  1.00  0.00     0.167 HD
ATOM     48  C   UNL A   1      44.737  29.051  31.370  1.00  0.00     0.031 A 
ATOM     49  C   UNL A   1      38.577  32.189  30.157  1.00  0.00     0.031 A 
ATOM     50  C   UNL A   1      44.634  30.403  31.852  1.00  0.00     0.049 A 
ATOM     51  C   UNL A   1      39.678  32.874  30.920  1.00  0.00     0.074 A 
ATOM     52  C   UNL A   1      45.591  31.160  32.503  1.00  0.00     0.029 A 
ATOM     53  N   UNL A   1      43.500  31.195  31.746  1.00  0.00    -0.354 N 
ATOM     54  N   UNL A   1      40.879  32.430  31.210  1.00  0.00    -0.248 NA
ATOM     55  C   UNL A   1      39.402  34.230  31.410  1.00  0.00     0.031 C 
ATOM     56  C   UNL A   1      45.013  32.385  32.853  1.00  0.00     0.029 A 
ATOM     57  C   UNL A   1      43.720  32.421  32.352  1.00  0.00     0.049 A 
ATOM     58  H   UNL A   1      42.662  30.927  31.305  1.00  0.00     0.167 HD
ATOM     59  C   UNL A   1      41.510  33.460  31.898  1.00  0.00     0.074 A 
ATOM     60  C   UNL A   1      40.562  34.556  31.964  1.00  0.00     0.031 C 
ATOM     61  C   UNL A   1      42.761  33.498  32.423  1.00  0.00     0.031 A 
BRANCH  48  62
ATOM     62  C   UNL A   1      45.992  28.264  31.665  1.00  0.00    -0.014 A 
ATOM     63  C   UNL A   1      46.130  27.518  32.852  1.00  0.00     0.010 A 
ATOM     64  C   UNL A   1      47.052  28.273  30.741  1.00  0.00     0.010 A 
ATOM     65  C   UNL A   1      47.329  26.860  33.140  1.00  0.00     0.020 A 
ATOM     66  C   UNL A   1      48.240  27.585  31.009  1.00  0.00     0.020 A 
ATOM     67  C   UNL A   1      48.380  26.906  32.220  1.00  0.00     0.054 A 
BRANCH  67  68
ATOM     68  S   UNL A   1      49.931  26.058  32.628  1.00  0.00     0.124 S 
ATOM     69  O   UNL A   1      49.774  24.790  31.919  1.00  0.00    -0.237 OA
ATOM     70  O   UNL A   1      50.942  26.960  32.082  1.00  0.00    -0.237 OA
ATOM     71  O   UNL A   1      49.904  25.965  34.085  1.00  0.00    -0.744 OA
ENDBRANCH  67  68
ENDBRANCH  48  62
BRANCH  49  72
ATOM     72  C   UNL A   1      37.259  32.846  29.929  1.00  0.00    -0.014 A 
ATOM     73  C   UNL A   1      36.254  32.798  30.911  1.00  0.00     0.010 A 
ATOM     74  C   UNL A   1      37.025  33.581  28.750  1.00  0.00     0.010 A 
ATOM     75  C   UNL A   1      35.040  33.463  30.715  1.00  0.00     0.020 A 
ATOM     76  C   UNL A   1      35.825  34.275  28.566  1.00  0.00     0.020 A 
ATOM     77  C   UNL A   1      34.835  34.204  29.548  1.00  0.00     0.054 A 
BRANCH  77  78
ATOM     78  S   UNL A   1      33.265  35.093  29.346  1.00  0.00     0.124 S 
ATOM     79  O   UNL A   1      33.714  36.401  28.881  1.00  0.00    -0.237 OA
ATOM     80  O   UNL A   1      32.568  34.278  28.353  1.00  0.00    -0.237 OA
ATOM     81  O   UNL A   1      32.681  35.080  30.685  1.00  0.00    -0.744 OA
ENDBRANCH  77  78
ENDBRANCH  49  72
BRANCH  61  82
ATOM     82  C   UNL A   1      43.193  34.775  33.098  1.00  0.00    -0.014 A 
ATOM     83  C   UNL A   1      43.742  35.843  32.367  1.00  0.00     0.010 A 
ATOM     84  C   UNL A   1      42.987  34.928  34.481  1.00  0.00     0.010 A 
ATOM     85  C   UNL A   1      44.108  37.027  33.012  1.00  0.00     0.020 A 
ATOM     86  C   UNL A   1      43.321  36.123  35.125  1.00  0.00     0.020 A 
ATOM     87  C   UNL A   1      43.893  37.159  34.387  1.00  0.00     0.054 A 
BRANCH  87  88
ATOM     88  S   UNL A   1      44.335  38.723  35.193  1.00  0.00     0.124 S 
ATOM     89  O   UNL A   1      43.940  38.474  36.577  1.00  0.00    -0.237 OA
ATOM     90  O   UNL A   1      45.774  38.809  34.956  1.00  0.00    -0.237 OA
ATOM     91  O   UNL A   1      43.532  39.718  34.486  1.00  0.00    -0.744 OA
ENDBRANCH  87  88
ENDBRANCH  61  82
ENDBRANCH  35  36
ENDBRANCH  27  30
ENDBRANCH  25  26
ENDBRANCH  24  25
ENDBRANCH   1  24
TORSDOF 19
ENDMDL
