MODEL 1
REMARK VINA RESULT:     -10.6      0.000      0.000
REMARK SMILES O=C(NCCCNC(=O)[C@H](CO)NC(=O)[C@H](CS)NC(=O)c1ccc(F)cc1)c1ccc(-c2c3nc(c(-c4ccc(S(=O)(=O)[O-])cc4)c4ccc([nH]4)c(-c4ccc(S(=O)(=O)[O-])cc4)c4nc(c(-c5ccc(S(=O)(=O)[O-])cc5)c5ccc2[nH]5)C=C4)C=C3)cc1
REMARK SMILES IDX 5 1 4 2 3 3 1 4 2 5 29 7 30 8 88 9 31 10 87 11 32 12 33 13
REMARK SMILES IDX 34 14 81 15 35 16 86 17 80 18 82 19 36 20 85 21 79 22 78 23
REMARK SMILES IDX 37 25 67 26 48 27 66 28 49 29 52 30 65 31 83 32 50 33 51 34
REMARK SMILES IDX 64 36 84 37 53 38 38 39 39 40 47 41 40 42 46 43 41 44 42 45
REMARK SMILES IDX 43 46 44 47 45 48 68 49 69 50 77 51 70 52 76 53 71 54 72 55
REMARK SMILES IDX 73 56 74 57 75 58 54 59 55 60 63 61 56 62 62 63 57 64 58 65
REMARK SMILES IDX 59 66 60 67 61 68 6 69 7 70 8 71 9 73 10 74 13 75 14 76
REMARK SMILES IDX 15 78 16 79 19 80 20 81 21 83 22 84 23 85 28 86 24 87 27 88
REMARK SMILES IDX 25 89 26 90 17 91 18 92 11 94 12 95
REMARK H PARENT 3 6 82 24 52 35 7 72 13 77 19 82 18 93 12 96
REMARK Flexibility Score: inf
ROOT
ATOM      1  C   UNL A   1      34.305  29.694  26.925  1.00  0.00     0.042 C 
ENDROOT
BRANCH   1   2
ATOM      2  C   UNL A   1      35.339  29.213  27.932  1.00  0.00     0.118 C 
BRANCH   2   3
ATOM      3  N   UNL A   1      35.377  30.064  29.112  1.00  0.00    -0.352 N 
ATOM      4  O   UNL A   1      36.154  30.766  31.102  1.00  0.00    -0.269 OA
ATOM      5  C   UNL A   1      36.396  30.255  30.014  1.00  0.00     0.251 C 
ATOM      6  H   UNL A   1      34.555  30.575  29.290  1.00  0.00     0.163 HD
BRANCH   5   7
ATOM      7  C   UNL A   1      37.773  29.844  29.667  1.00  0.00     0.039 A 
ATOM      8  C   UNL A   1      38.248  29.999  28.363  1.00  0.00     0.014 A 
ATOM      9  C   UNL A   1      38.616  29.341  30.663  1.00  0.00     0.014 A 
ATOM     10  C   UNL A   1      39.506  29.524  28.022  1.00  0.00     0.010 A 
ATOM     11  C   UNL A   1      39.923  28.964  30.339  1.00  0.00     0.010 A 
ATOM     12  C   UNL A   1      40.373  29.036  29.012  1.00  0.00    -0.014 A 
BRANCH  12  13
ATOM     13  C   UNL A   1      41.773  28.708  28.641  1.00  0.00     0.031 A 
ATOM     14  C   UNL A   1      42.862  29.741  28.705  1.00  0.00     0.074 A 
ATOM     15  C   UNL A   1      42.052  27.443  28.266  1.00  0.00     0.049 A 
ATOM     16  N   UNL A   1      44.135  29.604  28.433  1.00  0.00    -0.248 NA
ATOM     17  C   UNL A   1      42.479  31.100  29.116  1.00  0.00     0.031 C 
ATOM     18  C   UNL A   1      41.068  26.359  28.162  1.00  0.00     0.029 A 
ATOM     19  N   UNL A   1      43.237  26.844  27.928  1.00  0.00    -0.354 N 
ATOM     20  C   UNL A   1      44.702  30.860  28.621  1.00  0.00     0.074 A 
ATOM     21  C   UNL A   1      43.630  31.752  29.005  1.00  0.00     0.031 C 
ATOM     22  C   UNL A   1      41.697  25.221  27.840  1.00  0.00     0.029 A 
ATOM     23  C   UNL A   1      43.112  25.506  27.637  1.00  0.00     0.049 A 
ATOM     24  H   UNL A   1      44.095  27.326  27.895  1.00  0.00     0.167 HD
ATOM     25  C   UNL A   1      45.999  31.230  28.485  1.00  0.00     0.031 A 
ATOM     26  C   UNL A   1      44.026  24.606  27.232  1.00  0.00     0.031 A 
ATOM     27  C   UNL A   1      47.056  30.330  28.095  1.00  0.00     0.049 A 
ATOM     28  C   UNL A   1      45.447  25.052  27.057  1.00  0.00     0.074 A 
ATOM     29  C   UNL A   1      48.406  30.600  27.955  1.00  0.00     0.029 A 
ATOM     30  N   UNL A   1      46.883  28.991  27.774  1.00  0.00    -0.354 N 
ATOM     31  N   UNL A   1      45.969  26.237  27.270  1.00  0.00    -0.248 NA
ATOM     32  C   UNL A   1      46.405  24.042  26.591  1.00  0.00     0.031 C 
ATOM     33  C   UNL A   1      49.039  29.442  27.493  1.00  0.00     0.029 A 
ATOM     34  C   UNL A   1      48.096  28.429  27.410  1.00  0.00     0.049 A 
ATOM     35  H   UNL A   1      46.024  28.511  27.801  1.00  0.00     0.167 HD
ATOM     36  C   UNL A   1      47.321  26.110  26.982  1.00  0.00     0.074 A 
ATOM     37  C   UNL A   1      47.539  24.729  26.601  1.00  0.00     0.031 C 
ATOM     38  C   UNL A   1      48.294  27.054  27.027  1.00  0.00     0.031 A 
BRANCH  25  39
ATOM     39  C   UNL A   1      46.347  32.676  28.727  1.00  0.00    -0.014 A 
ATOM     40  C   UNL A   1      46.741  33.132  29.998  1.00  0.00     0.010 A 
ATOM     41  C   UNL A   1      46.333  33.585  27.652  1.00  0.00     0.010 A 
ATOM     42  C   UNL A   1      47.080  34.475  30.196  1.00  0.00     0.020 A 
ATOM     43  C   UNL A   1      46.698  34.922  27.839  1.00  0.00     0.020 A 
ATOM     44  C   UNL A   1      47.053  35.362  29.114  1.00  0.00     0.054 A 
BRANCH  44  45
ATOM     45  S   UNL A   1      47.519  37.092  29.397  1.00  0.00     0.124 S 
ATOM     46  O   UNL A   1      47.119  37.721  28.141  1.00  0.00    -0.237 OA
ATOM     47  O   UNL A   1      46.716  37.453  30.563  1.00  0.00    -0.237 OA
ATOM     48  O   UNL A   1      48.960  37.032  29.632  1.00  0.00    -0.744 OA
ENDBRANCH  44  45
ENDBRANCH  25  39
BRANCH  26  49
ATOM     49  C   UNL A   1      43.607  23.208  26.941  1.00  0.00    -0.014 A 
ATOM     50  C   UNL A   1      43.870  22.623  25.691  1.00  0.00     0.010 A 
ATOM     51  C   UNL A   1      42.965  22.443  27.933  1.00  0.00     0.010 A 
ATOM     52  C   UNL A   1      43.486  21.302  25.435  1.00  0.00     0.020 A 
ATOM     53  C   UNL A   1      42.611  21.113  27.693  1.00  0.00     0.020 A 
ATOM     54  C   UNL A   1      42.863  20.556  26.439  1.00  0.00     0.054 A 
BRANCH  54  55
ATOM     55  S   UNL A   1      42.419  18.830  26.100  1.00  0.00     0.124 S 
ATOM     56  O   UNL A   1      42.655  18.196  27.392  1.00  0.00    -0.237 OA
ATOM     57  O   UNL A   1      41.021  18.939  25.693  1.00  0.00    -0.237 OA
ATOM     58  O   UNL A   1      43.341  18.443  25.034  1.00  0.00    -0.744 OA
ENDBRANCH  54  55
ENDBRANCH  26  49
BRANCH  38  59
ATOM     59  C   UNL A   1      49.692  26.612  26.685  1.00  0.00    -0.014 A 
ATOM     60  C   UNL A   1      50.590  26.187  27.683  1.00  0.00     0.010 A 
ATOM     61  C   UNL A   1      50.101  26.588  25.340  1.00  0.00     0.010 A 
ATOM     62  C   UNL A   1      51.882  25.781  27.341  1.00  0.00     0.020 A 
ATOM     63  C   UNL A   1      51.381  26.152  24.992  1.00  0.00     0.020 A 
ATOM     64  C   UNL A   1      52.270  25.767  25.998  1.00  0.00     0.054 A 
BRANCH  64  65
ATOM     65  S   UNL A   1      53.940  25.201  25.579  1.00  0.00     0.124 S 
ATOM     66  O   UNL A   1      54.519  26.392  24.964  1.00  0.00    -0.237 OA
ATOM     67  O   UNL A   1      54.491  24.835  26.881  1.00  0.00    -0.237 OA
ATOM     68  O   UNL A   1      53.709  24.081  24.669  1.00  0.00    -0.744 OA
ENDBRANCH  64  65
ENDBRANCH  38  59
ENDBRANCH  12  13
ENDBRANCH   5   7
ENDBRANCH   2   3
ENDBRANCH   1   2
BRANCH   1  69
ATOM     69  C   UNL A   1      33.859  28.593  25.969  1.00  0.00     0.117 C 
BRANCH  69  70
ATOM     70  N   UNL A   1      32.924  29.111  24.986  1.00  0.00    -0.354 N 
ATOM     71  C   UNL A   1      32.543  28.555  23.807  1.00  0.00     0.244 C 
ATOM     72  H   UNL A   1      32.514  29.978  25.202  1.00  0.00     0.163 HD
ATOM     73  O   UNL A   1      32.338  29.365  22.893  1.00  0.00    -0.273 OA
BRANCH  71  74
ATOM     74  C   UNL A   1      32.142  27.064  23.625  1.00  0.00     0.197 C 
BRANCH  74  75
ATOM     75  N   UNL A   1      31.101  26.766  24.627  1.00  0.00    -0.340 N 
ATOM     76  C   UNL A   1      30.950  25.714  25.481  1.00  0.00     0.244 C 
ATOM     77  H   UNL A   1      30.390  27.444  24.689  1.00  0.00     0.164 HD
ATOM     78  O   UNL A   1      30.085  25.818  26.354  1.00  0.00    -0.273 OA
BRANCH  76  79
ATOM     79  C   UNL A   1      31.839  24.461  25.379  1.00  0.00     0.181 C 
BRANCH  79  80
ATOM     80  N   UNL A   1      32.039  23.918  26.731  1.00  0.00    -0.339 N 
ATOM     81  C   UNL A   1      32.946  23.006  27.205  1.00  0.00     0.251 C 
ATOM     82  H   UNL A   1      31.416  24.268  27.409  1.00  0.00     0.164 HD
ATOM     83  O   UNL A   1      32.793  22.480  28.302  1.00  0.00    -0.269 OA
BRANCH  81  84
ATOM     84  C   UNL A   1      34.122  22.636  26.386  1.00  0.00     0.040 A 
ATOM     85  C   UNL A   1      34.209  21.361  25.823  1.00  0.00     0.017 A 
ATOM     86  C   UNL A   1      35.113  23.583  26.116  1.00  0.00     0.017 A 
ATOM     87  C   UNL A   1      35.341  20.979  25.104  1.00  0.00     0.040 A 
ATOM     88  C   UNL A   1      36.233  23.215  25.365  1.00  0.00     0.040 A 
ATOM     89  C   UNL A   1      36.349  21.911  24.891  1.00  0.00     0.123 A 
ATOM     90  F   UNL A   1      37.442  21.550  24.204  1.00  0.00    -0.207 F 
ENDBRANCH  81  84
ENDBRANCH  79  80
BRANCH  79  91
ATOM     91  C   UNL A   1      31.224  23.423  24.417  1.00  0.00     0.101 C 
BRANCH  91  92
ATOM     92  S   UNL A   1      32.256  22.919  22.998  1.00  0.00    -0.177 SA
ATOM     93  H   UNL A   1      33.241  23.836  22.803  1.00  0.00     0.102 HD
ENDBRANCH  91  92
ENDBRANCH  79  91
ENDBRANCH  76  79
ENDBRANCH  74  75
BRANCH  74  94
ATOM     94  C   UNL A   1      31.711  26.522  22.269  1.00  0.00     0.191 C 
BRANCH  94  95
ATOM     95  O   UNL A   1      30.803  27.381  21.598  1.00  0.00    -0.394 OA
ATOM     96  H   UNL A   1      29.927  26.966  21.569  1.00  0.00     0.210 HD
ENDBRANCH  94  95
ENDBRANCH  74  94
ENDBRANCH  71  74
ENDBRANCH  69  70
ENDBRANCH   1  69
TORSDOF 21
ENDMDL
MODEL 2
REMARK VINA RESULT:     -10.5      5.009     11.995
REMARK SMILES O=C(NCCCNC(=O)[C@H](CO)NC(=O)[C@H](CS)NC(=O)c1ccc(F)cc1)c1ccc(-c2c3nc(c(-c4ccc(S(=O)(=O)[O-])cc4)c4ccc([nH]4)c(-c4ccc(S(=O)(=O)[O-])cc4)c4nc(c(-c5ccc(S(=O)(=O)[O-])cc5)c5ccc2[nH]5)C=C4)C=C3)cc1
REMARK SMILES IDX 5 1 4 2 3 3 1 4 2 5 29 7 30 8 88 9 31 10 87 11 32 12 33 13
REMARK SMILES IDX 34 14 81 15 35 16 86 17 80 18 82 19 36 20 85 21 79 22 78 23
REMARK SMILES IDX 37 25 67 26 48 27 66 28 49 29 52 30 65 31 83 32 50 33 51 34
REMARK SMILES IDX 64 36 84 37 53 38 38 39 39 40 47 41 40 42 46 43 41 44 42 45
REMARK SMILES IDX 43 46 44 47 45 48 68 49 69 50 77 51 70 52 76 53 71 54 72 55
REMARK SMILES IDX 73 56 74 57 75 58 54 59 55 60 63 61 56 62 62 63 57 64 58 65
REMARK SMILES IDX 59 66 60 67 61 68 6 69 7 70 8 71 9 73 10 74 13 75 14 76
REMARK SMILES IDX 15 78 16 79 19 80 20 81 21 83 22 84 23 85 28 86 24 87 27 88
REMARK SMILES IDX 25 89 26 90 17 91 18 92 11 94 12 95
REMARK H PARENT 3 6 82 24 52 35 7 72 13 77 19 82 18 93 12 96
REMARK Flexibility Score: inf
ROOT
ATOM      1  C   UNL A   1      41.509  20.556  26.220  1.00  0.00     0.042 C 
ENDROOT
BRANCH   1   2
ATOM      2  C   UNL A   1      40.561  21.541  26.889  1.00  0.00     0.118 C 
BRANCH   2   3
ATOM      3  N   UNL A   1      39.456  21.903  26.014  1.00  0.00    -0.352 N 
ATOM      4  O   UNL A   1      37.607  23.036  25.418  1.00  0.00    -0.269 OA
ATOM      5  C   UNL A   1      38.673  23.032  26.023  1.00  0.00     0.251 C 
ATOM      6  H   UNL A   1      39.236  21.244  25.316  1.00  0.00     0.163 HD
BRANCH   5   7
ATOM      7  C   UNL A   1      39.120  24.232  26.763  1.00  0.00     0.039 A 
ATOM      8  C   UNL A   1      38.771  24.404  28.104  1.00  0.00     0.014 A 
ATOM      9  C   UNL A   1      39.934  25.174  26.126  1.00  0.00     0.014 A 
ATOM     10  C   UNL A   1      39.111  25.575  28.765  1.00  0.00     0.010 A 
ATOM     11  C   UNL A   1      40.367  26.303  26.828  1.00  0.00     0.010 A 
ATOM     12  C   UNL A   1      39.944  26.521  28.148  1.00  0.00    -0.014 A 
BRANCH  12  13
ATOM     13  C   UNL A   1      40.436  27.672  28.947  1.00  0.00     0.031 A 
ATOM     14  C   UNL A   1      41.809  27.671  29.558  1.00  0.00     0.074 A 
ATOM     15  C   UNL A   1      39.625  28.739  29.092  1.00  0.00     0.049 A 
ATOM     16  N   UNL A   1      42.390  28.607  30.264  1.00  0.00    -0.248 NA
ATOM     17  C   UNL A   1      42.634  26.469  29.362  1.00  0.00     0.031 C 
ATOM     18  C   UNL A   1      38.266  28.845  28.547  1.00  0.00     0.029 A 
ATOM     19  N   UNL A   1      39.822  29.943  29.715  1.00  0.00    -0.354 N 
ATOM     20  C   UNL A   1      43.638  28.103  30.614  1.00  0.00     0.074 A 
ATOM     21  C   UNL A   1      43.720  26.768  30.063  1.00  0.00     0.031 C 
ATOM     22  C   UNL A   1      37.777  30.063  28.811  1.00  0.00     0.029 A 
ATOM     23  C   UNL A   1      38.750  30.797  29.610  1.00  0.00     0.049 A 
ATOM     24  H   UNL A   1      40.652  30.175  30.192  1.00  0.00     0.167 HD
ATOM     25  C   UNL A   1      44.621  28.703  31.327  1.00  0.00     0.031 A 
ATOM     26  C   UNL A   1      38.555  32.029  30.116  1.00  0.00     0.031 A 
ATOM     27  C   UNL A   1      44.522  30.033  31.875  1.00  0.00     0.049 A 
ATOM     28  C   UNL A   1      39.648  32.654  30.931  1.00  0.00     0.074 A 
ATOM     29  C   UNL A   1      45.473  30.742  32.589  1.00  0.00     0.029 A 
ATOM     30  N   UNL A   1      43.406  30.852  31.779  1.00  0.00    -0.354 N 
ATOM     31  N   UNL A   1      40.833  32.173  31.223  1.00  0.00    -0.248 NA
ATOM     32  C   UNL A   1      39.382  33.988  31.482  1.00  0.00     0.031 C 
ATOM     33  C   UNL A   1      44.911  31.963  32.976  1.00  0.00     0.029 A 
ATOM     34  C   UNL A   1      43.634  32.046  32.444  1.00  0.00     0.049 A 
ATOM     35  H   UNL A   1      42.574  30.619  31.306  1.00  0.00     0.167 HD
ATOM     36  C   UNL A   1      41.462  33.154  31.977  1.00  0.00     0.074 A 
ATOM     37  C   UNL A   1      40.535  34.263  32.076  1.00  0.00     0.031 C 
ATOM     38  C   UNL A   1      42.696  33.137  32.539  1.00  0.00     0.031 A 
BRANCH  25  39
ATOM     39  C   UNL A   1      45.881  27.918  31.588  1.00  0.00    -0.014 A 
ATOM     40  C   UNL A   1      46.989  28.000  30.725  1.00  0.00     0.010 A 
ATOM     41  C   UNL A   1      45.980  27.124  32.747  1.00  0.00     0.010 A 
ATOM     42  C   UNL A   1      48.155  27.278  30.996  1.00  0.00     0.020 A 
ATOM     43  C   UNL A   1      47.154  26.422  33.037  1.00  0.00     0.020 A 
ATOM     44  C   UNL A   1      48.229  26.491  32.150  1.00  0.00     0.054 A 
BRANCH  44  45
ATOM     45  S   UNL A   1      49.763  25.584  32.487  1.00  0.00     0.124 S 
ATOM     46  O   UNL A   1      50.692  26.668  32.797  1.00  0.00    -0.237 OA
ATOM     47  O   UNL A   1      49.391  24.735  33.616  1.00  0.00    -0.237 OA
ATOM     48  O   UNL A   1      50.029  24.873  31.239  1.00  0.00    -0.744 OA
ENDBRANCH  44  45
ENDBRANCH  25  39
BRANCH  26  49
ATOM     49  C   UNL A   1      37.261  32.726  29.882  1.00  0.00    -0.014 A 
ATOM     50  C   UNL A   1      36.220  32.647  30.823  1.00  0.00     0.010 A 
ATOM     51  C   UNL A   1      37.077  33.502  28.722  1.00  0.00     0.010 A 
ATOM     52  C   UNL A   1      35.015  33.320  30.601  1.00  0.00     0.020 A 
ATOM     53  C   UNL A   1      35.887  34.203  28.513  1.00  0.00     0.020 A 
ATOM     54  C   UNL A   1      34.858  34.096  29.449  1.00  0.00     0.054 A 
BRANCH  54  55
ATOM     55  S   UNL A   1      33.304  35.000  29.206  1.00  0.00     0.124 S 
ATOM     56  O   UNL A   1      32.726  34.976  30.546  1.00  0.00    -0.237 OA
ATOM     57  O   UNL A   1      33.768  36.303  28.738  1.00  0.00    -0.237 OA
ATOM     58  O   UNL A   1      32.597  34.203  28.205  1.00  0.00    -0.744 OA
ENDBRANCH  54  55
ENDBRANCH  26  49
BRANCH  38  59
ATOM     59  C   UNL A   1      43.127  34.372  33.284  1.00  0.00    -0.014 A 
ATOM     60  C   UNL A   1      43.454  35.560  32.604  1.00  0.00     0.010 A 
ATOM     61  C   UNL A   1      43.168  34.353  34.690  1.00  0.00     0.010 A 
ATOM     62  C   UNL A   1      43.850  36.694  33.317  1.00  0.00     0.020 A 
ATOM     63  C   UNL A   1      43.533  35.494  35.407  1.00  0.00     0.020 A 
ATOM     64  C   UNL A   1      43.888  36.653  34.715  1.00  0.00     0.054 A 
BRANCH  64  65
ATOM     65  S   UNL A   1      44.370  38.149  35.618  1.00  0.00     0.124 S 
ATOM     66  O   UNL A   1      43.764  39.202  34.808  1.00  0.00    -0.237 OA
ATOM     67  O   UNL A   1      43.766  37.939  36.931  1.00  0.00    -0.237 OA
ATOM     68  O   UNL A   1      45.831  38.111  35.598  1.00  0.00    -0.744 OA
ENDBRANCH  64  65
ENDBRANCH  38  59
ENDBRANCH  12  13
ENDBRANCH   5   7
ENDBRANCH   2   3
ENDBRANCH   1   2
BRANCH   1  69
ATOM     69  C   UNL A   1      42.840  21.191  25.833  1.00  0.00     0.117 C 
BRANCH  69  70
ATOM     70  N   UNL A   1      42.631  22.481  25.201  1.00  0.00    -0.354 N 
ATOM     71  C   UNL A   1      43.507  23.511  25.072  1.00  0.00     0.244 C 
ATOM     72  H   UNL A   1      41.738  22.629  24.816  1.00  0.00     0.163 HD
ATOM     73  O   UNL A   1      42.999  24.638  25.152  1.00  0.00    -0.273 OA
BRANCH  71  74
ATOM     74  C   UNL A   1      44.985  23.359  24.618  1.00  0.00     0.197 C 
BRANCH  74  75
ATOM     75  N   UNL A   1      45.821  23.383  25.833  1.00  0.00    -0.340 N 
ATOM     76  C   UNL A   1      46.580  24.373  26.383  1.00  0.00     0.244 C 
ATOM     77  H   UNL A   1      45.834  22.536  26.334  1.00  0.00     0.164 HD
ATOM     78  O   UNL A   1      47.022  24.178  27.518  1.00  0.00    -0.273 OA
BRANCH  76  79
ATOM     79  C   UNL A   1      46.852  25.690  25.633  1.00  0.00     0.181 C 
BRANCH  79  80
ATOM     80  N   UNL A   1      47.514  26.625  26.554  1.00  0.00    -0.339 N 
ATOM     81  C   UNL A   1      47.109  27.842  27.038  1.00  0.00     0.251 C 
ATOM     82  H   UNL A   1      48.395  26.328  26.877  1.00  0.00     0.164 HD
ATOM     83  O   UNL A   1      47.906  28.595  27.587  1.00  0.00    -0.269 OA
BRANCH  81  84
ATOM     84  C   UNL A   1      45.700  28.268  26.891  1.00  0.00     0.040 A 
ATOM     85  C   UNL A   1      44.810  27.494  26.142  1.00  0.00     0.017 A 
ATOM     86  C   UNL A   1      45.238  29.405  27.557  1.00  0.00     0.017 A 
ATOM     87  C   UNL A   1      43.497  27.916  25.942  1.00  0.00     0.040 A 
ATOM     88  C   UNL A   1      43.912  29.814  27.388  1.00  0.00     0.040 A 
ATOM     89  C   UNL A   1      43.063  29.081  26.561  1.00  0.00     0.123 A 
ATOM     90  F   UNL A   1      41.803  29.497  26.371  1.00  0.00    -0.207 F 
ENDBRANCH  81  84
ENDBRANCH  79  80
BRANCH  79  91
ATOM     91  C   UNL A   1      47.682  25.439  24.357  1.00  0.00     0.101 C 
BRANCH  91  92
ATOM     92  S   UNL A   1      49.200  26.435  24.165  1.00  0.00    -0.177 SA
ATOM     93  H   UNL A   1      49.772  26.631  25.383  1.00  0.00     0.102 HD
ENDBRANCH  91  92
ENDBRANCH  79  91
ENDBRANCH  76  79
ENDBRANCH  74  75
BRANCH  74  94
ATOM     94  C   UNL A   1      45.423  22.206  23.724  1.00  0.00     0.191 C 
BRANCH  94  95
ATOM     95  O   UNL A   1      44.431  21.837  22.780  1.00  0.00    -0.394 OA
ATOM     96  H   UNL A   1      44.029  22.636  22.404  1.00  0.00     0.210 HD
ENDBRANCH  94  95
ENDBRANCH  74  94
ENDBRANCH  71  74
ENDBRANCH  69  70
ENDBRANCH   1  69
TORSDOF 21
ENDMDL
MODEL 3
REMARK VINA RESULT:     -10.5      2.471      8.968
REMARK SMILES O=C(NCCCNC(=O)[C@H](CO)NC(=O)[C@H](CS)NC(=O)c1ccc(F)cc1)c1ccc(-c2c3nc(c(-c4ccc(S(=O)(=O)[O-])cc4)c4ccc([nH]4)c(-c4ccc(S(=O)(=O)[O-])cc4)c4nc(c(-c5ccc(S(=O)(=O)[O-])cc5)c5ccc2[nH]5)C=C4)C=C3)cc1
REMARK SMILES IDX 5 1 4 2 3 3 1 4 2 5 29 7 30 8 88 9 31 10 87 11 32 12 33 13
REMARK SMILES IDX 34 14 81 15 35 16 86 17 80 18 82 19 36 20 85 21 79 22 78 23
REMARK SMILES IDX 37 25 67 26 48 27 66 28 49 29 52 30 65 31 83 32 50 33 51 34
REMARK SMILES IDX 64 36 84 37 53 38 38 39 39 40 47 41 40 42 46 43 41 44 42 45
REMARK SMILES IDX 43 46 44 47 45 48 68 49 69 50 77 51 70 52 76 53 71 54 72 55
REMARK SMILES IDX 73 56 74 57 75 58 54 59 55 60 63 61 56 62 62 63 57 64 58 65
REMARK SMILES IDX 59 66 60 67 61 68 6 69 7 70 8 71 9 73 10 74 13 75 14 76
REMARK SMILES IDX 15 78 16 79 19 80 20 81 21 83 22 84 23 85 28 86 24 87 27 88
REMARK SMILES IDX 25 89 26 90 17 91 18 92 11 94 12 95
REMARK H PARENT 3 6 82 24 52 35 7 72 13 77 19 82 18 93 12 96
REMARK Flexibility Score: inf
ROOT
ATOM      1  C   UNL A   1      38.212  19.957  24.866  1.00  0.00     0.042 C 
ENDROOT
BRANCH   1   2
ATOM      2  C   UNL A   1      39.249  20.539  25.815  1.00  0.00     0.118 C 
BRANCH   2   3
ATOM      3  N   UNL A   1      40.280  19.567  26.146  1.00  0.00    -0.352 N 
ATOM      4  O   UNL A   1      42.388  18.804  26.324  1.00  0.00    -0.269 OA
ATOM      5  C   UNL A   1      41.624  19.763  26.354  1.00  0.00     0.251 C 
ATOM      6  H   UNL A   1      39.972  18.636  26.233  1.00  0.00     0.163 HD
BRANCH   5   7
ATOM      7  C   UNL A   1      42.140  21.124  26.611  1.00  0.00     0.039 A 
ATOM      8  C   UNL A   1      42.467  21.520  27.910  1.00  0.00     0.014 A 
ATOM      9  C   UNL A   1      42.344  22.001  25.541  1.00  0.00     0.014 A 
ATOM     10  C   UNL A   1      42.859  22.828  28.159  1.00  0.00     0.010 A 
ATOM     11  C   UNL A   1      42.843  23.284  25.781  1.00  0.00     0.010 A 
ATOM     12  C   UNL A   1      43.089  23.714  27.095  1.00  0.00    -0.014 A 
BRANCH  12  13
ATOM     13  C   UNL A   1      43.681  25.044  27.385  1.00  0.00     0.031 A 
ATOM     14  C   UNL A   1      45.133  25.328  27.120  1.00  0.00     0.074 A 
ATOM     15  C   UNL A   1      42.874  26.008  27.872  1.00  0.00     0.049 A 
ATOM     16  N   UNL A   1      45.793  26.444  27.302  1.00  0.00    -0.248 NA
ATOM     17  C   UNL A   1      45.952  24.225  26.595  1.00  0.00     0.031 C 
ATOM     18  C   UNL A   1      41.448  25.839  28.174  1.00  0.00     0.029 A 
ATOM     19  N   UNL A   1      43.120  27.320  28.178  1.00  0.00    -0.354 N 
ATOM     20  C   UNL A   1      47.106  26.174  26.933  1.00  0.00     0.074 A 
ATOM     21  C   UNL A   1      47.154  24.782  26.541  1.00  0.00     0.031 C 
ATOM     22  C   UNL A   1      40.937  27.013  28.567  1.00  0.00     0.029 A 
ATOM     23  C   UNL A   1      42.009  27.998  28.622  1.00  0.00     0.049 A 
ATOM     24  H   UNL A   1      44.007  27.738  28.088  1.00  0.00     0.167 HD
ATOM     25  C   UNL A   1      48.170  27.014  26.922  1.00  0.00     0.031 A 
ATOM     26  C   UNL A   1      41.866  29.266  29.049  1.00  0.00     0.031 A 
ATOM     27  C   UNL A   1      48.107  28.398  27.321  1.00  0.00     0.049 A 
ATOM     28  C   UNL A   1      43.068  30.163  29.058  1.00  0.00     0.074 A 
ATOM     29  C   UNL A   1      49.122  29.340  27.321  1.00  0.00     0.029 A 
ATOM     30  N   UNL A   1      46.972  29.037  27.800  1.00  0.00    -0.354 N 
ATOM     31  N   UNL A   1      44.295  29.897  28.675  1.00  0.00    -0.248 NA
ATOM     32  C   UNL A   1      42.870  31.530  29.553  1.00  0.00     0.031 C 
ATOM     33  C   UNL A   1      48.616  30.529  27.855  1.00  0.00     0.029 A 
ATOM     34  C   UNL A   1      47.268  30.351  28.124  1.00  0.00     0.049 A 
ATOM     35  H   UNL A   1      46.086  28.618  27.895  1.00  0.00     0.167 HD
ATOM     36  C   UNL A   1      45.011  31.071  28.865  1.00  0.00     0.074 A 
ATOM     37  C   UNL A   1      44.075  32.053  29.376  1.00  0.00     0.031 C 
ATOM     38  C   UNL A   1      46.326  31.313  28.639  1.00  0.00     0.031 A 
BRANCH  25  39
ATOM     39  C   UNL A   1      49.503  26.455  26.495  1.00  0.00    -0.014 A 
ATOM     40  C   UNL A   1      49.932  26.521  25.157  1.00  0.00     0.010 A 
ATOM     41  C   UNL A   1      50.368  25.904  27.460  1.00  0.00     0.010 A 
ATOM     42  C   UNL A   1      51.182  26.014  24.787  1.00  0.00     0.020 A 
ATOM     43  C   UNL A   1      51.629  25.421  27.099  1.00  0.00     0.020 A 
ATOM     44  C   UNL A   1      52.022  25.465  25.761  1.00  0.00     0.054 A 
BRANCH  44  45
ATOM     45  S   UNL A   1      53.646  24.836  25.254  1.00  0.00     0.124 S 
ATOM     46  O   UNL A   1      53.900  25.605  24.037  1.00  0.00    -0.237 OA
ATOM     47  O   UNL A   1      54.491  25.174  26.396  1.00  0.00    -0.237 OA
ATOM     48  O   UNL A   1      53.419  23.407  25.051  1.00  0.00    -0.744 OA
ENDBRANCH  44  45
ENDBRANCH  25  39
BRANCH  26  49
ATOM     49  C   UNL A   1      40.538  29.739  29.524  1.00  0.00    -0.014 A 
ATOM     50  C   UNL A   1      39.549  30.144  28.610  1.00  0.00     0.010 A 
ATOM     51  C   UNL A   1      40.245  29.758  30.900  1.00  0.00     0.010 A 
ATOM     52  C   UNL A   1      38.298  30.571  29.067  1.00  0.00     0.020 A 
ATOM     53  C   UNL A   1      38.986  30.152  31.359  1.00  0.00     0.020 A 
ATOM     54  C   UNL A   1      38.024  30.569  30.437  1.00  0.00     0.054 A 
BRANCH  54  55
ATOM     55  S   UNL A   1      36.378  31.080  31.003  1.00  0.00     0.124 S 
ATOM     56  O   UNL A   1      35.615  31.076  29.759  1.00  0.00    -0.237 OA
ATOM     57  O   UNL A   1      36.036  30.033  31.961  1.00  0.00    -0.237 OA
ATOM     58  O   UNL A   1      36.612  32.398  31.590  1.00  0.00    -0.744 OA
ENDBRANCH  54  55
ENDBRANCH  26  49
BRANCH  38  59
ATOM     59  C   UNL A   1      46.822  32.708  28.912  1.00  0.00    -0.014 A 
ATOM     60  C   UNL A   1      46.768  33.711  27.926  1.00  0.00     0.010 A 
ATOM     61  C   UNL A   1      47.316  33.028  30.190  1.00  0.00     0.010 A 
ATOM     62  C   UNL A   1      47.234  34.998  28.204  1.00  0.00     0.020 A 
ATOM     63  C   UNL A   1      47.753  34.323  30.480  1.00  0.00     0.020 A 
ATOM     64  C   UNL A   1      47.724  35.296  29.479  1.00  0.00     0.054 A 
BRANCH  64  65
ATOM     65  S   UNL A   1      48.289  36.983  29.824  1.00  0.00     0.124 S 
ATOM     66  O   UNL A   1      48.753  37.423  28.512  1.00  0.00    -0.237 OA
ATOM     67  O   UNL A   1      47.076  37.633  30.313  1.00  0.00    -0.237 OA
ATOM     68  O   UNL A   1      49.338  36.800  30.826  1.00  0.00    -0.744 OA
ENDBRANCH  64  65
ENDBRANCH  38  59
ENDBRANCH  12  13
ENDBRANCH   5   7
ENDBRANCH   2   3
ENDBRANCH   1   2
BRANCH   1  69
ATOM     69  C   UNL A   1      36.827  20.565  25.064  1.00  0.00     0.117 C 
BRANCH  69  70
ATOM     70  N   UNL A   1      36.911  21.800  25.821  1.00  0.00    -0.354 N 
ATOM     71  C   UNL A   1      36.155  22.921  25.694  1.00  0.00     0.244 C 
ATOM     72  H   UNL A   1      37.606  21.829  26.516  1.00  0.00     0.163 HD
ATOM     73  O   UNL A   1      36.763  23.983  25.889  1.00  0.00    -0.273 OA
BRANCH  71  74
ATOM     74  C   UNL A   1      34.606  22.930  25.563  1.00  0.00     0.197 C 
BRANCH  74  75
ATOM     75  N   UNL A   1      34.287  22.750  24.134  1.00  0.00    -0.340 N 
ATOM     76  C   UNL A   1      33.781  23.614  23.210  1.00  0.00     0.244 C 
ATOM     77  H   UNL A   1      34.472  21.848  23.787  1.00  0.00     0.164 HD
ATOM     78  O   UNL A   1      33.799  23.252  22.031  1.00  0.00    -0.273 OA
BRANCH  76  79
ATOM     79  C   UNL A   1      33.234  24.996  23.615  1.00  0.00     0.181 C 
BRANCH  79  80
ATOM     80  N   UNL A   1      33.790  26.005  22.702  1.00  0.00    -0.339 N 
ATOM     81  C   UNL A   1      33.674  27.371  22.699  1.00  0.00     0.251 C 
ATOM     82  H   UNL A   1      34.338  25.639  21.970  1.00  0.00     0.164 HD
ATOM     83  O   UNL A   1      33.989  28.025  21.711  1.00  0.00    -0.269 OA
BRANCH  81  84
ATOM     84  C   UNL A   1      33.151  28.073  23.892  1.00  0.00     0.040 A 
ATOM     85  C   UNL A   1      33.971  28.265  25.006  1.00  0.00     0.017 A 
ATOM     86  C   UNL A   1      31.860  28.607  23.881  1.00  0.00     0.017 A 
ATOM     87  C   UNL A   1      33.472  28.867  26.159  1.00  0.00     0.040 A 
ATOM     88  C   UNL A   1      31.367  29.243  25.024  1.00  0.00     0.040 A 
ATOM     89  C   UNL A   1      32.167  29.343  26.160  1.00  0.00     0.123 A 
ATOM     90  F   UNL A   1      31.677  29.919  27.266  1.00  0.00    -0.207 F 
ENDBRANCH  81  84
ENDBRANCH  79  80
BRANCH  79  91
ATOM     91  C   UNL A   1      31.691  25.000  23.620  1.00  0.00     0.101 C 
BRANCH  91  92
ATOM     92  S   UNL A   1      30.882  24.526  25.187  1.00  0.00    -0.177 SA
ATOM     93  H   UNL A   1      31.094  25.493  26.119  1.00  0.00     0.102 HD
ENDBRANCH  91  92
ENDBRANCH  79  91
ENDBRANCH  76  79
ENDBRANCH  74  75
BRANCH  74  94
ATOM     94  C   UNL A   1      33.737  22.000  26.398  1.00  0.00     0.191 C 
BRANCH  94  95
ATOM     95  O   UNL A   1      34.412  21.495  27.539  1.00  0.00    -0.394 OA
ATOM     96  H   UNL A   1      34.879  20.679  27.303  1.00  0.00     0.210 HD
ENDBRANCH  94  95
ENDBRANCH  74  94
ENDBRANCH  71  74
ENDBRANCH  69  70
ENDBRANCH   1  69
TORSDOF 21
ENDMDL
