MODEL 1
REMARK VINA RESULT:     -11.2      0.000      0.000
REMARK SMILES C[C@@H](C(=O)NCCCNC(=O)c1ccc(-c2c3nc(c(-c4ccc(S(=O)(=O)[O-])cc4)c4ccc([nH]4)c(-c4ccc(S(=O)(=O)[O-])cc4)c4nc(c(-c5ccc(S(=O)(=O)[O-])cc5)c5ccc2[nH]5)C=C4)C=C3)cc1)c1ccc(C[C@@H]2CCC[C@@H]2O)cc1
REMARK SMILES IDX 6 1 5 2 3 3 4 4 2 6 1 7 72 8 73 9 84 10 74 11 83 12 75 13
REMARK SMILES IDX 76 14 77 15 78 16 81 17 79 18 80 19 82 20 7 22 8 23 9 24
REMARK SMILES IDX 10 25 11 27 12 28 13 29 71 30 14 31 70 32 15 33 16 34 17 35
REMARK SMILES IDX 64 36 18 37 69 38 63 39 65 40 19 41 68 42 62 43 61 44 20 46
REMARK SMILES IDX 50 47 31 48 49 49 32 50 35 51 48 52 66 53 33 54 34 55 47 57
REMARK SMILES IDX 67 58 36 59 21 60 22 61 30 62 23 63 29 64 24 65 25 66 26 67
REMARK SMILES IDX 27 68 28 69 51 70 52 71 60 72 53 73 59 74 54 75 55 76 56 77
REMARK SMILES IDX 57 78 58 79 37 80 38 81 46 82 39 83 45 84 40 85 41 86 42 87
REMARK SMILES IDX 43 88 44 89
REMARK H PARENT 5 5 82 21 9 26 65 45 35 56
REMARK Flexibility Score: inf
ROOT
ATOM      1  C   UNL A   1      37.001  20.764  25.181  1.00  0.00     0.117 C 
ENDROOT
BRANCH   1   2
ATOM      2  N   UNL A   1      37.089  21.717  24.092  1.00  0.00    -0.356 N 
ATOM      3  C   UNL A   1      36.207  22.662  23.653  1.00  0.00     0.227 C 
ATOM      4  O   UNL A   1      36.586  23.338  22.695  1.00  0.00    -0.274 OA
ATOM      5  H   UNL A   1      37.929  21.677  23.582  1.00  0.00     0.163 HD
BRANCH   3   6
ATOM      6  C   UNL A   1      34.855  22.850  24.365  1.00  0.00     0.105 C 
ATOM      7  C   UNL A   1      33.796  21.861  23.866  1.00  0.00     0.023 C 
BRANCH   6   8
ATOM      8  C   UNL A   1      34.249  24.249  24.265  1.00  0.00    -0.036 A 
ATOM      9  C   UNL A   1      33.661  24.658  23.057  1.00  0.00     0.005 A 
ATOM     10  C   UNL A   1      34.383  25.196  25.288  1.00  0.00     0.005 A 
ATOM     11  C   UNL A   1      33.255  25.983  22.869  1.00  0.00     0.004 A 
ATOM     12  C   UNL A   1      33.961  26.513  25.106  1.00  0.00     0.004 A 
ATOM     13  C   UNL A   1      33.435  26.931  23.880  1.00  0.00    -0.048 A 
BRANCH  13  14
ATOM     14  C   UNL A   1      33.128  28.391  23.658  1.00  0.00     0.041 C 
BRANCH  14  15
ATOM     15  C   UNL A   1      31.711  28.888  24.028  1.00  0.00     0.022 C 
ATOM     16  C   UNL A   1      30.872  27.889  24.833  1.00  0.00     0.007 C 
ATOM     17  C   UNL A   1      30.767  29.267  22.881  1.00  0.00     0.117 C 
ATOM     18  C   UNL A   1      29.904  27.226  23.850  1.00  0.00     0.003 C 
ATOM     19  C   UNL A   1      30.034  27.978  22.529  1.00  0.00     0.032 C 
BRANCH  17  20
ATOM     20  O   UNL A   1      31.430  29.854  21.781  1.00  0.00    -0.393 OA
ATOM     21  H   UNL A   1      31.381  30.820  21.853  1.00  0.00     0.210 HD
ENDBRANCH  17  20
ENDBRANCH  14  15
ENDBRANCH  13  14
ENDBRANCH   6   8
ENDBRANCH   3   6
ENDBRANCH   1   2
BRANCH   1  22
ATOM     22  C   UNL A   1      38.203  19.820  25.221  1.00  0.00     0.042 C 
BRANCH  22  23
ATOM     23  C   UNL A   1      39.417  20.358  25.974  1.00  0.00     0.118 C 
BRANCH  23  24
ATOM     24  N   UNL A   1      40.479  19.377  26.110  1.00  0.00    -0.352 N 
ATOM     25  C   UNL A   1      41.827  19.551  26.296  1.00  0.00     0.251 C 
ATOM     26  H   UNL A   1      40.186  18.437  26.061  1.00  0.00     0.163 HD
ATOM     27  O   UNL A   1      42.573  18.576  26.211  1.00  0.00    -0.269 OA
BRANCH  25  28
ATOM     28  C   UNL A   1      42.393  20.891  26.574  1.00  0.00     0.039 A 
ATOM     29  C   UNL A   1      42.802  21.679  25.494  1.00  0.00     0.014 A 
ATOM     30  C   UNL A   1      42.562  21.362  27.880  1.00  0.00     0.014 A 
ATOM     31  C   UNL A   1      43.325  22.954  25.720  1.00  0.00     0.010 A 
ATOM     32  C   UNL A   1      43.015  22.662  28.100  1.00  0.00     0.010 A 
ATOM     33  C   UNL A   1      43.408  23.471  27.024  1.00  0.00    -0.014 A 
BRANCH  33  34
ATOM     34  C   UNL A   1      43.900  24.853  27.265  1.00  0.00     0.031 A 
ATOM     35  C   UNL A   1      45.352  25.196  27.061  1.00  0.00     0.074 A 
ATOM     36  C   UNL A   1      43.042  25.795  27.704  1.00  0.00     0.049 A 
ATOM     37  N   UNL A   1      45.958  26.344  27.231  1.00  0.00    -0.248 NA
ATOM     38  C   UNL A   1      46.242  24.106  26.631  1.00  0.00     0.031 C 
ATOM     39  C   UNL A   1      41.620  25.580  27.988  1.00  0.00     0.029 A 
ATOM     40  N   UNL A   1      43.239  27.123  27.990  1.00  0.00    -0.354 N 
ATOM     41  C   UNL A   1      47.297  26.114  26.936  1.00  0.00     0.074 A 
ATOM     42  C   UNL A   1      47.424  24.705  26.631  1.00  0.00     0.031 C 
ATOM     43  C   UNL A   1      41.069  26.739  28.380  1.00  0.00     0.029 A 
ATOM     44  C   UNL A   1      42.101  27.772  28.409  1.00  0.00     0.049 A 
ATOM     45  H   UNL A   1      44.112  27.569  27.904  1.00  0.00     0.167 HD
ATOM     46  C   UNL A   1      48.325  26.997  26.900  1.00  0.00     0.031 A 
ATOM     47  C   UNL A   1      41.905  29.053  28.776  1.00  0.00     0.031 A 
ATOM     48  C   UNL A   1      48.198  28.399  27.201  1.00  0.00     0.049 A 
ATOM     49  C   UNL A   1      43.059  30.015  28.726  1.00  0.00     0.074 A 
ATOM     50  C   UNL A   1      49.171  29.382  27.154  1.00  0.00     0.029 A 
ATOM     51  N   UNL A   1      47.025  29.018  27.607  1.00  0.00    -0.354 N 
ATOM     52  N   UNL A   1      44.306  29.788  28.384  1.00  0.00    -0.248 NA
ATOM     53  C   UNL A   1      42.776  31.410  29.093  1.00  0.00     0.031 C 
ATOM     54  C   UNL A   1      48.598  30.587  27.573  1.00  0.00     0.029 A 
ATOM     55  C   UNL A   1      47.254  30.367  27.828  1.00  0.00     0.049 A 
ATOM     56  H   UNL A   1      46.158  28.566  27.721  1.00  0.00     0.167 HD
ATOM     57  C   UNL A   1      44.950  31.017  28.475  1.00  0.00     0.074 A 
ATOM     58  C   UNL A   1      43.952  31.985  28.882  1.00  0.00     0.031 C 
ATOM     59  C   UNL A   1      46.253  31.316  28.242  1.00  0.00     0.031 A 
BRANCH  46  60
ATOM     60  C   UNL A   1      49.682  26.466  26.514  1.00  0.00    -0.014 A 
ATOM     61  C   UNL A   1      50.510  25.842  27.465  1.00  0.00     0.010 A 
ATOM     62  C   UNL A   1      50.120  26.557  25.181  1.00  0.00     0.010 A 
ATOM     63  C   UNL A   1      51.769  25.358  27.100  1.00  0.00     0.020 A 
ATOM     64  C   UNL A   1      51.368  26.048  24.805  1.00  0.00     0.020 A 
ATOM     65  C   UNL A   1      52.192  25.468  25.772  1.00  0.00     0.054 A 
BRANCH  65  66
ATOM     66  S   UNL A   1      53.824  24.815  25.323  1.00  0.00     0.124 S 
ATOM     67  O   UNL A   1      54.153  25.613  24.144  1.00  0.00    -0.237 OA
ATOM     68  O   UNL A   1      54.621  25.097  26.514  1.00  0.00    -0.237 OA
ATOM     69  O   UNL A   1      53.572  23.399  25.066  1.00  0.00    -0.744 OA
ENDBRANCH  65  66
ENDBRANCH  46  60
BRANCH  47  70
ATOM     70  C   UNL A   1      40.554  29.501  29.210  1.00  0.00    -0.014 A 
ATOM     71  C   UNL A   1      39.576  29.854  28.263  1.00  0.00     0.010 A 
ATOM     72  C   UNL A   1      40.233  29.563  30.578  1.00  0.00     0.010 A 
ATOM     73  C   UNL A   1      38.310  30.278  28.676  1.00  0.00     0.020 A 
ATOM     74  C   UNL A   1      38.959  29.959  30.995  1.00  0.00     0.020 A 
ATOM     75  C   UNL A   1      38.008  30.326  30.040  1.00  0.00     0.054 A 
BRANCH  75  76
ATOM     76  S   UNL A   1      36.342  30.826  30.554  1.00  0.00     0.124 S 
ATOM     77  O   UNL A   1      36.498  32.267  30.727  1.00  0.00    -0.237 OA
ATOM     78  O   UNL A   1      35.522  30.410  29.419  1.00  0.00    -0.237 OA
ATOM     79  O   UNL A   1      36.122  30.066  31.783  1.00  0.00    -0.744 OA
ENDBRANCH  75  76
ENDBRANCH  47  70
BRANCH  59  80
ATOM     80  C   UNL A   1      46.666  32.757  28.395  1.00  0.00    -0.014 A 
ATOM     81  C   UNL A   1      47.279  33.218  29.573  1.00  0.00     0.010 A 
ATOM     82  C   UNL A   1      46.468  33.654  27.329  1.00  0.00     0.010 A 
ATOM     83  C   UNL A   1      47.647  34.561  29.699  1.00  0.00     0.020 A 
ATOM     84  C   UNL A   1      46.861  34.989  27.439  1.00  0.00     0.020 A 
ATOM     85  C   UNL A   1      47.432  35.438  28.631  1.00  0.00     0.054 A 
BRANCH  85  86
ATOM     86  S   UNL A   1      47.941  37.170  28.808  1.00  0.00     0.124 S 
ATOM     87  O   UNL A   1      46.998  37.855  27.929  1.00  0.00    -0.237 OA
ATOM     88  O   UNL A   1      47.760  37.415  30.237  1.00  0.00    -0.237 OA
ATOM     89  O   UNL A   1      49.330  37.171  28.354  1.00  0.00    -0.744 OA
ENDBRANCH  85  86
ENDBRANCH  59  80
ENDBRANCH  33  34
ENDBRANCH  25  28
ENDBRANCH  23  24
ENDBRANCH  22  23
ENDBRANCH   1  22
TORSDOF 17
ENDMDL
MODEL 2
REMARK VINA RESULT:     -11.1      3.866      9.799
REMARK SMILES C[C@@H](C(=O)NCCCNC(=O)c1ccc(-c2c3nc(c(-c4ccc(S(=O)(=O)[O-])cc4)c4ccc([nH]4)c(-c4ccc(S(=O)(=O)[O-])cc4)c4nc(c(-c5ccc(S(=O)(=O)[O-])cc5)c5ccc2[nH]5)C=C4)C=C3)cc1)c1ccc(C[C@@H]2CCC[C@@H]2O)cc1
REMARK SMILES IDX 6 1 5 2 3 3 4 4 2 6 1 7 72 8 73 9 84 10 74 11 83 12 75 13
REMARK SMILES IDX 76 14 77 15 78 16 81 17 79 18 80 19 82 20 7 22 8 23 9 24
REMARK SMILES IDX 10 25 11 27 12 28 13 29 71 30 14 31 70 32 15 33 16 34 17 35
REMARK SMILES IDX 64 36 18 37 69 38 63 39 65 40 19 41 68 42 62 43 61 44 20 46
REMARK SMILES IDX 50 47 31 48 49 49 32 50 35 51 48 52 66 53 33 54 34 55 47 57
REMARK SMILES IDX 67 58 36 59 21 60 22 61 30 62 23 63 29 64 24 65 25 66 26 67
REMARK SMILES IDX 27 68 28 69 51 70 52 71 60 72 53 73 59 74 54 75 55 76 56 77
REMARK SMILES IDX 57 78 58 79 37 80 38 81 46 82 39 83 45 84 40 85 41 86 42 87
REMARK SMILES IDX 43 88 44 89
REMARK H PARENT 5 5 82 21 9 26 65 45 35 56
REMARK Flexibility Score: inf
ROOT
ATOM      1  C   UNL A   1      31.880  26.665  26.480  1.00  0.00     0.117 C 
ENDROOT
BRANCH   1   2
ATOM      2  N   UNL A   1      30.903  26.270  25.484  1.00  0.00    -0.356 N 
ATOM      3  C   UNL A   1      31.043  25.597  24.305  1.00  0.00     0.227 C 
ATOM      4  O   UNL A   1      30.000  25.399  23.679  1.00  0.00    -0.274 OA
ATOM      5  H   UNL A   1      29.978  26.531  25.695  1.00  0.00     0.163 HD
BRANCH   3   6
ATOM      6  C   UNL A   1      32.431  25.111  23.852  1.00  0.00     0.105 C 
ATOM      7  C   UNL A   1      32.808  25.648  22.466  1.00  0.00     0.023 C 
BRANCH   6   8
ATOM      8  C   UNL A   1      32.617  23.594  23.814  1.00  0.00    -0.036 A 
ATOM      9  C   UNL A   1      32.170  22.876  22.693  1.00  0.00     0.005 A 
ATOM     10  C   UNL A   1      33.087  22.872  24.918  1.00  0.00     0.005 A 
ATOM     11  C   UNL A   1      32.161  21.477  22.695  1.00  0.00     0.004 A 
ATOM     12  C   UNL A   1      33.094  21.478  24.911  1.00  0.00     0.004 A 
ATOM     13  C   UNL A   1      32.590  20.766  23.819  1.00  0.00    -0.048 A 
BRANCH  13  14
ATOM     14  C   UNL A   1      32.468  19.265  23.898  1.00  0.00     0.041 C 
BRANCH  14  15
ATOM     15  C   UNL A   1      33.666  18.480  24.482  1.00  0.00     0.022 C 
ATOM     16  C   UNL A   1      34.291  17.459  23.523  1.00  0.00     0.007 C 
ATOM     17  C   UNL A   1      33.424  17.645  25.745  1.00  0.00     0.117 C 
ATOM     18  C   UNL A   1      33.757  16.083  23.929  1.00  0.00     0.003 C 
ATOM     19  C   UNL A   1      32.996  16.274  25.237  1.00  0.00     0.032 C 
BRANCH  17  20
ATOM     20  O   UNL A   1      32.494  18.231  26.632  1.00  0.00    -0.393 OA
ATOM     21  H   UNL A   1      32.298  17.609  27.351  1.00  0.00     0.210 HD
ENDBRANCH  17  20
ENDBRANCH  14  15
ENDBRANCH  13  14
ENDBRANCH   6   8
ENDBRANCH   3   6
ENDBRANCH   1   2
BRANCH   1  22
ATOM     22  C   UNL A   1      32.709  27.868  26.030  1.00  0.00     0.042 C 
BRANCH  22  23
ATOM     23  C   UNL A   1      33.807  28.291  27.003  1.00  0.00     0.118 C 
BRANCH  23  24
ATOM     24  N   UNL A   1      33.685  29.676  27.426  1.00  0.00    -0.352 N 
ATOM     25  C   UNL A   1      34.560  30.467  28.125  1.00  0.00     0.251 C 
ATOM     26  H   UNL A   1      32.841  30.116  27.171  1.00  0.00     0.163 HD
ATOM     27  O   UNL A   1      34.180  31.566  28.529  1.00  0.00    -0.269 OA
BRANCH  25  28
ATOM     28  C   UNL A   1      35.938  30.011  28.418  1.00  0.00     0.039 A 
ATOM     29  C   UNL A   1      36.901  30.107  27.409  1.00  0.00     0.014 A 
ATOM     30  C   UNL A   1      36.281  29.455  29.655  1.00  0.00     0.014 A 
ATOM     31  C   UNL A   1      38.214  29.700  27.658  1.00  0.00     0.010 A 
ATOM     32  C   UNL A   1      37.607  29.119  29.925  1.00  0.00     0.010 A 
ATOM     33  C   UNL A   1      38.588  29.231  28.929  1.00  0.00    -0.014 A 
BRANCH  33  34
ATOM     34  C   UNL A   1      39.998  28.862  29.220  1.00  0.00     0.031 A 
ATOM     35  C   UNL A   1      40.928  29.846  29.877  1.00  0.00     0.074 A 
ATOM     36  C   UNL A   1      40.452  27.645  28.859  1.00  0.00     0.049 A 
ATOM     37  N   UNL A   1      42.189  29.699  30.197  1.00  0.00    -0.248 NA
ATOM     38  C   UNL A   1      40.380  31.174  30.196  1.00  0.00     0.031 C 
ATOM     39  C   UNL A   1      39.666  26.617  28.172  1.00  0.00     0.029 A 
ATOM     40  N   UNL A   1      41.687  27.066  29.018  1.00  0.00    -0.354 N 
ATOM     41  C   UNL A   1      42.586  30.913  30.748  1.00  0.00     0.074 A 
ATOM     42  C   UNL A   1      41.447  31.803  30.667  1.00  0.00     0.031 C 
ATOM     43  C   UNL A   1      40.428  25.526  27.995  1.00  0.00     0.029 A 
ATOM     44  C   UNL A   1      41.764  25.786  28.522  1.00  0.00     0.049 A 
ATOM     45  H   UNL A   1      42.445  27.524  29.446  1.00  0.00     0.167 HD
ATOM     46  C   UNL A   1      43.779  31.252  31.293  1.00  0.00     0.031 A 
ATOM     47  C   UNL A   1      42.792  24.916  28.491  1.00  0.00     0.031 A 
ATOM     48  C   UNL A   1      44.911  30.367  31.375  1.00  0.00     0.049 A 
ATOM     49  C   UNL A   1      44.107  25.313  29.104  1.00  0.00     0.074 A 
ATOM     50  C   UNL A   1      46.150  30.603  31.944  1.00  0.00     0.029 A 
ATOM     51  N   UNL A   1      44.943  29.074  30.874  1.00  0.00    -0.354 N 
ATOM     52  N   UNL A   1      44.440  26.446  29.675  1.00  0.00    -0.248 NA
ATOM     53  C   UNL A   1      45.178  24.307  29.083  1.00  0.00     0.031 C 
ATOM     54  C   UNL A   1      46.946  29.469  31.748  1.00  0.00     0.029 A 
ATOM     55  C   UNL A   1      46.185  28.506  31.106  1.00  0.00     0.049 A 
ATOM     56  H   UNL A   1      44.193  28.625  30.420  1.00  0.00     0.167 HD
ATOM     57  C   UNL A   1      45.753  26.281  30.102  1.00  0.00     0.074 A 
ATOM     58  C   UNL A   1      46.144  24.933  29.741  1.00  0.00     0.031 C 
ATOM     59  C   UNL A   1      46.563  27.166  30.735  1.00  0.00     0.031 A 
BRANCH  46  60
ATOM     60  C   UNL A   1      43.918  32.647  31.847  1.00  0.00    -0.014 A 
ATOM     61  C   UNL A   1      44.339  33.711  31.029  1.00  0.00     0.010 A 
ATOM     62  C   UNL A   1      43.587  32.906  33.190  1.00  0.00     0.010 A 
ATOM     63  C   UNL A   1      44.471  35.000  31.554  1.00  0.00     0.020 A 
ATOM     64  C   UNL A   1      43.690  34.201  33.711  1.00  0.00     0.020 A 
ATOM     65  C   UNL A   1      44.149  35.235  32.893  1.00  0.00     0.054 A 
BRANCH  65  66
ATOM     66  S   UNL A   1      44.311  36.921  33.542  1.00  0.00     0.124 S 
ATOM     67  O   UNL A   1      44.913  36.683  34.852  1.00  0.00    -0.237 OA
ATOM     68  O   UNL A   1      45.182  37.561  32.559  1.00  0.00    -0.237 OA
ATOM     69  O   UNL A   1      42.938  37.417  33.570  1.00  0.00    -0.744 OA
ENDBRANCH  65  66
ENDBRANCH  46  60
BRANCH  47  70
ATOM     70  C   UNL A   1      42.611  23.576  27.871  1.00  0.00    -0.014 A 
ATOM     71  C   UNL A   1      42.987  23.347  26.535  1.00  0.00     0.010 A 
ATOM     72  C   UNL A   1      42.073  22.514  28.620  1.00  0.00     0.010 A 
ATOM     73  C   UNL A   1      42.811  22.086  25.956  1.00  0.00     0.020 A 
ATOM     74  C   UNL A   1      41.921  21.246  28.054  1.00  0.00     0.020 A 
ATOM     75  C   UNL A   1      42.281  21.043  26.720  1.00  0.00     0.054 A 
BRANCH  75  76
ATOM     76  S   UNL A   1      42.111  19.401  25.967  1.00  0.00     0.124 S 
ATOM     77  O   UNL A   1      42.929  19.533  24.765  1.00  0.00    -0.237 OA
ATOM     78  O   UNL A   1      42.646  18.521  27.004  1.00  0.00    -0.237 OA
ATOM     79  O   UNL A   1      40.673  19.278  25.739  1.00  0.00    -0.744 OA
ENDBRANCH  75  76
ENDBRANCH  47  70
BRANCH  59  80
ATOM     80  C   UNL A   1      47.945  26.694  31.103  1.00  0.00    -0.014 A 
ATOM     81  C   UNL A   1      48.186  26.020  32.313  1.00  0.00     0.010 A 
ATOM     82  C   UNL A   1      49.011  26.899  30.208  1.00  0.00     0.010 A 
ATOM     83  C   UNL A   1      49.477  25.597  32.641  1.00  0.00     0.020 A 
ATOM     84  C   UNL A   1      50.297  26.452  30.519  1.00  0.00     0.020 A 
ATOM     85  C   UNL A   1      50.525  25.819  31.742  1.00  0.00     0.054 A 
BRANCH  85  86
ATOM     86  S   UNL A   1      52.188  25.239  32.178  1.00  0.00     0.124 S 
ATOM     87  O   UNL A   1      51.982  23.799  32.305  1.00  0.00    -0.237 OA
ATOM     88  O   UNL A   1      52.987  25.661  31.031  1.00  0.00    -0.237 OA
ATOM     89  O   UNL A   1      52.482  25.938  33.427  1.00  0.00    -0.744 OA
ENDBRANCH  85  86
ENDBRANCH  59  80
ENDBRANCH  33  34
ENDBRANCH  25  28
ENDBRANCH  23  24
ENDBRANCH  22  23
ENDBRANCH   1  22
TORSDOF 17
ENDMDL
MODEL 3
REMARK VINA RESULT:     -11.1      5.514     10.328
REMARK SMILES C[C@@H](C(=O)NCCCNC(=O)c1ccc(-c2c3nc(c(-c4ccc(S(=O)(=O)[O-])cc4)c4ccc([nH]4)c(-c4ccc(S(=O)(=O)[O-])cc4)c4nc(c(-c5ccc(S(=O)(=O)[O-])cc5)c5ccc2[nH]5)C=C4)C=C3)cc1)c1ccc(C[C@@H]2CCC[C@@H]2O)cc1
REMARK SMILES IDX 6 1 5 2 3 3 4 4 2 6 1 7 72 8 73 9 84 10 74 11 83 12 75 13
REMARK SMILES IDX 76 14 77 15 78 16 81 17 79 18 80 19 82 20 7 22 8 23 9 24
REMARK SMILES IDX 10 25 11 27 12 28 13 29 71 30 14 31 70 32 15 33 16 34 17 35
REMARK SMILES IDX 64 36 18 37 69 38 63 39 65 40 19 41 68 42 62 43 61 44 20 46
REMARK SMILES IDX 50 47 31 48 49 49 32 50 35 51 48 52 66 53 33 54 34 55 47 57
REMARK SMILES IDX 67 58 36 59 21 60 22 61 30 62 23 63 29 64 24 65 25 66 26 67
REMARK SMILES IDX 27 68 28 69 51 70 52 71 60 72 53 73 59 74 54 75 55 76 56 77
REMARK SMILES IDX 57 78 58 79 37 80 38 81 46 82 39 83 45 84 40 85 41 86 42 87
REMARK SMILES IDX 43 88 44 89
REMARK H PARENT 5 5 82 21 9 26 65 45 35 56
REMARK Flexibility Score: inf
ROOT
ATOM      1  C   UNL A   1      33.046  25.657  25.994  1.00  0.00     0.117 C 
ENDROOT
BRANCH   1   2
ATOM      2  N   UNL A   1      32.036  24.853  26.656  1.00  0.00    -0.356 N 
ATOM      3  C   UNL A   1      31.020  24.094  26.152  1.00  0.00     0.227 C 
ATOM      4  O   UNL A   1      30.329  23.509  26.989  1.00  0.00    -0.274 OA
ATOM      5  H   UNL A   1      32.094  24.855  27.638  1.00  0.00     0.163 HD
BRANCH   3   6
ATOM      6  C   UNL A   1      30.816  23.984  24.631  1.00  0.00     0.105 C 
ATOM      7  C   UNL A   1      32.034  23.374  23.927  1.00  0.00     0.023 C 
BRANCH   6   8
ATOM      8  C   UNL A   1      30.490  25.294  23.915  1.00  0.00    -0.036 A 
ATOM      9  C   UNL A   1      31.339  25.748  22.893  1.00  0.00     0.005 A 
ATOM     10  C   UNL A   1      29.453  26.136  24.336  1.00  0.00     0.005 A 
ATOM     11  C   UNL A   1      31.176  27.021  22.337  1.00  0.00     0.004 A 
ATOM     12  C   UNL A   1      29.280  27.398  23.768  1.00  0.00     0.004 A 
ATOM     13  C   UNL A   1      30.166  27.871  22.796  1.00  0.00    -0.048 A 
BRANCH  13  14
ATOM     14  C   UNL A   1      30.049  29.294  22.308  1.00  0.00     0.041 C 
BRANCH  14  15
ATOM     15  C   UNL A   1      28.713  30.030  22.565  1.00  0.00     0.022 C 
ATOM     16  C   UNL A   1      27.936  30.407  21.299  1.00  0.00     0.007 C 
ATOM     17  C   UNL A   1      28.767  31.358  23.330  1.00  0.00     0.117 C 
ATOM     18  C   UNL A   1      28.198  31.893  21.040  1.00  0.00     0.003 C 
ATOM     19  C   UNL A   1      28.949  32.425  22.257  1.00  0.00     0.032 C 
BRANCH  17  20
ATOM     20  O   UNL A   1      29.766  31.389  24.327  1.00  0.00    -0.393 OA
ATOM     21  H   UNL A   1      29.490  30.840  25.078  1.00  0.00     0.210 HD
ENDBRANCH  17  20
ENDBRANCH  14  15
ENDBRANCH  13  14
ENDBRANCH   6   8
ENDBRANCH   3   6
ENDBRANCH   1   2
BRANCH   1  22
ATOM     22  C   UNL A   1      32.763  27.153  26.113  1.00  0.00     0.042 C 
BRANCH  22  23
ATOM     23  C   UNL A   1      33.990  28.019  26.384  1.00  0.00     0.118 C 
BRANCH  23  24
ATOM     24  N   UNL A   1      33.666  29.426  26.546  1.00  0.00    -0.352 N 
ATOM     25  C   UNL A   1      34.278  30.394  27.301  1.00  0.00     0.251 C 
ATOM     26  H   UNL A   1      32.882  29.734  26.034  1.00  0.00     0.163 HD
ATOM     27  O   UNL A   1      33.730  31.489  27.428  1.00  0.00    -0.269 OA
BRANCH  25  28
ATOM     28  C   UNL A   1      35.569  30.133  27.978  1.00  0.00     0.039 A 
ATOM     29  C   UNL A   1      35.549  29.683  29.301  1.00  0.00     0.014 A 
ATOM     30  C   UNL A   1      36.793  30.364  27.341  1.00  0.00     0.014 A 
ATOM     31  C   UNL A   1      36.749  29.412  29.963  1.00  0.00     0.010 A 
ATOM     32  C   UNL A   1      37.986  30.023  27.978  1.00  0.00     0.010 A 
ATOM     33  C   UNL A   1      37.978  29.549  29.298  1.00  0.00    -0.014 A 
BRANCH  33  34
ATOM     34  C   UNL A   1      39.254  29.197  29.975  1.00  0.00     0.031 A 
ATOM     35  C   UNL A   1      39.710  29.956  31.192  1.00  0.00     0.074 A 
ATOM     36  C   UNL A   1      40.022  28.211  29.470  1.00  0.00     0.049 A 
ATOM     37  N   UNL A   1      40.797  29.793  31.904  1.00  0.00    -0.248 NA
ATOM     38  C   UNL A   1      38.848  31.054  31.657  1.00  0.00     0.031 C 
ATOM     39  C   UNL A   1      39.718  27.431  28.268  1.00  0.00     0.029 A 
ATOM     40  N   UNL A   1      41.219  27.696  29.904  1.00  0.00    -0.354 N 
ATOM     41  C   UNL A   1      40.752  30.767  32.896  1.00  0.00     0.074 A 
ATOM     42  C   UNL A   1      39.559  31.553  32.658  1.00  0.00     0.031 C 
ATOM     43  C   UNL A   1      40.685  26.521  28.077  1.00  0.00     0.029 A 
ATOM     44  C   UNL A   1      41.695  26.672  29.119  1.00  0.00     0.049 A 
ATOM     45  H   UNL A   1      41.692  28.029  30.700  1.00  0.00     0.167 HD
ATOM     46  C   UNL A   1      41.610  30.978  33.923  1.00  0.00     0.031 A 
ATOM     47  C   UNL A   1      42.819  25.936  29.223  1.00  0.00     0.031 A 
ATOM     48  C   UNL A   1      42.795  30.195  34.160  1.00  0.00     0.049 A 
ATOM     49  C   UNL A   1      43.755  26.185  30.373  1.00  0.00     0.074 A 
ATOM     50  C   UNL A   1      43.706  30.304  35.196  1.00  0.00     0.029 A 
ATOM     51  N   UNL A   1      43.233  29.158  33.351  1.00  0.00    -0.354 N 
ATOM     52  N   UNL A   1      43.661  27.073  31.334  1.00  0.00    -0.248 NA
ATOM     53  C   UNL A   1      44.941  25.321  30.461  1.00  0.00     0.031 C 
ATOM     54  C   UNL A   1      44.719  29.362  34.989  1.00  0.00     0.029 A 
ATOM     55  C   UNL A   1      44.410  28.629  33.855  1.00  0.00     0.049 A 
ATOM     56  H   UNL A   1      42.776  28.843  32.538  1.00  0.00     0.167 HD
ATOM     57  C   UNL A   1      44.763  26.859  32.154  1.00  0.00     0.074 A 
ATOM     58  C   UNL A   1      45.497  25.747  31.587  1.00  0.00     0.031 C 
ATOM     59  C   UNL A   1      45.134  27.526  33.276  1.00  0.00     0.031 A 
BRANCH  46  60
ATOM     60  C   UNL A   1      41.292  32.103  34.874  1.00  0.00    -0.014 A 
ATOM     61  C   UNL A   1      40.474  31.889  35.999  1.00  0.00     0.010 A 
ATOM     62  C   UNL A   1      41.844  33.379  34.664  1.00  0.00     0.010 A 
ATOM     63  C   UNL A   1      40.179  32.940  36.871  1.00  0.00     0.020 A 
ATOM     64  C   UNL A   1      41.575  34.427  35.551  1.00  0.00     0.020 A 
ATOM     65  C   UNL A   1      40.729  34.204  36.639  1.00  0.00     0.054 A 
BRANCH  65  66
ATOM     66  S   UNL A   1      40.343  35.545  37.798  1.00  0.00     0.124 S 
ATOM     67  O   UNL A   1      39.302  34.938  38.625  1.00  0.00    -0.237 OA
ATOM     68  O   UNL A   1      41.623  35.769  38.466  1.00  0.00    -0.237 OA
ATOM     69  O   UNL A   1      39.895  36.634  36.934  1.00  0.00    -0.744 OA
ENDBRANCH  65  66
ENDBRANCH  46  60
BRANCH  47  70
ATOM     70  C   UNL A   1      43.110  24.881  28.215  1.00  0.00    -0.014 A 
ATOM     71  C   UNL A   1      43.758  25.201  27.008  1.00  0.00     0.010 A 
ATOM     72  C   UNL A   1      42.751  23.544  28.464  1.00  0.00     0.010 A 
ATOM     73  C   UNL A   1      44.025  24.206  26.063  1.00  0.00     0.020 A 
ATOM     74  C   UNL A   1      43.042  22.543  27.534  1.00  0.00     0.020 A 
ATOM     75  C   UNL A   1      43.667  22.883  26.332  1.00  0.00     0.054 A 
BRANCH  75  76
ATOM     76  S   UNL A   1      44.071  21.598  25.117  1.00  0.00     0.124 S 
ATOM     77  O   UNL A   1      45.408  21.192  25.538  1.00  0.00    -0.237 OA
ATOM     78  O   UNL A   1      43.013  20.614  25.333  1.00  0.00    -0.237 OA
ATOM     79  O   UNL A   1      44.002  22.304  23.839  1.00  0.00    -0.744 OA
ENDBRANCH  75  76
ENDBRANCH  47  70
BRANCH  59  80
ATOM     80  C   UNL A   1      46.377  27.049  33.981  1.00  0.00    -0.014 A 
ATOM     81  C   UNL A   1      46.323  26.023  34.941  1.00  0.00     0.010 A 
ATOM     82  C   UNL A   1      47.623  27.613  33.650  1.00  0.00     0.010 A 
ATOM     83  C   UNL A   1      47.486  25.600  35.590  1.00  0.00     0.020 A 
ATOM     84  C   UNL A   1      48.792  27.173  34.275  1.00  0.00     0.020 A 
ATOM     85  C   UNL A   1      48.713  26.181  35.255  1.00  0.00     0.054 A 
BRANCH  85  86
ATOM     86  S   UNL A   1      50.213  25.599  36.092  1.00  0.00     0.124 S 
ATOM     87  O   UNL A   1      49.691  24.531  36.941  1.00  0.00    -0.237 OA
ATOM     88  O   UNL A   1      51.054  25.163  34.980  1.00  0.00    -0.237 OA
ATOM     89  O   UNL A   1      50.694  26.781  36.803  1.00  0.00    -0.744 OA
ENDBRANCH  85  86
ENDBRANCH  59  80
ENDBRANCH  33  34
ENDBRANCH  25  28
ENDBRANCH  23  24
ENDBRANCH  22  23
ENDBRANCH   1  22
TORSDOF 17
ENDMDL
