MODEL 1
REMARK VINA RESULT:     -10.6      0.000      0.000
REMARK SMILES NC(=O)C[C@H](NC(=O)[C@@H]1CC(=O)N(CC2CC2)C1)C(=O)NCCCNC(=O)c1ccc(-c2c3nc(c(-c4ccc(S(=O)(=O)[O-])cc4)c4ccc([nH]4)c(-c4ccc(S(=O)(=O)[O-])cc4)c4nc(c(-c5ccc(S(=O)(=O)[O-])cc5)c5ccc2[nH]5)C=C4)C=C3)cc1
REMARK SMILES IDX 22 1 21 2 19 3 20 4 5 6 4 7 2 8 1 9 3 12 6 13 7 14 8 16 9 17
REMARK SMILES IDX 10 18 18 19 11 20 13 21 12 22 14 23 15 24 16 25 17 26 23 27
REMARK SMILES IDX 24 28 25 29 26 30 27 32 28 33 29 34 87 35 30 36 86 37 31 38
REMARK SMILES IDX 32 39 33 40 80 41 34 42 85 43 79 44 81 45 35 46 84 47 78 48
REMARK SMILES IDX 77 49 36 51 66 52 47 53 65 54 48 55 51 56 64 57 82 58 49 59
REMARK SMILES IDX 50 60 63 62 83 63 52 64 37 65 38 66 46 67 39 68 45 69 40 70
REMARK SMILES IDX 41 71 42 72 43 73 44 74 67 75 68 76 76 77 69 78 75 79 70 80
REMARK SMILES IDX 71 81 72 82 73 83 74 84 53 85 54 86 62 87 55 88 61 89 56 90
REMARK SMILES IDX 57 91 58 92 59 93 60 94
REMARK H PARENT 21 5 1 10 1 11 6 15 25 31 81 50 51 61
REMARK Flexibility Score: inf
ROOT
ATOM      1  C   UNL A   1      36.730  22.944  25.633  1.00  0.00     0.117 C 
ENDROOT
BRANCH   1   2
ATOM      2  N   UNL A   1      35.678  23.042  26.619  1.00  0.00    -0.354 N 
ATOM      3  C   UNL A   1      34.336  23.180  26.454  1.00  0.00     0.243 C 
ATOM      4  O   UNL A   1      33.622  23.039  27.452  1.00  0.00    -0.273 OA
ATOM      5  H   UNL A   1      35.981  23.003  27.555  1.00  0.00     0.163 HD
BRANCH   3   6
ATOM      6  C   UNL A   1      33.704  23.510  25.087  1.00  0.00     0.180 C 
BRANCH   6   7
ATOM      7  C   UNL A   1      33.735  22.407  24.032  1.00  0.00     0.134 C 
BRANCH   7   8
ATOM      8  C   UNL A   1      33.171  22.706  22.670  1.00  0.00     0.220 C 
ATOM      9  N   UNL A   1      32.067  21.990  22.309  1.00  0.00    -0.370 N 
ATOM     10  H   UNL A   1      31.651  22.140  21.429  1.00  0.00     0.159 HD
ATOM     11  H   UNL A   1      31.689  21.325  22.928  1.00  0.00     0.159 HD
ATOM     12  O   UNL A   1      33.653  23.541  21.914  1.00  0.00    -0.275 OA
ENDBRANCH   7   8
ENDBRANCH   6   7
BRANCH   6  13
ATOM     13  N   UNL A   1      34.115  24.842  24.623  1.00  0.00    -0.343 N 
ATOM     14  C   UNL A   1      33.633  26.086  24.851  1.00  0.00     0.226 C 
ATOM     15  H   UNL A   1      34.897  24.827  24.025  1.00  0.00     0.164 HD
ATOM     16  O   UNL A   1      34.362  27.013  24.477  1.00  0.00    -0.275 OA
BRANCH  14  17
ATOM     17  C   UNL A   1      32.243  26.420  25.372  1.00  0.00     0.107 C 
ATOM     18  C   UNL A   1      31.301  27.271  24.532  1.00  0.00     0.115 C 
ATOM     19  C   UNL A   1      32.340  27.127  26.708  1.00  0.00     0.133 C 
ATOM     20  C   UNL A   1      31.370  28.635  25.187  1.00  0.00     0.223 C 
ATOM     21  N   UNL A   1      32.020  28.497  26.403  1.00  0.00    -0.342 N 
ATOM     22  O   UNL A   1      30.952  29.667  24.702  1.00  0.00    -0.275 OA
BRANCH  21  23
ATOM     23  C   UNL A   1      32.350  29.603  27.281  1.00  0.00     0.123 C 
BRANCH  23  24
ATOM     24  C   UNL A   1      33.598  30.352  26.937  1.00  0.00     0.008 C 
ATOM     25  C   UNL A   1      34.222  31.406  27.816  1.00  0.00     0.006 C 
ATOM     26  C   UNL A   1      34.911  30.080  27.629  1.00  0.00     0.006 C 
ENDBRANCH  23  24
ENDBRANCH  21  23
ENDBRANCH  14  17
ENDBRANCH   6  13
ENDBRANCH   3   6
ENDBRANCH   1   2
BRANCH   1  27
ATOM     27  C   UNL A   1      37.782  24.020  25.763  1.00  0.00     0.042 C 
BRANCH  27  28
ATOM     28  C   UNL A   1      38.892  23.649  26.725  1.00  0.00     0.118 C 
BRANCH  28  29
ATOM     29  N   UNL A   1      40.221  23.858  26.161  1.00  0.00    -0.352 N 
ATOM     30  C   UNL A   1      41.112  24.889  26.348  1.00  0.00     0.251 C 
ATOM     31  H   UNL A   1      40.530  23.150  25.552  1.00  0.00     0.163 HD
ATOM     32  O   UNL A   1      42.103  24.979  25.630  1.00  0.00    -0.269 OA
BRANCH  30  33
ATOM     33  C   UNL A   1      40.856  25.897  27.397  1.00  0.00     0.039 A 
ATOM     34  C   UNL A   1      39.927  25.625  28.403  1.00  0.00     0.014 A 
ATOM     35  C   UNL A   1      41.550  27.107  27.394  1.00  0.00     0.014 A 
ATOM     36  C   UNL A   1      39.753  26.540  29.444  1.00  0.00     0.010 A 
ATOM     37  C   UNL A   1      41.485  27.940  28.499  1.00  0.00     0.010 A 
ATOM     38  C   UNL A   1      40.561  27.686  29.520  1.00  0.00    -0.014 A 
BRANCH  38  39
ATOM     39  C   UNL A   1      40.421  28.681  30.612  1.00  0.00     0.031 A 
ATOM     40  C   UNL A   1      41.300  28.561  31.832  1.00  0.00     0.074 A 
ATOM     41  C   UNL A   1      39.474  29.636  30.541  1.00  0.00     0.049 A 
ATOM     42  N   UNL A   1      41.265  29.245  32.945  1.00  0.00    -0.248 NA
ATOM     43  C   UNL A   1      42.327  27.502  31.817  1.00  0.00     0.031 C 
ATOM     44  C   UNL A   1      38.533  29.827  29.432  1.00  0.00     0.029 A 
ATOM     45  N   UNL A   1      39.142  30.630  31.427  1.00  0.00    -0.354 N 
ATOM     46  C   UNL A   1      42.240  28.685  33.762  1.00  0.00     0.074 A 
ATOM     47  C   UNL A   1      42.799  27.559  33.053  1.00  0.00     0.031 C 
ATOM     48  C   UNL A   1      37.760  30.896  29.689  1.00  0.00     0.029 A 
ATOM     49  C   UNL A   1      38.115  31.436  30.996  1.00  0.00     0.049 A 
ATOM     50  H   UNL A   1      39.597  30.754  32.292  1.00  0.00     0.167 HD
ATOM     51  C   UNL A   1      42.666  29.094  34.980  1.00  0.00     0.031 A 
ATOM     52  C   UNL A   1      37.525  32.491  31.593  1.00  0.00     0.031 A 
ATOM     53  C   UNL A   1      42.138  30.242  35.664  1.00  0.00     0.049 A 
ATOM     54  C   UNL A   1      38.019  32.927  32.947  1.00  0.00     0.074 A 
ATOM     55  C   UNL A   1      42.526  30.772  36.880  1.00  0.00     0.029 A 
ATOM     56  N   UNL A   1      41.120  31.048  35.179  1.00  0.00    -0.354 N 
ATOM     57  N   UNL A   1      38.974  32.409  33.684  1.00  0.00    -0.248 NA
ATOM     58  C   UNL A   1      37.368  34.101  33.543  1.00  0.00     0.031 C 
ATOM     59  C   UNL A   1      41.715  31.878  37.150  1.00  0.00     0.029 A 
ATOM     60  C   UNL A   1      40.863  32.070  36.073  1.00  0.00     0.049 A 
ATOM     61  H   UNL A   1      40.649  30.912  34.324  1.00  0.00     0.167 HD
ATOM     62  C   UNL A   1      39.065  33.221  34.810  1.00  0.00     0.074 A 
ATOM     63  C   UNL A   1      38.078  34.269  34.649  1.00  0.00     0.031 C 
ATOM     64  C   UNL A   1      39.890  33.114  35.879  1.00  0.00     0.031 A 
BRANCH  51  65
ATOM     65  C   UNL A   1      43.773  28.312  35.634  1.00  0.00    -0.014 A 
ATOM     66  C   UNL A   1      43.490  27.174  36.413  1.00  0.00     0.010 A 
ATOM     67  C   UNL A   1      45.113  28.684  35.430  1.00  0.00     0.010 A 
ATOM     68  C   UNL A   1      44.524  26.442  37.000  1.00  0.00     0.020 A 
ATOM     69  C   UNL A   1      46.153  27.935  35.989  1.00  0.00     0.020 A 
ATOM     70  C   UNL A   1      45.850  26.825  36.780  1.00  0.00     0.054 A 
BRANCH  70  71
ATOM     71  S   UNL A   1      47.172  25.821  37.510  1.00  0.00     0.124 S 
ATOM     72  O   UNL A   1      48.316  26.726  37.430  1.00  0.00    -0.237 OA
ATOM     73  O   UNL A   1      46.670  25.563  38.857  1.00  0.00    -0.237 OA
ATOM     74  O   UNL A   1      47.242  24.651  36.638  1.00  0.00    -0.744 OA
ENDBRANCH  70  71
ENDBRANCH  51  65
BRANCH  52  75
ATOM     75  C   UNL A   1      36.420  33.224  30.915  1.00  0.00    -0.014 A 
ATOM     76  C   UNL A   1      36.682  34.032  29.793  1.00  0.00     0.010 A 
ATOM     77  C   UNL A   1      35.103  33.146  31.407  1.00  0.00     0.010 A 
ATOM     78  C   UNL A   1      35.659  34.784  29.205  1.00  0.00     0.020 A 
ATOM     79  C   UNL A   1      34.073  33.871  30.800  1.00  0.00     0.020 A 
ATOM     80  C   UNL A   1      34.362  34.702  29.717  1.00  0.00     0.054 A 
BRANCH  80  81
ATOM     81  S   UNL A   1      33.050  35.684  28.937  1.00  0.00     0.124 S 
ATOM     82  O   UNL A   1      32.353  34.678  28.140  1.00  0.00    -0.237 OA
ATOM     83  O   UNL A   1      32.314  36.199  30.088  1.00  0.00    -0.237 OA
ATOM     84  O   UNL A   1      33.785  36.690  28.175  1.00  0.00    -0.744 OA
ENDBRANCH  80  81
ENDBRANCH  52  75
BRANCH  64  85
ATOM     85  C   UNL A   1      39.810  34.190  36.927  1.00  0.00    -0.014 A 
ATOM     86  C   UNL A   1      40.381  35.458  36.724  1.00  0.00     0.010 A 
ATOM     87  C   UNL A   1      39.100  33.937  38.116  1.00  0.00     0.010 A 
ATOM     88  C   UNL A   1      40.278  36.442  37.711  1.00  0.00     0.020 A 
ATOM     89  C   UNL A   1      38.967  34.929  39.089  1.00  0.00     0.020 A 
ATOM     90  C   UNL A   1      39.572  36.170  38.887  1.00  0.00     0.054 A 
BRANCH  90  91
ATOM     91  S   UNL A   1      39.421  37.477  40.134  1.00  0.00     0.124 S 
ATOM     92  O   UNL A   1      40.817  37.842  40.362  1.00  0.00    -0.237 OA
ATOM     93  O   UNL A   1      38.612  38.482  39.450  1.00  0.00    -0.237 OA
ATOM     94  O   UNL A   1      38.761  36.811  41.256  1.00  0.00    -0.744 OA
ENDBRANCH  90  91
ENDBRANCH  64  85
ENDBRANCH  38  39
ENDBRANCH  30  33
ENDBRANCH  28  29
ENDBRANCH  27  28
ENDBRANCH   1  27
TORSDOF 19
ENDMDL
MODEL 2
REMARK VINA RESULT:     -10.5      6.212     10.718
REMARK SMILES NC(=O)C[C@H](NC(=O)[C@@H]1CC(=O)N(CC2CC2)C1)C(=O)NCCCNC(=O)c1ccc(-c2c3nc(c(-c4ccc(S(=O)(=O)[O-])cc4)c4ccc([nH]4)c(-c4ccc(S(=O)(=O)[O-])cc4)c4nc(c(-c5ccc(S(=O)(=O)[O-])cc5)c5ccc2[nH]5)C=C4)C=C3)cc1
REMARK SMILES IDX 22 1 21 2 19 3 20 4 5 6 4 7 2 8 1 9 3 12 6 13 7 14 8 16 9 17
REMARK SMILES IDX 10 18 18 19 11 20 13 21 12 22 14 23 15 24 16 25 17 26 23 27
REMARK SMILES IDX 24 28 25 29 26 30 27 32 28 33 29 34 87 35 30 36 86 37 31 38
REMARK SMILES IDX 32 39 33 40 80 41 34 42 85 43 79 44 81 45 35 46 84 47 78 48
REMARK SMILES IDX 77 49 36 51 66 52 47 53 65 54 48 55 51 56 64 57 82 58 49 59
REMARK SMILES IDX 50 60 63 62 83 63 52 64 37 65 38 66 46 67 39 68 45 69 40 70
REMARK SMILES IDX 41 71 42 72 43 73 44 74 67 75 68 76 76 77 69 78 75 79 70 80
REMARK SMILES IDX 71 81 72 82 73 83 74 84 53 85 54 86 62 87 55 88 61 89 56 90
REMARK SMILES IDX 57 91 58 92 59 93 60 94
REMARK H PARENT 21 5 1 10 1 11 6 15 25 31 81 50 51 61
REMARK Flexibility Score: inf
ROOT
ATOM      1  C   UNL A   1      36.732  21.663  24.995  1.00  0.00     0.117 C 
ENDROOT
BRANCH   1   2
ATOM      2  N   UNL A   1      35.990  21.790  26.229  1.00  0.00    -0.354 N 
ATOM      3  C   UNL A   1      34.686  21.517  26.497  1.00  0.00     0.243 C 
ATOM      4  O   UNL A   1      34.336  21.517  27.681  1.00  0.00    -0.273 OA
ATOM      5  H   UNL A   1      36.511  22.127  26.994  1.00  0.00     0.163 HD
BRANCH   3   6
ATOM      6  C   UNL A   1      33.661  21.226  25.384  1.00  0.00     0.180 C 
BRANCH   6   7
ATOM      7  C   UNL A   1      33.759  19.865  24.698  1.00  0.00     0.134 C 
BRANCH   7   8
ATOM      8  C   UNL A   1      32.844  18.766  25.159  1.00  0.00     0.220 C 
ATOM      9  N   UNL A   1      32.901  18.457  26.487  1.00  0.00    -0.370 N 
ATOM     10  H   UNL A   1      32.327  17.745  26.851  1.00  0.00     0.159 HD
ATOM     11  H   UNL A   1      33.518  18.945  27.078  1.00  0.00     0.159 HD
ATOM     12  O   UNL A   1      32.079  18.170  24.409  1.00  0.00    -0.275 OA
ENDBRANCH   7   8
ENDBRANCH   6   7
BRANCH   6  13
ATOM     13  N   UNL A   1      33.514  22.379  24.485  1.00  0.00    -0.343 N 
ATOM     14  C   UNL A   1      33.433  23.713  24.703  1.00  0.00     0.226 C 
ATOM     15  H   UNL A   1      33.465  22.133  23.533  1.00  0.00     0.164 HD
ATOM     16  O   UNL A   1      33.540  24.421  23.695  1.00  0.00    -0.275 OA
BRANCH  14  17
ATOM     17  C   UNL A   1      33.075  24.377  26.023  1.00  0.00     0.107 C 
ATOM     18  C   UNL A   1      31.721  24.113  26.665  1.00  0.00     0.115 C 
ATOM     19  C   UNL A   1      33.171  25.884  25.894  1.00  0.00     0.133 C 
ATOM     20  C   UNL A   1      30.924  25.362  26.350  1.00  0.00     0.223 C 
ATOM     21  N   UNL A   1      31.800  26.320  25.865  1.00  0.00    -0.342 N 
ATOM     22  O   UNL A   1      29.722  25.477  26.476  1.00  0.00    -0.275 OA
BRANCH  21  23
ATOM     23  C   UNL A   1      31.393  27.624  25.377  1.00  0.00     0.123 C 
BRANCH  23  24
ATOM     24  C   UNL A   1      31.281  27.752  23.891  1.00  0.00     0.008 C 
ATOM     25  C   UNL A   1      30.811  26.648  22.978  1.00  0.00     0.006 C 
ATOM     26  C   UNL A   1      29.947  27.862  23.195  1.00  0.00     0.006 C 
ENDBRANCH  23  24
ENDBRANCH  21  23
ENDBRANCH  14  17
ENDBRANCH   6  13
ENDBRANCH   3   6
ENDBRANCH   1   2
BRANCH   1  27
ATOM     27  C   UNL A   1      37.790  20.587  25.035  1.00  0.00     0.042 C 
BRANCH  27  28
ATOM     28  C   UNL A   1      39.040  21.014  25.776  1.00  0.00     0.118 C 
BRANCH  28  29
ATOM     29  N   UNL A   1      39.943  19.901  26.051  1.00  0.00    -0.352 N 
ATOM     30  C   UNL A   1      41.299  19.893  26.279  1.00  0.00     0.251 C 
ATOM     31  H   UNL A   1      39.514  19.016  26.077  1.00  0.00     0.163 HD
ATOM     32  O   UNL A   1      41.911  18.830  26.296  1.00  0.00    -0.269 OA
BRANCH  30  33
ATOM     33  C   UNL A   1      42.016  21.171  26.475  1.00  0.00     0.039 A 
ATOM     34  C   UNL A   1      42.312  21.972  25.371  1.00  0.00     0.014 A 
ATOM     35  C   UNL A   1      42.379  21.584  27.756  1.00  0.00     0.014 A 
ATOM     36  C   UNL A   1      42.906  23.220  25.567  1.00  0.00     0.010 A 
ATOM     37  C   UNL A   1      42.831  22.877  27.961  1.00  0.00     0.010 A 
ATOM     38  C   UNL A   1      43.133  23.699  26.867  1.00  0.00    -0.014 A 
BRANCH  38  39
ATOM     39  C   UNL A   1      43.753  25.022  27.126  1.00  0.00     0.031 A 
ATOM     40  C   UNL A   1      42.898  26.138  27.676  1.00  0.00     0.074 A 
ATOM     41  C   UNL A   1      45.044  25.239  26.810  1.00  0.00     0.049 A 
ATOM     42  N   UNL A   1      43.204  27.395  27.864  1.00  0.00    -0.248 NA
ATOM     43  C   UNL A   1      41.502  25.807  28.018  1.00  0.00     0.031 C 
ATOM     44  C   UNL A   1      45.960  24.252  26.231  1.00  0.00     0.029 A 
ATOM     45  N   UNL A   1      45.812  26.370  26.929  1.00  0.00    -0.354 N 
ATOM     46  C   UNL A   1      42.038  28.001  28.319  1.00  0.00     0.074 A 
ATOM     47  C   UNL A   1      41.000  26.997  28.307  1.00  0.00     0.031 C 
ATOM     48  C   UNL A   1      47.174  24.810  26.083  1.00  0.00     0.029 A 
ATOM     49  C   UNL A   1      47.111  26.204  26.509  1.00  0.00     0.049 A 
ATOM     50  H   UNL A   1      45.465  27.222  27.280  1.00  0.00     0.167 HD
ATOM     51  C   UNL A   1      41.853  29.270  28.749  1.00  0.00     0.031 A 
ATOM     52  C   UNL A   1      48.134  27.080  26.472  1.00  0.00     0.031 A 
ATOM     53  C   UNL A   1      42.899  30.254  28.802  1.00  0.00     0.049 A 
ATOM     54  C   UNL A   1      47.903  28.486  26.959  1.00  0.00     0.074 A 
ATOM     55  C   UNL A   1      42.832  31.556  29.262  1.00  0.00     0.029 A 
ATOM     56  N   UNL A   1      44.206  30.034  28.397  1.00  0.00    -0.354 N 
ATOM     57  N   UNL A   1      46.802  29.027  27.427  1.00  0.00    -0.248 NA
ATOM     58  C   UNL A   1      49.055  29.396  26.929  1.00  0.00     0.031 C 
ATOM     59  C   UNL A   1      44.093  32.137  29.099  1.00  0.00     0.029 A 
ATOM     60  C   UNL A   1      44.956  31.179  28.593  1.00  0.00     0.049 A 
ATOM     61  H   UNL A   1      44.549  29.190  28.025  1.00  0.00     0.167 HD
ATOM     62  C   UNL A   1      47.143  30.327  27.787  1.00  0.00     0.074 A 
ATOM     63  C   UNL A   1      48.552  30.485  27.493  1.00  0.00     0.031 C 
ATOM     64  C   UNL A   1      46.364  31.303  28.314  1.00  0.00     0.031 A 
BRANCH  51  65
ATOM     65  C   UNL A   1      40.477  29.655  29.223  1.00  0.00    -0.014 A 
ATOM     66  C   UNL A   1      40.206  29.819  30.594  1.00  0.00     0.010 A 
ATOM     67  C   UNL A   1      39.456  29.905  28.290  1.00  0.00     0.010 A 
ATOM     68  C   UNL A   1      38.932  30.196  31.025  1.00  0.00     0.020 A 
ATOM     69  C   UNL A   1      38.188  30.313  28.714  1.00  0.00     0.020 A 
ATOM     70  C   UNL A   1      37.932  30.445  30.081  1.00  0.00     0.054 A 
BRANCH  70  71
ATOM     71  S   UNL A   1      36.304  30.987  30.669  1.00  0.00     0.124 S 
ATOM     72  O   UNL A   1      35.902  29.867  31.516  1.00  0.00    -0.237 OA
ATOM     73  O   UNL A   1      36.617  32.227  31.375  1.00  0.00    -0.237 OA
ATOM     74  O   UNL A   1      35.529  31.149  29.442  1.00  0.00    -0.744 OA
ENDBRANCH  70  71
ENDBRANCH  51  65
BRANCH  52  75
ATOM     75  C   UNL A   1      49.475  26.659  25.978  1.00  0.00    -0.014 A 
ATOM     76  C   UNL A   1      50.336  25.910  26.801  1.00  0.00     0.010 A 
ATOM     77  C   UNL A   1      49.913  27.031  24.693  1.00  0.00     0.010 A 
ATOM     78  C   UNL A   1      51.626  25.582  26.368  1.00  0.00     0.020 A 
ATOM     79  C   UNL A   1      51.189  26.677  24.246  1.00  0.00     0.020 A 
ATOM     80  C   UNL A   1      52.045  25.973  25.094  1.00  0.00     0.054 A 
BRANCH  80  81
ATOM     81  S   UNL A   1      53.720  25.536  24.552  1.00  0.00     0.124 S 
ATOM     82  O   UNL A   1      53.723  24.085  24.718  1.00  0.00    -0.237 OA
ATOM     83  O   UNL A   1      53.742  26.016  23.173  1.00  0.00    -0.237 OA
ATOM     84  O   UNL A   1      54.581  26.274  25.474  1.00  0.00    -0.744 OA
ENDBRANCH  80  81
ENDBRANCH  52  75
BRANCH  64  85
ATOM     85  C   UNL A   1      47.029  32.604  28.670  1.00  0.00    -0.014 A 
ATOM     86  C   UNL A   1      47.604  32.813  29.935  1.00  0.00     0.010 A 
ATOM     87  C   UNL A   1      47.125  33.615  27.694  1.00  0.00     0.010 A 
ATOM     88  C   UNL A   1      48.228  34.028  30.232  1.00  0.00     0.020 A 
ATOM     89  C   UNL A   1      47.776  34.816  27.977  1.00  0.00     0.020 A 
ATOM     90  C   UNL A   1      48.309  35.021  29.250  1.00  0.00     0.054 A 
BRANCH  90  91
ATOM     91  S   UNL A   1      49.157  36.573  29.650  1.00  0.00     0.124 S 
ATOM     92  O   UNL A   1      49.646  36.313  31.001  1.00  0.00    -0.237 OA
ATOM     93  O   UNL A   1      50.183  36.654  28.614  1.00  0.00    -0.237 OA
ATOM     94  O   UNL A   1      48.101  37.579  29.553  1.00  0.00    -0.744 OA
ENDBRANCH  90  91
ENDBRANCH  64  85
ENDBRANCH  38  39
ENDBRANCH  30  33
ENDBRANCH  28  29
ENDBRANCH  27  28
ENDBRANCH   1  27
TORSDOF 19
ENDMDL
MODEL 3
REMARK VINA RESULT:     -10.5      6.115      8.119
REMARK SMILES NC(=O)C[C@H](NC(=O)[C@@H]1CC(=O)N(CC2CC2)C1)C(=O)NCCCNC(=O)c1ccc(-c2c3nc(c(-c4ccc(S(=O)(=O)[O-])cc4)c4ccc([nH]4)c(-c4ccc(S(=O)(=O)[O-])cc4)c4nc(c(-c5ccc(S(=O)(=O)[O-])cc5)c5ccc2[nH]5)C=C4)C=C3)cc1
REMARK SMILES IDX 22 1 21 2 19 3 20 4 5 6 4 7 2 8 1 9 3 12 6 13 7 14 8 16 9 17
REMARK SMILES IDX 10 18 18 19 11 20 13 21 12 22 14 23 15 24 16 25 17 26 23 27
REMARK SMILES IDX 24 28 25 29 26 30 27 32 28 33 29 34 87 35 30 36 86 37 31 38
REMARK SMILES IDX 32 39 33 40 80 41 34 42 85 43 79 44 81 45 35 46 84 47 78 48
REMARK SMILES IDX 77 49 36 51 66 52 47 53 65 54 48 55 51 56 64 57 82 58 49 59
REMARK SMILES IDX 50 60 63 62 83 63 52 64 37 65 38 66 46 67 39 68 45 69 40 70
REMARK SMILES IDX 41 71 42 72 43 73 44 74 67 75 68 76 76 77 69 78 75 79 70 80
REMARK SMILES IDX 71 81 72 82 73 83 74 84 53 85 54 86 62 87 55 88 61 89 56 90
REMARK SMILES IDX 57 91 58 92 59 93 60 94
REMARK H PARENT 21 5 1 10 1 11 6 15 25 31 81 50 51 61
REMARK Flexibility Score: inf
ROOT
ATOM      1  C   UNL A   1      37.052  21.151  24.821  1.00  0.00     0.117 C 
ENDROOT
BRANCH   1   2
ATOM      2  N   UNL A   1      36.372  21.504  26.046  1.00  0.00    -0.354 N 
ATOM      3  C   UNL A   1      35.050  21.455  26.358  1.00  0.00     0.243 C 
ATOM      4  O   UNL A   1      34.737  21.620  27.541  1.00  0.00    -0.273 OA
ATOM      5  H   UNL A   1      36.958  21.831  26.767  1.00  0.00     0.163 HD
BRANCH   3   6
ATOM      6  C   UNL A   1      33.962  21.214  25.293  1.00  0.00     0.180 C 
BRANCH   6   7
ATOM      7  C   UNL A   1      33.927  19.831  24.646  1.00  0.00     0.134 C 
BRANCH   7   8
ATOM      8  C   UNL A   1      32.922  18.833  25.150  1.00  0.00     0.220 C 
ATOM      9  N   UNL A   1      32.903  18.633  26.500  1.00  0.00    -0.370 N 
ATOM     10  H   UNL A   1      32.268  17.992  26.893  1.00  0.00     0.159 HD
ATOM     11  H   UNL A   1      33.525  19.130  27.079  1.00  0.00     0.159 HD
ATOM     12  O   UNL A   1      32.153  18.225  24.416  1.00  0.00    -0.275 OA
ENDBRANCH   7   8
ENDBRANCH   6   7
BRANCH   6  13
ATOM     13  N   UNL A   1      33.870  22.349  24.365  1.00  0.00    -0.343 N 
ATOM     14  C   UNL A   1      33.806  23.689  24.552  1.00  0.00     0.226 C 
ATOM     15  H   UNL A   1      33.852  22.083  23.418  1.00  0.00     0.164 HD
ATOM     16  O   UNL A   1      33.963  24.373  23.533  1.00  0.00    -0.275 OA
BRANCH  14  17
ATOM     17  C   UNL A   1      33.411  24.389  25.843  1.00  0.00     0.107 C 
ATOM     18  C   UNL A   1      32.193  23.914  26.623  1.00  0.00     0.115 C 
ATOM     19  C   UNL A   1      33.176  25.863  25.588  1.00  0.00     0.133 C 
ATOM     20  C   UNL A   1      31.130  24.938  26.285  1.00  0.00     0.223 C 
ATOM     21  N   UNL A   1      31.745  26.005  25.650  1.00  0.00    -0.342 N 
ATOM     22  O   UNL A   1      29.942  24.816  26.510  1.00  0.00    -0.275 OA
BRANCH  21  23
ATOM     23  C   UNL A   1      31.036  27.145  25.100  1.00  0.00     0.123 C 
BRANCH  23  24
ATOM     24  C   UNL A   1      30.285  26.890  23.833  1.00  0.00     0.008 C 
ATOM     25  C   UNL A   1      29.444  27.922  23.124  1.00  0.00     0.006 C 
ATOM     26  C   UNL A   1      30.736  27.453  22.507  1.00  0.00     0.006 C 
ENDBRANCH  23  24
ENDBRANCH  21  23
ENDBRANCH  14  17
ENDBRANCH   6  13
ENDBRANCH   3   6
ENDBRANCH   1   2
BRANCH   1  27
ATOM     27  C   UNL A   1      38.107  20.086  25.001  1.00  0.00     0.042 C 
BRANCH  27  28
ATOM     28  C   UNL A   1      39.076  20.396  26.123  1.00  0.00     0.118 C 
BRANCH  28  29
ATOM     29  N   UNL A   1      40.264  19.550  26.094  1.00  0.00    -0.352 N 
ATOM     30  C   UNL A   1      41.595  19.887  26.155  1.00  0.00     0.251 C 
ATOM     31  H   UNL A   1      40.085  18.585  26.020  1.00  0.00     0.163 HD
ATOM     32  O   UNL A   1      42.453  19.042  25.918  1.00  0.00    -0.269 OA
BRANCH  30  33
ATOM     33  C   UNL A   1      41.985  21.275  26.480  1.00  0.00     0.039 A 
ATOM     34  C   UNL A   1      42.289  21.616  27.799  1.00  0.00     0.014 A 
ATOM     35  C   UNL A   1      42.066  22.237  25.473  1.00  0.00     0.014 A 
ATOM     36  C   UNL A   1      42.745  22.903  28.089  1.00  0.00     0.010 A 
ATOM     37  C   UNL A   1      42.657  23.462  25.737  1.00  0.00     0.010 A 
ATOM     38  C   UNL A   1      42.971  23.824  27.053  1.00  0.00    -0.014 A 
BRANCH  38  39
ATOM     39  C   UNL A   1      43.465  25.199  27.311  1.00  0.00     0.031 A 
ATOM     40  C   UNL A   1      44.917  25.518  27.052  1.00  0.00     0.074 A 
ATOM     41  C   UNL A   1      42.641  26.128  27.832  1.00  0.00     0.049 A 
ATOM     42  N   UNL A   1      45.581  26.613  27.317  1.00  0.00    -0.248 NA
ATOM     43  C   UNL A   1      45.742  24.450  26.457  1.00  0.00     0.031 C 
ATOM     44  C   UNL A   1      41.227  25.927  28.166  1.00  0.00     0.029 A 
ATOM     45  N   UNL A   1      42.876  27.435  28.177  1.00  0.00    -0.354 N 
ATOM     46  C   UNL A   1      46.895  26.354  26.946  1.00  0.00     0.074 A 
ATOM     47  C   UNL A   1      46.955  24.979  26.510  1.00  0.00     0.031 C 
ATOM     48  C   UNL A   1      40.715  27.079  28.630  1.00  0.00     0.029 A 
ATOM     49  C   UNL A   1      41.770  28.086  28.672  1.00  0.00     0.049 A 
ATOM     50  H   UNL A   1      43.756  27.867  28.080  1.00  0.00     0.167 HD
ATOM     51  C   UNL A   1      47.954  27.196  26.929  1.00  0.00     0.031 A 
ATOM     52  C   UNL A   1      41.628  29.352  29.112  1.00  0.00     0.031 A 
ATOM     53  C   UNL A   1      47.881  28.576  27.322  1.00  0.00     0.049 A 
ATOM     54  C   UNL A   1      42.821  30.269  29.080  1.00  0.00     0.074 A 
ATOM     55  C   UNL A   1      48.881  29.530  27.302  1.00  0.00     0.029 A 
ATOM     56  N   UNL A   1      46.735  29.201  27.787  1.00  0.00    -0.354 N 
ATOM     57  N   UNL A   1      44.047  30.016  28.684  1.00  0.00    -0.248 NA
ATOM     58  C   UNL A   1      42.609  31.648  29.540  1.00  0.00     0.031 C 
ATOM     59  C   UNL A   1      48.349  30.726  27.793  1.00  0.00     0.029 A 
ATOM     60  C   UNL A   1      47.004  30.529  28.062  1.00  0.00     0.049 A 
ATOM     61  H   UNL A   1      45.860  28.765  27.906  1.00  0.00     0.167 HD
ATOM     62  C   UNL A   1      44.739  31.217  28.806  1.00  0.00     0.074 A 
ATOM     63  C   UNL A   1      43.793  32.195  29.301  1.00  0.00     0.031 C 
ATOM     64  C   UNL A   1      46.038  31.489  28.532  1.00  0.00     0.031 A 
BRANCH  51  65
ATOM     65  C   UNL A   1      49.272  26.654  26.444  1.00  0.00    -0.014 A 
ATOM     66  C   UNL A   1      49.711  26.894  25.129  1.00  0.00     0.010 A 
ATOM     67  C   UNL A   1      50.105  25.939  27.322  1.00  0.00     0.010 A 
ATOM     68  C   UNL A   1      50.944  26.405  24.692  1.00  0.00     0.020 A 
ATOM     69  C   UNL A   1      51.354  25.475  26.900  1.00  0.00     0.020 A 
ATOM     70  C   UNL A   1      51.760  25.702  25.582  1.00  0.00     0.054 A 
BRANCH  70  71
ATOM     71  S   UNL A   1      53.379  25.127  25.002  1.00  0.00     0.124 S 
ATOM     72  O   UNL A   1      54.291  25.933  25.809  1.00  0.00    -0.237 OA
ATOM     73  O   UNL A   1      53.346  23.703  25.324  1.00  0.00    -0.237 OA
ATOM     74  O   UNL A   1      53.368  25.441  23.575  1.00  0.00    -0.744 OA
ENDBRANCH  70  71
ENDBRANCH  51  65
BRANCH  52  75
ATOM     75  C   UNL A   1      40.307  29.839  29.600  1.00  0.00    -0.014 A 
ATOM     76  C   UNL A   1      39.321  30.260  28.690  1.00  0.00     0.010 A 
ATOM     77  C   UNL A   1      40.040  29.918  30.980  1.00  0.00     0.010 A 
ATOM     78  C   UNL A   1      38.111  30.793  29.149  1.00  0.00     0.020 A 
ATOM     79  C   UNL A   1      38.819  30.419  31.441  1.00  0.00     0.020 A 
ATOM     80  C   UNL A   1      37.871  30.874  30.523  1.00  0.00     0.054 A 
BRANCH  80  81
ATOM     81  S   UNL A   1      36.296  31.566  31.097  1.00  0.00     0.124 S 
ATOM     82  O   UNL A   1      35.902  30.609  32.127  1.00  0.00    -0.237 OA
ATOM     83  O   UNL A   1      36.687  32.888  31.577  1.00  0.00    -0.237 OA
ATOM     84  O   UNL A   1      35.466  31.569  29.894  1.00  0.00    -0.744 OA
ENDBRANCH  80  81
ENDBRANCH  52  75
BRANCH  64  85
ATOM     85  C   UNL A   1      46.498  32.912  28.697  1.00  0.00    -0.014 A 
ATOM     86  C   UNL A   1      46.398  33.842  27.649  1.00  0.00     0.010 A 
ATOM     87  C   UNL A   1      46.989  33.333  29.947  1.00  0.00     0.010 A 
ATOM     88  C   UNL A   1      46.820  35.161  27.836  1.00  0.00     0.020 A 
ATOM     89  C   UNL A   1      47.381  34.657  30.147  1.00  0.00     0.020 A 
ATOM     90  C   UNL A   1      47.309  35.559  29.084  1.00  0.00     0.054 A 
BRANCH  90  91
ATOM     91  S   UNL A   1      47.815  37.285  29.311  1.00  0.00     0.124 S 
ATOM     92  O   UNL A   1      47.712  37.444  30.758  1.00  0.00    -0.237 OA
ATOM     93  O   UNL A   1      49.173  37.295  28.772  1.00  0.00    -0.237 OA
ATOM     94  O   UNL A   1      46.836  38.038  28.529  1.00  0.00    -0.744 OA
ENDBRANCH  90  91
ENDBRANCH  64  85
ENDBRANCH  38  39
ENDBRANCH  30  33
ENDBRANCH  28  29
ENDBRANCH  27  28
ENDBRANCH   1  27
TORSDOF 19
ENDMDL
