MODEL 1
REMARK VINA RESULT:     -12.3      0.000      0.000
REMARK SMILES O=C(NCCCNC(=O)[C@@H]1Nc2c(cccc2C(F)(F)F)[C@@H]2C=CC[C@@H]12)c1ccc(-c2c3nc(c(-c4ccc(S(=O)(=O)[O-])cc4)c4ccc([nH]4)c(-c4ccc(S(=O)(=O)[O-])cc4)c4nc(c(-c5ccc(S(=O)(=O)[O-])cc5)c5ccc2[nH]5)C=C4)C=C3)cc1
REMARK SMILES IDX 4 1 3 2 1 3 2 4 27 6 28 7 86 8 29 9 85 10 30 11 31 12 32 13
REMARK SMILES IDX 79 14 33 15 84 16 78 17 80 18 34 19 83 20 77 21 76 22 35 24
REMARK SMILES IDX 65 25 46 26 64 27 47 28 50 29 63 30 81 31 48 32 49 33 62 35
REMARK SMILES IDX 82 36 51 37 36 38 37 39 45 40 38 41 44 42 39 43 40 44 41 45
REMARK SMILES IDX 42 46 43 47 66 48 67 49 75 50 68 51 74 52 69 53 70 54 71 55
REMARK SMILES IDX 72 56 73 57 52 58 53 59 61 60 54 61 60 62 55 63 56 64 57 65
REMARK SMILES IDX 58 66 59 67 5 68 6 69 7 70 8 71 9 73 10 74 11 75 26 76 12 77
REMARK SMILES IDX 22 79 25 80 13 81 17 82 23 83 24 84 14 85 16 86 15 87 18 88
REMARK SMILES IDX 19 89 20 90 21 91
REMARK H PARENT 3 5 80 23 50 34 7 72 11 78
REMARK Flexibility Score: inf
ROOT
ATOM      1  C   UNL A   1      33.273  28.745  27.197  1.00  0.00     0.118 C 
ENDROOT
BRANCH   1   2
ATOM      2  N   UNL A   1      33.415  30.140  27.577  1.00  0.00    -0.352 N 
ATOM      3  O   UNL A   1      34.241  31.925  28.641  1.00  0.00    -0.269 OA
ATOM      4  C   UNL A   1      34.444  30.790  28.204  1.00  0.00     0.251 C 
ATOM      5  H   UNL A   1      32.647  30.712  27.346  1.00  0.00     0.163 HD
BRANCH   4   6
ATOM      6  C   UNL A   1      35.785  30.177  28.360  1.00  0.00     0.039 A 
ATOM      7  C   UNL A   1      36.107  29.589  29.588  1.00  0.00     0.014 A 
ATOM      8  C   UNL A   1      36.765  30.271  27.366  1.00  0.00     0.014 A 
ATOM      9  C   UNL A   1      37.399  29.112  29.822  1.00  0.00     0.010 A 
ATOM     10  C   UNL A   1      38.033  29.724  27.572  1.00  0.00     0.010 A 
ATOM     11  C   UNL A   1      38.376  29.180  28.818  1.00  0.00    -0.014 A 
BRANCH  11  12
ATOM     12  C   UNL A   1      39.785  28.794  29.101  1.00  0.00     0.031 A 
ATOM     13  C   UNL A   1      40.671  29.732  29.883  1.00  0.00     0.074 A 
ATOM     14  C   UNL A   1      40.265  27.608  28.678  1.00  0.00     0.049 A 
ATOM     15  N   UNL A   1      41.922  29.578  30.236  1.00  0.00    -0.248 NA
ATOM     16  C   UNL A   1      40.084  31.013  30.314  1.00  0.00     0.031 C 
ATOM     17  C   UNL A   1      39.509  26.617  27.911  1.00  0.00     0.029 A 
ATOM     18  N   UNL A   1      41.497  27.026  28.851  1.00  0.00    -0.354 N 
ATOM     19  C   UNL A   1      42.270  30.743  30.913  1.00  0.00     0.074 A 
ATOM     20  C   UNL A   1      41.120  31.616  30.878  1.00  0.00     0.031 C 
ATOM     21  C   UNL A   1      40.276  25.529  27.726  1.00  0.00     0.029 A 
ATOM     22  C   UNL A   1      41.588  25.757  28.327  1.00  0.00     0.049 A 
ATOM     23  H   UNL A   1      42.244  27.475  29.308  1.00  0.00     0.167 HD
ATOM     24  C   UNL A   1      43.432  31.046  31.536  1.00  0.00     0.031 A 
ATOM     25  C   UNL A   1      42.604  24.869  28.345  1.00  0.00     0.031 A 
ATOM     26  C   UNL A   1      44.560  30.157  31.612  1.00  0.00     0.049 A 
ATOM     27  C   UNL A   1      43.885  25.227  29.050  1.00  0.00     0.074 A 
ATOM     28  C   UNL A   1      45.770  30.364  32.251  1.00  0.00     0.029 A 
ATOM     29  N   UNL A   1      44.608  28.886  31.061  1.00  0.00    -0.354 N 
ATOM     30  N   UNL A   1      44.187  26.328  29.696  1.00  0.00    -0.248 NA
ATOM     31  C   UNL A   1      44.955  24.219  29.047  1.00  0.00     0.031 C 
ATOM     32  C   UNL A   1      46.568  29.237  32.048  1.00  0.00     0.029 A 
ATOM     33  C   UNL A   1      45.830  28.302  31.340  1.00  0.00     0.049 A 
ATOM     34  H   UNL A   1      43.881  28.464  30.548  1.00  0.00     0.167 HD
ATOM     35  C   UNL A   1      45.464  26.129  30.209  1.00  0.00     0.074 A 
ATOM     36  C   UNL A   1      45.879  24.802  29.800  1.00  0.00     0.031 C 
ATOM     37  C   UNL A   1      46.221  26.970  30.953  1.00  0.00     0.031 A 
BRANCH  24  38
ATOM     38  C   UNL A   1      43.551  32.381  32.221  1.00  0.00    -0.014 A 
ATOM     39  C   UNL A   1      43.235  32.498  33.587  1.00  0.00     0.010 A 
ATOM     40  C   UNL A   1      43.851  33.542  31.486  1.00  0.00     0.010 A 
ATOM     41  C   UNL A   1      43.180  33.752  34.198  1.00  0.00     0.020 A 
ATOM     42  C   UNL A   1      43.825  34.797  32.101  1.00  0.00     0.020 A 
ATOM     43  C   UNL A   1      43.463  34.895  33.447  1.00  0.00     0.054 A 
BRANCH  43  44
ATOM     44  S   UNL A   1      43.349  36.520  34.246  1.00  0.00     0.124 S 
ATOM     45  O   UNL A   1      43.689  37.425  33.152  1.00  0.00    -0.237 OA
ATOM     46  O   UNL A   1      41.958  36.560  34.691  1.00  0.00    -0.237 OA
ATOM     47  O   UNL A   1      44.334  36.441  35.322  1.00  0.00    -0.744 OA
ENDBRANCH  43  44
ENDBRANCH  24  38
BRANCH  25  48
ATOM     48  C   UNL A   1      42.413  23.525  27.735  1.00  0.00    -0.014 A 
ATOM     49  C   UNL A   1      41.675  22.529  28.402  1.00  0.00     0.010 A 
ATOM     50  C   UNL A   1      43.018  23.215  26.502  1.00  0.00     0.010 A 
ATOM     51  C   UNL A   1      41.576  21.241  27.867  1.00  0.00     0.020 A 
ATOM     52  C   UNL A   1      42.898  21.936  25.951  1.00  0.00     0.020 A 
ATOM     53  C   UNL A   1      42.199  20.950  26.650  1.00  0.00     0.054 A 
BRANCH  53  54
ATOM     54  S   UNL A   1      42.080  19.265  25.986  1.00  0.00     0.124 S 
ATOM     55  O   UNL A   1      42.895  19.362  24.779  1.00  0.00    -0.237 OA
ATOM     56  O   UNL A   1      42.644  18.456  27.063  1.00  0.00    -0.237 OA
ATOM     57  O   UNL A   1      40.647  19.087  25.763  1.00  0.00    -0.744 OA
ENDBRANCH  53  54
ENDBRANCH  25  48
BRANCH  37  58
ATOM     58  C   UNL A   1      47.567  26.494  31.432  1.00  0.00    -0.014 A 
ATOM     59  C   UNL A   1      48.688  26.642  30.593  1.00  0.00     0.010 A 
ATOM     60  C   UNL A   1      47.697  25.773  32.632  1.00  0.00     0.010 A 
ATOM     61  C   UNL A   1      49.907  26.050  30.927  1.00  0.00     0.020 A 
ATOM     62  C   UNL A   1      48.924  25.201  32.981  1.00  0.00     0.020 A 
ATOM     63  C   UNL A   1      50.014  25.321  32.113  1.00  0.00     0.054 A 
BRANCH  63  64
ATOM     64  S   UNL A   1      51.594  24.527  32.516  1.00  0.00     0.124 S 
ATOM     65  O   UNL A   1      52.519  25.213  31.619  1.00  0.00    -0.237 OA
ATOM     66  O   UNL A   1      51.755  24.828  33.936  1.00  0.00    -0.237 OA
ATOM     67  O   UNL A   1      51.355  23.119  32.210  1.00  0.00    -0.744 OA
ENDBRANCH  63  64
ENDBRANCH  37  58
ENDBRANCH  11  12
ENDBRANCH   4   6
ENDBRANCH   1   2
BRANCH   1  68
ATOM     68  C   UNL A   1      33.956  28.443  25.868  1.00  0.00     0.042 C 
BRANCH  68  69
ATOM     69  C   UNL A   1      33.271  29.071  24.656  1.00  0.00     0.117 C 
BRANCH  69  70
ATOM     70  N   UNL A   1      33.356  28.216  23.484  1.00  0.00    -0.354 N 
ATOM     71  C   UNL A   1      33.500  26.866  23.377  1.00  0.00     0.242 C 
ATOM     72  H   UNL A   1      33.301  28.693  22.624  1.00  0.00     0.163 HD
ATOM     73  O   UNL A   1      33.624  26.398  22.240  1.00  0.00    -0.273 OA
BRANCH  71  74
ATOM     74  C   UNL A   1      33.496  25.935  24.604  1.00  0.00     0.173 C 
ATOM     75  N   UNL A   1      34.478  24.845  24.441  1.00  0.00    -0.373 N 
ATOM     76  C   UNL A   1      32.141  25.334  24.915  1.00  0.00     0.036 C 
ATOM     77  C   UNL A   1      34.340  23.608  25.065  1.00  0.00     0.051 A 
ATOM     78  H   UNL A   1      35.263  24.999  23.868  1.00  0.00     0.161 HD
ATOM     79  C   UNL A   1      32.286  24.507  26.195  1.00  0.00     0.049 C 
ATOM     80  C   UNL A   1      30.956  26.248  25.191  1.00  0.00     0.034 C 
ATOM     81  C   UNL A   1      33.222  23.359  25.913  1.00  0.00    -0.017 A 
ATOM     82  C   UNL A   1      35.264  22.570  24.841  1.00  0.00     0.079 A 
ATOM     83  C   UNL A   1      30.835  24.301  26.512  1.00  0.00    -0.023 C 
ATOM     84  C   UNL A   1      30.102  25.300  25.990  1.00  0.00    -0.030 C 
ATOM     85  C   UNL A   1      33.072  22.118  26.547  1.00  0.00     0.006 A 
ATOM     86  C   UNL A   1      35.077  21.326  25.479  1.00  0.00     0.015 A 
ATOM     87  C   UNL A   1      33.994  21.104  26.325  1.00  0.00     0.001 A 
BRANCH  82  88
ATOM     88  C   UNL A   1      36.473  22.713  23.950  1.00  0.00     0.418 C 
ATOM     89  F   UNL A   1      36.131  22.974  22.654  1.00  0.00    -0.166 F 
ATOM     90  F   UNL A   1      37.279  23.747  24.326  1.00  0.00    -0.166 F 
ATOM     91  F   UNL A   1      37.288  21.619  23.896  1.00  0.00    -0.166 F 
ENDBRANCH  82  88
ENDBRANCH  71  74
ENDBRANCH  69  70
ENDBRANCH  68  69
ENDBRANCH   1  68
TORSDOF 14
ENDMDL
MODEL 2
REMARK VINA RESULT:     -12.2      2.540      3.646
REMARK SMILES O=C(NCCCNC(=O)[C@@H]1Nc2c(cccc2C(F)(F)F)[C@@H]2C=CC[C@@H]12)c1ccc(-c2c3nc(c(-c4ccc(S(=O)(=O)[O-])cc4)c4ccc([nH]4)c(-c4ccc(S(=O)(=O)[O-])cc4)c4nc(c(-c5ccc(S(=O)(=O)[O-])cc5)c5ccc2[nH]5)C=C4)C=C3)cc1
REMARK SMILES IDX 4 1 3 2 1 3 2 4 27 6 28 7 86 8 29 9 85 10 30 11 31 12 32 13
REMARK SMILES IDX 79 14 33 15 84 16 78 17 80 18 34 19 83 20 77 21 76 22 35 24
REMARK SMILES IDX 65 25 46 26 64 27 47 28 50 29 63 30 81 31 48 32 49 33 62 35
REMARK SMILES IDX 82 36 51 37 36 38 37 39 45 40 38 41 44 42 39 43 40 44 41 45
REMARK SMILES IDX 42 46 43 47 66 48 67 49 75 50 68 51 74 52 69 53 70 54 71 55
REMARK SMILES IDX 72 56 73 57 52 58 53 59 61 60 54 61 60 62 55 63 56 64 57 65
REMARK SMILES IDX 58 66 59 67 5 68 6 69 7 70 8 71 9 73 10 74 11 75 26 76 12 77
REMARK SMILES IDX 22 79 25 80 13 81 17 82 23 83 24 84 14 85 16 86 15 87 18 88
REMARK SMILES IDX 19 89 20 90 21 91
REMARK H PARENT 3 5 80 23 50 34 7 72 11 78
REMARK Flexibility Score: inf
ROOT
ATOM      1  C   UNL A   1      33.330  28.916  27.317  1.00  0.00     0.118 C 
ENDROOT
BRANCH   1   2
ATOM      2  N   UNL A   1      33.488  30.304  27.716  1.00  0.00    -0.352 N 
ATOM      3  O   UNL A   1      34.337  32.065  28.803  1.00  0.00    -0.269 OA
ATOM      4  C   UNL A   1      34.527  30.934  28.349  1.00  0.00     0.251 C 
ATOM      5  H   UNL A   1      32.726  30.887  27.497  1.00  0.00     0.163 HD
BRANCH   4   6
ATOM      6  C   UNL A   1      35.862  30.305  28.490  1.00  0.00     0.039 A 
ATOM      7  C   UNL A   1      36.177  29.684  29.703  1.00  0.00     0.014 A 
ATOM      8  C   UNL A   1      36.844  30.414  27.499  1.00  0.00     0.014 A 
ATOM      9  C   UNL A   1      37.465  29.189  29.926  1.00  0.00     0.010 A 
ATOM     10  C   UNL A   1      38.106  29.851  27.692  1.00  0.00     0.010 A 
ATOM     11  C   UNL A   1      38.444  29.274  28.925  1.00  0.00    -0.014 A 
BRANCH  11  12
ATOM     12  C   UNL A   1      39.848  28.868  29.199  1.00  0.00     0.031 A 
ATOM     13  C   UNL A   1      40.751  29.790  29.982  1.00  0.00     0.074 A 
ATOM     14  C   UNL A   1      40.311  27.678  28.768  1.00  0.00     0.049 A 
ATOM     15  N   UNL A   1      42.001  29.619  30.327  1.00  0.00    -0.248 NA
ATOM     16  C   UNL A   1      40.183  31.077  30.421  1.00  0.00     0.031 C 
ATOM     17  C   UNL A   1      39.539  26.700  28.000  1.00  0.00     0.029 A 
ATOM     18  N   UNL A   1      41.536  27.079  28.932  1.00  0.00    -0.354 N 
ATOM     19  C   UNL A   1      42.368  30.775  31.008  1.00  0.00     0.074 A 
ATOM     20  C   UNL A   1      41.229  31.664  30.982  1.00  0.00     0.031 C 
ATOM     21  C   UNL A   1      40.290  25.603  27.806  1.00  0.00     0.029 A 
ATOM     22  C   UNL A   1      41.608  25.812  28.402  1.00  0.00     0.049 A 
ATOM     23  H   UNL A   1      42.291  27.516  29.387  1.00  0.00     0.167 HD
ATOM     24  C   UNL A   1      43.537  31.060  31.627  1.00  0.00     0.031 A 
ATOM     25  C   UNL A   1      42.612  24.910  28.410  1.00  0.00     0.031 A 
ATOM     26  C   UNL A   1      44.653  30.156  31.693  1.00  0.00     0.049 A 
ATOM     27  C   UNL A   1      43.901  25.248  29.110  1.00  0.00     0.074 A 
ATOM     28  C   UNL A   1      45.869  30.344  32.326  1.00  0.00     0.029 A 
ATOM     29  N   UNL A   1      44.681  28.887  31.135  1.00  0.00    -0.354 N 
ATOM     30  N   UNL A   1      44.221  26.342  29.760  1.00  0.00    -0.248 NA
ATOM     31  C   UNL A   1      44.958  24.226  29.097  1.00  0.00     0.031 C 
ATOM     32  C   UNL A   1      46.651  29.207  32.115  1.00  0.00     0.029 A 
ATOM     33  C   UNL A   1      45.897  28.286  31.406  1.00  0.00     0.049 A 
ATOM     34  H   UNL A   1      43.947  28.477  30.624  1.00  0.00     0.167 HD
ATOM     35  C   UNL A   1      45.498  26.123  30.266  1.00  0.00     0.074 A 
ATOM     36  C   UNL A   1      45.893  24.794  29.849  1.00  0.00     0.031 C 
ATOM     37  C   UNL A   1      46.270  26.950  31.011  1.00  0.00     0.031 A 
BRANCH  24  38
ATOM     38  C   UNL A   1      43.676  32.390  32.318  1.00  0.00    -0.014 A 
ATOM     39  C   UNL A   1      43.248  32.535  33.650  1.00  0.00     0.010 A 
ATOM     40  C   UNL A   1      44.110  33.526  31.611  1.00  0.00     0.010 A 
ATOM     41  C   UNL A   1      43.217  33.795  34.252  1.00  0.00     0.020 A 
ATOM     42  C   UNL A   1      44.108  34.784  32.219  1.00  0.00     0.020 A 
ATOM     43  C   UNL A   1      43.635  34.913  33.527  1.00  0.00     0.054 A 
BRANCH  43  44
ATOM     44  S   UNL A   1      43.550  36.548  34.310  1.00  0.00     0.124 S 
ATOM     45  O   UNL A   1      42.300  36.466  35.059  1.00  0.00    -0.237 OA
ATOM     46  O   UNL A   1      44.769  36.580  35.115  1.00  0.00    -0.237 OA
ATOM     47  O   UNL A   1      43.542  37.469  33.176  1.00  0.00    -0.744 OA
ENDBRANCH  43  44
ENDBRANCH  24  38
BRANCH  25  48
ATOM     48  C   UNL A   1      42.401  23.571  27.794  1.00  0.00    -0.014 A 
ATOM     49  C   UNL A   1      41.810  22.526  28.528  1.00  0.00     0.010 A 
ATOM     50  C   UNL A   1      42.842  23.319  26.482  1.00  0.00     0.010 A 
ATOM     51  C   UNL A   1      41.697  21.246  27.977  1.00  0.00     0.020 A 
ATOM     52  C   UNL A   1      42.706  22.047  25.916  1.00  0.00     0.020 A 
ATOM     53  C   UNL A   1      42.157  21.013  26.677  1.00  0.00     0.054 A 
BRANCH  53  54
ATOM     54  S   UNL A   1      42.025  19.339  25.990  1.00  0.00     0.124 S 
ATOM     55  O   UNL A   1      42.881  19.433  24.811  1.00  0.00    -0.237 OA
ATOM     56  O   UNL A   1      42.537  18.505  27.074  1.00  0.00    -0.237 OA
ATOM     57  O   UNL A   1      40.597  19.193  25.718  1.00  0.00    -0.744 OA
ENDBRANCH  53  54
ENDBRANCH  25  48
BRANCH  37  58
ATOM     58  C   UNL A   1      47.611  26.455  31.481  1.00  0.00    -0.014 A 
ATOM     59  C   UNL A   1      48.700  26.464  30.588  1.00  0.00     0.010 A 
ATOM     60  C   UNL A   1      47.760  25.847  32.739  1.00  0.00     0.010 A 
ATOM     61  C   UNL A   1      49.903  25.846  30.929  1.00  0.00     0.020 A 
ATOM     62  C   UNL A   1      48.973  25.249  33.094  1.00  0.00     0.020 A 
ATOM     63  C   UNL A   1      50.028  25.230  32.177  1.00  0.00     0.054 A 
BRANCH  63  64
ATOM     64  S   UNL A   1      51.585  24.399  32.593  1.00  0.00     0.124 S 
ATOM     65  O   UNL A   1      51.323  23.026  32.170  1.00  0.00    -0.237 OA
ATOM     66  O   UNL A   1      52.566  25.128  31.794  1.00  0.00    -0.237 OA
ATOM     67  O   UNL A   1      51.700  24.595  34.037  1.00  0.00    -0.744 OA
ENDBRANCH  63  64
ENDBRANCH  37  58
ENDBRANCH  11  12
ENDBRANCH   4   6
ENDBRANCH   1   2
BRANCH   1  68
ATOM     68  C   UNL A   1      32.377  28.767  26.135  1.00  0.00     0.042 C 
BRANCH  68  69
ATOM     69  C   UNL A   1      32.486  29.884  25.100  1.00  0.00     0.117 C 
BRANCH  69  70
ATOM     70  N   UNL A   1      33.383  29.528  24.013  1.00  0.00    -0.354 N 
ATOM     71  C   UNL A   1      33.239  28.626  23.001  1.00  0.00     0.242 C 
ATOM     72  H   UNL A   1      34.236  30.019  24.007  1.00  0.00     0.163 HD
ATOM     73  O   UNL A   1      34.203  28.465  22.246  1.00  0.00    -0.273 OA
BRANCH  71  74
ATOM     74  C   UNL A   1      31.935  27.840  22.775  1.00  0.00     0.173 C 
ATOM     75  N   UNL A   1      30.775  28.750  22.710  1.00  0.00    -0.373 N 
ATOM     76  C   UNL A   1      31.669  26.778  23.821  1.00  0.00     0.036 C 
ATOM     77  C   UNL A   1      29.486  28.353  23.053  1.00  0.00     0.051 A 
ATOM     78  H   UNL A   1      30.919  29.677  22.413  1.00  0.00     0.161 HD
ATOM     79  C   UNL A   1      30.391  26.039  23.413  1.00  0.00     0.049 C 
ATOM     80  C   UNL A   1      32.687  25.669  24.046  1.00  0.00     0.034 C 
ATOM     81  C   UNL A   1      29.241  27.012  23.474  1.00  0.00    -0.017 A 
ATOM     82  C   UNL A   1      28.412  29.262  23.037  1.00  0.00     0.079 A 
ATOM     83  C   UNL A   1      30.494  24.859  24.334  1.00  0.00    -0.023 C 
ATOM     84  C   UNL A   1      31.780  24.628  24.646  1.00  0.00    -0.030 C 
ATOM     85  C   UNL A   1      27.948  26.600  23.820  1.00  0.00     0.006 A 
ATOM     86  C   UNL A   1      27.124  28.822  23.408  1.00  0.00     0.015 A 
ATOM     87  C   UNL A   1      26.895  27.505  23.794  1.00  0.00     0.001 A 
BRANCH  82  88
ATOM     88  C   UNL A   1      28.555  30.708  22.628  1.00  0.00     0.418 C 
ATOM     89  F   UNL A   1      28.995  30.840  21.343  1.00  0.00    -0.166 F 
ATOM     90  F   UNL A   1      27.370  31.383  22.676  1.00  0.00    -0.166 F 
ATOM     91  F   UNL A   1      29.422  31.443  23.385  1.00  0.00    -0.166 F 
ENDBRANCH  82  88
ENDBRANCH  71  74
ENDBRANCH  69  70
ENDBRANCH  68  69
ENDBRANCH   1  68
TORSDOF 14
ENDMDL
MODEL 3
REMARK VINA RESULT:     -12.2      2.990      9.507
REMARK SMILES O=C(NCCCNC(=O)[C@@H]1Nc2c(cccc2C(F)(F)F)[C@@H]2C=CC[C@@H]12)c1ccc(-c2c3nc(c(-c4ccc(S(=O)(=O)[O-])cc4)c4ccc([nH]4)c(-c4ccc(S(=O)(=O)[O-])cc4)c4nc(c(-c5ccc(S(=O)(=O)[O-])cc5)c5ccc2[nH]5)C=C4)C=C3)cc1
REMARK SMILES IDX 4 1 3 2 1 3 2 4 27 6 28 7 86 8 29 9 85 10 30 11 31 12 32 13
REMARK SMILES IDX 79 14 33 15 84 16 78 17 80 18 34 19 83 20 77 21 76 22 35 24
REMARK SMILES IDX 65 25 46 26 64 27 47 28 50 29 63 30 81 31 48 32 49 33 62 35
REMARK SMILES IDX 82 36 51 37 36 38 37 39 45 40 38 41 44 42 39 43 40 44 41 45
REMARK SMILES IDX 42 46 43 47 66 48 67 49 75 50 68 51 74 52 69 53 70 54 71 55
REMARK SMILES IDX 72 56 73 57 52 58 53 59 61 60 54 61 60 62 55 63 56 64 57 65
REMARK SMILES IDX 58 66 59 67 5 68 6 69 7 70 8 71 9 73 10 74 11 75 26 76 12 77
REMARK SMILES IDX 22 79 25 80 13 81 17 82 23 83 24 84 14 85 16 86 15 87 18 88
REMARK SMILES IDX 19 89 20 90 21 91
REMARK H PARENT 3 5 80 23 50 34 7 72 11 78
REMARK Flexibility Score: inf
ROOT
ATOM      1  C   UNL A   1      36.517  22.901  25.745  1.00  0.00     0.118 C 
ENDROOT
BRANCH   1   2
ATOM      2  N   UNL A   1      37.774  22.187  25.887  1.00  0.00    -0.352 N 
ATOM      3  O   UNL A   1      39.984  21.895  26.061  1.00  0.00    -0.269 OA
ATOM      4  C   UNL A   1      39.017  22.637  26.245  1.00  0.00     0.251 C 
ATOM      5  H   UNL A   1      37.725  21.223  25.694  1.00  0.00     0.163 HD
BRANCH   4   6
ATOM      6  C   UNL A   1      39.226  23.974  26.851  1.00  0.00     0.039 A 
ATOM      7  C   UNL A   1      39.875  24.953  26.090  1.00  0.00     0.014 A 
ATOM      8  C   UNL A   1      38.902  24.245  28.185  1.00  0.00     0.014 A 
ATOM      9  C   UNL A   1      40.206  26.184  26.663  1.00  0.00     0.010 A 
ATOM     10  C   UNL A   1      39.162  25.502  28.733  1.00  0.00     0.010 A 
ATOM     11  C   UNL A   1      39.858  26.468  27.992  1.00  0.00    -0.014 A 
BRANCH  11  12
ATOM     12  C   UNL A   1      40.318  27.721  28.647  1.00  0.00     0.031 A 
ATOM     13  C   UNL A   1      41.760  27.853  29.072  1.00  0.00     0.074 A 
ATOM     14  C   UNL A   1      39.461  28.742  28.845  1.00  0.00     0.049 A 
ATOM     15  N   UNL A   1      42.357  28.862  29.653  1.00  0.00    -0.248 NA
ATOM     16  C   UNL A   1      42.644  26.699  28.828  1.00  0.00     0.031 C 
ATOM     17  C   UNL A   1      38.044  28.737  28.481  1.00  0.00     0.029 A 
ATOM     18  N   UNL A   1      39.661  29.990  29.382  1.00  0.00    -0.354 N 
ATOM     19  C   UNL A   1      43.673  28.459  29.854  1.00  0.00     0.074 A 
ATOM     20  C   UNL A   1      43.778  27.098  29.384  1.00  0.00     0.031 C 
ATOM     21  C   UNL A   1      37.516  29.941  28.757  1.00  0.00     0.029 A 
ATOM     22  C   UNL A   1      38.544  30.792  29.351  1.00  0.00     0.049 A 
ATOM     23  H   UNL A   1      40.524  30.282  29.756  1.00  0.00     0.167 HD
ATOM     24  C   UNL A   1      44.710  29.169  30.356  1.00  0.00     0.031 A 
ATOM     25  C   UNL A   1      38.370  32.074  29.735  1.00  0.00     0.031 A 
ATOM     26  C   UNL A   1      44.616  30.540  30.779  1.00  0.00     0.049 A 
ATOM     27  C   UNL A   1      39.540  32.845  30.284  1.00  0.00     0.074 A 
ATOM     28  C   UNL A   1      45.622  31.353  31.272  1.00  0.00     0.029 A 
ATOM     29  N   UNL A   1      43.464  31.307  30.734  1.00  0.00    -0.354 N 
ATOM     30  N   UNL A   1      40.780  32.448  30.452  1.00  0.00    -0.248 NA
ATOM     31  C   UNL A   1      39.297  34.240  30.679  1.00  0.00     0.031 C 
ATOM     32  C   UNL A   1      45.069  32.600  31.567  1.00  0.00     0.029 A 
ATOM     33  C   UNL A   1      43.733  32.583  31.196  1.00  0.00     0.049 A 
ATOM     34  H   UNL A   1      42.585  30.992  30.421  1.00  0.00     0.167 HD
ATOM     35  C   UNL A   1      41.471  33.555  30.933  1.00  0.00     0.074 A 
ATOM     36  C   UNL A   1      40.514  34.639  31.029  1.00  0.00     0.031 C 
ATOM     37  C   UNL A   1      42.781  33.662  31.261  1.00  0.00     0.031 A 
BRANCH  24  38
ATOM     38  C   UNL A   1      46.056  28.501  30.451  1.00  0.00    -0.014 A 
ATOM     39  C   UNL A   1      46.939  28.545  29.356  1.00  0.00     0.010 A 
ATOM     40  C   UNL A   1      46.395  27.724  31.574  1.00  0.00     0.010 A 
ATOM     41  C   UNL A   1      48.117  27.795  29.365  1.00  0.00     0.020 A 
ATOM     42  C   UNL A   1      47.588  26.996  31.598  1.00  0.00     0.020 A 
ATOM     43  C   UNL A   1      48.428  27.016  30.482  1.00  0.00     0.054 A 
BRANCH  43  44
ATOM     44  S   UNL A   1      49.942  26.018  30.461  1.00  0.00     0.124 S 
ATOM     45  O   UNL A   1      50.985  27.040  30.488  1.00  0.00    -0.237 OA
ATOM     46  O   UNL A   1      49.813  25.214  31.673  1.00  0.00    -0.237 OA
ATOM     47  O   UNL A   1      49.837  25.264  29.213  1.00  0.00    -0.744 OA
ENDBRANCH  43  44
ENDBRANCH  24  38
BRANCH  25  48
ATOM     48  C   UNL A   1      37.046  32.725  29.539  1.00  0.00    -0.014 A 
ATOM     49  C   UNL A   1      36.683  33.256  28.287  1.00  0.00     0.010 A 
ATOM     50  C   UNL A   1      36.160  32.866  30.623  1.00  0.00     0.010 A 
ATOM     51  C   UNL A   1      35.477  33.947  28.132  1.00  0.00     0.020 A 
ATOM     52  C   UNL A   1      34.940  33.533  30.465  1.00  0.00     0.020 A 
ATOM     53  C   UNL A   1      34.619  34.091  29.225  1.00  0.00     0.054 A 
BRANCH  53  54
ATOM     54  S   UNL A   1      33.071  35.013  29.008  1.00  0.00     0.124 S 
ATOM     55  O   UNL A   1      32.392  34.219  27.988  1.00  0.00    -0.237 OA
ATOM     56  O   UNL A   1      32.478  34.962  30.342  1.00  0.00    -0.237 OA
ATOM     57  O   UNL A   1      33.519  36.335  28.580  1.00  0.00    -0.744 OA
ENDBRANCH  53  54
ENDBRANCH  25  48
BRANCH  37  58
ATOM     58  C   UNL A   1      43.302  34.999  31.717  1.00  0.00    -0.014 A 
ATOM     59  C   UNL A   1      43.150  35.374  33.065  1.00  0.00     0.010 A 
ATOM     60  C   UNL A   1      43.799  35.936  30.795  1.00  0.00     0.010 A 
ATOM     61  C   UNL A   1      43.454  36.671  33.480  1.00  0.00     0.020 A 
ATOM     62  C   UNL A   1      44.128  37.229  31.212  1.00  0.00     0.020 A 
ATOM     63  C   UNL A   1      43.929  37.596  32.547  1.00  0.00     0.054 A 
BRANCH  63  64
ATOM     64  S   UNL A   1      44.285  39.288  33.092  1.00  0.00     0.124 S 
ATOM     65  O   UNL A   1      44.768  39.911  31.863  1.00  0.00    -0.237 OA
ATOM     66  O   UNL A   1      42.986  39.757  33.566  1.00  0.00    -0.237 OA
ATOM     67  O   UNL A   1      45.291  39.105  34.136  1.00  0.00    -0.744 OA
ENDBRANCH  63  64
ENDBRANCH  37  58
ENDBRANCH  11  12
ENDBRANCH   4   6
ENDBRANCH   1   2
BRANCH   1  68
ATOM     68  C   UNL A   1      35.327  22.057  26.188  1.00  0.00     0.042 C 
BRANCH  68  69
ATOM     69  C   UNL A   1      34.810  22.390  27.586  1.00  0.00     0.117 C 
BRANCH  69  70
ATOM     70  N   UNL A   1      33.390  22.697  27.577  1.00  0.00    -0.354 N 
ATOM     71  C   UNL A   1      32.691  23.653  26.903  1.00  0.00     0.242 C 
ATOM     72  H   UNL A   1      32.842  22.118  28.155  1.00  0.00     0.163 HD
ATOM     73  O   UNL A   1      31.482  23.744  27.142  1.00  0.00    -0.273 OA
BRANCH  71  74
ATOM     74  C   UNL A   1      33.351  24.584  25.870  1.00  0.00     0.173 C 
ATOM     75  N   UNL A   1      33.177  26.000  26.250  1.00  0.00    -0.373 N 
ATOM     76  C   UNL A   1      32.846  24.389  24.456  1.00  0.00     0.036 C 
ATOM     77  C   UNL A   1      33.163  27.034  25.317  1.00  0.00     0.051 A 
ATOM     78  H   UNL A   1      33.066  26.222  27.203  1.00  0.00     0.161 HD
ATOM     79  C   UNL A   1      33.649  25.323  23.546  1.00  0.00     0.049 C 
ATOM     80  C   UNL A   1      32.967  23.024  23.793  1.00  0.00     0.034 C 
ATOM     81  C   UNL A   1      33.335  26.746  23.932  1.00  0.00    -0.017 A 
ATOM     82  C   UNL A   1      32.935  28.367  25.708  1.00  0.00     0.079 A 
ATOM     83  C   UNL A   1      33.265  24.748  22.215  1.00  0.00    -0.023 C 
ATOM     84  C   UNL A   1      32.930  23.453  22.350  1.00  0.00    -0.030 C 
ATOM     85  C   UNL A   1      33.323  27.777  22.984  1.00  0.00     0.006 A 
ATOM     86  C   UNL A   1      32.911  29.382  24.729  1.00  0.00     0.015 A 
ATOM     87  C   UNL A   1      33.105  29.090  23.382  1.00  0.00     0.001 A 
BRANCH  82  88
ATOM     88  C   UNL A   1      32.721  28.787  27.142  1.00  0.00     0.418 C 
ATOM     89  F   UNL A   1      33.836  28.597  27.907  1.00  0.00    -0.166 F 
ATOM     90  F   UNL A   1      32.424  30.113  27.257  1.00  0.00    -0.166 F 
ATOM     91  F   UNL A   1      31.717  28.132  27.796  1.00  0.00    -0.166 F 
ENDBRANCH  82  88
ENDBRANCH  71  74
ENDBRANCH  69  70
ENDBRANCH  68  69
ENDBRANCH   1  68
TORSDOF 14
ENDMDL
