MODEL 1
REMARK VINA RESULT:     -13.8      0.000      0.000
REMARK SMILES Cc1ccc(-c2coc3cc4oc(=O)c(CC(=O)N[C@H](Cc5ccccc5)C(=O)NCCCNC(=O)c5ccc(-c6c7nc(c(-c8ccc(S(=O)(=O)[O-])cc8)c8ccc([nH]8)c(-c8ccc(S(=O)(=O)[O-])cc8)c8nc(c(-c9ccc(S(=O)(=O)[O-])cc9)c9ccc6[nH]9)C=C8)C=C7)cc5)c(C)c4cc23)cc1
REMARK SMILES IDX 31 1 30 2 28 3 29 4 20 6 19 7 17 8 18 9 16 11 15 12 6 13
REMARK SMILES IDX 7 14 101 15 8 16 9 17 100 18 10 19 99 20 11 21 97 22 12 23
REMARK SMILES IDX 98 24 13 25 14 26 5 27 1 28 2 29 3 30 103 31 4 32 102 33
REMARK SMILES IDX 21 34 22 35 23 36 27 37 24 38 26 39 25 40 32 41 33 42 34 43
REMARK SMILES IDX 35 44 36 46 37 47 38 48 96 49 39 50 95 51 40 52 41 53 42 54
REMARK SMILES IDX 89 55 43 56 94 57 88 58 90 59 44 60 93 61 87 62 86 63 45 65
REMARK SMILES IDX 75 66 56 67 74 68 57 69 60 70 73 71 91 72 58 73 59 74 72 76
REMARK SMILES IDX 92 77 61 78 46 79 47 80 55 81 48 82 54 83 49 84 50 85 51 86
REMARK SMILES IDX 52 87 53 88 76 89 77 90 85 91 78 92 84 93 79 94 80 95 81 96
REMARK SMILES IDX 82 97 83 98 62 99 63 100 71 101 64 102 70 103 65 104 66 105
REMARK SMILES IDX 67 106 68 107 69 108
REMARK H PARENT 30 5 19 10 34 45 90 64 60 75
REMARK Flexibility Score: inf
ROOT
ATOM      1  C   UNL A   1      33.705  30.203  26.800  1.00  0.00     0.117 C 
ENDROOT
BRANCH   1   2
ATOM      2  N   UNL A   1      33.889  29.761  25.409  1.00  0.00    -0.354 N 
ATOM      3  C   UNL A   1      32.995  29.333  24.459  1.00  0.00     0.242 C 
ATOM      4  O   UNL A   1      33.423  28.860  23.406  1.00  0.00    -0.273 OA
ATOM      5  H   UNL A   1      34.825  29.776  25.102  1.00  0.00     0.163 HD
BRANCH   3   6
ATOM      6  C   UNL A   1      31.486  29.348  24.778  1.00  0.00     0.175 C 
BRANCH   6   7
ATOM      7  N   UNL A   1      31.359  28.338  25.847  1.00  0.00    -0.344 N 
ATOM      8  C   UNL A   1      31.368  26.993  25.954  1.00  0.00     0.225 C 
ATOM      9  O   UNL A   1      31.147  26.528  27.076  1.00  0.00    -0.275 OA
ATOM     10  H   UNL A   1      31.234  28.763  26.727  1.00  0.00     0.164 HD
BRANCH   8  11
ATOM     11  C   UNL A   1      31.658  26.074  24.788  1.00  0.00     0.143 C 
BRANCH  11  12
ATOM     12  C   UNL A   1      32.759  25.101  25.099  1.00  0.00     0.051 A 
ATOM     13  C   UNL A   1      35.484  19.488  24.897  1.00  0.00     0.028 A 
ATOM     14  C   UNL A   1      36.859  19.476  24.793  1.00  0.00     0.205 A 
ATOM     15  C   UNL A   1      35.105  20.858  24.964  1.00  0.00     0.029 A 
ATOM     16  O   UNL A   1      37.354  20.744  24.810  1.00  0.00    -0.464 OA
ATOM     17  C   UNL A   1      36.289  21.584  24.927  1.00  0.00     0.138 A 
ATOM     18  C   UNL A   1      33.885  21.555  25.068  1.00  0.00     0.025 A 
ATOM     19  C   UNL A   1      36.352  22.966  25.021  1.00  0.00     0.095 A 
ATOM     20  C   UNL A   1      33.888  22.957  25.142  1.00  0.00     0.022 A 
ATOM     21  C   UNL A   1      35.119  23.617  25.150  1.00  0.00     0.142 A 
ATOM     22  C   UNL A   1      32.650  23.756  25.104  1.00  0.00    -0.029 A 
ATOM     23  O   UNL A   1      35.187  25.007  25.343  1.00  0.00    -0.422 OA
ATOM     24  C   UNL A   1      31.337  23.022  24.999  1.00  0.00     0.046 C 
ATOM     25  C   UNL A   1      34.036  25.754  25.477  1.00  0.00     0.340 A 
ATOM     26  O   UNL A   1      34.057  26.909  25.890  1.00  0.00    -0.246 OA
BRANCH  13  27
ATOM     27  C   UNL A   1      34.655  18.303  24.959  1.00  0.00    -0.015 A 
ATOM     28  C   UNL A   1      32.267  14.741  25.399  1.00  0.00     0.044 C 
ATOM     29  C   UNL A   1      33.087  15.987  25.234  1.00  0.00    -0.051 A 
ATOM     30  C   UNL A   1      34.417  15.896  24.809  1.00  0.00     0.004 A 
ATOM     31  C   UNL A   1      32.544  17.245  25.514  1.00  0.00     0.004 A 
ATOM     32  C   UNL A   1      35.197  17.046  24.670  1.00  0.00     0.009 A 
ATOM     33  C   UNL A   1      33.324  18.397  25.379  1.00  0.00     0.009 A 
ENDBRANCH  13  27
ENDBRANCH  11  12
ENDBRANCH   8  11
ENDBRANCH   6   7
BRANCH   6  34
ATOM     34  C   UNL A   1      30.761  29.135  23.438  1.00  0.00     0.070 C 
BRANCH  34  35
ATOM     35  C   UNL A   1      29.706  30.133  23.016  1.00  0.00    -0.045 A 
ATOM     36  C   UNL A   1      29.278  30.104  21.676  1.00  0.00     0.004 A 
ATOM     37  C   UNL A   1      29.205  31.134  23.854  1.00  0.00     0.004 A 
ATOM     38  C   UNL A   1      28.303  30.985  21.214  1.00  0.00     0.000 A 
ATOM     39  C   UNL A   1      28.229  32.019  23.389  1.00  0.00     0.000 A 
ATOM     40  C   UNL A   1      27.765  31.934  22.077  1.00  0.00     0.000 A 
ENDBRANCH  34  35
ENDBRANCH   6  34
ENDBRANCH   3   6
ENDBRANCH   1   2
BRANCH   1  41
ATOM     41  C   UNL A   1      34.883  29.894  27.725  1.00  0.00     0.042 C 
BRANCH  41  42
ATOM     42  C   UNL A   1      35.772  31.104  27.947  1.00  0.00     0.118 C 
BRANCH  42  43
ATOM     43  N   UNL A   1      37.143  30.711  27.765  1.00  0.00    -0.352 N 
ATOM     44  C   UNL A   1      37.842  30.109  28.798  1.00  0.00     0.251 C 
ATOM     45  H   UNL A   1      37.588  30.872  26.902  1.00  0.00     0.163 HD
ATOM     46  O   UNL A   1      38.747  30.765  29.286  1.00  0.00    -0.269 OA
BRANCH  44  47
ATOM     47  C   UNL A   1      37.563  28.631  29.072  1.00  0.00     0.039 A 
ATOM     48  C   UNL A   1      38.102  28.308  30.320  1.00  0.00     0.014 A 
ATOM     49  C   UNL A   1      37.930  27.814  28.005  1.00  0.00     0.014 A 
ATOM     50  C   UNL A   1      39.401  27.836  30.352  1.00  0.00     0.010 A 
ATOM     51  C   UNL A   1      39.254  27.468  27.958  1.00  0.00     0.010 A 
ATOM     52  C   UNL A   1      40.003  27.598  29.130  1.00  0.00    -0.014 A 
BRANCH  52  53
ATOM     53  C   UNL A   1      41.426  27.469  28.947  1.00  0.00     0.031 A 
ATOM     54  C   UNL A   1      41.913  26.100  28.800  1.00  0.00     0.074 A 
ATOM     55  C   UNL A   1      42.105  28.616  28.739  1.00  0.00     0.049 A 
ATOM     56  N   UNL A   1      43.140  25.751  28.841  1.00  0.00    -0.248 NA
ATOM     57  C   UNL A   1      40.995  24.967  28.646  1.00  0.00     0.031 C 
ATOM     58  C   UNL A   1      43.444  28.851  28.209  1.00  0.00     0.029 A 
ATOM     59  N   UNL A   1      41.725  29.863  29.255  1.00  0.00    -0.354 N 
ATOM     60  C   UNL A   1      43.195  24.462  28.357  1.00  0.00     0.074 A 
ATOM     61  C   UNL A   1      41.843  23.972  28.394  1.00  0.00     0.031 C 
ATOM     62  C   UNL A   1      43.887  30.033  28.686  1.00  0.00     0.029 A 
ATOM     63  C   UNL A   1      42.912  30.476  29.680  1.00  0.00     0.049 A 
ATOM     64  H   UNL A   1      40.814  30.231  29.308  1.00  0.00     0.167 HD
ATOM     65  C   UNL A   1      44.360  24.052  27.792  1.00  0.00     0.031 A 
ATOM     66  C   UNL A   1      43.165  30.527  31.024  1.00  0.00     0.031 A 
ATOM     67  C   UNL A   1      45.401  25.053  28.040  1.00  0.00     0.049 A 
ATOM     68  C   UNL A   1      44.386  29.687  31.391  1.00  0.00     0.074 A 
ATOM     69  C   UNL A   1      45.929  26.076  27.269  1.00  0.00     0.029 A 
ATOM     70  N   UNL A   1      45.702  25.367  29.363  1.00  0.00    -0.354 N 
ATOM     71  N   UNL A   1      44.779  28.600  30.772  1.00  0.00    -0.248 NA
ATOM     72  C   UNL A   1      45.309  30.089  32.444  1.00  0.00     0.031 C 
ATOM     73  C   UNL A   1      46.474  27.053  28.158  1.00  0.00     0.029 A 
ATOM     74  C   UNL A   1      46.294  26.612  29.460  1.00  0.00     0.049 A 
ATOM     75  H   UNL A   1      45.516  24.779  30.129  1.00  0.00     0.167 HD
ATOM     76  C   UNL A   1      45.998  28.192  31.269  1.00  0.00     0.074 A 
ATOM     77  C   UNL A   1      46.271  29.159  32.323  1.00  0.00     0.031 C 
ATOM     78  C   UNL A   1      46.697  27.118  30.774  1.00  0.00     0.031 A 
BRANCH  65  79
ATOM     79  C   UNL A   1      44.460  22.929  26.786  1.00  0.00    -0.014 A 
ATOM     80  C   UNL A   1      43.458  21.939  26.775  1.00  0.00     0.010 A 
ATOM     81  C   UNL A   1      45.527  22.735  25.884  1.00  0.00     0.010 A 
ATOM     82  C   UNL A   1      43.537  20.807  25.948  1.00  0.00     0.020 A 
ATOM     83  C   UNL A   1      45.628  21.603  25.062  1.00  0.00     0.020 A 
ATOM     84  C   UNL A   1      44.629  20.642  25.100  1.00  0.00     0.054 A 
BRANCH  84  85
ATOM     85  S   UNL A   1      44.713  19.175  24.044  1.00  0.00     0.124 S 
ATOM     86  O   UNL A   1      46.069  18.689  24.288  1.00  0.00    -0.237 OA
ATOM     87  O   UNL A   1      43.638  18.342  24.578  1.00  0.00    -0.237 OA
ATOM     88  O   UNL A   1      44.479  19.699  22.699  1.00  0.00    -0.744 OA
ENDBRANCH  84  85
ENDBRANCH  65  79
BRANCH  66  89
ATOM     89  C   UNL A   1      41.934  30.713  31.883  1.00  0.00    -0.014 A 
ATOM     90  C   UNL A   1      41.515  29.658  32.736  1.00  0.00     0.010 A 
ATOM     91  C   UNL A   1      41.350  31.971  32.090  1.00  0.00     0.010 A 
ATOM     92  C   UNL A   1      40.639  29.876  33.818  1.00  0.00     0.020 A 
ATOM     93  C   UNL A   1      40.457  32.191  33.164  1.00  0.00     0.020 A 
ATOM     94  C   UNL A   1      40.140  31.157  34.053  1.00  0.00     0.054 A 
BRANCH  94  95
ATOM     95  S   UNL A   1      39.011  31.455  35.469  1.00  0.00     0.124 S 
ATOM     96  O   UNL A   1      38.964  30.152  36.128  1.00  0.00    -0.237 OA
ATOM     97  O   UNL A   1      39.647  32.516  36.239  1.00  0.00    -0.237 OA
ATOM     98  O   UNL A   1      37.766  31.860  34.816  1.00  0.00    -0.744 OA
ENDBRANCH  94  95
ENDBRANCH  66  89
BRANCH  78  99
ATOM     99  C   UNL A   1      47.865  26.395  31.447  1.00  0.00    -0.014 A 
ATOM    100  C   UNL A   1      47.858  25.868  32.743  1.00  0.00     0.010 A 
ATOM    101  C   UNL A   1      49.037  26.129  30.684  1.00  0.00     0.010 A 
ATOM    102  C   UNL A   1      48.938  25.124  33.246  1.00  0.00     0.020 A 
ATOM    103  C   UNL A   1      50.096  25.347  31.150  1.00  0.00     0.020 A 
ATOM    104  C   UNL A   1      50.042  24.855  32.442  1.00  0.00     0.054 A 
BRANCH 104 105
ATOM    105  S   UNL A   1      51.377  23.835  33.100  1.00  0.00     0.124 S 
ATOM    106  O   UNL A   1      51.354  22.688  32.195  1.00  0.00    -0.237 OA
ATOM    107  O   UNL A   1      52.536  24.714  32.969  1.00  0.00    -0.237 OA
ATOM    108  O   UNL A   1      50.964  23.557  34.472  1.00  0.00    -0.744 OA
ENDBRANCH 104 105
ENDBRANCH  78  99
ENDBRANCH  52  53
ENDBRANCH  44  47
ENDBRANCH  42  43
ENDBRANCH  41  42
ENDBRANCH   1  41
TORSDOF 19
ENDMDL
MODEL 2
REMARK VINA RESULT:     -13.4      3.287      4.814
REMARK SMILES Cc1ccc(-c2coc3cc4oc(=O)c(CC(=O)N[C@H](Cc5ccccc5)C(=O)NCCCNC(=O)c5ccc(-c6c7nc(c(-c8ccc(S(=O)(=O)[O-])cc8)c8ccc([nH]8)c(-c8ccc(S(=O)(=O)[O-])cc8)c8nc(c(-c9ccc(S(=O)(=O)[O-])cc9)c9ccc6[nH]9)C=C8)C=C7)cc5)c(C)c4cc23)cc1
REMARK SMILES IDX 31 1 30 2 28 3 29 4 20 6 19 7 17 8 18 9 16 11 15 12 6 13
REMARK SMILES IDX 7 14 101 15 8 16 9 17 100 18 10 19 99 20 11 21 97 22 12 23
REMARK SMILES IDX 98 24 13 25 14 26 5 27 1 28 2 29 3 30 103 31 4 32 102 33
REMARK SMILES IDX 21 34 22 35 23 36 27 37 24 38 26 39 25 40 32 41 33 42 34 43
REMARK SMILES IDX 35 44 36 46 37 47 38 48 96 49 39 50 95 51 40 52 41 53 42 54
REMARK SMILES IDX 89 55 43 56 94 57 88 58 90 59 44 60 93 61 87 62 86 63 45 65
REMARK SMILES IDX 75 66 56 67 74 68 57 69 60 70 73 71 91 72 58 73 59 74 72 76
REMARK SMILES IDX 92 77 61 78 46 79 47 80 55 81 48 82 54 83 49 84 50 85 51 86
REMARK SMILES IDX 52 87 53 88 76 89 77 90 85 91 78 92 84 93 79 94 80 95 81 96
REMARK SMILES IDX 82 97 83 98 62 99 63 100 71 101 64 102 70 103 65 104 66 105
REMARK SMILES IDX 67 106 68 107 69 108
REMARK H PARENT 30 5 19 10 34 45 90 64 60 75
REMARK Flexibility Score: inf
ROOT
ATOM      1  C   UNL A   1      31.764  28.443  26.873  1.00  0.00     0.117 C 
ENDROOT
BRANCH   1   2
ATOM      2  N   UNL A   1      31.686  29.912  26.907  1.00  0.00    -0.354 N 
ATOM      3  C   UNL A   1      31.164  30.820  26.019  1.00  0.00     0.242 C 
ATOM      4  O   UNL A   1      31.368  32.021  26.204  1.00  0.00    -0.273 OA
ATOM      5  H   UNL A   1      32.078  30.318  27.713  1.00  0.00     0.163 HD
BRANCH   3   6
ATOM      6  C   UNL A   1      30.438  30.314  24.757  1.00  0.00     0.175 C 
BRANCH   6   7
ATOM      7  N   UNL A   1      31.546  30.017  23.828  1.00  0.00    -0.344 N 
ATOM      8  C   UNL A   1      31.838  29.096  22.886  1.00  0.00     0.225 C 
ATOM      9  O   UNL A   1      32.957  29.171  22.370  1.00  0.00    -0.275 OA
ATOM     10  H   UNL A   1      32.275  30.672  23.922  1.00  0.00     0.164 HD
BRANCH   8  11
ATOM     11  C   UNL A   1      30.859  28.032  22.440  1.00  0.00     0.143 C 
BRANCH  11  12
ATOM     12  C   UNL A   1      30.883  26.831  23.341  1.00  0.00     0.051 A 
ATOM     13  C   UNL A   1      33.747  22.306  26.551  1.00  0.00     0.028 A 
ATOM     14  C   UNL A   1      33.180  21.958  27.759  1.00  0.00     0.205 A 
ATOM     15  C   UNL A   1      32.908  23.314  25.997  1.00  0.00     0.029 A 
ATOM     16  O   UNL A   1      32.040  22.667  27.978  1.00  0.00    -0.464 OA
ATOM     17  C   UNL A   1      31.866  23.483  26.901  1.00  0.00     0.138 A 
ATOM     18  C   UNL A   1      32.914  24.086  24.819  1.00  0.00     0.025 A 
ATOM     19  C   UNL A   1      30.802  24.348  26.702  1.00  0.00     0.095 A 
ATOM     20  C   UNL A   1      31.873  24.996  24.577  1.00  0.00     0.022 A 
ATOM     21  C   UNL A   1      30.834  25.076  25.507  1.00  0.00     0.142 A 
ATOM     22  C   UNL A   1      31.890  25.939  23.444  1.00  0.00    -0.029 A 
ATOM     23  O   UNL A   1      29.708  25.880  25.258  1.00  0.00    -0.422 OA
ATOM     24  C   UNL A   1      33.071  25.896  22.507  1.00  0.00     0.046 C 
ATOM     25  C   UNL A   1      29.632  26.647  24.115  1.00  0.00     0.340 A 
ATOM     26  O   UNL A   1      28.579  27.157  23.746  1.00  0.00    -0.246 OA
BRANCH  13  27
ATOM     27  C   UNL A   1      34.939  21.701  25.998  1.00  0.00    -0.015 A 
ATOM     28  C   UNL A   1      38.536  19.784  24.593  1.00  0.00     0.044 C 
ATOM     29  C   UNL A   1      37.277  20.450  25.066  1.00  0.00    -0.051 A 
ATOM     30  C   UNL A   1      37.339  21.714  25.664  1.00  0.00     0.004 A 
ATOM     31  C   UNL A   1      36.036  19.819  24.931  1.00  0.00     0.004 A 
ATOM     32  C   UNL A   1      36.179  22.337  26.126  1.00  0.00     0.009 A 
ATOM     33  C   UNL A   1      34.874  20.440  25.396  1.00  0.00     0.009 A 
ENDBRANCH  13  27
ENDBRANCH  11  12
ENDBRANCH   8  11
ENDBRANCH   6   7
BRANCH   6  34
ATOM     34  C   UNL A   1      29.407  31.395  24.391  1.00  0.00     0.070 C 
BRANCH  34  35
ATOM     35  C   UNL A   1      28.852  31.425  22.984  1.00  0.00    -0.045 A 
ATOM     36  C   UNL A   1      28.683  32.682  22.375  1.00  0.00     0.004 A 
ATOM     37  C   UNL A   1      28.416  30.287  22.298  1.00  0.00     0.004 A 
ATOM     38  C   UNL A   1      28.187  32.790  21.077  1.00  0.00     0.000 A 
ATOM     39  C   UNL A   1      27.917  30.397  20.997  1.00  0.00     0.000 A 
ATOM     40  C   UNL A   1      27.818  31.644  20.381  1.00  0.00     0.000 A 
ENDBRANCH  34  35
ENDBRANCH   6  34
ENDBRANCH   3   6
ENDBRANCH   1   2
BRANCH   1  41
ATOM     41  C   UNL A   1      33.145  27.890  26.513  1.00  0.00     0.042 C 
BRANCH  41  42
ATOM     42  C   UNL A   1      34.157  28.991  26.260  1.00  0.00     0.118 C 
BRANCH  42  43
ATOM     43  N   UNL A   1      35.327  28.738  27.057  1.00  0.00    -0.352 N 
ATOM     44  C   UNL A   1      36.269  29.733  27.255  1.00  0.00     0.251 C 
ATOM     45  H   UNL A   1      35.459  27.851  27.464  1.00  0.00     0.163 HD
ATOM     46  O   UNL A   1      37.354  29.556  26.728  1.00  0.00    -0.269 OA
BRANCH  44  47
ATOM     47  C   UNL A   1      35.939  30.825  28.273  1.00  0.00     0.039 A 
ATOM     48  C   UNL A   1      36.791  31.909  28.044  1.00  0.00     0.014 A 
ATOM     49  C   UNL A   1      35.888  30.339  29.578  1.00  0.00     0.014 A 
ATOM     50  C   UNL A   1      37.986  31.939  28.737  1.00  0.00     0.010 A 
ATOM     51  C   UNL A   1      37.096  30.230  30.212  1.00  0.00     0.010 A 
ATOM     52  C   UNL A   1      38.170  30.961  29.698  1.00  0.00    -0.014 A 
BRANCH  52  53
ATOM     53  C   UNL A   1      39.453  30.604  30.245  1.00  0.00     0.031 A 
ATOM     54  C   UNL A   1      39.863  29.221  30.015  1.00  0.00     0.074 A 
ATOM     55  C   UNL A   1      40.199  31.619  30.724  1.00  0.00     0.049 A 
ATOM     56  N   UNL A   1      40.849  28.645  30.586  1.00  0.00    -0.248 NA
ATOM     57  C   UNL A   1      39.115  28.333  29.120  1.00  0.00     0.031 C 
ATOM     58  C   UNL A   1      41.622  31.694  31.039  1.00  0.00     0.029 A 
ATOM     59  N   UNL A   1      39.672  32.793  31.279  1.00  0.00    -0.354 N 
ATOM     60  C   UNL A   1      41.085  27.486  29.880  1.00  0.00     0.074 A 
ATOM     61  C   UNL A   1      39.906  27.262  29.088  1.00  0.00     0.031 C 
ATOM     62  C   UNL A   1      41.801  32.658  31.967  1.00  0.00     0.029 A 
ATOM     63  C   UNL A   1      40.469  33.079  32.396  1.00  0.00     0.049 A 
ATOM     64  H   UNL A   1      38.900  33.310  30.952  1.00  0.00     0.167 HD
ATOM     65  C   UNL A   1      42.345  26.978  29.908  1.00  0.00     0.031 A 
ATOM     66  C   UNL A   1      39.952  32.823  33.638  1.00  0.00     0.031 A 
ATOM     67  C   UNL A   1      43.139  27.698  30.907  1.00  0.00     0.049 A 
ATOM     68  C   UNL A   1      40.728  31.713  34.343  1.00  0.00     0.074 A 
ATOM     69  C   UNL A   1      44.058  28.731  30.817  1.00  0.00     0.029 A 
ATOM     70  N   UNL A   1      42.689  27.691  32.225  1.00  0.00    -0.354 N 
ATOM     71  N   UNL A   1      41.333  30.711  33.753  1.00  0.00    -0.248 NA
ATOM     72  C   UNL A   1      40.952  31.725  35.782  1.00  0.00     0.031 C 
ATOM     73  C   UNL A   1      44.086  29.399  32.080  1.00  0.00     0.029 A 
ATOM     74  C   UNL A   1      43.202  28.760  32.936  1.00  0.00     0.049 A 
ATOM     75  H   UNL A   1      42.083  27.013  32.602  1.00  0.00     0.167 HD
ATOM     76  C   UNL A   1      42.060  29.992  34.677  1.00  0.00     0.074 A 
ATOM     77  C   UNL A   1      41.771  30.670  35.932  1.00  0.00     0.031 C 
ATOM     78  C   UNL A   1      42.855  28.920  34.349  1.00  0.00     0.031 A 
BRANCH  65  79
ATOM     79  C   UNL A   1      42.912  26.070  28.842  1.00  0.00    -0.014 A 
ATOM     80  C   UNL A   1      43.207  26.613  27.576  1.00  0.00     0.010 A 
ATOM     81  C   UNL A   1      43.110  24.679  28.976  1.00  0.00     0.010 A 
ATOM     82  C   UNL A   1      43.632  25.815  26.502  1.00  0.00     0.020 A 
ATOM     83  C   UNL A   1      43.519  23.865  27.910  1.00  0.00     0.020 A 
ATOM     84  C   UNL A   1      43.778  24.441  26.674  1.00  0.00     0.054 A 
BRANCH  84  85
ATOM     85  S   UNL A   1      44.323  23.428  25.276  1.00  0.00     0.124 S 
ATOM     86  O   UNL A   1      45.085  22.369  25.934  1.00  0.00    -0.237 OA
ATOM     87  O   UNL A   1      43.057  23.016  24.676  1.00  0.00    -0.237 OA
ATOM     88  O   UNL A   1      45.120  24.350  24.468  1.00  0.00    -0.744 OA
ENDBRANCH  84  85
ENDBRANCH  65  79
BRANCH  66  89
ATOM     89  C   UNL A   1      38.465  33.071  33.757  1.00  0.00    -0.014 A 
ATOM     90  C   UNL A   1      37.985  34.406  33.804  1.00  0.00     0.010 A 
ATOM     91  C   UNL A   1      37.519  32.058  33.542  1.00  0.00     0.010 A 
ATOM     92  C   UNL A   1      36.638  34.724  33.534  1.00  0.00     0.020 A 
ATOM     93  C   UNL A   1      36.164  32.372  33.287  1.00  0.00     0.020 A 
ATOM     94  C   UNL A   1      35.736  33.704  33.237  1.00  0.00     0.054 A 
BRANCH  94  95
ATOM     95  S   UNL A   1      33.984  34.110  32.868  1.00  0.00     0.124 S 
ATOM     96  O   UNL A   1      33.256  33.014  33.505  1.00  0.00    -0.237 OA
ATOM     97  O   UNL A   1      33.770  35.423  33.462  1.00  0.00    -0.237 OA
ATOM     98  O   UNL A   1      33.947  34.105  31.406  1.00  0.00    -0.744 OA
ENDBRANCH  94  95
ENDBRANCH  66  89
BRANCH  78  99
ATOM     99  C   UNL A   1      43.426  27.874  35.308  1.00  0.00    -0.014 A 
ATOM    100  C   UNL A   1      42.754  26.735  35.765  1.00  0.00     0.010 A 
ATOM    101  C   UNL A   1      44.787  27.983  35.709  1.00  0.00     0.010 A 
ATOM    102  C   UNL A   1      43.389  25.769  36.561  1.00  0.00     0.020 A 
ATOM    103  C   UNL A   1      45.449  27.006  36.455  1.00  0.00     0.020 A 
ATOM    104  C   UNL A   1      44.736  25.902  36.887  1.00  0.00     0.054 A 
BRANCH 104 105
ATOM    105  S   UNL A   1      45.537  24.603  37.851  1.00  0.00     0.124 S 
ATOM    106  O   UNL A   1      46.938  25.012  37.801  1.00  0.00    -0.237 OA
ATOM    107  O   UNL A   1      44.890  24.737  39.154  1.00  0.00    -0.237 OA
ATOM    108  O   UNL A   1      45.217  23.378  37.125  1.00  0.00    -0.744 OA
ENDBRANCH 104 105
ENDBRANCH  78  99
ENDBRANCH  52  53
ENDBRANCH  44  47
ENDBRANCH  42  43
ENDBRANCH  41  42
ENDBRANCH   1  41
TORSDOF 19
ENDMDL
MODEL 3
REMARK VINA RESULT:     -13.3      2.344      3.069
REMARK SMILES Cc1ccc(-c2coc3cc4oc(=O)c(CC(=O)N[C@H](Cc5ccccc5)C(=O)NCCCNC(=O)c5ccc(-c6c7nc(c(-c8ccc(S(=O)(=O)[O-])cc8)c8ccc([nH]8)c(-c8ccc(S(=O)(=O)[O-])cc8)c8nc(c(-c9ccc(S(=O)(=O)[O-])cc9)c9ccc6[nH]9)C=C8)C=C7)cc5)c(C)c4cc23)cc1
REMARK SMILES IDX 31 1 30 2 28 3 29 4 20 6 19 7 17 8 18 9 16 11 15 12 6 13
REMARK SMILES IDX 7 14 101 15 8 16 9 17 100 18 10 19 99 20 11 21 97 22 12 23
REMARK SMILES IDX 98 24 13 25 14 26 5 27 1 28 2 29 3 30 103 31 4 32 102 33
REMARK SMILES IDX 21 34 22 35 23 36 27 37 24 38 26 39 25 40 32 41 33 42 34 43
REMARK SMILES IDX 35 44 36 46 37 47 38 48 96 49 39 50 95 51 40 52 41 53 42 54
REMARK SMILES IDX 89 55 43 56 94 57 88 58 90 59 44 60 93 61 87 62 86 63 45 65
REMARK SMILES IDX 75 66 56 67 74 68 57 69 60 70 73 71 91 72 58 73 59 74 72 76
REMARK SMILES IDX 92 77 61 78 46 79 47 80 55 81 48 82 54 83 49 84 50 85 51 86
REMARK SMILES IDX 52 87 53 88 76 89 77 90 85 91 78 92 84 93 79 94 80 95 81 96
REMARK SMILES IDX 82 97 83 98 62 99 63 100 71 101 64 102 70 103 65 104 66 105
REMARK SMILES IDX 67 106 68 107 69 108
REMARK H PARENT 30 5 19 10 34 45 90 64 60 75
REMARK Flexibility Score: inf
ROOT
ATOM      1  C   UNL A   1      33.431  29.855  27.090  1.00  0.00     0.117 C 
ENDROOT
BRANCH   1   2
ATOM      2  N   UNL A   1      33.680  29.648  25.655  1.00  0.00    -0.354 N 
ATOM      3  C   UNL A   1      32.845  29.291  24.625  1.00  0.00     0.242 C 
ATOM      4  O   UNL A   1      33.334  29.022  23.526  1.00  0.00    -0.273 OA
ATOM      5  H   UNL A   1      34.615  29.792  25.383  1.00  0.00     0.163 HD
BRANCH   3   6
ATOM      6  C   UNL A   1      31.337  29.123  24.895  1.00  0.00     0.175 C 
BRANCH   6   7
ATOM      7  N   UNL A   1      31.291  28.013  25.868  1.00  0.00    -0.344 N 
ATOM      8  C   UNL A   1      31.456  26.675  25.861  1.00  0.00     0.225 C 
ATOM      9  O   UNL A   1      31.251  26.089  26.929  1.00  0.00    -0.275 OA
ATOM     10  H   UNL A   1      31.084  28.341  26.773  1.00  0.00     0.164 HD
BRANCH   8  11
ATOM     11  C   UNL A   1      31.897  25.903  24.637  1.00  0.00     0.143 C 
BRANCH  11  12
ATOM     12  C   UNL A   1      33.002  24.935  24.949  1.00  0.00     0.051 A 
ATOM     13  C   UNL A   1      35.730  19.321  24.792  1.00  0.00     0.028 A 
ATOM     14  C   UNL A   1      37.103  19.310  24.675  1.00  0.00     0.205 A 
ATOM     15  C   UNL A   1      35.350  20.692  24.845  1.00  0.00     0.029 A 
ATOM     16  O   UNL A   1      37.597  20.578  24.672  1.00  0.00    -0.464 OA
ATOM     17  C   UNL A   1      36.532  21.419  24.789  1.00  0.00     0.138 A 
ATOM     18  C   UNL A   1      34.130  21.390  24.952  1.00  0.00     0.025 A 
ATOM     19  C   UNL A   1      36.595  22.801  24.865  1.00  0.00     0.095 A 
ATOM     20  C   UNL A   1      34.132  22.792  25.009  1.00  0.00     0.022 A 
ATOM     21  C   UNL A   1      35.363  23.453  24.998  1.00  0.00     0.142 A 
ATOM     22  C   UNL A   1      32.894  23.590  24.972  1.00  0.00    -0.029 A 
ATOM     23  O   UNL A   1      35.432  24.845  25.173  1.00  0.00    -0.422 OA
ATOM     24  C   UNL A   1      31.581  22.853  24.889  1.00  0.00     0.046 C 
ATOM     25  C   UNL A   1      34.281  25.593  25.308  1.00  0.00     0.340 A 
ATOM     26  O   UNL A   1      34.306  26.753  25.707  1.00  0.00    -0.246 OA
BRANCH  13  27
ATOM     27  C   UNL A   1      34.902  18.137  24.875  1.00  0.00    -0.015 A 
ATOM     28  C   UNL A   1      32.406  14.660  25.391  1.00  0.00     0.044 C 
ATOM     29  C   UNL A   1      33.269  15.872  25.195  1.00  0.00    -0.051 A 
ATOM     30  C   UNL A   1      34.653  15.781  25.383  1.00  0.00     0.004 A 
ATOM     31  C   UNL A   1      32.708  17.103  24.839  1.00  0.00     0.004 A 
ATOM     32  C   UNL A   1      35.466  16.905  25.224  1.00  0.00     0.009 A 
ATOM     33  C   UNL A   1      33.520  18.230  24.682  1.00  0.00     0.009 A 
ENDBRANCH  13  27
ENDBRANCH  11  12
ENDBRANCH   8  11
ENDBRANCH   6   7
BRANCH   6  34
ATOM     34  C   UNL A   1      30.669  28.958  23.520  1.00  0.00     0.070 C 
BRANCH  34  35
ATOM     35  C   UNL A   1      29.701  30.020  23.049  1.00  0.00    -0.045 A 
ATOM     36  C   UNL A   1      29.298  29.988  21.702  1.00  0.00     0.004 A 
ATOM     37  C   UNL A   1      29.260  31.078  23.851  1.00  0.00     0.004 A 
ATOM     38  C   UNL A   1      28.402  30.927  21.196  1.00  0.00     0.000 A 
ATOM     39  C   UNL A   1      28.362  32.021  23.343  1.00  0.00     0.000 A 
ATOM     40  C   UNL A   1      27.920  31.936  22.023  1.00  0.00     0.000 A 
ENDBRANCH  34  35
ENDBRANCH   6  34
ENDBRANCH   3   6
ENDBRANCH   1   2
BRANCH   1  41
ATOM     41  C   UNL A   1      34.650  29.623  27.985  1.00  0.00     0.042 C 
BRANCH  41  42
ATOM     42  C   UNL A   1      35.944  30.036  27.311  1.00  0.00     0.118 C 
BRANCH  42  43
ATOM     43  N   UNL A   1      37.036  29.340  27.937  1.00  0.00    -0.352 N 
ATOM     44  C   UNL A   1      38.197  30.016  28.274  1.00  0.00     0.251 C 
ATOM     45  H   UNL A   1      36.957  28.378  28.128  1.00  0.00     0.163 HD
ATOM     46  O   UNL A   1      39.193  29.719  27.637  1.00  0.00    -0.269 OA
BRANCH  44  47
ATOM     47  C   UNL A   1      38.168  30.887  29.529  1.00  0.00     0.039 A 
ATOM     48  C   UNL A   1      39.225  31.799  29.454  1.00  0.00     0.014 A 
ATOM     49  C   UNL A   1      38.077  30.135  30.698  1.00  0.00     0.014 A 
ATOM     50  C   UNL A   1      40.431  31.424  30.016  1.00  0.00     0.010 A 
ATOM     51  C   UNL A   1      39.262  29.640  31.171  1.00  0.00     0.010 A 
ATOM     52  C   UNL A   1      40.443  30.235  30.722  1.00  0.00    -0.014 A 
BRANCH  52  53
ATOM     53  C   UNL A   1      41.642  29.508  31.050  1.00  0.00     0.031 A 
ATOM     54  C   UNL A   1      41.769  28.200  30.413  1.00  0.00     0.074 A 
ATOM     55  C   UNL A   1      42.582  30.189  31.736  1.00  0.00     0.049 A 
ATOM     56  N   UNL A   1      42.634  27.314  30.725  1.00  0.00    -0.248 NA
ATOM     57  C   UNL A   1      40.844  27.759  29.365  1.00  0.00     0.031 C 
ATOM     58  C   UNL A   1      43.998  29.909  31.952  1.00  0.00     0.029 A 
ATOM     59  N   UNL A   1      42.306  31.229  32.634  1.00  0.00    -0.354 N 
ATOM     60  C   UNL A   1      42.625  26.385  29.708  1.00  0.00     0.074 A 
ATOM     61  C   UNL A   1      41.409  26.617  28.976  1.00  0.00     0.031 C 
ATOM     62  C   UNL A   1      44.380  30.515  33.096  1.00  0.00     0.029 A 
ATOM     63  C   UNL A   1      43.165  31.030  33.724  1.00  0.00     0.049 A 
ATOM     64  H   UNL A   1      41.644  31.949  32.523  1.00  0.00     0.167 HD
ATOM     65  C   UNL A   1      43.761  25.670  29.499  1.00  0.00     0.031 A 
ATOM     66  C   UNL A   1      42.633  30.525  34.880  1.00  0.00     0.031 A 
ATOM     67  C   UNL A   1      44.700  25.914  30.598  1.00  0.00     0.049 A 
ATOM     68  C   UNL A   1      43.190  29.137  35.187  1.00  0.00     0.074 A 
ATOM     69  C   UNL A   1      45.801  26.744  30.730  1.00  0.00     0.029 A 
ATOM     70  N   UNL A   1      44.283  25.610  31.891  1.00  0.00    -0.354 N 
ATOM     71  N   UNL A   1      43.575  28.255  34.298  1.00  0.00    -0.248 NA
ATOM     72  C   UNL A   1      43.439  28.693  36.552  1.00  0.00     0.031 C 
ATOM     73  C   UNL A   1      45.984  27.003  32.123  1.00  0.00     0.029 A 
ATOM     74  C   UNL A   1      45.009  26.317  32.831  1.00  0.00     0.049 A 
ATOM     75  H   UNL A   1      43.564  24.974  32.108  1.00  0.00     0.167 HD
ATOM     76  C   UNL A   1      44.165  27.181  34.927  1.00  0.00     0.074 A 
ATOM     77  C   UNL A   1      44.039  27.509  36.340  1.00  0.00     0.031 C 
ATOM     78  C   UNL A   1      44.728  26.123  34.255  1.00  0.00     0.031 A 
BRANCH  65  79
ATOM     79  C   UNL A   1      44.119  25.020  28.183  1.00  0.00    -0.014 A 
ATOM     80  C   UNL A   1      44.434  23.648  28.169  1.00  0.00     0.010 A 
ATOM     81  C   UNL A   1      44.239  25.692  26.948  1.00  0.00     0.010 A 
ATOM     82  C   UNL A   1      44.882  22.997  27.008  1.00  0.00     0.020 A 
ATOM     83  C   UNL A   1      44.699  25.060  25.783  1.00  0.00     0.020 A 
ATOM     84  C   UNL A   1      45.019  23.711  25.821  1.00  0.00     0.054 A 
BRANCH  84  85
ATOM     85  S   UNL A   1      45.601  22.855  24.336  1.00  0.00     0.124 S 
ATOM     86  O   UNL A   1      46.208  21.646  24.888  1.00  0.00    -0.237 OA
ATOM     87  O   UNL A   1      44.364  22.655  23.586  1.00  0.00    -0.237 OA
ATOM     88  O   UNL A   1      46.543  23.798  23.735  1.00  0.00    -0.744 OA
ENDBRANCH  84  85
ENDBRANCH  65  79
BRANCH  66  89
ATOM     89  C   UNL A   1      41.226  30.994  35.175  1.00  0.00    -0.014 A 
ATOM     90  C   UNL A   1      41.032  32.212  35.879  1.00  0.00     0.010 A 
ATOM     91  C   UNL A   1      40.104  30.435  34.546  1.00  0.00     0.010 A 
ATOM     92  C   UNL A   1      39.801  32.898  35.859  1.00  0.00     0.020 A 
ATOM     93  C   UNL A   1      38.862  31.112  34.539  1.00  0.00     0.020 A 
ATOM     94  C   UNL A   1      38.725  32.362  35.153  1.00  0.00     0.054 A 
BRANCH  94  95
ATOM     95  S   UNL A   1      37.122  33.254  35.109  1.00  0.00     0.124 S 
ATOM     96  O   UNL A   1      36.678  33.194  36.500  1.00  0.00    -0.237 OA
ATOM     97  O   UNL A   1      37.448  34.588  34.620  1.00  0.00    -0.237 OA
ATOM     98  O   UNL A   1      36.329  32.457  34.174  1.00  0.00    -0.744 OA
ENDBRANCH  94  95
ENDBRANCH  66  89
BRANCH  78  99
ATOM     99  C   UNL A   1      45.102  24.759  34.838  1.00  0.00    -0.014 A 
ATOM    100  C   UNL A   1      44.198  23.781  35.267  1.00  0.00     0.010 A 
ATOM    101  C   UNL A   1      46.473  24.380  34.867  1.00  0.00     0.010 A 
ATOM    102  C   UNL A   1      44.624  22.513  35.691  1.00  0.00     0.020 A 
ATOM    103  C   UNL A   1      46.910  23.105  35.236  1.00  0.00     0.020 A 
ATOM    104  C   UNL A   1      45.975  22.177  35.658  1.00  0.00     0.054 A 
BRANCH 104 105
ATOM    105  S   UNL A   1      46.477  20.513  36.143  1.00  0.00     0.124 S 
ATOM    106  O   UNL A   1      45.536  19.685  35.394  1.00  0.00    -0.237 OA
ATOM    107  O   UNL A   1      47.864  20.459  35.685  1.00  0.00    -0.237 OA
ATOM    108  O   UNL A   1      46.304  20.502  37.593  1.00  0.00    -0.744 OA
ENDBRANCH 104 105
ENDBRANCH  78  99
ENDBRANCH  52  53
ENDBRANCH  44  47
ENDBRANCH  42  43
ENDBRANCH  41  42
ENDBRANCH   1  41
TORSDOF 19
ENDMDL
