MODEL 1
REMARK VINA RESULT:     -12.2      0.000      0.000
REMARK SMILES Cc1nn(C(C)C)cc1-c1cnccc1C(=O)NCCCNC(=O)c1ccc(-c2c3nc(c(-c4ccc(S(=O)(=O)[O-])cc4)c4ccc([nH]4)c(-c4ccc(S(=O)(=O)[O-])cc4)c4nc(c(-c5ccc(S(=O)(=O)[O-])cc5)c5ccc2[nH]5)C=C4)C=C3)cc1
REMARK SMILES IDX 20 1 19 2 18 3 16 4 17 5 15 7 10 8 11 9 12 10 14 11 13 12
REMARK SMILES IDX 9 13 1 14 2 15 3 16 4 17 8 18 5 19 6 20 7 21 21 22 22 23
REMARK SMILES IDX 23 24 24 26 25 27 26 28 84 29 27 30 83 31 28 32 29 33 30 34
REMARK SMILES IDX 77 35 31 36 82 37 76 38 78 39 32 40 81 41 75 42 74 43 33 45
REMARK SMILES IDX 63 46 44 47 62 48 45 49 48 50 61 51 79 52 46 53 47 54 60 56
REMARK SMILES IDX 80 57 49 58 34 59 35 60 43 61 36 62 42 63 37 64 38 65 39 66
REMARK SMILES IDX 40 67 41 68 64 69 65 70 73 71 66 72 72 73 67 74 68 75 69 76
REMARK SMILES IDX 70 77 71 78 50 79 51 80 59 81 52 82 58 83 53 84 54 85 55 86
REMARK SMILES IDX 56 87 57 88
REMARK H PARENT 18 6 22 25 78 44 48 55
REMARK Flexibility Score: inf
ROOT
ATOM      1  C   UNL A   1      31.963  31.089  26.891  1.00  0.00     0.042 C 
ENDROOT
BRANCH   1   2
ATOM      2  C   UNL A   1      32.286  29.627  26.706  1.00  0.00     0.118 C 
BRANCH   2   3
ATOM      3  N   UNL A   1      31.358  28.572  26.961  1.00  0.00    -0.352 N 
ATOM      4  C   UNL A   1      31.388  27.351  26.308  1.00  0.00     0.252 C 
ATOM      5  O   UNL A   1      30.778  26.406  26.813  1.00  0.00    -0.269 OA
ATOM      6  H   UNL A   1      30.660  28.720  27.639  1.00  0.00     0.163 HD
BRANCH   4   7
ATOM      7  C   UNL A   1      31.984  27.154  24.937  1.00  0.00     0.050 A 
ATOM      8  C   UNL A   1      31.485  27.484  23.656  1.00  0.00     0.016 A 
ATOM      9  C   UNL A   1      32.272  27.101  22.562  1.00  0.00     0.120 A 
ATOM     10  N   UNL A   1      33.463  26.461  22.628  1.00  0.00    -0.264 NA
ATOM     11  C   UNL A   1      33.236  26.507  25.014  1.00  0.00     0.034 A 
ATOM     12  C   UNL A   1      33.922  26.181  23.858  1.00  0.00     0.112 A 
BRANCH   8  13
ATOM     13  C   UNL A   1      30.194  28.068  23.305  1.00  0.00     0.025 A 
ATOM     14  C   UNL A   1      28.509  26.182  24.063  1.00  0.00     0.069 C 
ATOM     15  C   UNL A   1      28.888  27.492  23.456  1.00  0.00     0.067 A 
ATOM     16  N   UNL A   1      27.928  28.362  23.131  1.00  0.00    -0.177 NA
ATOM     17  N   UNL A   1      28.587  29.473  22.743  1.00  0.00    -0.269 N 
ATOM     18  C   UNL A   1      29.954  29.341  22.831  1.00  0.00     0.118 A 
BRANCH  17  19
ATOM     19  C   UNL A   1      27.832  30.673  22.378  1.00  0.00     0.101 C 
ATOM     20  C   UNL A   1      27.576  31.600  23.570  1.00  0.00     0.033 C 
ATOM     21  C   UNL A   1      28.542  31.477  21.302  1.00  0.00     0.033 C 
ENDBRANCH  17  19
ENDBRANCH   8  13
ENDBRANCH   4   7
ENDBRANCH   2   3
ENDBRANCH   1   2
BRANCH   1  22
ATOM     22  C   UNL A   1      33.124  31.937  27.336  1.00  0.00     0.118 C 
BRANCH  22  23
ATOM     23  N   UNL A   1      32.797  33.343  27.628  1.00  0.00    -0.352 N 
ATOM     24  C   UNL A   1      33.263  34.186  28.644  1.00  0.00     0.251 C 
ATOM     25  H   UNL A   1      32.149  33.755  27.011  1.00  0.00     0.163 HD
ATOM     26  O   UNL A   1      32.759  35.256  28.907  1.00  0.00    -0.269 OA
BRANCH  24  27
ATOM     27  C   UNL A   1      34.460  33.747  29.362  1.00  0.00     0.039 A 
ATOM     28  C   UNL A   1      34.531  33.166  30.631  1.00  0.00     0.014 A 
ATOM     29  C   UNL A   1      35.620  33.937  28.666  1.00  0.00     0.014 A 
ATOM     30  C   UNL A   1      35.785  32.703  31.048  1.00  0.00     0.010 A 
ATOM     31  C   UNL A   1      36.475  32.915  28.783  1.00  0.00     0.010 A 
ATOM     32  C   UNL A   1      36.792  32.649  30.086  1.00  0.00    -0.014 A 
BRANCH  32  33
ATOM     33  C   UNL A   1      38.117  32.091  30.170  1.00  0.00     0.031 A 
ATOM     34  C   UNL A   1      38.186  30.730  29.605  1.00  0.00     0.074 A 
ATOM     35  C   UNL A   1      39.199  32.899  30.217  1.00  0.00     0.049 A 
ATOM     36  N   UNL A   1      37.856  29.638  30.214  1.00  0.00    -0.248 NA
ATOM     37  C   UNL A   1      38.280  30.588  28.134  1.00  0.00     0.031 C 
ATOM     38  C   UNL A   1      39.284  34.369  30.219  1.00  0.00     0.029 A 
ATOM     39  N   UNL A   1      40.496  32.533  30.144  1.00  0.00    -0.354 N 
ATOM     40  C   UNL A   1      38.079  28.654  29.267  1.00  0.00     0.074 A 
ATOM     41  C   UNL A   1      37.896  29.314  28.002  1.00  0.00     0.031 C 
ATOM     42  C   UNL A   1      40.561  34.751  29.978  1.00  0.00     0.029 A 
ATOM     43  C   UNL A   1      41.401  33.566  29.963  1.00  0.00     0.049 A 
ATOM     44  H   UNL A   1      40.780  31.593  30.216  1.00  0.00     0.167 HD
ATOM     45  C   UNL A   1      38.864  27.571  29.551  1.00  0.00     0.031 A 
ATOM     46  C   UNL A   1      42.736  33.415  29.785  1.00  0.00     0.031 A 
ATOM     47  C   UNL A   1      39.273  27.593  30.946  1.00  0.00     0.049 A 
ATOM     48  C   UNL A   1      43.075  32.044  30.267  1.00  0.00     0.074 A 
ATOM     49  C   UNL A   1      38.612  27.693  32.156  1.00  0.00     0.029 A 
ATOM     50  N   UNL A   1      40.575  27.988  31.192  1.00  0.00    -0.354 N 
ATOM     51  N   UNL A   1      42.945  31.668  31.511  1.00  0.00    -0.248 NA
ATOM     52  C   UNL A   1      43.087  30.954  29.300  1.00  0.00     0.031 C 
ATOM     53  C   UNL A   1      39.417  28.565  32.952  1.00  0.00     0.029 A 
ATOM     54  C   UNL A   1      40.579  28.873  32.241  1.00  0.00     0.049 A 
ATOM     55  H   UNL A   1      41.368  27.685  30.696  1.00  0.00     0.167 HD
ATOM     56  C   UNL A   1      42.414  30.384  31.449  1.00  0.00     0.074 A 
ATOM     57  C   UNL A   1      42.645  29.954  30.071  1.00  0.00     0.031 C 
ATOM     58  C   UNL A   1      41.568  29.924  32.424  1.00  0.00     0.031 A 
BRANCH  45  59
ATOM     59  C   UNL A   1      39.658  26.792  28.519  1.00  0.00    -0.014 A 
ATOM     60  C   UNL A   1      39.391  25.415  28.387  1.00  0.00     0.010 A 
ATOM     61  C   UNL A   1      40.791  27.281  27.837  1.00  0.00     0.010 A 
ATOM     62  C   UNL A   1      40.275  24.562  27.715  1.00  0.00     0.020 A 
ATOM     63  C   UNL A   1      41.661  26.449  27.136  1.00  0.00     0.020 A 
ATOM     64  C   UNL A   1      41.418  25.086  27.115  1.00  0.00     0.054 A 
BRANCH  64  65
ATOM     65  S   UNL A   1      42.619  23.970  26.358  1.00  0.00     0.124 S 
ATOM     66  O   UNL A   1      43.622  23.859  27.412  1.00  0.00    -0.237 OA
ATOM     67  O   UNL A   1      41.814  22.777  26.113  1.00  0.00    -0.237 OA
ATOM     68  O   UNL A   1      43.043  24.688  25.159  1.00  0.00    -0.744 OA
ENDBRANCH  64  65
ENDBRANCH  45  59
BRANCH  46  69
ATOM     69  C   UNL A   1      43.683  34.252  29.011  1.00  0.00    -0.014 A 
ATOM     70  C   UNL A   1      44.958  34.546  29.528  1.00  0.00     0.010 A 
ATOM     71  C   UNL A   1      43.451  34.524  27.647  1.00  0.00     0.010 A 
ATOM     72  C   UNL A   1      45.989  35.010  28.696  1.00  0.00     0.020 A 
ATOM     73  C   UNL A   1      44.471  34.997  26.812  1.00  0.00     0.020 A 
ATOM     74  C   UNL A   1      45.745  35.207  27.335  1.00  0.00     0.054 A 
BRANCH  74  75
ATOM     75  S   UNL A   1      47.134  35.603  26.229  1.00  0.00     0.124 S 
ATOM     76  O   UNL A   1      46.806  36.956  25.790  1.00  0.00    -0.237 OA
ATOM     77  O   UNL A   1      48.288  35.489  27.117  1.00  0.00    -0.237 OA
ATOM     78  O   UNL A   1      47.051  34.577  25.193  1.00  0.00    -0.744 OA
ENDBRANCH  74  75
ENDBRANCH  46  69
BRANCH  58  79
ATOM     79  C   UNL A   1      41.505  30.689  33.732  1.00  0.00    -0.014 A 
ATOM     80  C   UNL A   1      42.296  30.400  34.863  1.00  0.00     0.010 A 
ATOM     81  C   UNL A   1      40.681  31.827  33.774  1.00  0.00     0.010 A 
ATOM     82  C   UNL A   1      42.226  31.199  36.016  1.00  0.00     0.020 A 
ATOM     83  C   UNL A   1      40.619  32.638  34.910  1.00  0.00     0.020 A 
ATOM     84  C   UNL A   1      41.379  32.311  36.034  1.00  0.00     0.054 A 
BRANCH  84  85
ATOM     85  S   UNL A   1      41.287  33.343  37.525  1.00  0.00     0.124 S 
ATOM     86  O   UNL A   1      40.394  34.420  37.109  1.00  0.00    -0.237 OA
ATOM     87  O   UNL A   1      40.745  32.425  38.523  1.00  0.00    -0.237 OA
ATOM     88  O   UNL A   1      42.675  33.746  37.755  1.00  0.00    -0.744 OA
ENDBRANCH  84  85
ENDBRANCH  58  79
ENDBRANCH  32  33
ENDBRANCH  24  27
ENDBRANCH  22  23
ENDBRANCH   1  22
TORSDOF 15
ENDMDL
MODEL 2
REMARK VINA RESULT:     -12.1      4.910     10.258
REMARK SMILES Cc1nn(C(C)C)cc1-c1cnccc1C(=O)NCCCNC(=O)c1ccc(-c2c3nc(c(-c4ccc(S(=O)(=O)[O-])cc4)c4ccc([nH]4)c(-c4ccc(S(=O)(=O)[O-])cc4)c4nc(c(-c5ccc(S(=O)(=O)[O-])cc5)c5ccc2[nH]5)C=C4)C=C3)cc1
REMARK SMILES IDX 20 1 19 2 18 3 16 4 17 5 15 7 10 8 11 9 12 10 14 11 13 12
REMARK SMILES IDX 9 13 1 14 2 15 3 16 4 17 8 18 5 19 6 20 7 21 21 22 22 23
REMARK SMILES IDX 23 24 24 26 25 27 26 28 84 29 27 30 83 31 28 32 29 33 30 34
REMARK SMILES IDX 77 35 31 36 82 37 76 38 78 39 32 40 81 41 75 42 74 43 33 45
REMARK SMILES IDX 63 46 44 47 62 48 45 49 48 50 61 51 79 52 46 53 47 54 60 56
REMARK SMILES IDX 80 57 49 58 34 59 35 60 43 61 36 62 42 63 37 64 38 65 39 66
REMARK SMILES IDX 40 67 41 68 64 69 65 70 73 71 66 72 72 73 67 74 68 75 69 76
REMARK SMILES IDX 70 77 71 78 50 79 51 80 59 81 52 82 58 83 53 84 54 85 55 86
REMARK SMILES IDX 56 87 57 88
REMARK H PARENT 18 6 22 25 78 44 48 55
REMARK Flexibility Score: inf
ROOT
ATOM      1  C   UNL A   1      36.966  21.539  24.761  1.00  0.00     0.042 C 
ENDROOT
BRANCH   1   2
ATOM      2  C   UNL A   1      36.257  22.866  24.664  1.00  0.00     0.118 C 
BRANCH   2   3
ATOM      3  N   UNL A   1      35.485  23.271  23.533  1.00  0.00    -0.352 N 
ATOM      4  C   UNL A   1      34.237  23.863  23.629  1.00  0.00     0.252 C 
ATOM      5  O   UNL A   1      33.802  24.468  22.647  1.00  0.00    -0.269 OA
ATOM      6  H   UNL A   1      35.862  23.123  22.636  1.00  0.00     0.163 HD
BRANCH   4   7
ATOM      7  C   UNL A   1      33.312  23.672  24.805  1.00  0.00     0.050 A 
ATOM      8  C   UNL A   1      32.712  22.504  25.329  1.00  0.00     0.016 A 
ATOM      9  C   UNL A   1      31.839  22.681  26.410  1.00  0.00     0.120 A 
ATOM     10  N   UNL A   1      31.537  23.862  26.999  1.00  0.00    -0.264 NA
ATOM     11  C   UNL A   1      33.019  24.904  25.429  1.00  0.00     0.034 A 
ATOM     12  C   UNL A   1      32.139  24.950  26.495  1.00  0.00     0.112 A 
BRANCH   8  13
ATOM     13  C   UNL A   1      32.782  21.137  24.819  1.00  0.00     0.025 A 
ATOM     14  C   UNL A   1      31.953  21.433  22.330  1.00  0.00     0.069 C 
ATOM     15  C   UNL A   1      32.426  20.657  23.514  1.00  0.00     0.067 A 
ATOM     16  N   UNL A   1      32.729  19.364  23.368  1.00  0.00    -0.177 NA
ATOM     17  N   UNL A   1      33.242  18.994  24.559  1.00  0.00    -0.269 N 
ATOM     18  C   UNL A   1      33.292  20.030  25.464  1.00  0.00     0.118 A 
BRANCH  17  19
ATOM     19  C   UNL A   1      33.752  17.634  24.737  1.00  0.00     0.101 C 
ATOM     20  C   UNL A   1      32.902  16.800  25.700  1.00  0.00     0.033 C 
ATOM     21  C   UNL A   1      33.830  16.888  23.415  1.00  0.00     0.033 C 
ENDBRANCH  17  19
ENDBRANCH   8  13
ENDBRANCH   4   7
ENDBRANCH   2   3
ENDBRANCH   1   2
BRANCH   1  22
ATOM     22  C   UNL A   1      38.295  21.587  25.467  1.00  0.00     0.118 C 
BRANCH  22  23
ATOM     23  N   UNL A   1      38.932  20.279  25.695  1.00  0.00    -0.352 N 
ATOM     24  C   UNL A   1      40.269  19.959  25.960  1.00  0.00     0.251 C 
ATOM     25  H   UNL A   1      38.320  19.507  25.654  1.00  0.00     0.163 HD
ATOM     26  O   UNL A   1      40.706  18.830  25.917  1.00  0.00    -0.269 OA
BRANCH  24  27
ATOM     27  C   UNL A   1      41.138  21.064  26.368  1.00  0.00     0.039 A 
ATOM     28  C   UNL A   1      42.140  21.685  25.618  1.00  0.00     0.014 A 
ATOM     29  C   UNL A   1      40.897  21.515  27.635  1.00  0.00     0.014 A 
ATOM     30  C   UNL A   1      42.745  22.816  26.180  1.00  0.00     0.010 A 
ATOM     31  C   UNL A   1      40.946  22.848  27.735  1.00  0.00     0.010 A 
ATOM     32  C   UNL A   1      42.144  23.356  27.315  1.00  0.00    -0.014 A 
BRANCH  32  33
ATOM     33  C   UNL A   1      42.438  24.577  28.020  1.00  0.00     0.031 A 
ATOM     34  C   UNL A   1      41.352  25.568  27.895  1.00  0.00     0.074 A 
ATOM     35  C   UNL A   1      43.282  24.574  29.076  1.00  0.00     0.049 A 
ATOM     36  N   UNL A   1      41.168  26.370  26.899  1.00  0.00    -0.248 NA
ATOM     37  C   UNL A   1      40.164  25.417  28.767  1.00  0.00     0.031 C 
ATOM     38  C   UNL A   1      44.037  23.464  29.680  1.00  0.00     0.029 A 
ATOM     39  N   UNL A   1      43.536  25.594  29.922  1.00  0.00    -0.354 N 
ATOM     40  C   UNL A   1      40.026  27.071  27.248  1.00  0.00     0.074 A 
ATOM     41  C   UNL A   1      39.289  26.171  28.095  1.00  0.00     0.031 C 
ATOM     42  C   UNL A   1      44.521  23.847  30.886  1.00  0.00     0.029 A 
ATOM     43  C   UNL A   1      44.245  25.261  31.065  1.00  0.00     0.049 A 
ATOM     44  H   UNL A   1      43.238  26.514  29.739  1.00  0.00     0.167 HD
ATOM     45  C   UNL A   1      40.014  28.438  27.250  1.00  0.00     0.031 A 
ATOM     46  C   UNL A   1      44.537  26.111  32.080  1.00  0.00     0.031 A 
ATOM     47  C   UNL A   1      41.274  28.957  26.743  1.00  0.00     0.049 A 
ATOM     48  C   UNL A   1      44.369  27.491  31.538  1.00  0.00     0.074 A 
ATOM     49  C   UNL A   1      42.021  28.759  25.596  1.00  0.00     0.029 A 
ATOM     50  N   UNL A   1      42.154  29.449  27.688  1.00  0.00    -0.354 N 
ATOM     51  N   UNL A   1      45.111  27.982  30.581  1.00  0.00    -0.248 NA
ATOM     52  C   UNL A   1      43.080  28.148  31.706  1.00  0.00     0.031 C 
ATOM     53  C   UNL A   1      43.378  28.707  26.039  1.00  0.00     0.029 A 
ATOM     54  C   UNL A   1      43.413  28.980  27.409  1.00  0.00     0.049 A 
ATOM     55  H   UNL A   1      41.917  30.037  28.440  1.00  0.00     0.167 HD
ATOM     56  C   UNL A   1      44.230  28.674  29.758  1.00  0.00     0.074 A 
ATOM     57  C   UNL A   1      43.025  28.849  30.568  1.00  0.00     0.031 C 
ATOM     58  C   UNL A   1      44.448  28.760  28.407  1.00  0.00     0.031 A 
BRANCH  45  59
ATOM     59  C   UNL A   1      39.123  29.286  28.137  1.00  0.00    -0.014 A 
ATOM     60  C   UNL A   1      37.858  29.656  27.638  1.00  0.00     0.010 A 
ATOM     61  C   UNL A   1      39.538  29.920  29.326  1.00  0.00     0.010 A 
ATOM     62  C   UNL A   1      37.113  30.684  28.226  1.00  0.00     0.020 A 
ATOM     63  C   UNL A   1      38.792  30.922  29.942  1.00  0.00     0.020 A 
ATOM     64  C   UNL A   1      37.601  31.327  29.363  1.00  0.00     0.054 A 
BRANCH  64  65
ATOM     65  S   UNL A   1      36.702  32.735  30.046  1.00  0.00     0.124 S 
ATOM     66  O   UNL A   1      35.588  32.074  30.718  1.00  0.00    -0.237 OA
ATOM     67  O   UNL A   1      37.703  33.344  30.917  1.00  0.00    -0.237 OA
ATOM     68  O   UNL A   1      36.348  33.520  28.865  1.00  0.00    -0.744 OA
ENDBRANCH  64  65
ENDBRANCH  45  59
BRANCH  46  69
ATOM     69  C   UNL A   1      44.700  25.830  33.526  1.00  0.00    -0.014 A 
ATOM     70  C   UNL A   1      45.726  26.453  34.260  1.00  0.00     0.010 A 
ATOM     71  C   UNL A   1      43.681  25.176  34.249  1.00  0.00     0.010 A 
ATOM     72  C   UNL A   1      45.689  26.499  35.662  1.00  0.00     0.020 A 
ATOM     73  C   UNL A   1      43.642  25.209  35.649  1.00  0.00     0.020 A 
ATOM     74  C   UNL A   1      44.631  25.898  36.348  1.00  0.00     0.054 A 
BRANCH  74  75
ATOM     75  S   UNL A   1      44.479  26.144  38.143  1.00  0.00     0.124 S 
ATOM     76  O   UNL A   1      45.035  24.904  38.676  1.00  0.00    -0.237 OA
ATOM     77  O   UNL A   1      45.280  27.344  38.368  1.00  0.00    -0.237 OA
ATOM     78  O   UNL A   1      43.042  26.317  38.347  1.00  0.00    -0.744 OA
ENDBRANCH  74  75
ENDBRANCH  46  69
BRANCH  58  79
ATOM     79  C   UNL A   1      45.826  28.403  27.884  1.00  0.00    -0.014 A 
ATOM     80  C   UNL A   1      46.245  27.094  27.570  1.00  0.00     0.010 A 
ATOM     81  C   UNL A   1      46.699  29.466  27.592  1.00  0.00     0.010 A 
ATOM     82  C   UNL A   1      47.517  26.855  27.027  1.00  0.00     0.020 A 
ATOM     83  C   UNL A   1      47.960  29.237  27.035  1.00  0.00     0.020 A 
ATOM     84  C   UNL A   1      48.372  27.931  26.770  1.00  0.00     0.054 A 
BRANCH  84  85
ATOM     85  S   UNL A   1      50.017  27.621  26.069  1.00  0.00     0.124 S 
ATOM     86  O   UNL A   1      50.365  28.917  25.494  1.00  0.00    -0.237 OA
ATOM     87  O   UNL A   1      50.798  27.220  27.236  1.00  0.00    -0.237 OA
ATOM     88  O   UNL A   1      49.785  26.556  25.093  1.00  0.00    -0.744 OA
ENDBRANCH  84  85
ENDBRANCH  58  79
ENDBRANCH  32  33
ENDBRANCH  24  27
ENDBRANCH  22  23
ENDBRANCH   1  22
TORSDOF 15
ENDMDL
MODEL 3
REMARK VINA RESULT:     -12.0      1.167      2.725
REMARK SMILES Cc1nn(C(C)C)cc1-c1cnccc1C(=O)NCCCNC(=O)c1ccc(-c2c3nc(c(-c4ccc(S(=O)(=O)[O-])cc4)c4ccc([nH]4)c(-c4ccc(S(=O)(=O)[O-])cc4)c4nc(c(-c5ccc(S(=O)(=O)[O-])cc5)c5ccc2[nH]5)C=C4)C=C3)cc1
REMARK SMILES IDX 20 1 19 2 18 3 16 4 17 5 15 7 10 8 11 9 12 10 14 11 13 12
REMARK SMILES IDX 9 13 1 14 2 15 3 16 4 17 8 18 5 19 6 20 7 21 21 22 22 23
REMARK SMILES IDX 23 24 24 26 25 27 26 28 84 29 27 30 83 31 28 32 29 33 30 34
REMARK SMILES IDX 77 35 31 36 82 37 76 38 78 39 32 40 81 41 75 42 74 43 33 45
REMARK SMILES IDX 63 46 44 47 62 48 45 49 48 50 61 51 79 52 46 53 47 54 60 56
REMARK SMILES IDX 80 57 49 58 34 59 35 60 43 61 36 62 42 63 37 64 38 65 39 66
REMARK SMILES IDX 40 67 41 68 64 69 65 70 73 71 66 72 72 73 67 74 68 75 69 76
REMARK SMILES IDX 70 77 71 78 50 79 51 80 59 81 52 82 58 83 53 84 54 85 55 86
REMARK SMILES IDX 56 87 57 88
REMARK H PARENT 18 6 22 25 78 44 48 55
REMARK Flexibility Score: inf
ROOT
ATOM      1  C   UNL A   1      31.725  31.593  26.742  1.00  0.00     0.042 C 
ENDROOT
BRANCH   1   2
ATOM      2  C   UNL A   1      31.934  30.122  26.484  1.00  0.00     0.118 C 
BRANCH   2   3
ATOM      3  N   UNL A   1      32.835  29.610  25.502  1.00  0.00    -0.352 N 
ATOM      4  C   UNL A   1      32.446  29.234  24.227  1.00  0.00     0.252 C 
ATOM      5  O   UNL A   1      33.317  29.124  23.361  1.00  0.00    -0.269 OA
ATOM      6  H   UNL A   1      33.785  29.520  25.744  1.00  0.00     0.163 HD
BRANCH   4   7
ATOM      7  C   UNL A   1      31.046  28.796  23.879  1.00  0.00     0.050 A 
ATOM      8  C   UNL A   1      30.476  27.504  23.789  1.00  0.00     0.016 A 
ATOM      9  C   UNL A   1      29.141  27.439  23.371  1.00  0.00     0.120 A 
ATOM     10  N   UNL A   1      28.354  28.496  23.064  1.00  0.00    -0.264 NA
ATOM     11  C   UNL A   1      30.224  29.904  23.581  1.00  0.00     0.034 A 
ATOM     12  C   UNL A   1      28.914  29.710  23.180  1.00  0.00     0.112 A 
BRANCH   8  13
ATOM     13  C   UNL A   1      31.128  26.209  23.957  1.00  0.00     0.025 A 
ATOM     14  C   UNL A   1      32.173  25.801  21.567  1.00  0.00     0.069 C 
ATOM     15  C   UNL A   1      31.850  25.445  22.980  1.00  0.00     0.067 A 
ATOM     16  N   UNL A   1      32.408  24.358  23.522  1.00  0.00    -0.177 NA
ATOM     17  N   UNL A   1      32.033  24.388  24.817  1.00  0.00    -0.269 N 
ATOM     18  C   UNL A   1      31.260  25.486  25.124  1.00  0.00     0.118 A 
BRANCH  17  19
ATOM     19  C   UNL A   1      32.530  23.366  25.739  1.00  0.00     0.101 C 
ATOM     20  C   UNL A   1      33.901  23.712  26.327  1.00  0.00     0.033 C 
ATOM     21  C   UNL A   1      31.569  23.137  26.893  1.00  0.00     0.033 C 
ENDBRANCH  17  19
ENDBRANCH   8  13
ENDBRANCH   4   7
ENDBRANCH   2   3
ENDBRANCH   1   2
BRANCH   1  22
ATOM     22  C   UNL A   1      32.915  32.303  27.331  1.00  0.00     0.118 C 
BRANCH  22  23
ATOM     23  N   UNL A   1      32.701  33.723  27.654  1.00  0.00    -0.352 N 
ATOM     24  C   UNL A   1      33.230  34.503  28.691  1.00  0.00     0.251 C 
ATOM     25  H   UNL A   1      32.090  34.200  27.046  1.00  0.00     0.163 HD
ATOM     26  O   UNL A   1      32.812  35.603  28.977  1.00  0.00    -0.269 OA
BRANCH  24  27
ATOM     27  C   UNL A   1      34.386  33.952  29.400  1.00  0.00     0.039 A 
ATOM     28  C   UNL A   1      34.385  33.175  30.561  1.00  0.00     0.014 A 
ATOM     29  C   UNL A   1      35.583  34.252  28.816  1.00  0.00     0.014 A 
ATOM     30  C   UNL A   1      35.616  32.650  30.973  1.00  0.00     0.010 A 
ATOM     31  C   UNL A   1      36.440  33.224  28.818  1.00  0.00     0.010 A 
ATOM     32  C   UNL A   1      36.679  32.750  30.078  1.00  0.00    -0.014 A 
BRANCH  32  33
ATOM     33  C   UNL A   1      38.002  32.186  30.152  1.00  0.00     0.031 A 
ATOM     34  C   UNL A   1      38.058  30.822  29.591  1.00  0.00     0.074 A 
ATOM     35  C   UNL A   1      39.089  32.988  30.186  1.00  0.00     0.049 A 
ATOM     36  N   UNL A   1      37.728  29.735  30.206  1.00  0.00    -0.248 NA
ATOM     37  C   UNL A   1      38.138  30.675  28.120  1.00  0.00     0.031 C 
ATOM     38  C   UNL A   1      39.182  34.457  30.181  1.00  0.00     0.029 A 
ATOM     39  N   UNL A   1      40.383  32.614  30.102  1.00  0.00    -0.354 N 
ATOM     40  C   UNL A   1      37.937  28.746  29.261  1.00  0.00     0.074 A 
ATOM     41  C   UNL A   1      37.745  29.403  27.995  1.00  0.00     0.031 C 
ATOM     42  C   UNL A   1      40.459  34.831  29.928  1.00  0.00     0.029 A 
ATOM     43  C   UNL A   1      41.292  33.642  29.909  1.00  0.00     0.049 A 
ATOM     44  H   UNL A   1      40.663  31.673  30.174  1.00  0.00     0.167 HD
ATOM     45  C   UNL A   1      38.719  27.660  29.541  1.00  0.00     0.031 A 
ATOM     46  C   UNL A   1      42.624  33.483  29.719  1.00  0.00     0.031 A 
ATOM     47  C   UNL A   1      39.141  27.684  30.933  1.00  0.00     0.049 A 
ATOM     48  C   UNL A   1      42.960  32.112  30.202  1.00  0.00     0.074 A 
ATOM     49  C   UNL A   1      38.491  27.792  32.148  1.00  0.00     0.029 A 
ATOM     50  N   UNL A   1      40.446  28.073  31.165  1.00  0.00    -0.354 N 
ATOM     51  N   UNL A   1      42.840  31.741  31.449  1.00  0.00    -0.248 NA
ATOM     52  C   UNL A   1      42.957  31.019  29.239  1.00  0.00     0.031 C 
ATOM     53  C   UNL A   1      39.308  28.662  32.933  1.00  0.00     0.029 A 
ATOM     54  C   UNL A   1      40.466  28.962  32.211  1.00  0.00     0.049 A 
ATOM     55  H   UNL A   1      41.233  27.764  30.663  1.00  0.00     0.167 HD
ATOM     56  C   UNL A   1      42.301  30.460  31.396  1.00  0.00     0.074 A 
ATOM     57  C   UNL A   1      42.517  30.023  30.018  1.00  0.00     0.031 C 
ATOM     58  C   UNL A   1      41.462  30.007  32.381  1.00  0.00     0.031 A 
BRANCH  45  59
ATOM     59  C   UNL A   1      39.498  26.873  28.505  1.00  0.00    -0.014 A 
ATOM     60  C   UNL A   1      39.329  25.474  28.477  1.00  0.00     0.010 A 
ATOM     61  C   UNL A   1      40.543  27.395  27.715  1.00  0.00     0.010 A 
ATOM     62  C   UNL A   1      40.227  24.644  27.797  1.00  0.00     0.020 A 
ATOM     63  C   UNL A   1      41.425  26.583  27.006  1.00  0.00     0.020 A 
ATOM     64  C   UNL A   1      41.285  25.208  27.086  1.00  0.00     0.054 A 
BRANCH  64  65
ATOM     65  S   UNL A   1      42.514  24.133  26.315  1.00  0.00     0.124 S 
ATOM     66  O   UNL A   1      43.537  24.063  27.353  1.00  0.00    -0.237 OA
ATOM     67  O   UNL A   1      41.749  22.910  26.087  1.00  0.00    -0.237 OA
ATOM     68  O   UNL A   1      42.893  24.860  25.106  1.00  0.00    -0.744 OA
ENDBRANCH  64  65
ENDBRANCH  45  59
BRANCH  46  69
ATOM     69  C   UNL A   1      43.569  34.312  28.933  1.00  0.00    -0.014 A 
ATOM     70  C   UNL A   1      44.808  34.690  29.482  1.00  0.00     0.010 A 
ATOM     71  C   UNL A   1      43.384  34.491  27.547  1.00  0.00     0.010 A 
ATOM     72  C   UNL A   1      45.853  35.148  28.664  1.00  0.00     0.020 A 
ATOM     73  C   UNL A   1      44.419  34.957  26.726  1.00  0.00     0.020 A 
ATOM     74  C   UNL A   1      45.660  35.253  27.285  1.00  0.00     0.054 A 
BRANCH  74  75
ATOM     75  S   UNL A   1      47.077  35.641  26.213  1.00  0.00     0.124 S 
ATOM     76  O   UNL A   1      46.788  37.010  25.798  1.00  0.00    -0.237 OA
ATOM     77  O   UNL A   1      48.212  35.481  27.118  1.00  0.00    -0.237 OA
ATOM     78  O   UNL A   1      46.990  34.639  25.153  1.00  0.00    -0.744 OA
ENDBRANCH  74  75
ENDBRANCH  46  69
BRANCH  58  79
ATOM     79  C   UNL A   1      41.416  30.778  33.687  1.00  0.00    -0.014 A 
ATOM     80  C   UNL A   1      40.530  31.841  33.954  1.00  0.00     0.010 A 
ATOM     81  C   UNL A   1      42.238  30.323  34.732  1.00  0.00     0.010 A 
ATOM     82  C   UNL A   1      40.505  32.461  35.214  1.00  0.00     0.020 A 
ATOM     83  C   UNL A   1      42.207  30.922  35.994  1.00  0.00     0.020 A 
ATOM     84  C   UNL A   1      41.352  32.000  36.226  1.00  0.00     0.054 A 
BRANCH  84  85
ATOM     85  S   UNL A   1      41.321  32.801  37.855  1.00  0.00     0.124 S 
ATOM     86  O   UNL A   1      39.901  33.084  38.041  1.00  0.00    -0.237 OA
ATOM     87  O   UNL A   1      41.879  31.775  38.732  1.00  0.00    -0.237 OA
ATOM     88  O   UNL A   1      42.168  33.981  37.679  1.00  0.00    -0.744 OA
ENDBRANCH  84  85
ENDBRANCH  58  79
ENDBRANCH  32  33
ENDBRANCH  24  27
ENDBRANCH  22  23
ENDBRANCH   1  22
TORSDOF 15
ENDMDL
