MODEL 1
REMARK VINA RESULT:     -11.5      0.000      0.000
REMARK SMILES C[C@@H]1C[C@H](C)C[C@H]([N@H+]2[C@@H](C(=O)NCCCNC(=O)c3ccc(-c4c5nc(c(-c6ccc(S(=O)(=O)[O-])cc6)c6ccc([nH]6)c(-c6ccc(S(=O)(=O)[O-])cc6)c6nc(c(-c7ccc(S(=O)(=O)[O-])cc7)c7ccc4[nH]7)C=C6)C=C5)cc3)CC[C@@H]3CCCC[C@@H]32)C1
REMARK SMILES IDX 15 1 14 2 13 3 12 4 10 5 11 6 9 8 8 9 86 10 79 12 81 13
REMARK SMILES IDX 85 14 80 15 82 16 84 17 83 18 7 19 5 20 4 21 6 22 3 23 2 24
REMARK SMILES IDX 87 25 1 26 16 27 17 28 18 30 19 31 20 32 78 33 21 34 77 35
REMARK SMILES IDX 22 36 23 37 24 38 71 39 25 40 76 41 70 42 72 43 26 44 75 45
REMARK SMILES IDX 69 46 68 47 27 49 57 50 38 51 56 52 39 53 42 54 55 55 73 56
REMARK SMILES IDX 40 57 41 58 54 60 74 61 43 62 28 63 29 64 37 65 30 66 36 67
REMARK SMILES IDX 31 68 32 69 33 70 34 71 35 72 58 73 59 74 67 75 60 76 66 77
REMARK SMILES IDX 61 78 62 79 63 80 64 81 65 82 44 83 45 84 53 85 46 86 52 87
REMARK SMILES IDX 47 88 48 89 49 90 50 91 51 92
REMARK H PARENT 12 7 8 11 16 29 72 48 42 59
REMARK Flexibility Score: inf
ROOT
ATOM      1  C   UNL A   1      36.412  23.431  25.889  1.00  0.00     0.118 C 
ENDROOT
BRANCH   1   2
ATOM      2  C   UNL A   1      35.191  22.884  26.618  1.00  0.00     0.042 C 
BRANCH   2   3
ATOM      3  C   UNL A   1      34.250  22.103  25.712  1.00  0.00     0.118 C 
BRANCH   3   4
ATOM      4  N   UNL A   1      34.392  22.445  24.319  1.00  0.00    -0.351 N 
ATOM      5  C   UNL A   1      33.637  23.165  23.456  1.00  0.00     0.278 C 
ATOM      6  O   UNL A   1      34.146  23.281  22.329  1.00  0.00    -0.268 OA
ATOM      7  H   UNL A   1      35.210  22.080  23.911  1.00  0.00     0.163 HD
BRANCH   5   8
ATOM      8  C   UNL A   1      32.241  23.824  23.757  1.00  0.00     0.274 C 
ATOM      9  N   UNL A   1      32.369  25.312  24.021  1.00  0.00    -0.320 N 
ATOM     10  C   UNL A   1      32.979  25.487  25.358  1.00  0.00     0.188 C 
ATOM     11  H   UNL A   1      31.627  25.969  24.263  1.00  0.00     0.349 HD
ATOM     12  C   UNL A   1      31.202  23.252  24.707  1.00  0.00     0.076 C 
ATOM     13  C   UNL A   1      31.970  24.997  26.447  1.00  0.00     0.048 C 
ATOM     14  C   UNL A   1      33.618  26.769  25.932  1.00  0.00     0.065 C 
ATOM     15  C   UNL A   1      31.308  23.644  26.170  1.00  0.00     0.016 C 
ATOM     16  C   UNL A   1      30.874  26.029  26.724  1.00  0.00     0.010 C 
ATOM     17  C   UNL A   1      32.834  27.710  26.861  1.00  0.00     0.006 C 
ATOM     18  C   UNL A   1      31.399  27.359  27.230  1.00  0.00     0.001 C 
BRANCH   9  19
ATOM     19  C   UNL A   1      32.516  26.035  22.726  1.00  0.00     0.185 C 
ATOM     20  C   UNL A   1      30.463  28.214  23.877  1.00  0.00     0.008 C 
ATOM     21  C   UNL A   1      30.822  27.976  22.431  1.00  0.00    -0.008 C 
ATOM     22  C   UNL A   1      31.152  26.510  22.184  1.00  0.00     0.068 C 
ATOM     23  C   UNL A   1      31.938  28.922  21.974  1.00  0.00     0.007 C 
ATOM     24  C   UNL A   1      33.393  28.488  22.236  1.00  0.00    -0.008 C 
ATOM     25  C   UNL A   1      33.643  26.975  22.273  1.00  0.00     0.068 C 
ATOM     26  C   UNL A   1      34.084  29.203  23.396  1.00  0.00     0.008 C 
ENDBRANCH   9  19
ENDBRANCH   5   8
ENDBRANCH   3   4
ENDBRANCH   2   3
ENDBRANCH   1   2
BRANCH   1  27
ATOM     27  N   UNL A   1      37.565  22.544  25.997  1.00  0.00    -0.352 N 
ATOM     28  C   UNL A   1      38.866  22.823  26.310  1.00  0.00     0.251 C 
ATOM     29  H   UNL A   1      37.377  21.595  25.815  1.00  0.00     0.163 HD
ATOM     30  O   UNL A   1      39.734  21.963  26.103  1.00  0.00    -0.269 OA
BRANCH  28  31
ATOM     31  C   UNL A   1      39.247  24.127  26.884  1.00  0.00     0.039 A 
ATOM     32  C   UNL A   1      38.902  24.420  28.206  1.00  0.00     0.014 A 
ATOM     33  C   UNL A   1      39.913  25.081  26.108  1.00  0.00     0.014 A 
ATOM     34  C   UNL A   1      39.277  25.643  28.766  1.00  0.00     0.010 A 
ATOM     35  C   UNL A   1      40.360  26.262  26.692  1.00  0.00     0.010 A 
ATOM     36  C   UNL A   1      40.037  26.560  28.023  1.00  0.00    -0.014 A 
BRANCH  36  37
ATOM     37  C   UNL A   1      40.502  27.840  28.616  1.00  0.00     0.031 A 
ATOM     38  C   UNL A   1      41.911  27.968  29.130  1.00  0.00     0.074 A 
ATOM     39  C   UNL A   1      39.636  28.861  28.754  1.00  0.00     0.049 A 
ATOM     40  N   UNL A   1      42.481  28.982  29.728  1.00  0.00    -0.248 NA
ATOM     41  C   UNL A   1      42.785  26.793  28.975  1.00  0.00     0.031 C 
ATOM     42  C   UNL A   1      38.233  28.845  28.330  1.00  0.00     0.029 A 
ATOM     43  N   UNL A   1      39.804  30.111  29.293  1.00  0.00    -0.354 N 
ATOM     44  C   UNL A   1      43.770  28.562  30.040  1.00  0.00     0.074 A 
ATOM     45  C   UNL A   1      43.879  27.184  29.612  1.00  0.00     0.031 C 
ATOM     46  C   UNL A   1      37.680  30.039  28.596  1.00  0.00     0.029 A 
ATOM     47  C   UNL A   1      38.671  30.888  29.248  1.00  0.00     0.049 A 
ATOM     48  H   UNL A   1      40.655  30.421  29.677  1.00  0.00     0.167 HD
ATOM     49  C   UNL A   1      44.777  29.265  30.612  1.00  0.00     0.031 A 
ATOM     50  C   UNL A   1      38.452  32.144  29.685  1.00  0.00     0.031 A 
ATOM     51  C   UNL A   1      44.662  30.635  31.033  1.00  0.00     0.049 A 
ATOM     52  C   UNL A   1      39.579  32.900  30.331  1.00  0.00     0.074 A 
ATOM     53  C   UNL A   1      45.637  31.456  31.572  1.00  0.00     0.029 A 
ATOM     54  N   UNL A   1      43.498  31.387  30.969  1.00  0.00    -0.354 N 
ATOM     55  N   UNL A   1      40.811  32.509  30.556  1.00  0.00    -0.248 NA
ATOM     56  C   UNL A   1      39.289  34.271  30.772  1.00  0.00     0.031 C 
ATOM     57  C   UNL A   1      45.048  32.685  31.886  1.00  0.00     0.029 A 
ATOM     58  C   UNL A   1      43.722  32.654  31.484  1.00  0.00     0.049 A 
ATOM     59  H   UNL A   1      42.638  31.068  30.610  1.00  0.00     0.167 HD
ATOM     60  C   UNL A   1      41.451  33.595  31.141  1.00  0.00     0.074 A 
ATOM     61  C   UNL A   1      40.473  34.662  31.222  1.00  0.00     0.031 C 
ATOM     62  C   UNL A   1      42.735  33.702  31.567  1.00  0.00     0.031 A 
BRANCH  49  63
ATOM     63  C   UNL A   1      46.085  28.545  30.829  1.00  0.00    -0.014 A 
ATOM     64  C   UNL A   1      47.102  28.569  29.856  1.00  0.00     0.010 A 
ATOM     65  C   UNL A   1      46.304  27.841  32.027  1.00  0.00     0.010 A 
ATOM     66  C   UNL A   1      48.285  27.851  30.050  1.00  0.00     0.020 A 
ATOM     67  C   UNL A   1      47.500  27.148  32.239  1.00  0.00     0.020 A 
ATOM     68  C   UNL A   1      48.473  27.138  31.237  1.00  0.00     0.054 A 
BRANCH  68  69
ATOM     69  S   UNL A   1      50.014  26.207  31.457  1.00  0.00     0.124 S 
ATOM     70  O   UNL A   1      49.643  25.256  32.502  1.00  0.00    -0.237 OA
ATOM     71  O   UNL A   1      50.233  25.631  30.133  1.00  0.00    -0.237 OA
ATOM     72  O   UNL A   1      50.981  27.226  31.858  1.00  0.00    -0.744 OA
ENDBRANCH  68  69
ENDBRANCH  49  63
BRANCH  50  73
ATOM     73  C   UNL A   1      37.114  32.766  29.493  1.00  0.00    -0.014 A 
ATOM     74  C   UNL A   1      36.187  32.796  30.549  1.00  0.00     0.010 A 
ATOM     75  C   UNL A   1      36.777  33.372  28.268  1.00  0.00     0.010 A 
ATOM     76  C   UNL A   1      34.945  33.416  30.385  1.00  0.00     0.020 A 
ATOM     77  C   UNL A   1      35.547  34.017  28.108  1.00  0.00     0.020 A 
ATOM     78  C   UNL A   1      34.635  34.029  29.167  1.00  0.00     0.054 A 
BRANCH  78  79
ATOM     79  S   UNL A   1      33.049  34.895  29.004  1.00  0.00     0.124 S 
ATOM     80  O   UNL A   1      32.356  34.075  28.014  1.00  0.00    -0.237 OA
ATOM     81  O   UNL A   1      32.516  34.833  30.363  1.00  0.00    -0.237 OA
ATOM     82  O   UNL A   1      33.433  36.231  28.554  1.00  0.00    -0.744 OA
ENDBRANCH  78  79
ENDBRANCH  50  73
BRANCH  62  83
ATOM     83  C   UNL A   1      43.168  35.027  32.135  1.00  0.00    -0.014 A 
ATOM     84  C   UNL A   1      43.822  35.984  31.339  1.00  0.00     0.010 A 
ATOM     85  C   UNL A   1      42.867  35.339  33.473  1.00  0.00     0.010 A 
ATOM     86  C   UNL A   1      44.194  37.218  31.881  1.00  0.00     0.020 A 
ATOM     87  C   UNL A   1      43.211  36.580  34.011  1.00  0.00     0.020 A 
ATOM     88  C   UNL A   1      43.885  37.508  33.215  1.00  0.00     0.054 A 
BRANCH  88  89
ATOM     89  S   UNL A   1      44.338  39.133  33.882  1.00  0.00     0.124 S 
ATOM     90  O   UNL A   1      45.239  39.643  32.854  1.00  0.00    -0.237 OA
ATOM     91  O   UNL A   1      43.047  39.810  33.979  1.00  0.00    -0.237 OA
ATOM     92  O   UNL A   1      44.966  38.818  35.163  1.00  0.00    -0.744 OA
ENDBRANCH  88  89
ENDBRANCH  62  83
ENDBRANCH  36  37
ENDBRANCH  28  31
ENDBRANCH   1  27
TORSDOF 14
ENDMDL
MODEL 2
REMARK VINA RESULT:     -11.3      2.593      9.208
REMARK SMILES C[C@@H]1C[C@H](C)C[C@H]([N@H+]2[C@@H](C(=O)NCCCNC(=O)c3ccc(-c4c5nc(c(-c6ccc(S(=O)(=O)[O-])cc6)c6ccc([nH]6)c(-c6ccc(S(=O)(=O)[O-])cc6)c6nc(c(-c7ccc(S(=O)(=O)[O-])cc7)c7ccc4[nH]7)C=C6)C=C5)cc3)CC[C@@H]3CCCC[C@@H]32)C1
REMARK SMILES IDX 15 1 14 2 13 3 12 4 10 5 11 6 9 8 8 9 86 10 79 12 81 13
REMARK SMILES IDX 85 14 80 15 82 16 84 17 83 18 7 19 5 20 4 21 6 22 3 23 2 24
REMARK SMILES IDX 87 25 1 26 16 27 17 28 18 30 19 31 20 32 78 33 21 34 77 35
REMARK SMILES IDX 22 36 23 37 24 38 71 39 25 40 76 41 70 42 72 43 26 44 75 45
REMARK SMILES IDX 69 46 68 47 27 49 57 50 38 51 56 52 39 53 42 54 55 55 73 56
REMARK SMILES IDX 40 57 41 58 54 60 74 61 43 62 28 63 29 64 37 65 30 66 36 67
REMARK SMILES IDX 31 68 32 69 33 70 34 71 35 72 58 73 59 74 67 75 60 76 66 77
REMARK SMILES IDX 61 78 62 79 63 80 64 81 65 82 44 83 45 84 53 85 46 86 52 87
REMARK SMILES IDX 47 88 48 89 49 90 50 91 51 92
REMARK H PARENT 12 7 8 11 16 29 72 48 42 59
REMARK Flexibility Score: inf
ROOT
ATOM      1  C   UNL A   1      33.483  28.587  27.225  1.00  0.00     0.118 C 
ENDROOT
BRANCH   1   2
ATOM      2  C   UNL A   1      32.199  27.932  27.717  1.00  0.00     0.042 C 
BRANCH   2   3
ATOM      3  C   UNL A   1      31.204  27.646  26.602  1.00  0.00     0.118 C 
BRANCH   3   4
ATOM      4  N   UNL A   1      30.566  26.359  26.729  1.00  0.00    -0.351 N 
ATOM      5  C   UNL A   1      30.720  25.178  26.087  1.00  0.00     0.278 C 
ATOM      6  O   UNL A   1      30.006  24.269  26.542  1.00  0.00    -0.268 OA
ATOM      7  H   UNL A   1      29.875  26.336  27.429  1.00  0.00     0.163 HD
BRANCH   5   8
ATOM      8  C   UNL A   1      31.680  24.887  24.875  1.00  0.00     0.274 C 
ATOM      9  N   UNL A   1      32.551  23.672  25.129  1.00  0.00    -0.320 N 
ATOM     10  C   UNL A   1      33.578  24.047  26.128  1.00  0.00     0.188 C 
ATOM     11  H   UNL A   1      33.272  23.283  24.521  1.00  0.00     0.349 HD
ATOM     12  C   UNL A   1      32.513  25.939  24.161  1.00  0.00     0.076 C 
ATOM     13  C   UNL A   1      34.556  25.085  25.488  1.00  0.00     0.048 C 
ATOM     14  C   UNL A   1      34.466  23.096  26.956  1.00  0.00     0.065 C 
ATOM     15  C   UNL A   1      33.891  26.236  24.727  1.00  0.00     0.016 C 
ATOM     16  C   UNL A   1      35.581  24.420  24.566  1.00  0.00     0.010 C 
ATOM     17  C   UNL A   1      35.907  22.768  26.528  1.00  0.00     0.006 C 
ATOM     18  C   UNL A   1      36.468  23.408  25.266  1.00  0.00     0.001 C 
BRANCH   9  19
ATOM     19  C   UNL A   1      31.757  22.434  24.894  1.00  0.00     0.185 C 
ATOM     20  C   UNL A   1      33.142  22.269  22.006  1.00  0.00     0.008 C 
ATOM     21  C   UNL A   1      31.871  21.585  22.446  1.00  0.00    -0.008 C 
ATOM     22  C   UNL A   1      31.132  22.421  23.483  1.00  0.00     0.068 C 
ATOM     23  C   UNL A   1      32.148  20.154  22.922  1.00  0.00     0.007 C 
ATOM     24  C   UNL A   1      32.568  19.960  24.392  1.00  0.00    -0.008 C 
ATOM     25  C   UNL A   1      32.037  21.004  25.382  1.00  0.00     0.068 C 
ATOM     26  C   UNL A   1      34.053  19.679  24.610  1.00  0.00     0.008 C 
ENDBRANCH   9  19
ENDBRANCH   5   8
ENDBRANCH   3   4
ENDBRANCH   2   3
ENDBRANCH   1   2
BRANCH   1  27
ATOM     27  N   UNL A   1      33.484  30.031  27.433  1.00  0.00    -0.352 N 
ATOM     28  C   UNL A   1      34.409  30.834  28.039  1.00  0.00     0.251 C 
ATOM     29  H   UNL A   1      32.693  30.501  27.082  1.00  0.00     0.163 HD
ATOM     30  O   UNL A   1      34.100  31.998  28.329  1.00  0.00    -0.269 OA
BRANCH  28  31
ATOM     31  C   UNL A   1      35.761  30.333  28.352  1.00  0.00     0.039 A 
ATOM     32  C   UNL A   1      36.750  30.370  27.366  1.00  0.00     0.014 A 
ATOM     33  C   UNL A   1      36.048  29.792  29.610  1.00  0.00     0.014 A 
ATOM     34  C   UNL A   1      38.039  29.919  27.659  1.00  0.00     0.010 A 
ATOM     35  C   UNL A   1      37.352  29.424  29.926  1.00  0.00     0.010 A 
ATOM     36  C   UNL A   1      38.358  29.473  28.951  1.00  0.00    -0.014 A 
BRANCH  36  37
ATOM     37  C   UNL A   1      39.736  29.048  29.306  1.00  0.00     0.031 A 
ATOM     38  C   UNL A   1      40.666  30.003  30.004  1.00  0.00     0.074 A 
ATOM     39  C   UNL A   1      40.170  27.829  28.936  1.00  0.00     0.049 A 
ATOM     40  N   UNL A   1      41.918  29.834  30.344  1.00  0.00    -0.248 NA
ATOM     41  C   UNL A   1      40.126  31.330  30.342  1.00  0.00     0.031 C 
ATOM     42  C   UNL A   1      39.375  26.828  28.218  1.00  0.00     0.029 A 
ATOM     43  N   UNL A   1      41.389  27.222  29.106  1.00  0.00    -0.354 N 
ATOM     44  C   UNL A   1      42.321  31.037  30.914  1.00  0.00     0.074 A 
ATOM     45  C   UNL A   1      41.196  31.942  30.826  1.00  0.00     0.031 C 
ATOM     46  C   UNL A   1      40.116  25.722  28.041  1.00  0.00     0.029 A 
ATOM     47  C   UNL A   1      41.450  25.950  28.590  1.00  0.00     0.049 A 
ATOM     48  H   UNL A   1      42.148  27.658  29.557  1.00  0.00     0.167 HD
ATOM     49  C   UNL A   1      43.512  31.353  31.478  1.00  0.00     0.031 A 
ATOM     50  C   UNL A   1      42.465  25.065  28.556  1.00  0.00     0.031 A 
ATOM     51  C   UNL A   1      44.625  30.446  31.565  1.00  0.00     0.049 A 
ATOM     52  C   UNL A   1      43.783  25.442  29.173  1.00  0.00     0.074 A 
ATOM     53  C   UNL A   1      45.856  30.647  32.164  1.00  0.00     0.029 A 
ATOM     54  N   UNL A   1      44.646  29.166  31.029  1.00  0.00    -0.354 N 
ATOM     55  N   UNL A   1      44.124  26.561  29.768  1.00  0.00    -0.248 NA
ATOM     56  C   UNL A   1      44.849  24.432  29.125  1.00  0.00     0.031 C 
ATOM     57  C   UNL A   1      46.640  29.511  31.942  1.00  0.00     0.029 A 
ATOM     58  C   UNL A   1      45.878  28.575  31.260  1.00  0.00     0.049 A 
ATOM     59  H   UNL A   1      43.895  28.739  30.555  1.00  0.00     0.167 HD
ATOM     60  C   UNL A   1      45.437  26.380  30.189  1.00  0.00     0.074 A 
ATOM     61  C   UNL A   1      45.821  25.040  29.791  1.00  0.00     0.031 C 
ATOM     62  C   UNL A   1      46.249  27.243  30.849  1.00  0.00     0.031 A 
BRANCH  49  63
ATOM     63  C   UNL A   1      43.668  32.749  32.026  1.00  0.00    -0.014 A 
ATOM     64  C   UNL A   1      43.389  33.040  33.374  1.00  0.00     0.010 A 
ATOM     65  C   UNL A   1      44.108  33.785  31.182  1.00  0.00     0.010 A 
ATOM     66  C   UNL A   1      43.485  34.350  33.852  1.00  0.00     0.020 A 
ATOM     67  C   UNL A   1      44.238  35.091  31.664  1.00  0.00     0.020 A 
ATOM     68  C   UNL A   1      43.902  35.369  32.991  1.00  0.00     0.054 A 
BRANCH  68  69
ATOM     69  S   UNL A   1      44.008  37.061  33.635  1.00  0.00     0.124 S 
ATOM     70  O   UNL A   1      44.232  37.832  32.416  1.00  0.00    -0.237 OA
ATOM     71  O   UNL A   1      42.704  37.248  34.265  1.00  0.00    -0.237 OA
ATOM     72  O   UNL A   1      45.140  37.011  34.557  1.00  0.00    -0.744 OA
ENDBRANCH  68  69
ENDBRANCH  49  63
BRANCH  50  73
ATOM     73  C   UNL A   1      42.255  23.727  27.941  1.00  0.00    -0.014 A 
ATOM     74  C   UNL A   1      42.528  23.523  26.577  1.00  0.00     0.010 A 
ATOM     75  C   UNL A   1      41.824  22.640  28.723  1.00  0.00     0.010 A 
ATOM     76  C   UNL A   1      42.371  22.258  26.004  1.00  0.00     0.020 A 
ATOM     77  C   UNL A   1      41.691  21.367  28.160  1.00  0.00     0.020 A 
ATOM     78  C   UNL A   1      41.960  21.186  26.801  1.00  0.00     0.054 A 
BRANCH  78  79
ATOM     79  S   UNL A   1      41.838  19.537  26.053  1.00  0.00     0.124 S 
ATOM     80  O   UNL A   1      42.306  18.677  27.135  1.00  0.00    -0.237 OA
ATOM     81  O   UNL A   1      40.415  19.440  25.736  1.00  0.00    -0.237 OA
ATOM     82  O   UNL A   1      42.722  19.622  24.892  1.00  0.00    -0.744 OA
ENDBRANCH  78  79
ENDBRANCH  50  73
BRANCH  62  83
ATOM     83  C   UNL A   1      47.627  26.758  31.212  1.00  0.00    -0.014 A 
ATOM     84  C   UNL A   1      47.876  26.115  32.437  1.00  0.00     0.010 A 
ATOM     85  C   UNL A   1      48.677  26.902  30.287  1.00  0.00     0.010 A 
ATOM     86  C   UNL A   1      49.159  25.651  32.742  1.00  0.00     0.020 A 
ATOM     87  C   UNL A   1      49.953  26.415  30.575  1.00  0.00     0.020 A 
ATOM     88  C   UNL A   1      50.190  25.804  31.808  1.00  0.00     0.054 A 
BRANCH  88  89
ATOM     89  S   UNL A   1      51.835  25.153  32.210  1.00  0.00     0.124 S 
ATOM     90  O   UNL A   1      51.598  23.713  32.221  1.00  0.00    -0.237 OA
ATOM     91  O   UNL A   1      52.653  25.648  31.105  1.00  0.00    -0.237 OA
ATOM     92  O   UNL A   1      52.134  25.747  33.512  1.00  0.00    -0.744 OA
ENDBRANCH  88  89
ENDBRANCH  62  83
ENDBRANCH  36  37
ENDBRANCH  28  31
ENDBRANCH   1  27
TORSDOF 14
ENDMDL
MODEL 3
REMARK VINA RESULT:     -11.2      3.622      4.432
REMARK SMILES C[C@@H]1C[C@H](C)C[C@H]([N@H+]2[C@@H](C(=O)NCCCNC(=O)c3ccc(-c4c5nc(c(-c6ccc(S(=O)(=O)[O-])cc6)c6ccc([nH]6)c(-c6ccc(S(=O)(=O)[O-])cc6)c6nc(c(-c7ccc(S(=O)(=O)[O-])cc7)c7ccc4[nH]7)C=C6)C=C5)cc3)CC[C@@H]3CCCC[C@@H]32)C1
REMARK SMILES IDX 15 1 14 2 13 3 12 4 10 5 11 6 9 8 8 9 86 10 79 12 81 13
REMARK SMILES IDX 85 14 80 15 82 16 84 17 83 18 7 19 5 20 4 21 6 22 3 23 2 24
REMARK SMILES IDX 87 25 1 26 16 27 17 28 18 30 19 31 20 32 78 33 21 34 77 35
REMARK SMILES IDX 22 36 23 37 24 38 71 39 25 40 76 41 70 42 72 43 26 44 75 45
REMARK SMILES IDX 69 46 68 47 27 49 57 50 38 51 56 52 39 53 42 54 55 55 73 56
REMARK SMILES IDX 40 57 41 58 54 60 74 61 43 62 28 63 29 64 37 65 30 66 36 67
REMARK SMILES IDX 31 68 32 69 33 70 34 71 35 72 58 73 59 74 67 75 60 76 66 77
REMARK SMILES IDX 61 78 62 79 63 80 64 81 65 82 44 83 45 84 53 85 46 86 52 87
REMARK SMILES IDX 47 88 48 89 49 90 50 91 51 92
REMARK H PARENT 12 7 8 11 16 29 72 48 42 59
REMARK Flexibility Score: inf
ROOT
ATOM      1  C   UNL A   1      38.896  23.769  26.745  1.00  0.00     0.118 C 
ENDROOT
BRANCH   1   2
ATOM      2  C   UNL A   1      37.746  23.922  25.757  1.00  0.00     0.042 C 
BRANCH   2   3
ATOM      3  C   UNL A   1      36.784  22.743  25.767  1.00  0.00     0.118 C 
BRANCH   3   4
ATOM      4  N   UNL A   1      35.581  23.001  26.520  1.00  0.00    -0.351 N 
ATOM      5  C   UNL A   1      34.366  23.499  26.190  1.00  0.00     0.278 C 
ATOM      6  O   UNL A   1      33.561  23.508  27.135  1.00  0.00    -0.268 OA
ATOM      7  H   UNL A   1      35.661  22.765  27.472  1.00  0.00     0.163 HD
BRANCH   5   8
ATOM      8  C   UNL A   1      33.926  24.040  24.780  1.00  0.00     0.274 C 
ATOM      9  N   UNL A   1      32.999  25.235  24.902  1.00  0.00    -0.320 N 
ATOM     10  C   UNL A   1      31.680  24.744  25.363  1.00  0.00     0.188 C 
ATOM     11  H   UNL A   1      32.552  25.756  24.149  1.00  0.00     0.349 HD
ATOM     12  C   UNL A   1      33.443  23.168  23.632  1.00  0.00     0.076 C 
ATOM     13  C   UNL A   1      31.034  23.879  24.231  1.00  0.00     0.048 C 
ATOM     14  C   UNL A   1      30.528  25.580  25.955  1.00  0.00     0.065 C 
ATOM     15  C   UNL A   1      31.959  22.846  23.582  1.00  0.00     0.016 C 
ATOM     16  C   UNL A   1      30.418  24.743  23.128  1.00  0.00     0.010 C 
ATOM     17  C   UNL A   1      29.347  26.047  25.087  1.00  0.00     0.006 C 
ATOM     18  C   UNL A   1      29.313  25.661  23.615  1.00  0.00     0.001 C 
BRANCH   9  19
ATOM     19  C   UNL A   1      33.800  26.454  25.203  1.00  0.00     0.185 C 
ATOM     20  C   UNL A   1      31.726  28.088  23.382  1.00  0.00     0.008 C 
ATOM     21  C   UNL A   1      33.117  28.513  23.781  1.00  0.00    -0.008 C 
ATOM     22  C   UNL A   1      34.034  27.306  23.938  1.00  0.00     0.068 C 
ATOM     23  C   UNL A   1      33.088  29.404  25.029  1.00  0.00     0.007 C 
ATOM     24  C   UNL A   1      33.083  28.707  26.403  1.00  0.00    -0.008 C 
ATOM     25  C   UNL A   1      33.770  27.337  26.461  1.00  0.00     0.068 C 
ATOM     26  C   UNL A   1      31.733  28.692  27.118  1.00  0.00     0.008 C 
ENDBRANCH   9  19
ENDBRANCH   5   8
ENDBRANCH   3   4
ENDBRANCH   2   3
ENDBRANCH   1   2
BRANCH   1  27
ATOM     27  N   UNL A   1      40.198  23.943  26.110  1.00  0.00    -0.352 N 
ATOM     28  C   UNL A   1      41.139  24.919  26.281  1.00  0.00     0.251 C 
ATOM     29  H   UNL A   1      40.436  23.247  25.455  1.00  0.00     0.163 HD
ATOM     30  O   UNL A   1      42.065  25.014  25.462  1.00  0.00    -0.269 OA
BRANCH  28  31
ATOM     31  C   UNL A   1      41.064  25.856  27.417  1.00  0.00     0.039 A 
ATOM     32  C   UNL A   1      41.951  26.934  27.474  1.00  0.00     0.014 A 
ATOM     33  C   UNL A   1      40.142  25.654  28.449  1.00  0.00     0.014 A 
ATOM     34  C   UNL A   1      41.875  27.840  28.534  1.00  0.00     0.010 A 
ATOM     35  C   UNL A   1      40.011  26.604  29.458  1.00  0.00     0.010 A 
ATOM     36  C   UNL A   1      40.883  27.700  29.516  1.00  0.00    -0.014 A 
BRANCH  36  37
ATOM     37  C   UNL A   1      40.740  28.685  30.619  1.00  0.00     0.031 A 
ATOM     38  C   UNL A   1      41.616  28.588  31.839  1.00  0.00     0.074 A 
ATOM     39  C   UNL A   1      39.774  29.620  30.551  1.00  0.00     0.049 A 
ATOM     40  N   UNL A   1      41.602  29.319  32.924  1.00  0.00    -0.248 NA
ATOM     41  C   UNL A   1      42.623  27.514  31.851  1.00  0.00     0.031 C 
ATOM     42  C   UNL A   1      38.835  29.791  29.439  1.00  0.00     0.029 A 
ATOM     43  N   UNL A   1      39.417  30.604  31.439  1.00  0.00    -0.354 N 
ATOM     44  C   UNL A   1      42.579  28.781  33.754  1.00  0.00     0.074 A 
ATOM     45  C   UNL A   1      43.129  27.631  33.069  1.00  0.00     0.031 C 
ATOM     46  C   UNL A   1      38.033  30.836  29.696  1.00  0.00     0.029 A 
ATOM     47  C   UNL A   1      38.369  31.382  31.008  1.00  0.00     0.049 A 
ATOM     48  H   UNL A   1      39.869  30.739  32.302  1.00  0.00     0.167 HD
ATOM     49  C   UNL A   1      42.995  29.215  34.969  1.00  0.00     0.031 A 
ATOM     50  C   UNL A   1      37.743  32.417  31.603  1.00  0.00     0.031 A 
ATOM     51  C   UNL A   1      42.445  30.360  35.643  1.00  0.00     0.049 A 
ATOM     52  C   UNL A   1      38.210  32.872  32.957  1.00  0.00     0.074 A 
ATOM     53  C   UNL A   1      42.831  30.918  36.849  1.00  0.00     0.029 A 
ATOM     54  N   UNL A   1      41.384  31.121  35.173  1.00  0.00    -0.354 N 
ATOM     55  N   UNL A   1      39.181  32.393  33.698  1.00  0.00    -0.248 NA
ATOM     56  C   UNL A   1      37.504  34.017  33.549  1.00  0.00     0.031 C 
ATOM     57  C   UNL A   1      41.968  31.980  37.135  1.00  0.00     0.029 A 
ATOM     58  C   UNL A   1      41.084  32.127  36.078  1.00  0.00     0.049 A 
ATOM     59  H   UNL A   1      40.914  30.969  34.321  1.00  0.00     0.167 HD
ATOM     60  C   UNL A   1      39.220  33.194  34.833  1.00  0.00     0.074 A 
ATOM     61  C   UNL A   1      38.184  34.195  34.674  1.00  0.00     0.031 C 
ATOM     62  C   UNL A   1      40.043  33.111  35.909  1.00  0.00     0.031 A 
BRANCH  49  63
ATOM     63  C   UNL A   1      44.088  28.428  35.647  1.00  0.00    -0.014 A 
ATOM     64  C   UNL A   1      43.787  27.358  36.511  1.00  0.00     0.010 A 
ATOM     65  C   UNL A   1      45.435  28.757  35.412  1.00  0.00     0.010 A 
ATOM     66  C   UNL A   1      44.810  26.675  37.175  1.00  0.00     0.020 A 
ATOM     67  C   UNL A   1      46.463  28.054  36.049  1.00  0.00     0.020 A 
ATOM     68  C   UNL A   1      46.141  27.033  36.946  1.00  0.00     0.054 A 
BRANCH  68  69
ATOM     69  S   UNL A   1      47.447  26.136  37.829  1.00  0.00     0.124 S 
ATOM     70  O   UNL A   1      48.603  26.364  36.966  1.00  0.00    -0.237 OA
ATOM     71  O   UNL A   1      47.485  26.813  39.122  1.00  0.00    -0.237 OA
ATOM     72  O   UNL A   1      46.959  24.759  37.864  1.00  0.00    -0.744 OA
ENDBRANCH  68  69
ENDBRANCH  49  63
BRANCH  50  73
ATOM     73  C   UNL A   1      36.628  33.105  30.898  1.00  0.00    -0.014 A 
ATOM     74  C   UNL A   1      35.313  33.005  31.382  1.00  0.00     0.010 A 
ATOM     75  C   UNL A   1      36.881  33.901  29.765  1.00  0.00     0.010 A 
ATOM     76  C   UNL A   1      34.269  33.683  30.747  1.00  0.00     0.020 A 
ATOM     77  C   UNL A   1      35.845  34.603  29.143  1.00  0.00     0.020 A 
ATOM     78  C   UNL A   1      34.543  34.484  29.634  1.00  0.00     0.054 A 
BRANCH  78  79
ATOM     79  S   UNL A   1      33.185  35.417  28.874  1.00  0.00     0.124 S 
ATOM     80  O   UNL A   1      33.905  36.421  28.096  1.00  0.00    -0.237 OA
ATOM     81  O   UNL A   1      32.494  34.390  28.098  1.00  0.00    -0.237 OA
ATOM     82  O   UNL A   1      32.437  35.928  30.020  1.00  0.00    -0.744 OA
ENDBRANCH  78  79
ENDBRANCH  50  73
BRANCH  62  83
ATOM     83  C   UNL A   1      39.879  34.147  36.988  1.00  0.00    -0.014 A 
ATOM     84  C   UNL A   1      40.464  35.421  36.873  1.00  0.00     0.010 A 
ATOM     85  C   UNL A   1      39.081  33.859  38.110  1.00  0.00     0.010 A 
ATOM     86  C   UNL A   1      40.278  36.376  37.877  1.00  0.00     0.020 A 
ATOM     87  C   UNL A   1      38.869  34.819  39.101  1.00  0.00     0.020 A 
ATOM     88  C   UNL A   1      39.481  36.069  38.984  1.00  0.00     0.054 A 
BRANCH  88  89
ATOM     89  S   UNL A   1      39.218  37.341  40.250  1.00  0.00     0.124 S 
ATOM     90  O   UNL A   1      38.410  38.322  39.533  1.00  0.00    -0.237 OA
ATOM     91  O   UNL A   1      38.525  36.605  41.305  1.00  0.00    -0.237 OA
ATOM     92  O   UNL A   1      40.572  37.775  40.590  1.00  0.00    -0.744 OA
ENDBRANCH  88  89
ENDBRANCH  62  83
ENDBRANCH  36  37
ENDBRANCH  28  31
ENDBRANCH   1  27
TORSDOF 14
ENDMDL
