MODEL 1
REMARK VINA RESULT:     -11.3      0.000      0.000
REMARK SMILES O=C(NCCCNC(=O)c1sccc1S(=O)(=O)N[C@@H]1CONC1=O)c1ccc(-c2c3nc(c(-c4ccc(S(=O)(=O)[O-])cc4)c4ccc([nH]4)c(-c4ccc(S(=O)(=O)[O-])cc4)c4nc(c(-c5ccc(S(=O)(=O)[O-])cc5)c5ccc2[nH]5)C=C4)C=C3)cc1
REMARK SMILES IDX 5 1 4 2 3 3 1 4 2 5 25 7 26 8 84 9 27 10 83 11 28 12 29 13
REMARK SMILES IDX 30 14 77 15 31 16 82 17 76 18 78 19 32 20 81 21 75 22 74 23
REMARK SMILES IDX 33 25 63 26 44 27 62 28 45 29 48 30 61 31 79 32 46 33 47 34
REMARK SMILES IDX 60 36 80 37 49 38 34 39 35 40 43 41 36 42 42 43 37 44 38 45
REMARK SMILES IDX 39 46 40 47 41 48 64 49 65 50 73 51 66 52 72 53 67 54 68 55
REMARK SMILES IDX 69 56 70 57 71 58 50 59 51 60 59 61 52 62 58 63 53 64 54 65
REMARK SMILES IDX 55 66 56 67 57 68 6 69 7 70 8 71 9 73 10 74 11 75 14 76
REMARK SMILES IDX 12 77 13 78 15 79 16 80 17 81 18 82 19 84 20 85 23 86 21 87
REMARK SMILES IDX 22 88 24 89
REMARK H PARENT 3 6 78 24 48 35 7 72 18 83 22 90
REMARK Flexibility Score: inf
ROOT
ATOM      1  C   UNL A   1      38.035  19.880  24.960  1.00  0.00     0.042 C 
ENDROOT
BRANCH   1   2
ATOM      2  C   UNL A   1      39.119  20.398  25.897  1.00  0.00     0.118 C 
BRANCH   2   3
ATOM      3  N   UNL A   1      40.264  19.503  26.013  1.00  0.00    -0.352 N 
ATOM      4  O   UNL A   1      42.441  18.932  26.206  1.00  0.00    -0.269 OA
ATOM      5  C   UNL A   1      41.579  19.800  26.296  1.00  0.00     0.251 C 
ATOM      6  H   UNL A   1      40.070  18.549  25.870  1.00  0.00     0.163 HD
BRANCH   5   7
ATOM      7  C   UNL A   1      41.936  21.183  26.673  1.00  0.00     0.039 A 
ATOM      8  C   UNL A   1      41.973  22.177  25.697  1.00  0.00     0.014 A 
ATOM      9  C   UNL A   1      42.302  21.471  27.990  1.00  0.00     0.014 A 
ATOM     10  C   UNL A   1      42.582  23.389  25.983  1.00  0.00     0.010 A 
ATOM     11  C   UNL A   1      42.795  22.741  28.304  1.00  0.00     0.010 A 
ATOM     12  C   UNL A   1      42.987  23.695  27.292  1.00  0.00    -0.014 A 
BRANCH  12  13
ATOM     13  C   UNL A   1      43.559  25.038  27.569  1.00  0.00     0.031 A 
ATOM     14  C   UNL A   1      44.988  25.370  27.231  1.00  0.00     0.074 A 
ATOM     15  C   UNL A   1      42.747  25.985  28.080  1.00  0.00     0.049 A 
ATOM     16  N   UNL A   1      45.622  26.505  27.379  1.00  0.00    -0.248 NA
ATOM     17  C   UNL A   1      45.814  24.295  26.662  1.00  0.00     0.031 C 
ATOM     18  C   UNL A   1      41.340  25.781  28.443  1.00  0.00     0.029 A 
ATOM     19  N   UNL A   1      42.966  27.310  28.348  1.00  0.00    -0.354 N 
ATOM     20  C   UNL A   1      46.929  26.273  26.962  1.00  0.00     0.074 A 
ATOM     21  C   UNL A   1      46.999  24.883  26.563  1.00  0.00     0.031 C 
ATOM     22  C   UNL A   1      40.802  26.954  28.801  1.00  0.00     0.029 A 
ATOM     23  C   UNL A   1      41.844  27.973  28.784  1.00  0.00     0.049 A 
ATOM     24  H   UNL A   1      43.842  27.746  28.239  1.00  0.00     0.167 HD
ATOM     25  C   UNL A   1      47.972  27.138  26.918  1.00  0.00     0.031 A 
ATOM     26  C   UNL A   1      41.665  29.255  29.147  1.00  0.00     0.031 A 
ATOM     27  C   UNL A   1      47.888  28.523  27.309  1.00  0.00     0.049 A 
ATOM     28  C   UNL A   1      42.837  30.188  29.105  1.00  0.00     0.074 A 
ATOM     29  C   UNL A   1      48.881  29.487  27.281  1.00  0.00     0.029 A 
ATOM     30  N   UNL A   1      46.746  29.141  27.798  1.00  0.00    -0.354 N 
ATOM     31  N   UNL A   1      44.063  29.945  28.708  1.00  0.00    -0.248 NA
ATOM     32  C   UNL A   1      42.605  31.560  29.569  1.00  0.00     0.031 C 
ATOM     33  C   UNL A   1      48.352  30.676  27.799  1.00  0.00     0.029 A 
ATOM     34  C   UNL A   1      47.015  30.467  28.098  1.00  0.00     0.049 A 
ATOM     35  H   UNL A   1      45.873  28.702  27.916  1.00  0.00     0.167 HD
ATOM     36  C   UNL A   1      44.753  31.140  28.869  1.00  0.00     0.074 A 
ATOM     37  C   UNL A   1      43.798  32.107  29.379  1.00  0.00     0.031 C 
ATOM     38  C   UNL A   1      46.057  31.410  28.620  1.00  0.00     0.031 A 
BRANCH  25  39
ATOM     39  C   UNL A   1      49.306  26.596  26.476  1.00  0.00    -0.014 A 
ATOM     40  C   UNL A   1      50.125  25.853  27.346  1.00  0.00     0.010 A 
ATOM     41  C   UNL A   1      49.741  26.821  25.155  1.00  0.00     0.010 A 
ATOM     42  C   UNL A   1      51.376  25.393  26.920  1.00  0.00     0.020 A 
ATOM     43  C   UNL A   1      50.980  26.341  24.719  1.00  0.00     0.020 A 
ATOM     44  C   UNL A   1      51.800  25.649  25.613  1.00  0.00     0.054 A 
BRANCH  44  45
ATOM     45  S   UNL A   1      53.433  25.056  25.089  1.00  0.00     0.124 S 
ATOM     46  O   UNL A   1      54.316  25.735  26.034  1.00  0.00    -0.237 OA
ATOM     47  O   UNL A   1      53.322  23.610  25.263  1.00  0.00    -0.237 OA
ATOM     48  O   UNL A   1      53.539  25.507  23.704  1.00  0.00    -0.744 OA
ENDBRANCH  44  45
ENDBRANCH  25  39
BRANCH  26  49
ATOM     49  C   UNL A   1      40.320  29.707  29.589  1.00  0.00    -0.014 A 
ATOM     50  C   UNL A   1      40.058  29.940  30.949  1.00  0.00     0.010 A 
ATOM     51  C   UNL A   1      39.318  29.982  28.639  1.00  0.00     0.010 A 
ATOM     52  C   UNL A   1      38.819  30.448  31.351  1.00  0.00     0.020 A 
ATOM     53  C   UNL A   1      38.091  30.517  29.034  1.00  0.00     0.020 A 
ATOM     54  C   UNL A   1      37.847  30.742  30.390  1.00  0.00     0.054 A 
BRANCH  54  55
ATOM     55  S   UNL A   1      36.283  31.492  30.924  1.00  0.00     0.124 S 
ATOM     56  O   UNL A   1      35.470  31.386  29.718  1.00  0.00    -0.237 OA
ATOM     57  O   UNL A   1      35.884  30.635  32.036  1.00  0.00    -0.237 OA
ATOM     58  O   UNL A   1      36.669  32.850  31.303  1.00  0.00    -0.744 OA
ENDBRANCH  54  55
ENDBRANCH  26  49
BRANCH  38  59
ATOM     59  C   UNL A   1      46.521  32.815  28.882  1.00  0.00    -0.014 A 
ATOM     60  C   UNL A   1      47.081  33.175  30.120  1.00  0.00     0.010 A 
ATOM     61  C   UNL A   1      46.421  33.780  27.863  1.00  0.00     0.010 A 
ATOM     62  C   UNL A   1      47.503  34.487  30.347  1.00  0.00     0.020 A 
ATOM     63  C   UNL A   1      46.864  35.087  28.079  1.00  0.00     0.020 A 
ATOM     64  C   UNL A   1      47.389  35.436  29.325  1.00  0.00     0.054 A 
BRANCH  64  65
ATOM     65  S   UNL A   1      47.973  37.125  29.631  1.00  0.00     0.124 S 
ATOM     66  O   UNL A   1      49.191  36.890  30.401  1.00  0.00    -0.237 OA
ATOM     67  O   UNL A   1      48.172  37.646  28.281  1.00  0.00    -0.237 OA
ATOM     68  O   UNL A   1      46.874  37.741  30.372  1.00  0.00    -0.744 OA
ENDBRANCH  64  65
ENDBRANCH  38  59
ENDBRANCH  12  13
ENDBRANCH   5   7
ENDBRANCH   2   3
ENDBRANCH   1   2
BRANCH   1  69
ATOM     69  C   UNL A   1      36.899  20.863  24.733  1.00  0.00     0.118 C 
BRANCH  69  70
ATOM     70  N   UNL A   1      36.055  20.975  25.909  1.00  0.00    -0.351 N 
ATOM     71  C   UNL A   1      34.973  21.774  26.153  1.00  0.00     0.262 C 
ATOM     72  H   UNL A   1      36.302  20.379  26.653  1.00  0.00     0.163 HD
ATOM     73  O   UNL A   1      34.534  21.759  27.303  1.00  0.00    -0.268 OA
BRANCH  71  74
ATOM     74  C   UNL A   1      34.417  22.563  25.084  1.00  0.00     0.112 A 
ATOM     75  S   UNL A   1      35.017  24.160  24.883  1.00  0.00    -0.137 S 
ATOM     76  C   UNL A   1      33.392  22.293  24.196  1.00  0.00     0.106 A 
ATOM     77  C   UNL A   1      33.953  24.472  23.583  1.00  0.00     0.067 A 
ATOM     78  C   UNL A   1      33.144  23.393  23.312  1.00  0.00     0.034 A 
BRANCH  76  79
ATOM     79  S   UNL A   1      32.483  20.829  24.088  1.00  0.00     0.243 S 
ATOM     80  O   UNL A   1      31.546  20.854  25.185  1.00  0.00    -0.207 OA
ATOM     81  O   UNL A   1      32.026  20.838  22.714  1.00  0.00    -0.207 OA
BRANCH  79  82
ATOM     82  N   UNL A   1      33.394  19.443  24.216  1.00  0.00    -0.196 NA
ATOM     83  H   UNL A   1      33.937  19.536  25.074  1.00  0.00     0.142 HD
BRANCH  82  84
ATOM     84  C   UNL A   1      32.779  18.117  24.264  1.00  0.00     0.189 C 
ATOM     85  C   UNL A   1      32.700  17.579  25.689  1.00  0.00     0.224 C 
ATOM     86  C   UNL A   1      33.371  16.914  23.599  1.00  0.00     0.264 C 
ATOM     87  O   UNL A   1      32.388  16.186  25.556  1.00  0.00    -0.271 OA
ATOM     88  N   UNL A   1      32.984  15.816  24.330  1.00  0.00    -0.233 N 
ATOM     89  O   UNL A   1      34.032  16.875  22.577  1.00  0.00    -0.271 OA
ATOM     90  H   UNL A   1      33.107  14.885  24.034  1.00  0.00     0.199 HD
ENDBRANCH  82  84
ENDBRANCH  79  82
ENDBRANCH  76  79
ENDBRANCH  71  74
ENDBRANCH  69  70
ENDBRANCH   1  69
TORSDOF 16
ENDMDL
MODEL 2
REMARK VINA RESULT:     -11.2      6.239      8.086
REMARK SMILES O=C(NCCCNC(=O)c1sccc1S(=O)(=O)N[C@@H]1CONC1=O)c1ccc(-c2c3nc(c(-c4ccc(S(=O)(=O)[O-])cc4)c4ccc([nH]4)c(-c4ccc(S(=O)(=O)[O-])cc4)c4nc(c(-c5ccc(S(=O)(=O)[O-])cc5)c5ccc2[nH]5)C=C4)C=C3)cc1
REMARK SMILES IDX 5 1 4 2 3 3 1 4 2 5 25 7 26 8 84 9 27 10 83 11 28 12 29 13
REMARK SMILES IDX 30 14 77 15 31 16 82 17 76 18 78 19 32 20 81 21 75 22 74 23
REMARK SMILES IDX 33 25 63 26 44 27 62 28 45 29 48 30 61 31 79 32 46 33 47 34
REMARK SMILES IDX 60 36 80 37 49 38 34 39 35 40 43 41 36 42 42 43 37 44 38 45
REMARK SMILES IDX 39 46 40 47 41 48 64 49 65 50 73 51 66 52 72 53 67 54 68 55
REMARK SMILES IDX 69 56 70 57 71 58 50 59 51 60 59 61 52 62 58 63 53 64 54 65
REMARK SMILES IDX 55 66 56 67 57 68 6 69 7 70 8 71 9 73 10 74 11 75 14 76
REMARK SMILES IDX 12 77 13 78 15 79 16 80 17 81 18 82 19 84 20 85 23 86 21 87
REMARK SMILES IDX 22 88 24 89
REMARK H PARENT 3 6 78 24 48 35 7 72 18 83 22 90
REMARK Flexibility Score: inf
ROOT
ATOM      1  C   UNL A   1      37.361  23.631  25.374  1.00  0.00     0.042 C 
ENDROOT
BRANCH   1   2
ATOM      2  C   UNL A   1      38.311  23.961  26.518  1.00  0.00     0.118 C 
BRANCH   2   3
ATOM      3  N   UNL A   1      39.714  23.988  26.120  1.00  0.00    -0.352 N 
ATOM      4  O   UNL A   1      41.801  24.829  25.929  1.00  0.00    -0.269 OA
ATOM      5  C   UNL A   1      40.706  24.871  26.481  1.00  0.00     0.251 C 
ATOM      6  H   UNL A   1      39.992  23.270  25.505  1.00  0.00     0.163 HD
BRANCH   5   7
ATOM      7  C   UNL A   1      40.421  25.887  27.514  1.00  0.00     0.039 A 
ATOM      8  C   UNL A   1      41.088  27.110  27.482  1.00  0.00     0.014 A 
ATOM      9  C   UNL A   1      39.539  25.590  28.555  1.00  0.00     0.014 A 
ATOM     10  C   UNL A   1      41.046  27.938  28.593  1.00  0.00     0.010 A 
ATOM     11  C   UNL A   1      39.399  26.491  29.616  1.00  0.00     0.010 A 
ATOM     12  C   UNL A   1      40.190  27.650  29.669  1.00  0.00    -0.014 A 
BRANCH  12  13
ATOM     13  C   UNL A   1      40.116  28.608  30.801  1.00  0.00     0.031 A 
ATOM     14  C   UNL A   1      41.101  28.559  31.939  1.00  0.00     0.074 A 
ATOM     15  C   UNL A   1      39.175  29.572  30.762  1.00  0.00     0.049 A 
ATOM     16  N   UNL A   1      41.188  29.347  32.981  1.00  0.00    -0.248 NA
ATOM     17  C   UNL A   1      42.111  27.490  31.912  1.00  0.00     0.031 C 
ATOM     18  C   UNL A   1      38.168  29.722  29.705  1.00  0.00     0.029 A 
ATOM     19  N   UNL A   1      38.931  30.627  31.600  1.00  0.00    -0.354 N 
ATOM     20  C   UNL A   1      42.232  28.849  33.753  1.00  0.00     0.074 A 
ATOM     21  C   UNL A   1      42.742  27.682  33.063  1.00  0.00     0.031 C 
ATOM     22  C   UNL A   1      37.476  30.850  29.913  1.00  0.00     0.029 A 
ATOM     23  C   UNL A   1      37.923  31.452  31.162  1.00  0.00     0.049 A 
ATOM     24  H   UNL A   1      39.428  30.779  32.436  1.00  0.00     0.167 HD
ATOM     25  C   UNL A   1      42.718  29.318  34.928  1.00  0.00     0.031 A 
ATOM     26  C   UNL A   1      37.399  32.565  31.705  1.00  0.00     0.031 A 
ATOM     27  C   UNL A   1      42.209  30.487  35.602  1.00  0.00     0.049 A 
ATOM     28  C   UNL A   1      37.942  33.056  33.012  1.00  0.00     0.074 A 
ATOM     29  C   UNL A   1      42.645  31.058  36.784  1.00  0.00     0.029 A 
ATOM     30  N   UNL A   1      41.150  31.263  35.152  1.00  0.00    -0.354 N 
ATOM     31  N   UNL A   1      38.929  32.567  33.724  1.00  0.00    -0.248 NA
ATOM     32  C   UNL A   1      37.296  34.238  33.593  1.00  0.00     0.031 C 
ATOM     33  C   UNL A   1      41.820  32.151  37.074  1.00  0.00     0.029 A 
ATOM     34  C   UNL A   1      40.904  32.294  36.045  1.00  0.00     0.049 A 
ATOM     35  H   UNL A   1      40.647  31.104  34.321  1.00  0.00     0.167 HD
ATOM     36  C   UNL A   1      39.028  33.388  34.841  1.00  0.00     0.074 A 
ATOM     37  C   UNL A   1      38.014  34.415  34.694  1.00  0.00     0.031 C 
ATOM     38  C   UNL A   1      39.880  33.297  35.891  1.00  0.00     0.031 A 
BRANCH  25  39
ATOM     39  C   UNL A   1      43.828  28.538  35.584  1.00  0.00    -0.014 A 
ATOM     40  C   UNL A   1      45.181  28.813  35.316  1.00  0.00     0.010 A 
ATOM     41  C   UNL A   1      43.508  27.517  36.501  1.00  0.00     0.010 A 
ATOM     42  C   UNL A   1      46.191  28.048  35.910  1.00  0.00     0.020 A 
ATOM     43  C   UNL A   1      44.516  26.768  37.116  1.00  0.00     0.020 A 
ATOM     44  C   UNL A   1      45.851  27.023  36.798  1.00  0.00     0.054 A 
BRANCH  44  45
ATOM     45  S   UNL A   1      47.177  26.036  37.544  1.00  0.00     0.124 S 
ATOM     46  O   UNL A   1      47.237  26.587  38.895  1.00  0.00    -0.237 OA
ATOM     47  O   UNL A   1      46.662  24.673  37.444  1.00  0.00    -0.237 OA
ATOM     48  O   UNL A   1      48.338  26.322  36.704  1.00  0.00    -0.744 OA
ENDBRANCH  44  45
ENDBRANCH  25  39
BRANCH  26  49
ATOM     49  C   UNL A   1      36.293  33.267  31.003  1.00  0.00    -0.014 A 
ATOM     50  C   UNL A   1      35.068  33.494  31.651  1.00  0.00     0.010 A 
ATOM     51  C   UNL A   1      36.491  33.782  29.707  1.00  0.00     0.010 A 
ATOM     52  C   UNL A   1      34.062  34.231  31.019  1.00  0.00     0.020 A 
ATOM     53  C   UNL A   1      35.500  34.543  29.085  1.00  0.00     0.020 A 
ATOM     54  C   UNL A   1      34.288  34.759  29.744  1.00  0.00     0.054 A 
BRANCH  54  55
ATOM     55  S   UNL A   1      33.007  35.794  28.983  1.00  0.00     0.124 S 
ATOM     56  O   UNL A   1      33.801  36.841  28.350  1.00  0.00    -0.237 OA
ATOM     57  O   UNL A   1      32.345  34.862  28.074  1.00  0.00    -0.237 OA
ATOM     58  O   UNL A   1      32.195  36.223  30.120  1.00  0.00    -0.744 OA
ENDBRANCH  54  55
ENDBRANCH  26  49
BRANCH  38  59
ATOM     59  C   UNL A   1      39.757  34.349  36.956  1.00  0.00    -0.014 A 
ATOM     60  C   UNL A   1      40.371  35.605  36.810  1.00  0.00     0.010 A 
ATOM     61  C   UNL A   1      38.993  34.085  38.107  1.00  0.00     0.010 A 
ATOM     62  C   UNL A   1      40.250  36.569  37.813  1.00  0.00     0.020 A 
ATOM     63  C   UNL A   1      38.850  35.055  39.102  1.00  0.00     0.020 A 
ATOM     64  C   UNL A   1      39.493  36.287  38.954  1.00  0.00     0.054 A 
BRANCH  64  65
ATOM     65  S   UNL A   1      39.322  37.566  40.229  1.00  0.00     0.124 S 
ATOM     66  O   UNL A   1      38.907  36.783  41.390  1.00  0.00    -0.237 OA
ATOM     67  O   UNL A   1      40.667  38.132  40.299  1.00  0.00    -0.237 OA
ATOM     68  O   UNL A   1      38.305  38.462  39.685  1.00  0.00    -0.744 OA
ENDBRANCH  64  65
ENDBRANCH  38  59
ENDBRANCH  12  13
ENDBRANCH   5   7
ENDBRANCH   2   3
ENDBRANCH   1   2
BRANCH   1  69
ATOM     69  C   UNL A   1      36.676  22.282  25.516  1.00  0.00     0.118 C 
BRANCH  69  70
ATOM     70  N   UNL A   1      35.538  22.359  26.414  1.00  0.00    -0.351 N 
ATOM     71  C   UNL A   1      34.233  22.682  26.169  1.00  0.00     0.262 C 
ATOM     72  H   UNL A   1      35.739  22.144  27.355  1.00  0.00     0.163 HD
ATOM     73  O   UNL A   1      33.508  22.806  27.157  1.00  0.00    -0.268 OA
BRANCH  71  74
ATOM     74  C   UNL A   1      33.786  22.849  24.810  1.00  0.00     0.112 A 
ATOM     75  S   UNL A   1      33.910  24.418  24.122  1.00  0.00    -0.137 S 
ATOM     76  C   UNL A   1      33.177  21.963  23.939  1.00  0.00     0.106 A 
ATOM     77  C   UNL A   1      33.207  23.907  22.652  1.00  0.00     0.067 A 
ATOM     78  C   UNL A   1      32.866  22.575  22.682  1.00  0.00     0.034 A 
BRANCH  76  79
ATOM     79  S   UNL A   1      32.815  20.303  24.247  1.00  0.00     0.243 S 
ATOM     80  O   UNL A   1      31.871  20.291  25.339  1.00  0.00    -0.207 OA
ATOM     81  O   UNL A   1      32.449  19.809  22.937  1.00  0.00    -0.207 OA
BRANCH  79  82
ATOM     82  N   UNL A   1      34.129  19.383  24.689  1.00  0.00    -0.196 NA
ATOM     83  H   UNL A   1      34.350  19.643  25.649  1.00  0.00     0.142 HD
BRANCH  82  84
ATOM     84  C   UNL A   1      34.094  17.922  24.657  1.00  0.00     0.189 C 
ATOM     85  C   UNL A   1      34.142  17.384  23.231  1.00  0.00     0.224 C 
ATOM     86  C   UNL A   1      32.938  17.118  25.164  1.00  0.00     0.264 C 
ATOM     87  O   UNL A   1      33.781  16.000  23.331  1.00  0.00    -0.271 OA
ATOM     88  N   UNL A   1      32.905  15.952  24.438  1.00  0.00    -0.233 N 
ATOM     89  O   UNL A   1      32.181  17.394  26.078  1.00  0.00    -0.271 OA
ATOM     90  H   UNL A   1      32.339  15.178  24.662  1.00  0.00     0.199 HD
ENDBRANCH  82  84
ENDBRANCH  79  82
ENDBRANCH  76  79
ENDBRANCH  71  74
ENDBRANCH  69  70
ENDBRANCH   1  69
TORSDOF 16
ENDMDL
MODEL 3
REMARK VINA RESULT:     -11.2      7.418     11.231
REMARK SMILES O=C(NCCCNC(=O)c1sccc1S(=O)(=O)N[C@@H]1CONC1=O)c1ccc(-c2c3nc(c(-c4ccc(S(=O)(=O)[O-])cc4)c4ccc([nH]4)c(-c4ccc(S(=O)(=O)[O-])cc4)c4nc(c(-c5ccc(S(=O)(=O)[O-])cc5)c5ccc2[nH]5)C=C4)C=C3)cc1
REMARK SMILES IDX 5 1 4 2 3 3 1 4 2 5 25 7 26 8 84 9 27 10 83 11 28 12 29 13
REMARK SMILES IDX 30 14 77 15 31 16 82 17 76 18 78 19 32 20 81 21 75 22 74 23
REMARK SMILES IDX 33 25 63 26 44 27 62 28 45 29 48 30 61 31 79 32 46 33 47 34
REMARK SMILES IDX 60 36 80 37 49 38 34 39 35 40 43 41 36 42 42 43 37 44 38 45
REMARK SMILES IDX 39 46 40 47 41 48 64 49 65 50 73 51 66 52 72 53 67 54 68 55
REMARK SMILES IDX 69 56 70 57 71 58 50 59 51 60 59 61 52 62 58 63 53 64 54 65
REMARK SMILES IDX 55 66 56 67 57 68 6 69 7 70 8 71 9 73 10 74 11 75 14 76
REMARK SMILES IDX 12 77 13 78 15 79 16 80 17 81 18 82 19 84 20 85 23 86 21 87
REMARK SMILES IDX 22 88 24 89
REMARK H PARENT 3 6 78 24 48 35 7 72 18 83 22 90
REMARK Flexibility Score: inf
ROOT
ATOM      1  C   UNL A   1      31.777  32.057  26.762  1.00  0.00     0.042 C 
ENDROOT
BRANCH   1   2
ATOM      2  C   UNL A   1      32.854  32.761  27.579  1.00  0.00     0.118 C 
BRANCH   2   3
ATOM      3  N   UNL A   1      32.587  34.179  27.794  1.00  0.00    -0.352 N 
ATOM      4  O   UNL A   1      32.667  36.166  28.864  1.00  0.00    -0.269 OA
ATOM      5  C   UNL A   1      33.120  35.034  28.733  1.00  0.00     0.251 C 
ATOM      6  H   UNL A   1      31.932  34.582  27.180  1.00  0.00     0.163 HD
BRANCH   5   7
ATOM      7  C   UNL A   1      34.219  34.556  29.596  1.00  0.00     0.039 A 
ATOM      8  C   UNL A   1      35.526  34.557  29.113  1.00  0.00     0.014 A 
ATOM      9  C   UNL A   1      33.934  34.040  30.862  1.00  0.00     0.014 A 
ATOM     10  C   UNL A   1      36.504  33.848  29.793  1.00  0.00     0.010 A 
ATOM     11  C   UNL A   1      34.955  33.440  31.606  1.00  0.00     0.010 A 
ATOM     12  C   UNL A   1      36.238  33.294  31.056  1.00  0.00    -0.014 A 
BRANCH  12  13
ATOM     13  C   UNL A   1      37.340  32.615  31.786  1.00  0.00     0.031 A 
ATOM     14  C   UNL A   1      38.105  31.474  31.171  1.00  0.00     0.074 A 
ATOM     15  C   UNL A   1      37.685  33.085  33.001  1.00  0.00     0.049 A 
ATOM     16  N   UNL A   1      39.113  30.802  31.667  1.00  0.00    -0.248 NA
ATOM     17  C   UNL A   1      37.685  31.020  29.837  1.00  0.00     0.031 C 
ATOM     18  C   UNL A   1      37.019  34.193  33.696  1.00  0.00     0.029 A 
ATOM     19  N   UNL A   1      38.698  32.728  33.850  1.00  0.00    -0.354 N 
ATOM     20  C   UNL A   1      39.423  29.824  30.729  1.00  0.00     0.074 A 
ATOM     21  C   UNL A   1      38.487  29.983  29.635  1.00  0.00     0.031 C 
ATOM     22  C   UNL A   1      37.692  34.477  34.818  1.00  0.00     0.029 A 
ATOM     23  C   UNL A   1      38.778  33.519  34.971  1.00  0.00     0.049 A 
ATOM     24  H   UNL A   1      39.311  31.976  33.675  1.00  0.00     0.167 HD
ATOM     25  C   UNL A   1      40.395  28.880  30.776  1.00  0.00     0.031 A 
ATOM     26  C   UNL A   1      39.619  33.476  36.020  1.00  0.00     0.031 A 
ATOM     27  C   UNL A   1      41.328  28.737  31.865  1.00  0.00     0.049 A 
ATOM     28  C   UNL A   1      40.674  32.414  36.056  1.00  0.00     0.074 A 
ATOM     29  C   UNL A   1      42.363  27.828  31.999  1.00  0.00     0.029 A 
ATOM     30  N   UNL A   1      41.339  29.523  33.009  1.00  0.00    -0.354 N 
ATOM     31  N   UNL A   1      40.948  31.499  35.157  1.00  0.00    -0.248 NA
ATOM     32  C   UNL A   1      41.527  32.371  37.250  1.00  0.00     0.031 C 
ATOM     33  C   UNL A   1      42.970  28.034  33.244  1.00  0.00     0.029 A 
ATOM     34  C   UNL A   1      42.347  29.106  33.862  1.00  0.00     0.049 A 
ATOM     35  H   UNL A   1      40.720  30.268  33.187  1.00  0.00     0.167 HD
ATOM     36  C   UNL A   1      42.011  30.770  35.675  1.00  0.00     0.074 A 
ATOM     37  C   UNL A   1      42.343  31.368  36.955  1.00  0.00     0.031 C 
ATOM     38  C   UNL A   1      42.652  29.703  35.139  1.00  0.00     0.031 A 
BRANCH  25  39
ATOM     39  C   UNL A   1      40.466  27.898  29.635  1.00  0.00    -0.014 A 
ATOM     40  C   UNL A   1      39.582  26.807  29.545  1.00  0.00     0.010 A 
ATOM     41  C   UNL A   1      41.429  28.081  28.623  1.00  0.00     0.010 A 
ATOM     42  C   UNL A   1      39.695  25.889  28.495  1.00  0.00     0.020 A 
ATOM     43  C   UNL A   1      41.527  27.179  27.559  1.00  0.00     0.020 A 
ATOM     44  C   UNL A   1      40.674  26.075  27.515  1.00  0.00     0.054 A 
BRANCH  44  45
ATOM     45  S   UNL A   1      40.809  24.863  26.171  1.00  0.00     0.124 S 
ATOM     46  O   UNL A   1      39.453  24.325  26.116  1.00  0.00    -0.237 OA
ATOM     47  O   UNL A   1      41.204  25.686  25.032  1.00  0.00    -0.237 OA
ATOM     48  O   UNL A   1      41.830  23.932  26.646  1.00  0.00    -0.744 OA
ENDBRANCH  44  45
ENDBRANCH  25  39
BRANCH  26  49
ATOM     49  C   UNL A   1      39.469  34.471  37.114  1.00  0.00    -0.014 A 
ATOM     50  C   UNL A   1      38.809  34.127  38.305  1.00  0.00     0.010 A 
ATOM     51  C   UNL A   1      40.060  35.744  36.998  1.00  0.00     0.010 A 
ATOM     52  C   UNL A   1      38.748  35.037  39.365  1.00  0.00     0.020 A 
ATOM     53  C   UNL A   1      40.026  36.644  38.065  1.00  0.00     0.020 A 
ATOM     54  C   UNL A   1      39.365  36.286  39.241  1.00  0.00     0.054 A 
BRANCH  54  55
ATOM     55  S   UNL A   1      39.359  37.413  40.663  1.00  0.00     0.124 S 
ATOM     56  O   UNL A   1      38.810  36.566  41.717  1.00  0.00    -0.237 OA
ATOM     57  O   UNL A   1      40.770  37.760  40.799  1.00  0.00    -0.237 OA
ATOM     58  O   UNL A   1      38.496  38.508  40.225  1.00  0.00    -0.744 OA
ENDBRANCH  54  55
ENDBRANCH  26  49
BRANCH  38  59
ATOM     59  C   UNL A   1      43.788  29.125  35.934  1.00  0.00    -0.014 A 
ATOM     60  C   UNL A   1      43.597  28.011  36.769  1.00  0.00     0.010 A 
ATOM     61  C   UNL A   1      45.071  29.690  35.821  1.00  0.00     0.010 A 
ATOM     62  C   UNL A   1      44.664  27.490  37.505  1.00  0.00     0.020 A 
ATOM     63  C   UNL A   1      46.146  29.157  36.536  1.00  0.00     0.020 A 
ATOM     64  C   UNL A   1      45.932  28.069  37.385  1.00  0.00     0.054 A 
BRANCH  64  65
ATOM     65  S   UNL A   1      47.310  27.356  38.324  1.00  0.00     0.124 S 
ATOM     66  O   UNL A   1      46.692  27.097  39.621  1.00  0.00    -0.237 OA
ATOM     67  O   UNL A   1      47.654  26.171  37.542  1.00  0.00    -0.237 OA
ATOM     68  O   UNL A   1      48.318  28.414  38.313  1.00  0.00    -0.744 OA
ENDBRANCH  64  65
ENDBRANCH  38  59
ENDBRANCH  12  13
ENDBRANCH   5   7
ENDBRANCH   2   3
ENDBRANCH   1   2
BRANCH   1  69
ATOM     69  C   UNL A   1      32.027  30.571  26.569  1.00  0.00     0.118 C 
BRANCH  69  70
ATOM     70  N   UNL A   1      32.718  30.310  25.319  1.00  0.00    -0.351 N 
ATOM     71  C   UNL A   1      32.734  29.195  24.529  1.00  0.00     0.262 C 
ATOM     72  H   UNL A   1      33.266  31.058  24.986  1.00  0.00     0.163 HD
ATOM     73  O   UNL A   1      33.530  29.205  23.590  1.00  0.00    -0.268 OA
BRANCH  71  74
ATOM     74  C   UNL A   1      31.841  28.102  24.824  1.00  0.00     0.112 A 
ATOM     75  S   UNL A   1      32.384  26.915  25.939  1.00  0.00    -0.137 S 
ATOM     76  C   UNL A   1      30.605  27.774  24.298  1.00  0.00     0.106 A 
ATOM     77  C   UNL A   1      30.956  25.995  25.765  1.00  0.00     0.067 A 
ATOM     78  C   UNL A   1      30.086  26.565  24.864  1.00  0.00     0.034 A 
BRANCH  76  79
ATOM     79  S   UNL A   1      29.721  28.666  23.113  1.00  0.00     0.243 S 
ATOM     80  O   UNL A   1      30.542  28.685  21.927  1.00  0.00    -0.207 OA
ATOM     81  O   UNL A   1      28.430  28.010  23.119  1.00  0.00    -0.207 OA
BRANCH  79  82
ATOM     82  N   UNL A   1      29.392  30.240  23.541  1.00  0.00    -0.196 NA
ATOM     83  H   UNL A   1      30.162  30.541  24.137  1.00  0.00     0.142 HD
BRANCH  82  84
ATOM     84  C   UNL A   1      29.213  31.290  22.540  1.00  0.00     0.189 C 
ATOM     85  C   UNL A   1      28.701  32.585  23.163  1.00  0.00     0.224 C 
ATOM     86  C   UNL A   1      28.244  31.185  21.404  1.00  0.00     0.264 C 
ATOM     87  O   UNL A   1      28.273  33.397  22.061  1.00  0.00    -0.271 OA
ATOM     88  N   UNL A   1      27.847  32.462  21.090  1.00  0.00    -0.233 N 
ATOM     89  O   UNL A   1      27.891  30.178  20.816  1.00  0.00    -0.271 OA
ATOM     90  H   UNL A   1      27.330  32.697  20.286  1.00  0.00     0.199 HD
ENDBRANCH  82  84
ENDBRANCH  79  82
ENDBRANCH  76  79
ENDBRANCH  71  74
ENDBRANCH  69  70
ENDBRANCH   1  69
TORSDOF 16
ENDMDL
