MODEL 1
REMARK VINA RESULT:     -13.7      0.000      0.000
REMARK SMILES Cc1ccc2c(c1)c(-c1ccnc3c(C)cccc13)c(C)n2CC(=O)NCCCNC(=O)c1ccc(-c2c3nc(c(-c4ccc(S(=O)(=O)[O-])cc4)c4ccc([nH]4)c(-c4ccc(S(=O)(=O)[O-])cc4)c4nc(c(-c5ccc(S(=O)(=O)[O-])cc5)c5ccc2[nH]5)C=C4)C=C3)cc1
REMARK SMILES IDX 28 1 27 2 26 3 24 4 25 5 23 7 22 8 1 9 2 10 3 11 7 12 4 13
REMARK SMILES IDX 6 14 5 15 8 16 20 17 21 18 9 19 10 20 19 21 11 22 13 23
REMARK SMILES IDX 18 24 12 25 14 26 17 27 15 28 16 29 29 30 30 31 31 32 32 34
REMARK SMILES IDX 33 35 34 36 92 37 35 38 91 39 36 40 37 41 38 42 85 43 39 44
REMARK SMILES IDX 90 45 84 46 86 47 40 48 89 49 83 50 82 51 41 53 71 54 52 55
REMARK SMILES IDX 70 56 53 57 56 58 69 59 87 60 54 61 55 62 68 64 88 65 57 66
REMARK SMILES IDX 42 67 43 68 51 69 44 70 50 71 45 72 46 73 47 74 48 75 49 76
REMARK SMILES IDX 72 77 73 78 81 79 74 80 80 81 75 82 76 83 77 84 78 85 79 86
REMARK SMILES IDX 58 87 59 88 67 89 60 90 66 91 61 92 62 93 63 94 64 95 65 96
REMARK H PARENT 26 6 30 33 86 52 56 63
REMARK Flexibility Score: inf
ROOT
ATOM      1  C   UNL A   1      40.230  22.943  27.398  1.00  0.00     0.042 C 
ENDROOT
BRANCH   1   2
ATOM      2  C   UNL A   1      39.037  23.274  26.501  1.00  0.00     0.117 C 
BRANCH   2   3
ATOM      3  N   UNL A   1      38.770  22.247  25.506  1.00  0.00    -0.354 N 
ATOM      4  C   UNL A   1      37.646  21.503  25.288  1.00  0.00     0.239 C 
ATOM      5  O   UNL A   1      37.658  20.721  24.332  1.00  0.00    -0.273 OA
ATOM      6  H   UNL A   1      39.517  22.059  24.893  1.00  0.00     0.163 HD
BRANCH   4   7
ATOM      7  C   UNL A   1      36.406  21.674  26.143  1.00  0.00     0.222 C 
BRANCH   7   8
ATOM      8  N   UNL A   1      35.192  21.886  25.365  1.00  0.00    -0.335 N 
ATOM      9  C   UNL A   1      31.835  18.367  22.489  1.00  0.00     0.044 C 
ATOM     10  C   UNL A   1      32.736  19.236  23.319  1.00  0.00    -0.050 A 
ATOM     11  C   UNL A   1      33.656  18.669  24.199  1.00  0.00     0.005 A 
ATOM     12  C   UNL A   1      32.632  20.632  23.228  1.00  0.00     0.014 A 
ATOM     13  C   UNL A   1      34.509  19.465  24.969  1.00  0.00     0.027 A 
ATOM     14  C   UNL A   1      33.482  21.456  23.994  1.00  0.00     0.008 A 
ATOM     15  C   UNL A   1      34.427  20.862  24.829  1.00  0.00     0.049 A 
ATOM     16  C   UNL A   1      33.623  22.867  24.131  1.00  0.00     0.011 A 
ATOM     17  C   UNL A   1      34.643  23.115  25.037  1.00  0.00     0.024 A 
ATOM     18  C   UNL A   1      35.150  24.420  25.555  1.00  0.00     0.065 C 
BRANCH  16  19
ATOM     19  C   UNL A   1      32.846  23.906  23.466  1.00  0.00    -0.005 A 
ATOM     20  C   UNL A   1      33.233  24.278  22.181  1.00  0.00     0.029 A 
ATOM     21  C   UNL A   1      31.774  24.574  24.109  1.00  0.00     0.008 A 
ATOM     22  C   UNL A   1      32.529  25.286  21.565  1.00  0.00     0.112 A 
ATOM     23  C   UNL A   1      31.118  25.599  23.388  1.00  0.00     0.074 A 
ATOM     24  C   UNL A   1      31.351  24.280  25.428  1.00  0.00     0.011 A 
ATOM     25  N   UNL A   1      31.486  25.928  22.132  1.00  0.00    -0.256 NA
ATOM     26  C   UNL A   1      30.066  26.289  24.012  1.00  0.00    -0.025 A 
ATOM     27  C   UNL A   1      30.308  24.972  26.031  1.00  0.00     0.001 A 
ATOM     28  C   UNL A   1      29.337  27.407  23.315  1.00  0.00     0.047 C 
ATOM     29  C   UNL A   1      29.668  25.976  25.324  1.00  0.00     0.005 A 
ENDBRANCH  16  19
ENDBRANCH   7   8
ENDBRANCH   4   7
ENDBRANCH   2   3
ENDBRANCH   1   2
BRANCH   1  30
ATOM     30  C   UNL A   1      41.091  21.784  26.892  1.00  0.00     0.118 C 
BRANCH  30  31
ATOM     31  N   UNL A   1      42.117  22.176  25.944  1.00  0.00    -0.352 N 
ATOM     32  C   UNL A   1      42.848  23.307  25.708  1.00  0.00     0.251 C 
ATOM     33  H   UNL A   1      42.343  21.451  25.319  1.00  0.00     0.163 HD
ATOM     34  O   UNL A   1      43.731  23.193  24.851  1.00  0.00    -0.269 OA
BRANCH  32  35
ATOM     35  C   UNL A   1      42.634  24.638  26.342  1.00  0.00     0.039 A 
ATOM     36  C   UNL A   1      43.088  25.026  27.600  1.00  0.00     0.014 A 
ATOM     37  C   UNL A   1      41.852  25.551  25.602  1.00  0.00     0.014 A 
ATOM     38  C   UNL A   1      42.694  26.253  28.138  1.00  0.00     0.010 A 
ATOM     39  C   UNL A   1      41.466  26.779  26.131  1.00  0.00     0.010 A 
ATOM     40  C   UNL A   1      41.851  27.113  27.422  1.00  0.00    -0.014 A 
BRANCH  40  41
ATOM     41  C   UNL A   1      41.488  28.390  28.038  1.00  0.00     0.031 A 
ATOM     42  C   UNL A   1      42.505  29.460  27.885  1.00  0.00     0.074 A 
ATOM     43  C   UNL A   1      40.318  28.657  28.656  1.00  0.00     0.049 A 
ATOM     44  N   UNL A   1      43.268  29.951  28.802  1.00  0.00    -0.248 NA
ATOM     45  C   UNL A   1      42.792  29.959  26.532  1.00  0.00     0.031 C 
ATOM     46  C   UNL A   1      39.094  27.849  28.654  1.00  0.00     0.029 A 
ATOM     47  N   UNL A   1      39.951  29.767  29.369  1.00  0.00    -0.354 N 
ATOM     48  C   UNL A   1      43.995  30.969  28.191  1.00  0.00     0.074 A 
ATOM     49  C   UNL A   1      43.777  30.826  26.774  1.00  0.00     0.031 C 
ATOM     50  C   UNL A   1      38.067  28.586  29.139  1.00  0.00     0.029 A 
ATOM     51  C   UNL A   1      38.594  29.840  29.652  1.00  0.00     0.049 A 
ATOM     52  H   UNL A   1      40.595  30.454  29.656  1.00  0.00     0.167 HD
ATOM     53  C   UNL A   1      44.530  31.989  28.918  1.00  0.00     0.031 A 
ATOM     54  C   UNL A   1      37.940  30.849  30.279  1.00  0.00     0.031 A 
ATOM     55  C   UNL A   1      44.508  31.707  30.327  1.00  0.00     0.049 A 
ATOM     56  C   UNL A   1      38.913  31.564  31.131  1.00  0.00     0.074 A 
ATOM     57  C   UNL A   1      45.273  30.996  31.223  1.00  0.00     0.029 A 
ATOM     58  N   UNL A   1      43.305  31.969  30.927  1.00  0.00    -0.354 N 
ATOM     59  N   UNL A   1      39.502  31.021  32.160  1.00  0.00    -0.248 NA
ATOM     60  C   UNL A   1      39.474  32.833  30.682  1.00  0.00     0.031 C 
ATOM     61  C   UNL A   1      44.414  30.685  32.319  1.00  0.00     0.029 A 
ATOM     62  C   UNL A   1      43.160  31.247  32.083  1.00  0.00     0.049 A 
ATOM     63  H   UNL A   1      42.631  32.595  30.574  1.00  0.00     0.167 HD
ATOM     64  C   UNL A   1      40.728  31.647  32.218  1.00  0.00     0.074 A 
ATOM     65  C   UNL A   1      40.591  32.852  31.412  1.00  0.00     0.031 C 
ATOM     66  C   UNL A   1      41.844  30.988  32.635  1.00  0.00     0.031 A 
BRANCH  53  67
ATOM     67  C   UNL A   1      44.687  33.405  28.414  1.00  0.00    -0.014 A 
ATOM     68  C   UNL A   1      43.597  34.215  28.037  1.00  0.00     0.010 A 
ATOM     69  C   UNL A   1      45.935  34.052  28.563  1.00  0.00     0.010 A 
ATOM     70  C   UNL A   1      43.737  35.583  27.793  1.00  0.00     0.020 A 
ATOM     71  C   UNL A   1      46.080  35.433  28.355  1.00  0.00     0.020 A 
ATOM     72  C   UNL A   1      44.977  36.188  27.960  1.00  0.00     0.054 A 
BRANCH  72  73
ATOM     73  S   UNL A   1      45.098  37.977  27.713  1.00  0.00     0.124 S 
ATOM     74  O   UNL A   1      43.826  38.272  27.053  1.00  0.00    -0.237 OA
ATOM     75  O   UNL A   1      45.219  38.472  29.085  1.00  0.00    -0.237 OA
ATOM     76  O   UNL A   1      46.283  38.135  26.886  1.00  0.00    -0.744 OA
ENDBRANCH  72  73
ENDBRANCH  53  67
BRANCH  54  77
ATOM     77  C   UNL A   1      36.619  31.440  29.954  1.00  0.00    -0.014 A 
ATOM     78  C   UNL A   1      36.343  31.814  28.625  1.00  0.00     0.010 A 
ATOM     79  C   UNL A   1      35.793  31.953  30.974  1.00  0.00     0.010 A 
ATOM     80  C   UNL A   1      35.340  32.745  28.331  1.00  0.00     0.020 A 
ATOM     81  C   UNL A   1      34.783  32.885  30.684  1.00  0.00     0.020 A 
ATOM     82  C   UNL A   1      34.592  33.305  29.368  1.00  0.00     0.054 A 
BRANCH  82  83
ATOM     83  S   UNL A   1      33.442  34.656  28.970  1.00  0.00     0.124 S 
ATOM     84  O   UNL A   1      32.549  34.021  28.004  1.00  0.00    -0.237 OA
ATOM     85  O   UNL A   1      32.848  34.956  30.271  1.00  0.00    -0.237 OA
ATOM     86  O   UNL A   1      34.308  35.700  28.429  1.00  0.00    -0.744 OA
ENDBRANCH  82  83
ENDBRANCH  54  77
BRANCH  66  87
ATOM     87  C   UNL A   1      41.693  29.824  33.575  1.00  0.00    -0.014 A 
ATOM     88  C   UNL A   1      41.786  30.112  34.949  1.00  0.00     0.010 A 
ATOM     89  C   UNL A   1      41.580  28.480  33.174  1.00  0.00     0.010 A 
ATOM     90  C   UNL A   1      41.813  29.093  35.899  1.00  0.00     0.020 A 
ATOM     91  C   UNL A   1      41.581  27.449  34.128  1.00  0.00     0.020 A 
ATOM     92  C   UNL A   1      41.717  27.765  35.483  1.00  0.00     0.054 A 
BRANCH  92  93
ATOM     93  S   UNL A   1      41.816  26.480  36.758  1.00  0.00     0.124 S 
ATOM     94  O   UNL A   1      42.091  25.282  35.967  1.00  0.00    -0.237 OA
ATOM     95  O   UNL A   1      42.921  26.941  37.593  1.00  0.00    -0.237 OA
ATOM     96  O   UNL A   1      40.501  26.509  37.395  1.00  0.00    -0.744 OA
ENDBRANCH  92  93
ENDBRANCH  66  87
ENDBRANCH  40  41
ENDBRANCH  32  35
ENDBRANCH  30  31
ENDBRANCH   1  30
TORSDOF 15
ENDMDL
MODEL 2
REMARK VINA RESULT:     -13.3      3.022      9.779
REMARK SMILES Cc1ccc2c(c1)c(-c1ccnc3c(C)cccc13)c(C)n2CC(=O)NCCCNC(=O)c1ccc(-c2c3nc(c(-c4ccc(S(=O)(=O)[O-])cc4)c4ccc([nH]4)c(-c4ccc(S(=O)(=O)[O-])cc4)c4nc(c(-c5ccc(S(=O)(=O)[O-])cc5)c5ccc2[nH]5)C=C4)C=C3)cc1
REMARK SMILES IDX 28 1 27 2 26 3 24 4 25 5 23 7 22 8 1 9 2 10 3 11 7 12 4 13
REMARK SMILES IDX 6 14 5 15 8 16 20 17 21 18 9 19 10 20 19 21 11 22 13 23
REMARK SMILES IDX 18 24 12 25 14 26 17 27 15 28 16 29 29 30 30 31 31 32 32 34
REMARK SMILES IDX 33 35 34 36 92 37 35 38 91 39 36 40 37 41 38 42 85 43 39 44
REMARK SMILES IDX 90 45 84 46 86 47 40 48 89 49 83 50 82 51 41 53 71 54 52 55
REMARK SMILES IDX 70 56 53 57 56 58 69 59 87 60 54 61 55 62 68 64 88 65 57 66
REMARK SMILES IDX 42 67 43 68 51 69 44 70 50 71 45 72 46 73 47 74 48 75 49 76
REMARK SMILES IDX 72 77 73 78 81 79 74 80 80 81 75 82 76 83 77 84 78 85 79 86
REMARK SMILES IDX 58 87 59 88 67 89 60 90 66 91 61 92 62 93 63 94 64 95 65 96
REMARK H PARENT 26 6 30 33 86 52 56 63
REMARK Flexibility Score: inf
ROOT
ATOM      1  C   UNL A   1      35.585  32.401  28.473  1.00  0.00     0.042 C 
ENDROOT
BRANCH   1   2
ATOM      2  C   UNL A   1      35.176  31.120  27.745  1.00  0.00     0.117 C 
BRANCH   2   3
ATOM      3  N   UNL A   1      33.784  30.758  27.967  1.00  0.00    -0.354 N 
ATOM      4  C   UNL A   1      32.892  30.142  27.137  1.00  0.00     0.239 C 
ATOM      5  O   UNL A   1      31.769  29.899  27.589  1.00  0.00    -0.273 OA
ATOM      6  H   UNL A   1      33.430  30.995  28.854  1.00  0.00     0.163 HD
BRANCH   4   7
ATOM      7  C   UNL A   1      33.281  29.710  25.737  1.00  0.00     0.222 C 
BRANCH   7   8
ATOM      8  N   UNL A   1      32.468  28.616  25.222  1.00  0.00    -0.335 N 
ATOM      9  C   UNL A   1      27.424  28.476  22.679  1.00  0.00     0.044 C 
ATOM     10  C   UNL A   1      28.784  28.591  23.307  1.00  0.00    -0.050 A 
ATOM     11  C   UNL A   1      29.415  29.828  23.411  1.00  0.00     0.005 A 
ATOM     12  C   UNL A   1      29.437  27.438  23.767  1.00  0.00     0.014 A 
ATOM     13  C   UNL A   1      30.675  29.953  24.002  1.00  0.00     0.027 A 
ATOM     14  C   UNL A   1      30.708  27.538  24.369  1.00  0.00     0.008 A 
ATOM     15  C   UNL A   1      31.295  28.795  24.505  1.00  0.00     0.049 A 
ATOM     16  C   UNL A   1      31.613  26.585  24.920  1.00  0.00     0.011 A 
ATOM     17  C   UNL A   1      32.729  27.266  25.383  1.00  0.00     0.024 A 
ATOM     18  C   UNL A   1      33.975  26.726  26.003  1.00  0.00     0.065 C 
BRANCH  16  19
ATOM     19  C   UNL A   1      31.445  25.139  24.995  1.00  0.00    -0.005 A 
ATOM     20  C   UNL A   1      30.794  24.623  26.113  1.00  0.00     0.029 A 
ATOM     21  C   UNL A   1      31.973  24.266  24.011  1.00  0.00     0.008 A 
ATOM     22  C   UNL A   1      30.669  23.257  26.208  1.00  0.00     0.112 A 
ATOM     23  C   UNL A   1      31.791  22.877  24.207  1.00  0.00     0.074 A 
ATOM     24  C   UNL A   1      32.681  24.715  22.870  1.00  0.00     0.011 A 
ATOM     25  N   UNL A   1      31.133  22.393  25.282  1.00  0.00    -0.256 NA
ATOM     26  C   UNL A   1      32.324  21.992  23.255  1.00  0.00    -0.025 A 
ATOM     27  C   UNL A   1      33.202  23.826  21.938  1.00  0.00     0.001 A 
ATOM     28  C   UNL A   1      32.191  20.500  23.409  1.00  0.00     0.047 C 
ATOM     29  C   UNL A   1      33.025  22.467  22.132  1.00  0.00     0.005 A 
ENDBRANCH  16  19
ENDBRANCH   7   8
ENDBRANCH   4   7
ENDBRANCH   2   3
ENDBRANCH   1   2
BRANCH   1  30
ATOM     30  C   UNL A   1      34.439  33.092  29.216  1.00  0.00     0.118 C 
BRANCH  30  31
ATOM     31  N   UNL A   1      34.487  32.935  30.657  1.00  0.00    -0.352 N 
ATOM     32  C   UNL A   1      35.299  32.285  31.543  1.00  0.00     0.251 C 
ATOM     33  H   UNL A   1      33.756  33.416  31.108  1.00  0.00     0.163 HD
ATOM     34  O   UNL A   1      35.059  32.502  32.736  1.00  0.00    -0.269 OA
BRANCH  32  35
ATOM     35  C   UNL A   1      36.381  31.322  31.196  1.00  0.00     0.039 A 
ATOM     36  C   UNL A   1      36.219  29.957  30.967  1.00  0.00     0.014 A 
ATOM     37  C   UNL A   1      37.687  31.856  31.154  1.00  0.00     0.014 A 
ATOM     38  C   UNL A   1      37.337  29.139  30.794  1.00  0.00     0.010 A 
ATOM     39  C   UNL A   1      38.804  31.044  30.971  1.00  0.00     0.010 A 
ATOM     40  C   UNL A   1      38.632  29.674  30.835  1.00  0.00    -0.014 A 
BRANCH  40  41
ATOM     41  C   UNL A   1      39.759  28.763  30.632  1.00  0.00     0.031 A 
ATOM     42  C   UNL A   1      40.588  28.529  31.841  1.00  0.00     0.074 A 
ATOM     43  C   UNL A   1      40.043  28.112  29.485  1.00  0.00     0.049 A 
ATOM     44  N   UNL A   1      41.785  28.956  32.064  1.00  0.00    -0.248 NA
ATOM     45  C   UNL A   1      39.971  27.840  32.984  1.00  0.00     0.031 C 
ATOM     46  C   UNL A   1      39.200  27.980  28.292  1.00  0.00     0.029 A 
ATOM     47  N   UNL A   1      41.140  27.356  29.169  1.00  0.00    -0.354 N 
ATOM     48  C   UNL A   1      42.159  28.421  33.294  1.00  0.00     0.074 A 
ATOM     49  C   UNL A   1      40.960  27.877  33.879  1.00  0.00     0.031 C 
ATOM     50  C   UNL A   1      39.712  27.023  27.482  1.00  0.00     0.029 A 
ATOM     51  C   UNL A   1      41.004  26.612  28.004  1.00  0.00     0.049 A 
ATOM     52  H   UNL A   1      41.955  27.341  29.721  1.00  0.00     0.167 HD
ATOM     53  C   UNL A   1      43.470  28.262  33.625  1.00  0.00     0.031 A 
ATOM     54  C   UNL A   1      41.894  25.730  27.486  1.00  0.00     0.031 A 
ATOM     55  C   UNL A   1      44.337  28.970  32.722  1.00  0.00     0.049 A 
ATOM     56  C   UNL A   1      43.239  26.094  27.979  1.00  0.00     0.074 A 
ATOM     57  C   UNL A   1      44.788  30.260  32.564  1.00  0.00     0.029 A 
ATOM     58  N   UNL A   1      44.595  28.296  31.558  1.00  0.00    -0.354 N 
ATOM     59  N   UNL A   1      43.840  27.209  27.668  1.00  0.00    -0.248 NA
ATOM     60  C   UNL A   1      43.838  25.340  29.074  1.00  0.00     0.031 C 
ATOM     61  C   UNL A   1      45.164  30.385  31.194  1.00  0.00     0.029 A 
ATOM     62  C   UNL A   1      44.970  29.158  30.560  1.00  0.00     0.049 A 
ATOM     63  H   UNL A   1      44.520  27.320  31.451  1.00  0.00     0.167 HD
ATOM     64  C   UNL A   1      44.616  27.495  28.771  1.00  0.00     0.074 A 
ATOM     65  C   UNL A   1      44.711  26.248  29.517  1.00  0.00     0.031 C 
ATOM     66  C   UNL A   1      44.844  28.778  29.166  1.00  0.00     0.031 A 
BRANCH  53  67
ATOM     67  C   UNL A   1      44.003  27.145  34.493  1.00  0.00    -0.014 A 
ATOM     68  C   UNL A   1      44.055  25.801  34.073  1.00  0.00     0.010 A 
ATOM     69  C   UNL A   1      44.718  27.470  35.667  1.00  0.00     0.010 A 
ATOM     70  C   UNL A   1      44.752  24.825  34.790  1.00  0.00     0.020 A 
ATOM     71  C   UNL A   1      45.452  26.505  36.376  1.00  0.00     0.020 A 
ATOM     72  C   UNL A   1      45.453  25.184  35.934  1.00  0.00     0.054 A 
BRANCH  72  73
ATOM     73  S   UNL A   1      46.410  23.906  36.787  1.00  0.00     0.124 S 
ATOM     74  O   UNL A   1      45.456  23.446  37.798  1.00  0.00    -0.237 OA
ATOM     75  O   UNL A   1      46.686  22.953  35.710  1.00  0.00    -0.237 OA
ATOM     76  O   UNL A   1      47.567  24.621  37.300  1.00  0.00    -0.744 OA
ENDBRANCH  72  73
ENDBRANCH  53  67
BRANCH  54  77
ATOM     77  C   UNL A   1      41.633  24.411  26.861  1.00  0.00    -0.014 A 
ATOM     78  C   UNL A   1      40.670  23.558  27.434  1.00  0.00     0.010 A 
ATOM     79  C   UNL A   1      42.552  23.855  25.949  1.00  0.00     0.010 A 
ATOM     80  C   UNL A   1      40.683  22.181  27.182  1.00  0.00     0.020 A 
ATOM     81  C   UNL A   1      42.568  22.475  25.689  1.00  0.00     0.020 A 
ATOM     82  C   UNL A   1      41.658  21.642  26.342  1.00  0.00     0.054 A 
BRANCH  82  83
ATOM     83  S   UNL A   1      41.771  19.834  26.200  1.00  0.00     0.124 S 
ATOM     84  O   UNL A   1      42.804  19.673  25.179  1.00  0.00    -0.237 OA
ATOM     85  O   UNL A   1      42.158  19.435  27.551  1.00  0.00    -0.237 OA
ATOM     86  O   UNL A   1      40.426  19.432  25.797  1.00  0.00    -0.744 OA
ENDBRANCH  82  83
ENDBRANCH  54  77
BRANCH  66  87
ATOM     87  C   UNL A   1      44.790  29.876  28.140  1.00  0.00    -0.014 A 
ATOM     88  C   UNL A   1      46.026  30.350  27.665  1.00  0.00     0.010 A 
ATOM     89  C   UNL A   1      43.613  30.521  27.720  1.00  0.00     0.010 A 
ATOM     90  C   UNL A   1      46.098  31.463  26.830  1.00  0.00     0.020 A 
ATOM     91  C   UNL A   1      43.677  31.629  26.858  1.00  0.00     0.020 A 
ATOM     92  C   UNL A   1      44.923  32.102  26.435  1.00  0.00     0.054 A 
BRANCH  92  93
ATOM     93  S   UNL A   1      45.081  33.579  25.397  1.00  0.00     0.124 S 
ATOM     94  O   UNL A   1      44.268  34.553  26.122  1.00  0.00    -0.237 OA
ATOM     95  O   UNL A   1      46.519  33.833  25.417  1.00  0.00    -0.237 OA
ATOM     96  O   UNL A   1      44.540  33.165  24.105  1.00  0.00    -0.744 OA
ENDBRANCH  92  93
ENDBRANCH  66  87
ENDBRANCH  40  41
ENDBRANCH  32  35
ENDBRANCH  30  31
ENDBRANCH   1  30
TORSDOF 15
ENDMDL
MODEL 3
REMARK VINA RESULT:     -13.3      1.646      2.583
REMARK SMILES Cc1ccc2c(c1)c(-c1ccnc3c(C)cccc13)c(C)n2CC(=O)NCCCNC(=O)c1ccc(-c2c3nc(c(-c4ccc(S(=O)(=O)[O-])cc4)c4ccc([nH]4)c(-c4ccc(S(=O)(=O)[O-])cc4)c4nc(c(-c5ccc(S(=O)(=O)[O-])cc5)c5ccc2[nH]5)C=C4)C=C3)cc1
REMARK SMILES IDX 28 1 27 2 26 3 24 4 25 5 23 7 22 8 1 9 2 10 3 11 7 12 4 13
REMARK SMILES IDX 6 14 5 15 8 16 20 17 21 18 9 19 10 20 19 21 11 22 13 23
REMARK SMILES IDX 18 24 12 25 14 26 17 27 15 28 16 29 29 30 30 31 31 32 32 34
REMARK SMILES IDX 33 35 34 36 92 37 35 38 91 39 36 40 37 41 38 42 85 43 39 44
REMARK SMILES IDX 90 45 84 46 86 47 40 48 89 49 83 50 82 51 41 53 71 54 52 55
REMARK SMILES IDX 70 56 53 57 56 58 69 59 87 60 54 61 55 62 68 64 88 65 57 66
REMARK SMILES IDX 42 67 43 68 51 69 44 70 50 71 45 72 46 73 47 74 48 75 49 76
REMARK SMILES IDX 72 77 73 78 81 79 74 80 80 81 75 82 76 83 77 84 78 85 79 86
REMARK SMILES IDX 58 87 59 88 67 89 60 90 66 91 61 92 62 93 63 94 64 95 65 96
REMARK H PARENT 26 6 30 33 86 52 56 63
REMARK Flexibility Score: inf
ROOT
ATOM      1  C   UNL A   1      38.118  21.309  25.280  1.00  0.00     0.042 C 
ENDROOT
BRANCH   1   2
ATOM      2  C   UNL A   1      36.637  21.660  25.424  1.00  0.00     0.117 C 
BRANCH   2   3
ATOM      3  N   UNL A   1      36.041  22.137  24.186  1.00  0.00    -0.354 N 
ATOM      4  C   UNL A   1      35.459  23.337  23.895  1.00  0.00     0.239 C 
ATOM      5  O   UNL A   1      35.068  23.514  22.737  1.00  0.00    -0.273 OA
ATOM      6  H   UNL A   1      36.058  21.493  23.442  1.00  0.00     0.163 HD
BRANCH   4   7
ATOM      7  C   UNL A   1      35.354  24.438  24.932  1.00  0.00     0.222 C 
BRANCH   7   8
ATOM      8  N   UNL A   1      34.005  24.969  25.078  1.00  0.00    -0.335 N 
ATOM      9  C   UNL A   1      29.274  22.818  27.296  1.00  0.00     0.044 C 
ATOM     10  C   UNL A   1      30.579  23.349  26.776  1.00  0.00    -0.050 A 
ATOM     11  C   UNL A   1      31.776  22.694  27.059  1.00  0.00     0.005 A 
ATOM     12  C   UNL A   1      30.597  24.532  26.022  1.00  0.00     0.014 A 
ATOM     13  C   UNL A   1      32.996  23.169  26.572  1.00  0.00     0.027 A 
ATOM     14  C   UNL A   1      31.816  25.031  25.519  1.00  0.00     0.008 A 
ATOM     15  C   UNL A   1      32.992  24.328  25.776  1.00  0.00     0.049 A 
ATOM     16  C   UNL A   1      32.166  26.175  24.746  1.00  0.00     0.011 A 
ATOM     17  C   UNL A   1      33.537  26.155  24.539  1.00  0.00     0.024 A 
ATOM     18  C   UNL A   1      34.400  27.147  23.832  1.00  0.00     0.065 C 
BRANCH  16  19
ATOM     19  C   UNL A   1      31.277  27.217  24.247  1.00  0.00    -0.005 A 
ATOM     20  C   UNL A   1      30.487  26.915  23.140  1.00  0.00     0.029 A 
ATOM     21  C   UNL A   1      31.247  28.517  24.811  1.00  0.00     0.008 A 
ATOM     22  C   UNL A   1      29.676  27.907  22.640  1.00  0.00     0.112 A 
ATOM     23  C   UNL A   1      30.379  29.464  24.219  1.00  0.00     0.074 A 
ATOM     24  C   UNL A   1      32.050  28.909  25.909  1.00  0.00     0.011 A 
ATOM     25  N   UNL A   1      29.599  29.148  23.163  1.00  0.00    -0.256 NA
ATOM     26  C   UNL A   1      30.348  30.765  24.747  1.00  0.00    -0.025 A 
ATOM     27  C   UNL A   1      32.007  30.200  26.420  1.00  0.00     0.001 A 
ATOM     28  C   UNL A   1      29.467  31.833  24.155  1.00  0.00     0.047 C 
ATOM     29  C   UNL A   1      31.159  31.126  25.839  1.00  0.00     0.005 A 
ENDBRANCH  16  19
ENDBRANCH   7   8
ENDBRANCH   4   7
ENDBRANCH   2   3
ENDBRANCH   1   2
BRANCH   1  30
ATOM     30  C   UNL A   1      39.038  22.072  26.236  1.00  0.00     0.118 C 
BRANCH  30  31
ATOM     31  N   UNL A   1      40.442  22.024  25.874  1.00  0.00    -0.352 N 
ATOM     32  C   UNL A   1      41.537  22.809  26.102  1.00  0.00     0.251 C 
ATOM     33  H   UNL A   1      40.659  21.233  25.330  1.00  0.00     0.163 HD
ATOM     34  O   UNL A   1      42.611  22.345  25.704  1.00  0.00    -0.269 OA
BRANCH  32  35
ATOM     35  C   UNL A   1      41.531  24.162  26.725  1.00  0.00     0.039 A 
ATOM     36  C   UNL A   1      42.000  24.478  27.999  1.00  0.00     0.014 A 
ATOM     37  C   UNL A   1      40.943  25.189  25.956  1.00  0.00     0.014 A 
ATOM     38  C   UNL A   1      41.803  25.758  28.520  1.00  0.00     0.010 A 
ATOM     39  C   UNL A   1      40.754  26.470  26.468  1.00  0.00     0.010 A 
ATOM     40  C   UNL A   1      41.145  26.744  27.771  1.00  0.00    -0.014 A 
BRANCH  40  41
ATOM     41  C   UNL A   1      40.983  28.069  28.371  1.00  0.00     0.031 A 
ATOM     42  C   UNL A   1      42.091  29.014  28.084  1.00  0.00     0.074 A 
ATOM     43  C   UNL A   1      39.915  28.481  29.085  1.00  0.00     0.049 A 
ATOM     44  N   UNL A   1      42.989  29.442  28.907  1.00  0.00    -0.248 NA
ATOM     45  C   UNL A   1      42.298  29.442  26.693  1.00  0.00     0.031 C 
ATOM     46  C   UNL A   1      38.617  27.814  29.228  1.00  0.00     0.029 A 
ATOM     47  N   UNL A   1      39.741  29.643  29.789  1.00  0.00    -0.354 N 
ATOM     48  C   UNL A   1      43.758  30.356  28.194  1.00  0.00     0.074 A 
ATOM     49  C   UNL A   1      43.390  30.201  26.810  1.00  0.00     0.031 C 
ATOM     50  C   UNL A   1      37.727  28.674  29.780  1.00  0.00     0.029 A 
ATOM     51  C   UNL A   1      38.434  29.874  30.194  1.00  0.00     0.049 A 
ATOM     52  H   UNL A   1      40.481  30.261  29.988  1.00  0.00     0.167 HD
ATOM     53  C   UNL A   1      44.468  31.329  28.829  1.00  0.00     0.031 A 
ATOM     54  C   UNL A   1      37.957  30.965  30.842  1.00  0.00     0.031 A 
ATOM     55  C   UNL A   1      44.553  31.089  30.244  1.00  0.00     0.049 A 
ATOM     56  C   UNL A   1      39.080  31.590  31.572  1.00  0.00     0.074 A 
ATOM     57  C   UNL A   1      45.320  30.320  31.090  1.00  0.00     0.029 A 
ATOM     58  N   UNL A   1      43.450  31.498  30.943  1.00  0.00    -0.354 N 
ATOM     59  N   UNL A   1      39.703  31.012  32.561  1.00  0.00    -0.248 NA
ATOM     60  C   UNL A   1      39.729  32.776  31.026  1.00  0.00     0.031 C 
ATOM     61  C   UNL A   1      44.543  30.136  32.272  1.00  0.00     0.029 A 
ATOM     62  C   UNL A   1      43.340  30.827  32.134  1.00  0.00     0.049 A 
ATOM     63  H   UNL A   1      42.816  32.186  30.632  1.00  0.00     0.167 HD
ATOM     64  C   UNL A   1      40.990  31.499  32.481  1.00  0.00     0.074 A 
ATOM     65  C   UNL A   1      40.907  32.690  31.647  1.00  0.00     0.031 C 
ATOM     66  C   UNL A   1      42.064  30.731  32.816  1.00  0.00     0.031 A 
BRANCH  53  67
ATOM     67  C   UNL A   1      44.729  32.705  28.261  1.00  0.00    -0.014 A 
ATOM     68  C   UNL A   1      43.708  33.647  28.025  1.00  0.00     0.010 A 
ATOM     69  C   UNL A   1      46.057  33.182  28.199  1.00  0.00     0.010 A 
ATOM     70  C   UNL A   1      43.984  34.982  27.718  1.00  0.00     0.020 A 
ATOM     71  C   UNL A   1      46.346  34.529  27.926  1.00  0.00     0.020 A 
ATOM     72  C   UNL A   1      45.303  35.418  27.677  1.00  0.00     0.054 A 
BRANCH  72  73
ATOM     73  S   UNL A   1      45.615  37.172  27.356  1.00  0.00     0.124 S 
ATOM     74  O   UNL A   1      46.250  37.594  28.605  1.00  0.00    -0.237 OA
ATOM     75  O   UNL A   1      46.501  37.121  26.192  1.00  0.00    -0.237 OA
ATOM     76  O   UNL A   1      44.292  37.721  27.109  1.00  0.00    -0.744 OA
ENDBRANCH  72  73
ENDBRANCH  53  67
BRANCH  54  77
ATOM     77  C   UNL A   1      36.683  31.691  30.621  1.00  0.00    -0.014 A 
ATOM     78  C   UNL A   1      36.168  31.791  29.314  1.00  0.00     0.010 A 
ATOM     79  C   UNL A   1      36.175  32.565  31.602  1.00  0.00     0.010 A 
ATOM     80  C   UNL A   1      35.251  32.792  28.974  1.00  0.00     0.020 A 
ATOM     81  C   UNL A   1      35.252  33.569  31.268  1.00  0.00     0.020 A 
ATOM     82  C   UNL A   1      34.828  33.701  29.945  1.00  0.00     0.054 A 
BRANCH  82  83
ATOM     83  S   UNL A   1      33.800  35.106  29.424  1.00  0.00     0.124 S 
ATOM     84  O   UNL A   1      34.591  35.674  28.335  1.00  0.00    -0.237 OA
ATOM     85  O   UNL A   1      32.556  34.453  29.021  1.00  0.00    -0.237 OA
ATOM     86  O   UNL A   1      33.705  35.931  30.624  1.00  0.00    -0.744 OA
ENDBRANCH  82  83
ENDBRANCH  54  77
BRANCH  66  87
ATOM     87  C   UNL A   1      41.879  29.616  33.808  1.00  0.00    -0.014 A 
ATOM     88  C   UNL A   1      42.296  29.876  35.126  1.00  0.00     0.010 A 
ATOM     89  C   UNL A   1      41.432  28.322  33.484  1.00  0.00     0.010 A 
ATOM     90  C   UNL A   1      42.312  28.869  36.089  1.00  0.00     0.020 A 
ATOM     91  C   UNL A   1      41.422  27.308  34.457  1.00  0.00     0.020 A 
ATOM     92  C   UNL A   1      41.881  27.587  35.748  1.00  0.00     0.054 A 
BRANCH  92  93
ATOM     93  S   UNL A   1      41.980  26.304  37.023  1.00  0.00     0.124 S 
ATOM     94  O   UNL A   1      40.604  26.250  37.513  1.00  0.00    -0.237 OA
ATOM     95  O   UNL A   1      42.417  25.133  36.268  1.00  0.00    -0.237 OA
ATOM     96  O   UNL A   1      42.954  26.827  37.979  1.00  0.00    -0.744 OA
ENDBRANCH  92  93
ENDBRANCH  66  87
ENDBRANCH  40  41
ENDBRANCH  32  35
ENDBRANCH  30  31
ENDBRANCH   1  30
TORSDOF 15
ENDMDL
