MODEL 1
REMARK VINA RESULT:     -12.9      0.000      0.000
REMARK SMILES Cc1cc(C)cc(Oc2nc3ccccn3c(=O)c2/C=C2\SC(=S)N(CCC(=O)NCCCNC(=O)c3ccc(-c4c5nc(c(-c6ccc(S(=O)(=O)[O-])cc6)c6ccc([nH]6)c(-c6ccc(S(=O)(=O)[O-])cc6)c6nc(c(-c7ccc(S(=O)(=O)[O-])cc7)c7ccc4[nH]7)C=C6)C=C5)cc3)C2=O)c1
REMARK SMILES IDX 31 1 30 2 28 3 29 4 27 6 26 7 25 8 20 9 21 10 22 11 97 12
REMARK SMILES IDX 23 13 98 14 24 15 19 16 9 17 10 18 11 19 17 20 12 21 16 22
REMARK SMILES IDX 18 23 13 24 15 25 14 26 8 27 7 28 1 29 2 30 3 31 99 32 4 33
REMARK SMILES IDX 5 34 6 35 32 36 33 37 34 38 35 39 36 41 37 42 38 43 96 44
REMARK SMILES IDX 39 45 95 46 40 47 41 48 42 49 89 50 43 51 94 52 88 53 90 54
REMARK SMILES IDX 44 55 93 56 87 57 86 58 45 60 75 61 56 62 74 63 57 64 60 65
REMARK SMILES IDX 73 66 91 67 58 68 59 69 72 71 92 72 61 73 46 74 47 75 55 76
REMARK SMILES IDX 48 77 54 78 49 79 50 80 51 81 52 82 53 83 76 84 77 85 85 86
REMARK SMILES IDX 78 87 84 88 79 89 80 90 81 91 82 92 83 93 62 94 63 95 71 96
REMARK SMILES IDX 64 97 70 98 65 99 66 100 67 101 68 102 69 103
REMARK H PARENT 30 5 34 40 90 59 60 70
REMARK Flexibility Score: inf
ROOT
ATOM      1  C   UNL A   1      33.262  30.388  26.113  1.00  0.00     0.117 C 
ENDROOT
BRANCH   1   2
ATOM      2  N   UNL A   1      31.931  30.218  25.550  1.00  0.00    -0.356 N 
ATOM      3  C   UNL A   1      31.489  29.467  24.501  1.00  0.00     0.221 C 
ATOM      4  O   UNL A   1      30.309  29.583  24.166  1.00  0.00    -0.275 OA
ATOM      5  H   UNL A   1      31.228  30.736  26.004  1.00  0.00     0.163 HD
BRANCH   3   6
ATOM      6  C   UNL A   1      32.390  28.482  23.781  1.00  0.00     0.122 C 
BRANCH   6   7
ATOM      7  C   UNL A   1      31.730  27.881  22.531  1.00  0.00     0.137 C 
BRANCH   7   8
ATOM      8  N   UNL A   1      31.476  26.445  22.698  1.00  0.00    -0.292 N 
ATOM      9  C   UNL A   1      33.173  23.340  23.073  1.00  0.00     0.041 C 
ATOM     10  C   UNL A   1      32.179  24.222  22.887  1.00  0.00     0.081 C 
ATOM     11  S   UNL A   1      30.568  24.157  23.467  1.00  0.00    -0.054 SA
ATOM     12  C   UNL A   1      32.413  25.539  22.243  1.00  0.00     0.266 C 
ATOM     13  C   UNL A   1      30.357  25.899  23.294  1.00  0.00     0.148 C 
ATOM     14  O   UNL A   1      33.327  25.775  21.465  1.00  0.00    -0.268 OA
ATOM     15  S   UNL A   1      29.000  26.691  23.851  1.00  0.00    -0.052 S 
BRANCH   9  16
ATOM     16  C   UNL A   1      33.091  22.036  23.712  1.00  0.00     0.104 A 
ATOM     17  C   UNL A   1      33.608  21.687  24.912  1.00  0.00     0.234 A 
ATOM     18  N   UNL A   1      33.726  20.383  25.327  1.00  0.00    -0.194 NA
ATOM     19  C   UNL A   1      33.349  19.440  24.525  1.00  0.00     0.143 A 
ATOM     20  C   UNL A   1      32.498  20.948  22.881  1.00  0.00     0.269 A 
ATOM     21  C   UNL A   1      33.648  18.024  24.882  1.00  0.00     0.048 A 
ATOM     22  N   UNL A   1      32.700  19.657  23.325  1.00  0.00    -0.267 N 
ATOM     23  O   UNL A   1      31.937  21.235  21.822  1.00  0.00    -0.268 OA
ATOM     24  C   UNL A   1      33.288  17.038  24.051  1.00  0.00     0.005 A 
ATOM     25  C   UNL A   1      32.272  18.598  22.537  1.00  0.00     0.096 A 
ATOM     26  C   UNL A   1      32.553  17.329  22.850  1.00  0.00     0.019 A 
BRANCH  17  27
ATOM     27  O   UNL A   1      34.335  22.579  25.700  1.00  0.00    -0.438 OA
BRANCH  27  28
ATOM     28  C   UNL A   1      35.695  22.465  25.882  1.00  0.00     0.130 A 
ATOM     29  C   UNL A   1      38.817  24.530  26.487  1.00  0.00     0.044 C 
ATOM     30  C   UNL A   1      37.920  23.367  26.190  1.00  0.00    -0.047 A 
ATOM     31  C   UNL A   1      38.471  22.170  25.714  1.00  0.00     0.007 A 
ATOM     32  C   UNL A   1      36.529  23.491  26.309  1.00  0.00     0.050 A 
ATOM     33  C   UNL A   1      37.649  21.096  25.356  1.00  0.00    -0.047 A 
ATOM     34  C   UNL A   1      38.263  19.835  24.823  1.00  0.00     0.044 C 
ATOM     35  C   UNL A   1      36.259  21.254  25.449  1.00  0.00     0.050 A 
ENDBRANCH  27  28
ENDBRANCH  17  27
ENDBRANCH   9  16
ENDBRANCH   7   8
ENDBRANCH   6   7
ENDBRANCH   3   6
ENDBRANCH   1   2
BRANCH   1  36
ATOM     36  C   UNL A   1      33.594  29.283  27.112  1.00  0.00     0.042 C 
BRANCH  36  37
ATOM     37  C   UNL A   1      35.056  29.012  27.447  1.00  0.00     0.118 C 
BRANCH  37  38
ATOM     38  N   UNL A   1      35.452  29.508  28.757  1.00  0.00    -0.352 N 
ATOM     39  C   UNL A   1      36.633  29.571  29.463  1.00  0.00     0.251 C 
ATOM     40  H   UNL A   1      34.696  29.888  29.258  1.00  0.00     0.163 HD
ATOM     41  O   UNL A   1      36.545  30.001  30.618  1.00  0.00    -0.269 OA
BRANCH  39  42
ATOM     42  C   UNL A   1      37.984  29.159  28.966  1.00  0.00     0.039 A 
ATOM     43  C   UNL A   1      38.823  28.474  29.871  1.00  0.00     0.014 A 
ATOM     44  C   UNL A   1      38.526  29.518  27.732  1.00  0.00     0.014 A 
ATOM     45  C   UNL A   1      40.153  28.149  29.550  1.00  0.00     0.010 A 
ATOM     46  C   UNL A   1      39.852  29.177  27.398  1.00  0.00     0.010 A 
ATOM     47  C   UNL A   1      40.688  28.514  28.311  1.00  0.00    -0.014 A 
BRANCH  47  48
ATOM     48  C   UNL A   1      42.144  28.350  28.022  1.00  0.00     0.031 A 
ATOM     49  C   UNL A   1      43.081  29.490  28.311  1.00  0.00     0.074 A 
ATOM     50  C   UNL A   1      42.637  27.218  27.481  1.00  0.00     0.049 A 
ATOM     51  N   UNL A   1      44.363  29.587  28.070  1.00  0.00    -0.248 NA
ATOM     52  C   UNL A   1      42.492  30.690  28.926  1.00  0.00     0.031 C 
ATOM     53  C   UNL A   1      41.835  26.057  27.119  1.00  0.00     0.029 A 
ATOM     54  N   UNL A   1      43.918  26.853  27.133  1.00  0.00    -0.354 N 
ATOM     55  C   UNL A   1      44.725  30.874  28.451  1.00  0.00     0.074 A 
ATOM     56  C   UNL A   1      43.529  31.516  28.952  1.00  0.00     0.031 C 
ATOM     57  C   UNL A   1      42.639  25.093  26.638  1.00  0.00     0.029 A 
ATOM     58  C   UNL A   1      44.013  25.583  26.604  1.00  0.00     0.049 A 
ATOM     59  H   UNL A   1      44.696  27.444  27.250  1.00  0.00     0.167 HD
ATOM     60  C   UNL A   1      45.936  31.472  28.367  1.00  0.00     0.031 A 
ATOM     61  C   UNL A   1      45.072  24.898  26.119  1.00  0.00     0.031 A 
ATOM     62  C   UNL A   1      47.125  30.832  27.867  1.00  0.00     0.049 A 
ATOM     63  C   UNL A   1      46.414  25.588  26.057  1.00  0.00     0.074 A 
ATOM     64  C   UNL A   1      48.404  31.354  27.779  1.00  0.00     0.029 A 
ATOM     65  N   UNL A   1      47.183  29.544  27.361  1.00  0.00    -0.354 N 
ATOM     66  N   UNL A   1      46.742  26.789  26.471  1.00  0.00    -0.248 NA
ATOM     67  C   UNL A   1      47.522  24.843  25.439  1.00  0.00     0.031 C 
ATOM     68  C   UNL A   1      49.222  30.404  27.161  1.00  0.00     0.029 A 
ATOM     69  C   UNL A   1      48.470  29.264  26.931  1.00  0.00     0.049 A 
ATOM     70  H   UNL A   1      46.423  28.920  27.314  1.00  0.00     0.167 HD
ATOM     71  C   UNL A   1      48.093  26.937  26.170  1.00  0.00     0.074 A 
ATOM     72  C   UNL A   1      48.531  25.692  25.577  1.00  0.00     0.031 C 
ATOM     73  C   UNL A   1      48.895  28.016  26.352  1.00  0.00     0.031 A 
BRANCH  60  74
ATOM     74  C   UNL A   1      46.033  32.918  28.775  1.00  0.00    -0.014 A 
ATOM     75  C   UNL A   1      45.908  33.957  27.837  1.00  0.00     0.010 A 
ATOM     76  C   UNL A   1      46.184  33.237  30.138  1.00  0.00     0.010 A 
ATOM     77  C   UNL A   1      45.952  35.290  28.254  1.00  0.00     0.020 A 
ATOM     78  C   UNL A   1      46.201  34.567  30.561  1.00  0.00     0.020 A 
ATOM     79  C   UNL A   1      46.093  35.586  29.614  1.00  0.00     0.054 A 
BRANCH  79  80
ATOM     80  S   UNL A   1      46.087  37.325  30.131  1.00  0.00     0.124 S 
ATOM     81  O   UNL A   1      45.672  37.224  31.528  1.00  0.00    -0.237 OA
ATOM     82  O   UNL A   1      47.475  37.727  29.915  1.00  0.00    -0.237 OA
ATOM     83  O   UNL A   1      45.115  37.951  29.238  1.00  0.00    -0.744 OA
ENDBRANCH  79  80
ENDBRANCH  60  74
BRANCH  61  84
ATOM     84  C   UNL A   1      44.928  23.500  25.607  1.00  0.00    -0.014 A 
ATOM     85  C   UNL A   1      45.142  22.397  26.457  1.00  0.00     0.010 A 
ATOM     86  C   UNL A   1      44.631  23.256  24.252  1.00  0.00     0.010 A 
ATOM     87  C   UNL A   1      45.105  21.089  25.956  1.00  0.00     0.020 A 
ATOM     88  C   UNL A   1      44.551  21.951  23.757  1.00  0.00     0.020 A 
ATOM     89  C   UNL A   1      44.811  20.875  24.606  1.00  0.00     0.054 A 
BRANCH  89  90
ATOM     90  S   UNL A   1      44.755  19.173  23.978  1.00  0.00     0.124 S 
ATOM     91  O   UNL A   1      43.633  18.611  24.724  1.00  0.00    -0.237 OA
ATOM     92  O   UNL A   1      44.531  19.371  22.549  1.00  0.00    -0.237 OA
ATOM     93  O   UNL A   1      46.069  18.638  24.327  1.00  0.00    -0.744 OA
ENDBRANCH  89  90
ENDBRANCH  61  84
BRANCH  73  94
ATOM     94  C   UNL A   1      50.339  27.887  25.943  1.00  0.00    -0.014 A 
ATOM     95  C   UNL A   1      50.768  28.235  24.650  1.00  0.00     0.010 A 
ATOM     96  C   UNL A   1      51.291  27.468  26.891  1.00  0.00     0.010 A 
ATOM     97  C   UNL A   1      52.119  28.135  24.303  1.00  0.00     0.020 A 
ATOM     98  C   UNL A   1      52.645  27.397  26.557  1.00  0.00     0.020 A 
ATOM     99  C   UNL A   1      53.049  27.717  25.260  1.00  0.00     0.054 A 
BRANCH  99 100
ATOM    100  S   UNL A   1      54.801  27.639  24.800  1.00  0.00     0.124 S 
ATOM    101  O   UNL A   1      54.882  26.344  24.130  1.00  0.00    -0.237 OA
ATOM    102  O   UNL A   1      54.957  28.806  23.935  1.00  0.00    -0.237 OA
ATOM    103  O   UNL A   1      55.501  27.722  26.080  1.00  0.00    -0.744 OA
ENDBRANCH  99 100
ENDBRANCH  73  94
ENDBRANCH  47  48
ENDBRANCH  39  42
ENDBRANCH  37  38
ENDBRANCH  36  37
ENDBRANCH   1  36
TORSDOF 18
ENDMDL
MODEL 2
REMARK VINA RESULT:     -12.7      0.423      7.672
REMARK SMILES Cc1cc(C)cc(Oc2nc3ccccn3c(=O)c2/C=C2\SC(=S)N(CCC(=O)NCCCNC(=O)c3ccc(-c4c5nc(c(-c6ccc(S(=O)(=O)[O-])cc6)c6ccc([nH]6)c(-c6ccc(S(=O)(=O)[O-])cc6)c6nc(c(-c7ccc(S(=O)(=O)[O-])cc7)c7ccc4[nH]7)C=C6)C=C5)cc3)C2=O)c1
REMARK SMILES IDX 31 1 30 2 28 3 29 4 27 6 26 7 25 8 20 9 21 10 22 11 97 12
REMARK SMILES IDX 23 13 98 14 24 15 19 16 9 17 10 18 11 19 17 20 12 21 16 22
REMARK SMILES IDX 18 23 13 24 15 25 14 26 8 27 7 28 1 29 2 30 3 31 99 32 4 33
REMARK SMILES IDX 5 34 6 35 32 36 33 37 34 38 35 39 36 41 37 42 38 43 96 44
REMARK SMILES IDX 39 45 95 46 40 47 41 48 42 49 89 50 43 51 94 52 88 53 90 54
REMARK SMILES IDX 44 55 93 56 87 57 86 58 45 60 75 61 56 62 74 63 57 64 60 65
REMARK SMILES IDX 73 66 91 67 58 68 59 69 72 71 92 72 61 73 46 74 47 75 55 76
REMARK SMILES IDX 48 77 54 78 49 79 50 80 51 81 52 82 53 83 76 84 77 85 85 86
REMARK SMILES IDX 78 87 84 88 79 89 80 90 81 91 82 92 83 93 62 94 63 95 71 96
REMARK SMILES IDX 64 97 70 98 65 99 66 100 67 101 68 102 69 103
REMARK H PARENT 30 5 34 40 90 59 60 70
REMARK Flexibility Score: inf
ROOT
ATOM      1  C   UNL A   1      33.317  30.449  26.155  1.00  0.00     0.117 C 
ENDROOT
BRANCH   1   2
ATOM      2  N   UNL A   1      31.988  30.274  25.588  1.00  0.00    -0.356 N 
ATOM      3  C   UNL A   1      31.545  29.489  24.566  1.00  0.00     0.221 C 
ATOM      4  O   UNL A   1      30.368  29.606  24.218  1.00  0.00    -0.275 OA
ATOM      5  H   UNL A   1      31.288  30.817  26.018  1.00  0.00     0.163 HD
BRANCH   3   6
ATOM      6  C   UNL A   1      32.439  28.466  23.891  1.00  0.00     0.122 C 
BRANCH   6   7
ATOM      7  C   UNL A   1      31.801  27.864  22.630  1.00  0.00     0.137 C 
BRANCH   7   8
ATOM      8  N   UNL A   1      31.585  26.419  22.778  1.00  0.00    -0.292 N 
ATOM      9  C   UNL A   1      33.360  23.362  23.181  1.00  0.00     0.041 C 
ATOM     10  C   UNL A   1      32.347  24.216  22.972  1.00  0.00     0.081 C 
ATOM     11  S   UNL A   1      30.722  24.099  23.502  1.00  0.00    -0.054 SA
ATOM     12  C   UNL A   1      32.562  25.544  22.345  1.00  0.00     0.266 C 
ATOM     13  C   UNL A   1      30.466  25.835  23.336  1.00  0.00     0.148 C 
ATOM     14  O   UNL A   1      33.491  25.814  21.597  1.00  0.00    -0.268 OA
ATOM     15  S   UNL A   1      29.069  26.583  23.857  1.00  0.00    -0.052 S 
BRANCH   9  16
ATOM     16  C   UNL A   1      33.297  22.050  23.806  1.00  0.00     0.104 A 
ATOM     17  C   UNL A   1      33.899  21.671  24.957  1.00  0.00     0.234 A 
ATOM     18  N   UNL A   1      34.018  20.359  25.344  1.00  0.00    -0.194 NA
ATOM     19  C   UNL A   1      33.557  19.437  24.562  1.00  0.00     0.143 A 
ATOM     20  C   UNL A   1      32.617  20.988  23.010  1.00  0.00     0.269 A 
ATOM     21  C   UNL A   1      33.850  18.009  24.875  1.00  0.00     0.048 A 
ATOM     22  N   UNL A   1      32.822  19.687  23.420  1.00  0.00    -0.267 N 
ATOM     23  O   UNL A   1      31.981  21.305  22.002  1.00  0.00    -0.268 OA
ATOM     24  C   UNL A   1      33.402  17.044  24.062  1.00  0.00     0.005 A 
ATOM     25  C   UNL A   1      32.309  18.650  22.654  1.00  0.00     0.096 A 
ATOM     26  C   UNL A   1      32.582  17.370  22.927  1.00  0.00     0.019 A 
BRANCH  17  27
ATOM     27  O   UNL A   1      34.706  22.535  25.697  1.00  0.00    -0.438 OA
BRANCH  27  28
ATOM     28  C   UNL A   1      36.081  22.493  25.639  1.00  0.00     0.130 A 
ATOM     29  C   UNL A   1      38.994  20.083  25.346  1.00  0.00     0.044 C 
ATOM     30  C   UNL A   1      38.209  21.345  25.547  1.00  0.00    -0.047 A 
ATOM     31  C   UNL A   1      38.846  22.483  26.059  1.00  0.00     0.007 A 
ATOM     32  C   UNL A   1      36.829  21.373  25.302  1.00  0.00     0.050 A 
ATOM     33  C   UNL A   1      38.121  23.649  26.327  1.00  0.00    -0.047 A 
ATOM     34  C   UNL A   1      38.823  24.844  26.901  1.00  0.00     0.044 C 
ATOM     35  C   UNL A   1      36.736  23.643  26.110  1.00  0.00     0.050 A 
ENDBRANCH  27  28
ENDBRANCH  17  27
ENDBRANCH   9  16
ENDBRANCH   7   8
ENDBRANCH   6   7
ENDBRANCH   3   6
ENDBRANCH   1   2
BRANCH   1  36
ATOM     36  C   UNL A   1      33.668  29.324  27.123  1.00  0.00     0.042 C 
BRANCH  36  37
ATOM     37  C   UNL A   1      35.137  29.040  27.417  1.00  0.00     0.118 C 
BRANCH  37  38
ATOM     38  N   UNL A   1      35.518  29.326  28.793  1.00  0.00    -0.352 N 
ATOM     39  C   UNL A   1      36.699  29.322  29.501  1.00  0.00     0.251 C 
ATOM     40  H   UNL A   1      34.748  29.584  29.349  1.00  0.00     0.163 HD
ATOM     41  O   UNL A   1      36.598  29.548  30.711  1.00  0.00    -0.269 OA
BRANCH  39  42
ATOM     42  C   UNL A   1      38.064  29.058  28.945  1.00  0.00     0.039 A 
ATOM     43  C   UNL A   1      39.012  28.474  29.812  1.00  0.00     0.014 A 
ATOM     44  C   UNL A   1      38.507  29.468  27.688  1.00  0.00     0.014 A 
ATOM     45  C   UNL A   1      40.354  28.295  29.432  1.00  0.00     0.010 A 
ATOM     46  C   UNL A   1      39.847  29.273  27.296  1.00  0.00     0.010 A 
ATOM     47  C   UNL A   1      40.791  28.710  28.171  1.00  0.00    -0.014 A 
BRANCH  47  48
ATOM     48  C   UNL A   1      42.241  28.705  27.817  1.00  0.00     0.031 A 
ATOM     49  C   UNL A   1      42.833  27.481  27.173  1.00  0.00     0.074 A 
ATOM     50  C   UNL A   1      43.042  29.756  28.085  1.00  0.00     0.049 A 
ATOM     51  N   UNL A   1      44.078  27.237  26.852  1.00  0.00    -0.248 NA
ATOM     52  C   UNL A   1      41.907  26.376  26.878  1.00  0.00     0.031 C 
ATOM     53  C   UNL A   1      42.605  30.982  28.738  1.00  0.00     0.029 A 
ATOM     54  N   UNL A   1      44.383  29.966  27.856  1.00  0.00    -0.354 N 
ATOM     55  C   UNL A   1      44.095  25.933  26.369  1.00  0.00     0.074 A 
ATOM     56  C   UNL A   1      42.735  25.444  26.427  1.00  0.00     0.031 C 
ATOM     57  C   UNL A   1      43.641  31.834  28.823  1.00  0.00     0.029 A 
ATOM     58  C   UNL A   1      44.836  31.198  28.281  1.00  0.00     0.049 A 
ATOM     59  H   UNL A   1      44.966  29.298  27.429  1.00  0.00     0.167 HD
ATOM     60  C   UNL A   1      45.153  25.205  25.941  1.00  0.00     0.031 A 
ATOM     61  C   UNL A   1      46.072  31.744  28.265  1.00  0.00     0.031 A 
ATOM     62  C   UNL A   1      46.506  25.692  25.886  1.00  0.00     0.049 A 
ATOM     63  C   UNL A   1      47.227  30.911  27.764  1.00  0.00     0.074 A 
ATOM     64  C   UNL A   1      47.635  25.032  25.432  1.00  0.00     0.029 A 
ATOM     65  N   UNL A   1      46.919  26.947  26.305  1.00  0.00    -0.354 N 
ATOM     66  N   UNL A   1      47.210  29.698  27.265  1.00  0.00    -0.248 NA
ATOM     67  C   UNL A   1      48.569  31.508  27.848  1.00  0.00     0.031 C 
ATOM     68  C   UNL A   1      48.740  25.864  25.636  1.00  0.00     0.029 A 
ATOM     69  C   UNL A   1      48.289  27.069  26.149  1.00  0.00     0.049 A 
ATOM     70  H   UNL A   1      46.325  27.647  26.660  1.00  0.00     0.167 HD
ATOM     71  C   UNL A   1      48.536  29.393  26.969  1.00  0.00     0.074 A 
ATOM     72  C   UNL A   1      49.322  30.560  27.307  1.00  0.00     0.031 C 
ATOM     73  C   UNL A   1      49.058  28.241  26.479  1.00  0.00     0.031 A 
BRANCH  60  74
ATOM     74  C   UNL A   1      44.904  23.773  25.548  1.00  0.00    -0.014 A 
ATOM     75  C   UNL A   1      44.751  23.394  24.204  1.00  0.00     0.010 A 
ATOM     76  C   UNL A   1      44.893  22.781  26.548  1.00  0.00     0.010 A 
ATOM     77  C   UNL A   1      44.572  22.049  23.868  1.00  0.00     0.020 A 
ATOM     78  C   UNL A   1      44.742  21.433  26.213  1.00  0.00     0.020 A 
ATOM     79  C   UNL A   1      44.574  21.078  24.874  1.00  0.00     0.054 A 
BRANCH  79  80
ATOM     80  S   UNL A   1      44.400  19.334  24.401  1.00  0.00     0.124 S 
ATOM     81  O   UNL A   1      43.058  19.022  24.887  1.00  0.00    -0.237 OA
ATOM     82  O   UNL A   1      44.546  19.383  22.948  1.00  0.00    -0.237 OA
ATOM     83  O   UNL A   1      45.489  18.670  25.112  1.00  0.00    -0.744 OA
ENDBRANCH  79  80
ENDBRANCH  60  74
BRANCH  61  84
ATOM     84  C   UNL A   1      46.317  33.130  28.774  1.00  0.00    -0.014 A 
ATOM     85  C   UNL A   1      46.600  33.357  30.135  1.00  0.00     0.010 A 
ATOM     86  C   UNL A   1      46.214  34.241  27.915  1.00  0.00     0.010 A 
ATOM     87  C   UNL A   1      46.733  34.660  30.632  1.00  0.00     0.020 A 
ATOM     88  C   UNL A   1      46.387  35.541  28.399  1.00  0.00     0.020 A 
ATOM     89  C   UNL A   1      46.623  35.745  29.758  1.00  0.00     0.054 A 
BRANCH  89  90
ATOM     90  S   UNL A   1      46.809  37.426  30.418  1.00  0.00     0.124 S 
ATOM     91  O   UNL A   1      45.761  38.150  29.706  1.00  0.00    -0.237 OA
ATOM     92  O   UNL A   1      46.585  37.231  31.848  1.00  0.00    -0.237 OA
ATOM     93  O   UNL A   1      48.178  37.785  30.054  1.00  0.00    -0.744 OA
ENDBRANCH  89  90
ENDBRANCH  61  84
BRANCH  73  94
ATOM     94  C   UNL A   1      50.544  28.197  26.239  1.00  0.00    -0.014 A 
ATOM     95  C   UNL A   1      51.433  27.737  27.228  1.00  0.00     0.010 A 
ATOM     96  C   UNL A   1      51.053  28.564  24.979  1.00  0.00     0.010 A 
ATOM     97  C   UNL A   1      52.806  27.678  26.971  1.00  0.00     0.020 A 
ATOM     98  C   UNL A   1      52.420  28.476  24.709  1.00  0.00     0.020 A 
ATOM     99  C   UNL A   1      53.290  28.047  25.712  1.00  0.00     0.054 A 
BRANCH  99 100
ATOM    100  S   UNL A   1      55.069  27.917  25.388  1.00  0.00     0.124 S 
ATOM    101  O   UNL A   1      55.157  26.647  24.672  1.00  0.00    -0.237 OA
ATOM    102  O   UNL A   1      55.337  29.110  24.588  1.00  0.00    -0.237 OA
ATOM    103  O   UNL A   1      55.667  27.921  26.721  1.00  0.00    -0.744 OA
ENDBRANCH  99 100
ENDBRANCH  73  94
ENDBRANCH  47  48
ENDBRANCH  39  42
ENDBRANCH  37  38
ENDBRANCH  36  37
ENDBRANCH   1  36
TORSDOF 18
ENDMDL
MODEL 3
REMARK VINA RESULT:     -12.2      2.960      8.444
REMARK SMILES Cc1cc(C)cc(Oc2nc3ccccn3c(=O)c2/C=C2\SC(=S)N(CCC(=O)NCCCNC(=O)c3ccc(-c4c5nc(c(-c6ccc(S(=O)(=O)[O-])cc6)c6ccc([nH]6)c(-c6ccc(S(=O)(=O)[O-])cc6)c6nc(c(-c7ccc(S(=O)(=O)[O-])cc7)c7ccc4[nH]7)C=C6)C=C5)cc3)C2=O)c1
REMARK SMILES IDX 31 1 30 2 28 3 29 4 27 6 26 7 25 8 20 9 21 10 22 11 97 12
REMARK SMILES IDX 23 13 98 14 24 15 19 16 9 17 10 18 11 19 17 20 12 21 16 22
REMARK SMILES IDX 18 23 13 24 15 25 14 26 8 27 7 28 1 29 2 30 3 31 99 32 4 33
REMARK SMILES IDX 5 34 6 35 32 36 33 37 34 38 35 39 36 41 37 42 38 43 96 44
REMARK SMILES IDX 39 45 95 46 40 47 41 48 42 49 89 50 43 51 94 52 88 53 90 54
REMARK SMILES IDX 44 55 93 56 87 57 86 58 45 60 75 61 56 62 74 63 57 64 60 65
REMARK SMILES IDX 73 66 91 67 58 68 59 69 72 71 92 72 61 73 46 74 47 75 55 76
REMARK SMILES IDX 48 77 54 78 49 79 50 80 51 81 52 82 53 83 76 84 77 85 85 86
REMARK SMILES IDX 78 87 84 88 79 89 80 90 81 91 82 92 83 93 62 94 63 95 71 96
REMARK SMILES IDX 64 97 70 98 65 99 66 100 67 101 68 102 69 103
REMARK H PARENT 30 5 34 40 90 59 60 70
REMARK Flexibility Score: inf
ROOT
ATOM      1  C   UNL A   1      35.133  24.019  25.702  1.00  0.00     0.117 C 
ENDROOT
BRANCH   1   2
ATOM      2  N   UNL A   1      34.391  23.624  26.891  1.00  0.00    -0.356 N 
ATOM      3  C   UNL A   1      33.597  22.543  27.136  1.00  0.00     0.221 C 
ATOM      4  O   UNL A   1      32.997  22.500  28.212  1.00  0.00    -0.275 OA
ATOM      5  H   UNL A   1      34.476  24.247  27.649  1.00  0.00     0.163 HD
BRANCH   3   6
ATOM      6  C   UNL A   1      33.474  21.396  26.151  1.00  0.00     0.122 C 
BRANCH   6   7
ATOM      7  C   UNL A   1      32.021  21.136  25.726  1.00  0.00     0.137 C 
BRANCH   7   8
ATOM      8  N   UNL A   1      31.486  22.251  24.935  1.00  0.00    -0.292 N 
ATOM      9  C   UNL A   1      30.459  25.644  25.241  1.00  0.00     0.041 C 
ATOM     10  C   UNL A   1      30.654  24.427  24.713  1.00  0.00     0.081 C 
ATOM     11  S   UNL A   1      31.055  24.011  23.100  1.00  0.00    -0.054 SA
ATOM     12  C   UNL A   1      30.710  23.207  25.559  1.00  0.00     0.266 C 
ATOM     13  C   UNL A   1      31.702  22.445  23.586  1.00  0.00     0.148 C 
ATOM     14  O   UNL A   1      30.179  23.103  26.656  1.00  0.00    -0.268 OA
ATOM     15  S   UNL A   1      32.494  21.439  22.517  1.00  0.00    -0.052 S 
BRANCH   9  16
ATOM     16  C   UNL A   1      30.411  26.916  24.538  1.00  0.00     0.104 A 
ATOM     17  C   UNL A   1      31.337  27.901  24.582  1.00  0.00     0.234 A 
ATOM     18  N   UNL A   1      31.104  29.171  24.114  1.00  0.00    -0.194 NA
ATOM     19  C   UNL A   1      29.936  29.449  23.631  1.00  0.00     0.143 A 
ATOM     20  C   UNL A   1      29.138  27.207  23.817  1.00  0.00     0.269 A 
ATOM     21  C   UNL A   1      29.608  30.866  23.300  1.00  0.00     0.048 A 
ATOM     22  N   UNL A   1      28.941  28.514  23.422  1.00  0.00    -0.267 N 
ATOM     23  O   UNL A   1      28.306  26.309  23.677  1.00  0.00    -0.268 OA
ATOM     24  C   UNL A   1      28.395  31.174  22.824  1.00  0.00     0.005 A 
ATOM     25  C   UNL A   1      27.729  28.870  22.848  1.00  0.00     0.096 A 
ATOM     26  C   UNL A   1      27.430  30.142  22.564  1.00  0.00     0.019 A 
BRANCH  17  27
ATOM     27  O   UNL A   1      32.488  27.810  25.364  1.00  0.00    -0.438 OA
BRANCH  27  28
ATOM     28  C   UNL A   1      32.889  28.821  26.209  1.00  0.00     0.130 A 
ATOM     29  C   UNL A   1      32.034  32.362  27.259  1.00  0.00     0.044 C 
ATOM     30  C   UNL A   1      32.763  31.061  27.116  1.00  0.00    -0.047 A 
ATOM     31  C   UNL A   1      34.091  30.958  27.553  1.00  0.00     0.007 A 
ATOM     32  C   UNL A   1      32.157  29.969  26.479  1.00  0.00     0.050 A 
ATOM     33  C   UNL A   1      34.818  29.778  27.362  1.00  0.00    -0.047 A 
ATOM     34  C   UNL A   1      36.247  29.705  27.815  1.00  0.00     0.044 C 
ATOM     35  C   UNL A   1      34.204  28.713  26.691  1.00  0.00     0.050 A 
ENDBRANCH  27  28
ENDBRANCH  17  27
ENDBRANCH   9  16
ENDBRANCH   7   8
ENDBRANCH   6   7
ENDBRANCH   3   6
ENDBRANCH   1   2
BRANCH   1  36
ATOM     36  C   UNL A   1      36.618  23.700  25.836  1.00  0.00     0.042 C 
BRANCH  36  37
ATOM     37  C   UNL A   1      37.294  22.879  24.744  1.00  0.00     0.118 C 
BRANCH  37  38
ATOM     38  N   UNL A   1      38.285  21.942  25.253  1.00  0.00    -0.352 N 
ATOM     39  C   UNL A   1      39.402  22.038  26.053  1.00  0.00     0.251 C 
ATOM     40  H   UNL A   1      38.117  21.020  24.954  1.00  0.00     0.163 HD
ATOM     41  O   UNL A   1      40.051  20.996  26.193  1.00  0.00    -0.269 OA
BRANCH  39  42
ATOM     42  C   UNL A   1      39.894  23.273  26.742  1.00  0.00     0.039 A 
ATOM     43  C   UNL A   1      39.720  24.500  26.069  1.00  0.00     0.014 A 
ATOM     44  C   UNL A   1      40.628  23.287  27.928  1.00  0.00     0.014 A 
ATOM     45  C   UNL A   1      40.251  25.703  26.568  1.00  0.00     0.010 A 
ATOM     46  C   UNL A   1      41.147  24.493  28.442  1.00  0.00     0.010 A 
ATOM     47  C   UNL A   1      40.988  25.708  27.756  1.00  0.00    -0.014 A 
BRANCH  47  48
ATOM     48  C   UNL A   1      41.719  26.931  28.205  1.00  0.00     0.031 A 
ATOM     49  C   UNL A   1      40.944  28.058  28.831  1.00  0.00     0.074 A 
ATOM     50  C   UNL A   1      43.050  27.064  28.038  1.00  0.00     0.049 A 
ATOM     51  N   UNL A   1      41.366  29.233  29.222  1.00  0.00    -0.248 NA
ATOM     52  C   UNL A   1      39.499  27.846  29.013  1.00  0.00     0.031 C 
ATOM     53  C   UNL A   1      43.908  26.067  27.413  1.00  0.00     0.029 A 
ATOM     54  N   UNL A   1      43.915  28.084  28.365  1.00  0.00    -0.354 N 
ATOM     55  C   UNL A   1      40.234  29.920  29.645  1.00  0.00     0.074 A 
ATOM     56  C   UNL A   1      39.110  29.026  29.476  1.00  0.00     0.031 C 
ATOM     57  C   UNL A   1      45.181  26.499  27.436  1.00  0.00     0.029 A 
ATOM     58  C   UNL A   1      45.228  27.833  28.027  1.00  0.00     0.049 A 
ATOM     59  H   UNL A   1      43.623  28.918  28.799  1.00  0.00     0.167 HD
ATOM     60  C   UNL A   1      40.140  31.188  30.109  1.00  0.00     0.031 A 
ATOM     61  C   UNL A   1      46.339  28.592  28.150  1.00  0.00     0.031 A 
ATOM     62  C   UNL A   1      41.259  32.078  30.276  1.00  0.00     0.049 A 
ATOM     63  C   UNL A   1      46.201  29.996  28.688  1.00  0.00     0.074 A 
ATOM     64  C   UNL A   1      41.258  33.370  30.774  1.00  0.00     0.029 A 
ATOM     65  N   UNL A   1      42.571  31.779  29.943  1.00  0.00    -0.354 N 
ATOM     66  N   UNL A   1      45.127  30.606  29.130  1.00  0.00    -0.248 NA
ATOM     67  C   UNL A   1      47.418  30.823  28.720  1.00  0.00     0.031 C 
ATOM     68  C   UNL A   1      42.558  33.875  30.681  1.00  0.00     0.029 A 
ATOM     69  C   UNL A   1      43.382  32.873  30.195  1.00  0.00     0.049 A 
ATOM     70  H   UNL A   1      42.880  30.918  29.581  1.00  0.00     0.167 HD
ATOM     71  C   UNL A   1      45.543  31.883  29.498  1.00  0.00     0.074 A 
ATOM     72  C   UNL A   1      46.970  31.945  29.266  1.00  0.00     0.031 C 
ATOM     73  C   UNL A   1      44.803  32.917  29.970  1.00  0.00     0.031 A 
BRANCH  60  74
ATOM     74  C   UNL A   1      38.766  31.720  30.420  1.00  0.00    -0.014 A 
ATOM     75  C   UNL A   1      38.209  31.616  31.706  1.00  0.00     0.010 A 
ATOM     76  C   UNL A   1      38.051  32.399  29.414  1.00  0.00     0.010 A 
ATOM     77  C   UNL A   1      36.953  32.165  31.975  1.00  0.00     0.020 A 
ATOM     78  C   UNL A   1      36.808  32.972  29.687  1.00  0.00     0.020 A 
ATOM     79  C   UNL A   1      36.263  32.844  30.965  1.00  0.00     0.054 A 
BRANCH  79  80
ATOM     80  S   UNL A   1      34.660  33.598  31.361  1.00  0.00     0.124 S 
ATOM     81  O   UNL A   1      34.065  33.755  30.037  1.00  0.00    -0.237 OA
ATOM     82  O   UNL A   1      34.037  32.589  32.215  1.00  0.00    -0.237 OA
ATOM     83  O   UNL A   1      35.018  34.844  32.034  1.00  0.00    -0.744 OA
ENDBRANCH  79  80
ENDBRANCH  60  74
BRANCH  61  84
ATOM     84  C   UNL A   1      47.680  28.085  27.722  1.00  0.00    -0.014 A 
ATOM     85  C   UNL A   1      48.029  28.038  26.357  1.00  0.00     0.010 A 
ATOM     86  C   UNL A   1      48.599  27.592  28.667  1.00  0.00     0.010 A 
ATOM     87  C   UNL A   1      49.245  27.474  25.948  1.00  0.00     0.020 A 
ATOM     88  C   UNL A   1      49.831  27.067  28.266  1.00  0.00     0.020 A 
ATOM     89  C   UNL A   1      50.138  26.989  26.907  1.00  0.00     0.054 A 
BRANCH  89  90
ATOM     90  S   UNL A   1      51.712  26.271  26.358  1.00  0.00     0.124 S 
ATOM     91  O   UNL A   1      52.670  26.934  27.237  1.00  0.00    -0.237 OA
ATOM     92  O   UNL A   1      51.511  24.845  26.601  1.00  0.00    -0.237 OA
ATOM     93  O   UNL A   1      51.787  26.651  24.949  1.00  0.00    -0.744 OA
ENDBRANCH  89  90
ENDBRANCH  61  84
BRANCH  73  94
ATOM     94  C   UNL A   1      45.528  34.195  30.305  1.00  0.00    -0.014 A 
ATOM     95  C   UNL A   1      45.657  35.233  29.365  1.00  0.00     0.010 A 
ATOM     96  C   UNL A   1      46.034  34.381  31.605  1.00  0.00     0.010 A 
ATOM     97  C   UNL A   1      46.309  36.421  29.710  1.00  0.00     0.020 A 
ATOM     98  C   UNL A   1      46.658  35.579  31.962  1.00  0.00     0.020 A 
ATOM     99  C   UNL A   1      46.804  36.586  31.007  1.00  0.00     0.054 A 
BRANCH  99 100
ATOM    100  S   UNL A   1      47.604  38.154  31.444  1.00  0.00     0.124 S 
ATOM    101  O   UNL A   1      47.933  38.703  30.132  1.00  0.00    -0.237 OA
ATOM    102  O   UNL A   1      46.553  38.857  32.175  1.00  0.00    -0.237 OA
ATOM    103  O   UNL A   1      48.751  37.745  32.252  1.00  0.00    -0.744 OA
ENDBRANCH  99 100
ENDBRANCH  73  94
ENDBRANCH  47  48
ENDBRANCH  39  42
ENDBRANCH  37  38
ENDBRANCH  36  37
ENDBRANCH   1  36
TORSDOF 18
ENDMDL
