MODEL 1
REMARK VINA RESULT:     -10.3      0.000      0.000
REMARK SMILES COc1ncccc1COc1cc(C)sc1C(=O)NCCCNC(=O)c1ccc(-c2c3nc(c(-c4ccc(S(=O)(=O)[O-])cc4)c4ccc([nH]4)c(-c4ccc(S(=O)(=O)[O-])cc4)c4nc(c(-c5ccc(S(=O)(=O)[O-])cc5)c5ccc2[nH]5)C=C4)C=C3)cc1
REMARK SMILES IDX 20 1 19 2 17 3 18 4 16 6 11 7 12 8 13 9 15 10 14 11 10 12
REMARK SMILES IDX 9 13 8 14 3 15 4 16 5 17 7 18 6 19 2 20 1 21 21 22 22 23
REMARK SMILES IDX 23 24 24 25 25 27 26 28 27 29 85 30 28 31 84 32 29 33 30 34
REMARK SMILES IDX 31 35 78 36 32 37 83 38 77 39 79 40 33 41 82 42 76 43 75 44
REMARK SMILES IDX 34 46 64 47 45 48 63 49 46 50 49 51 62 52 80 53 47 54 48 55
REMARK SMILES IDX 61 57 81 58 50 59 35 60 36 61 44 62 37 63 43 64 38 65 39 66
REMARK SMILES IDX 40 67 41 68 42 69 65 70 66 71 74 72 67 73 73 74 68 75 69 76
REMARK SMILES IDX 70 77 71 78 72 79 51 80 52 81 60 82 53 83 59 84 54 85 55 86
REMARK SMILES IDX 56 87 57 88 58 89
REMARK H PARENT 19 5 23 26 79 45 49 56
REMARK Flexibility Score: inf
ROOT
ATOM      1  C   UNL A   1      31.637  27.389  26.096  1.00  0.00     0.118 C 
ENDROOT
BRANCH   1   2
ATOM      2  N   UNL A   1      30.697  26.363  26.484  1.00  0.00    -0.351 N 
ATOM      3  C   UNL A   1      30.613  25.021  26.207  1.00  0.00     0.265 C 
ATOM      4  O   UNL A   1      29.691  24.464  26.819  1.00  0.00    -0.268 OA
ATOM      5  H   UNL A   1      29.971  26.692  27.063  1.00  0.00     0.163 HD
BRANCH   3   6
ATOM      6  C   UNL A   1      31.519  24.291  25.318  1.00  0.00     0.134 A 
ATOM      7  C   UNL A   1      31.667  24.126  23.945  1.00  0.00     0.143 A 
ATOM      8  C   UNL A   1      32.779  23.288  23.616  1.00  0.00     0.062 A 
ATOM      9  C   UNL A   1      33.424  22.778  24.714  1.00  0.00     0.006 A 
ATOM     10  S   UNL A   1      32.704  23.318  26.150  1.00  0.00    -0.132 S 
ATOM     11  C   UNL A   1      34.610  21.879  24.747  1.00  0.00     0.056 C 
BRANCH   7  12
ATOM     12  O   UNL A   1      30.906  24.796  23.043  1.00  0.00    -0.487 OA
BRANCH  12  13
ATOM     13  C   UNL A   1      31.587  25.432  21.949  1.00  0.00     0.271 C 
BRANCH  13  14
ATOM     14  C   UNL A   1      32.184  26.775  22.264  1.00  0.00     0.052 A 
ATOM     15  C   UNL A   1      31.400  27.904  22.481  1.00  0.00     0.219 A 
ATOM     16  N   UNL A   1      31.881  29.100  22.885  1.00  0.00    -0.222 NA
ATOM     17  C   UNL A   1      33.222  29.185  23.045  1.00  0.00     0.115 A 
ATOM     18  C   UNL A   1      33.570  26.919  22.401  1.00  0.00     0.014 A 
ATOM     19  C   UNL A   1      34.099  28.140  22.802  1.00  0.00     0.021 A 
BRANCH  15  20
ATOM     20  O   UNL A   1      30.065  27.850  22.162  1.00  0.00    -0.481 OA
ATOM     21  C   UNL A   1      29.304  28.679  23.032  1.00  0.00     0.280 C 
ENDBRANCH  15  20
ENDBRANCH  13  14
ENDBRANCH  12  13
ENDBRANCH   7  12
ENDBRANCH   3   6
ENDBRANCH   1   2
BRANCH   1  22
ATOM     22  C   UNL A   1      32.852  27.415  27.021  1.00  0.00     0.042 C 
BRANCH  22  23
ATOM     23  C   UNL A   1      33.962  28.345  26.551  1.00  0.00     0.118 C 
BRANCH  23  24
ATOM     24  N   UNL A   1      33.755  29.708  27.016  1.00  0.00    -0.352 N 
ATOM     25  C   UNL A   1      34.524  30.488  27.845  1.00  0.00     0.251 C 
ATOM     26  H   UNL A   1      32.933  30.139  26.685  1.00  0.00     0.163 HD
ATOM     27  O   UNL A   1      34.048  31.528  28.292  1.00  0.00    -0.269 OA
BRANCH  25  28
ATOM     28  C   UNL A   1      35.905  30.091  28.208  1.00  0.00     0.039 A 
ATOM     29  C   UNL A   1      36.905  30.176  27.234  1.00  0.00     0.014 A 
ATOM     30  C   UNL A   1      36.212  29.581  29.472  1.00  0.00     0.014 A 
ATOM     31  C   UNL A   1      38.213  29.788  27.538  1.00  0.00     0.010 A 
ATOM     32  C   UNL A   1      37.531  29.269  29.798  1.00  0.00     0.010 A 
ATOM     33  C   UNL A   1      38.542  29.352  28.830  1.00  0.00    -0.014 A 
BRANCH  33  34
ATOM     34  C   UNL A   1      39.931  28.956  29.183  1.00  0.00     0.031 A 
ATOM     35  C   UNL A   1      40.849  29.943  29.856  1.00  0.00     0.074 A 
ATOM     36  C   UNL A   1      40.383  27.733  28.846  1.00  0.00     0.049 A 
ATOM     37  N   UNL A   1      42.112  29.811  30.175  1.00  0.00    -0.248 NA
ATOM     38  C   UNL A   1      40.282  31.261  30.191  1.00  0.00     0.031 C 
ATOM     39  C   UNL A   1      39.604  26.700  28.158  1.00  0.00     0.029 A 
ATOM     40  N   UNL A   1      41.614  27.151  29.028  1.00  0.00    -0.354 N 
ATOM     41  C   UNL A   1      42.494  31.031  30.723  1.00  0.00     0.074 A 
ATOM     42  C   UNL A   1      41.344  31.905  30.652  1.00  0.00     0.031 C 
ATOM     43  C   UNL A   1      40.366  25.605  28.000  1.00  0.00     0.029 A 
ATOM     44  C   UNL A   1      41.698  25.871  28.535  1.00  0.00     0.049 A 
ATOM     45  H   UNL A   1      42.365  27.608  29.472  1.00  0.00     0.167 HD
ATOM     46  C   UNL A   1      43.689  31.386  31.254  1.00  0.00     0.031 A 
ATOM     47  C   UNL A   1      42.733  25.007  28.509  1.00  0.00     0.031 A 
ATOM     48  C   UNL A   1      44.823  30.506  31.344  1.00  0.00     0.049 A 
ATOM     49  C   UNL A   1      44.046  25.422  29.114  1.00  0.00     0.074 A 
ATOM     50  C   UNL A   1      46.059  30.751  31.916  1.00  0.00     0.029 A 
ATOM     51  N   UNL A   1      44.858  29.209  30.854  1.00  0.00    -0.354 N 
ATOM     52  N   UNL A   1      44.370  26.561  29.676  1.00  0.00    -0.248 NA
ATOM     53  C   UNL A   1      45.129  24.429  29.093  1.00  0.00     0.031 C 
ATOM     54  C   UNL A   1      46.858  29.618  31.731  1.00  0.00     0.029 A 
ATOM     55  C   UNL A   1      46.100  28.647  31.095  1.00  0.00     0.049 A 
ATOM     56  H   UNL A   1      44.110  28.756  30.401  1.00  0.00     0.167 HD
ATOM     57  C   UNL A   1      45.686  26.412  30.103  1.00  0.00     0.074 A 
ATOM     58  C   UNL A   1      46.091  25.068  29.745  1.00  0.00     0.031 C 
ATOM     59  C   UNL A   1      46.485  27.306  30.735  1.00  0.00     0.031 A 
BRANCH  46  60
ATOM     60  C   UNL A   1      43.829  32.791  31.781  1.00  0.00    -0.014 A 
ATOM     61  C   UNL A   1      44.374  33.816  30.986  1.00  0.00     0.010 A 
ATOM     62  C   UNL A   1      43.369  33.102  33.073  1.00  0.00     0.010 A 
ATOM     63  C   UNL A   1      44.494  35.114  31.488  1.00  0.00     0.020 A 
ATOM     64  C   UNL A   1      43.460  34.407  33.569  1.00  0.00     0.020 A 
ATOM     65  C   UNL A   1      44.039  35.401  32.777  1.00  0.00     0.054 A 
BRANCH  65  66
ATOM     66  S   UNL A   1      44.182  37.102  33.392  1.00  0.00     0.124 S 
ATOM     67  O   UNL A   1      43.528  37.862  32.329  1.00  0.00    -0.237 OA
ATOM     68  O   UNL A   1      43.459  37.048  34.659  1.00  0.00    -0.237 OA
ATOM     69  O   UNL A   1      45.623  37.309  33.508  1.00  0.00    -0.744 OA
ENDBRANCH  65  66
ENDBRANCH  46  60
BRANCH  47  70
ATOM     70  C   UNL A   1      42.561  23.659  27.902  1.00  0.00    -0.014 A 
ATOM     71  C   UNL A   1      42.118  22.576  28.681  1.00  0.00     0.010 A 
ATOM     72  C   UNL A   1      42.833  23.453  26.537  1.00  0.00     0.010 A 
ATOM     73  C   UNL A   1      41.969  21.307  28.112  1.00  0.00     0.020 A 
ATOM     74  C   UNL A   1      42.660  22.192  25.959  1.00  0.00     0.020 A 
ATOM     75  C   UNL A   1      42.241  21.125  26.754  1.00  0.00     0.054 A 
BRANCH  75  76
ATOM     76  S   UNL A   1      41.997  19.481  26.025  1.00  0.00     0.124 S 
ATOM     77  O   UNL A   1      42.466  18.603  27.092  1.00  0.00    -0.237 OA
ATOM     78  O   UNL A   1      40.558  19.457  25.770  1.00  0.00    -0.237 OA
ATOM     79  O   UNL A   1      42.832  19.512  24.825  1.00  0.00    -0.744 OA
ENDBRANCH  75  76
ENDBRANCH  47  70
BRANCH  59  80
ATOM     80  C   UNL A   1      47.867  26.848  31.119  1.00  0.00    -0.014 A 
ATOM     81  C   UNL A   1      48.100  26.163  32.325  1.00  0.00     0.010 A 
ATOM     82  C   UNL A   1      48.937  27.060  30.230  1.00  0.00     0.010 A 
ATOM     83  C   UNL A   1      49.388  25.730  32.650  1.00  0.00     0.020 A 
ATOM     84  C   UNL A   1      50.220  26.604  30.540  1.00  0.00     0.020 A 
ATOM     85  C   UNL A   1      50.441  25.955  31.756  1.00  0.00     0.054 A 
BRANCH  85  86
ATOM     86  S   UNL A   1      52.095  25.347  32.184  1.00  0.00     0.124 S 
ATOM     87  O   UNL A   1      52.880  25.768  31.027  1.00  0.00    -0.237 OA
ATOM     88  O   UNL A   1      52.384  26.052  33.430  1.00  0.00    -0.237 OA
ATOM     89  O   UNL A   1      51.909  23.905  32.321  1.00  0.00    -0.744 OA
ENDBRANCH  85  86
ENDBRANCH  59  80
ENDBRANCH  33  34
ENDBRANCH  25  28
ENDBRANCH  23  24
ENDBRANCH  22  23
ENDBRANCH   1  22
TORSDOF 17
ENDMDL
MODEL 2
REMARK VINA RESULT:     -10.2      2.845      9.281
REMARK SMILES COc1ncccc1COc1cc(C)sc1C(=O)NCCCNC(=O)c1ccc(-c2c3nc(c(-c4ccc(S(=O)(=O)[O-])cc4)c4ccc([nH]4)c(-c4ccc(S(=O)(=O)[O-])cc4)c4nc(c(-c5ccc(S(=O)(=O)[O-])cc5)c5ccc2[nH]5)C=C4)C=C3)cc1
REMARK SMILES IDX 20 1 19 2 17 3 18 4 16 6 11 7 12 8 13 9 15 10 14 11 10 12
REMARK SMILES IDX 9 13 8 14 3 15 4 16 5 17 7 18 6 19 2 20 1 21 21 22 22 23
REMARK SMILES IDX 23 24 24 25 25 27 26 28 27 29 85 30 28 31 84 32 29 33 30 34
REMARK SMILES IDX 31 35 78 36 32 37 83 38 77 39 79 40 33 41 82 42 76 43 75 44
REMARK SMILES IDX 34 46 64 47 45 48 63 49 46 50 49 51 62 52 80 53 47 54 48 55
REMARK SMILES IDX 61 57 81 58 50 59 35 60 36 61 44 62 37 63 43 64 38 65 39 66
REMARK SMILES IDX 40 67 41 68 42 69 65 70 66 71 74 72 67 73 73 74 68 75 69 76
REMARK SMILES IDX 70 77 71 78 72 79 51 80 52 81 60 82 53 83 59 84 54 85 55 86
REMARK SMILES IDX 56 87 57 88 58 89
REMARK H PARENT 19 5 23 26 79 45 49 56
REMARK Flexibility Score: inf
ROOT
ATOM      1  C   UNL A   1      34.438  24.595  25.528  1.00  0.00     0.118 C 
ENDROOT
BRANCH   1   2
ATOM      2  N   UNL A   1      33.360  24.364  26.461  1.00  0.00    -0.351 N 
ATOM      3  C   UNL A   1      31.995  24.462  26.353  1.00  0.00     0.265 C 
ATOM      4  O   UNL A   1      31.406  24.081  27.375  1.00  0.00    -0.268 OA
ATOM      5  H   UNL A   1      33.665  24.079  27.353  1.00  0.00     0.163 HD
BRANCH   3   6
ATOM      6  C   UNL A   1      31.280  24.931  25.163  1.00  0.00     0.134 A 
ATOM      7  C   UNL A   1      30.812  24.366  23.983  1.00  0.00     0.143 A 
ATOM      8  C   UNL A   1      30.141  25.320  23.154  1.00  0.00     0.062 A 
ATOM      9  C   UNL A   1      30.154  26.593  23.664  1.00  0.00     0.006 A 
ATOM     10  S   UNL A   1      30.960  26.646  25.154  1.00  0.00    -0.132 S 
ATOM     11  C   UNL A   1      29.556  27.824  23.077  1.00  0.00     0.056 C 
BRANCH   7  12
ATOM     12  O   UNL A   1      30.887  23.035  23.730  1.00  0.00    -0.487 OA
BRANCH  12  13
ATOM     13  C   UNL A   1      32.187  22.489  23.454  1.00  0.00     0.271 C 
BRANCH  13  14
ATOM     14  C   UNL A   1      32.321  21.009  23.689  1.00  0.00     0.052 A 
ATOM     15  C   UNL A   1      32.449  20.469  24.964  1.00  0.00     0.219 A 
ATOM     16  N   UNL A   1      32.449  19.145  25.234  1.00  0.00    -0.222 NA
ATOM     17  C   UNL A   1      32.354  18.315  24.171  1.00  0.00     0.115 A 
ATOM     18  C   UNL A   1      32.267  20.114  22.614  1.00  0.00     0.014 A 
ATOM     19  C   UNL A   1      32.279  18.746  22.856  1.00  0.00     0.021 A 
BRANCH  15  20
ATOM     20  O   UNL A   1      32.705  21.315  26.016  1.00  0.00    -0.481 OA
ATOM     21  C   UNL A   1      33.944  20.992  26.634  1.00  0.00     0.280 C 
ENDBRANCH  15  20
ENDBRANCH  13  14
ENDBRANCH  12  13
ENDBRANCH   7  12
ENDBRANCH   3   6
ENDBRANCH   1   2
BRANCH   1  22
ATOM     22  C   UNL A   1      35.787  24.190  26.118  1.00  0.00     0.042 C 
BRANCH  22  23
ATOM     23  C   UNL A   1      36.874  23.974  25.074  1.00  0.00     0.118 C 
BRANCH  23  24
ATOM     24  N   UNL A   1      37.792  22.914  25.465  1.00  0.00    -0.352 N 
ATOM     25  C   UNL A   1      38.988  22.980  26.135  1.00  0.00     0.251 C 
ATOM     26  H   UNL A   1      37.510  22.006  25.207  1.00  0.00     0.163 HD
ATOM     27  O   UNL A   1      39.712  21.989  26.159  1.00  0.00    -0.269 OA
BRANCH  25  28
ATOM     28  C   UNL A   1      39.417  24.224  26.819  1.00  0.00     0.039 A 
ATOM     29  C   UNL A   1      40.217  25.132  26.118  1.00  0.00     0.014 A 
ATOM     30  C   UNL A   1      39.092  24.475  28.154  1.00  0.00     0.014 A 
ATOM     31  C   UNL A   1      40.656  26.304  26.741  1.00  0.00     0.010 A 
ATOM     32  C   UNL A   1      39.464  25.679  28.749  1.00  0.00     0.010 A 
ATOM     33  C   UNL A   1      40.264  26.598  28.055  1.00  0.00    -0.014 A 
BRANCH  33  34
ATOM     34  C   UNL A   1      40.699  27.849  28.731  1.00  0.00     0.031 A 
ATOM     35  C   UNL A   1      42.076  27.939  29.338  1.00  0.00     0.074 A 
ATOM     36  C   UNL A   1      39.839  28.879  28.851  1.00  0.00     0.049 A 
ATOM     37  N   UNL A   1      42.610  28.912  30.031  1.00  0.00    -0.248 NA
ATOM     38  C   UNL A   1      42.958  26.772  29.167  1.00  0.00     0.031 C 
ATOM     39  C   UNL A   1      38.466  28.901  28.339  1.00  0.00     0.029 A 
ATOM     40  N   UNL A   1      39.987  30.105  29.449  1.00  0.00    -0.354 N 
ATOM     41  C   UNL A   1      43.875  28.467  30.397  1.00  0.00     0.074 A 
ATOM     42  C   UNL A   1      44.012  27.119  29.889  1.00  0.00     0.031 C 
ATOM     43  C   UNL A   1      37.908  30.089  28.624  1.00  0.00     0.029 A 
ATOM     44  C   UNL A   1      38.867  30.897  29.373  1.00  0.00     0.049 A 
ATOM     45  H   UNL A   1      40.820  30.392  29.891  1.00  0.00     0.167 HD
ATOM     46  C   UNL A   1      44.844  29.126  31.078  1.00  0.00     0.031 A 
ATOM     47  C   UNL A   1      38.631  32.133  29.856  1.00  0.00     0.031 A 
ATOM     48  C   UNL A   1      44.713  30.475  31.560  1.00  0.00     0.049 A 
ATOM     49  C   UNL A   1      39.726  32.847  30.601  1.00  0.00     0.074 A 
ATOM     50  C   UNL A   1      45.655  31.252  32.210  1.00  0.00     0.029 A 
ATOM     51  N   UNL A   1      43.569  31.250  31.440  1.00  0.00    -0.354 N 
ATOM     52  N   UNL A   1      40.934  32.429  30.889  1.00  0.00    -0.248 NA
ATOM     53  C   UNL A   1      39.428  34.207  31.073  1.00  0.00     0.031 C 
ATOM     54  C   UNL A   1      45.066  32.481  32.524  1.00  0.00     0.029 A 
ATOM     55  C   UNL A   1      43.776  32.490  32.019  1.00  0.00     0.049 A 
ATOM     56  H   UNL A   1      42.733  30.960  31.007  1.00  0.00     0.167 HD
ATOM     57  C   UNL A   1      41.552  33.484  31.551  1.00  0.00     0.074 A 
ATOM     58  C   UNL A   1      40.588  34.564  31.608  1.00  0.00     0.031 C 
ATOM     59  C   UNL A   1      42.806  33.554  32.063  1.00  0.00     0.031 A 
BRANCH  46  60
ATOM     60  C   UNL A   1      46.134  28.394  31.341  1.00  0.00    -0.014 A 
ATOM     61  C   UNL A   1      46.291  27.579  32.477  1.00  0.00     0.010 A 
ATOM     62  C   UNL A   1      47.192  28.486  30.418  1.00  0.00     0.010 A 
ATOM     63  C   UNL A   1      47.492  26.904  32.705  1.00  0.00     0.020 A 
ATOM     64  C   UNL A   1      48.385  27.788  30.627  1.00  0.00     0.020 A 
ATOM     65  C   UNL A   1      48.533  27.015  31.780  1.00  0.00     0.054 A 
BRANCH  65  66
ATOM     66  S   UNL A   1      50.072  26.104  32.089  1.00  0.00     0.124 S 
ATOM     67  O   UNL A   1      49.663  24.726  31.831  1.00  0.00    -0.237 OA
ATOM     68  O   UNL A   1      50.988  26.680  31.108  1.00  0.00    -0.237 OA
ATOM     69  O   UNL A   1      50.384  26.411  33.482  1.00  0.00    -0.744 OA
ENDBRANCH  65  66
ENDBRANCH  46  60
BRANCH  47  70
ATOM     70  C   UNL A   1      37.307  32.778  29.637  1.00  0.00    -0.014 A 
ATOM     71  C   UNL A   1      36.987  33.347  28.392  1.00  0.00     0.010 A 
ATOM     72  C   UNL A   1      36.354  32.819  30.671  1.00  0.00     0.010 A 
ATOM     73  C   UNL A   1      35.748  33.963  28.190  1.00  0.00     0.020 A 
ATOM     74  C   UNL A   1      35.105  33.410  30.466  1.00  0.00     0.020 A 
ATOM     75  C   UNL A   1      34.815  33.990  29.230  1.00  0.00     0.054 A 
BRANCH  75  76
ATOM     76  S   UNL A   1      33.196  34.753  28.933  1.00  0.00     0.124 S 
ATOM     77  O   UNL A   1      32.595  34.716  30.262  1.00  0.00    -0.237 OA
ATOM     78  O   UNL A   1      33.556  36.080  28.436  1.00  0.00    -0.237 OA
ATOM     79  O   UNL A   1      32.580  33.873  27.942  1.00  0.00    -0.744 OA
ENDBRANCH  75  76
ENDBRANCH  47  70
BRANCH  59  80
ATOM     80  C   UNL A   1      43.222  34.855  32.695  1.00  0.00    -0.014 A 
ATOM     81  C   UNL A   1      43.728  35.914  31.920  1.00  0.00     0.010 A 
ATOM     82  C   UNL A   1      43.054  35.036  34.080  1.00  0.00     0.010 A 
ATOM     83  C   UNL A   1      44.091  37.120  32.527  1.00  0.00     0.020 A 
ATOM     84  C   UNL A   1      43.389  36.250  34.685  1.00  0.00     0.020 A 
ATOM     85  C   UNL A   1      43.920  37.279  33.906  1.00  0.00     0.054 A 
BRANCH  85  86
ATOM     86  S   UNL A   1      44.360  38.868  34.663  1.00  0.00     0.124 S 
ATOM     87  O   UNL A   1      45.778  38.978  34.333  1.00  0.00    -0.237 OA
ATOM     88  O   UNL A   1      43.479  39.807  33.974  1.00  0.00    -0.237 OA
ATOM     89  O   UNL A   1      44.063  38.670  36.080  1.00  0.00    -0.744 OA
ENDBRANCH  85  86
ENDBRANCH  59  80
ENDBRANCH  33  34
ENDBRANCH  25  28
ENDBRANCH  23  24
ENDBRANCH  22  23
ENDBRANCH   1  22
TORSDOF 17
ENDMDL
MODEL 3
REMARK VINA RESULT:     -10.1      2.921      4.322
REMARK SMILES COc1ncccc1COc1cc(C)sc1C(=O)NCCCNC(=O)c1ccc(-c2c3nc(c(-c4ccc(S(=O)(=O)[O-])cc4)c4ccc([nH]4)c(-c4ccc(S(=O)(=O)[O-])cc4)c4nc(c(-c5ccc(S(=O)(=O)[O-])cc5)c5ccc2[nH]5)C=C4)C=C3)cc1
REMARK SMILES IDX 20 1 19 2 17 3 18 4 16 6 11 7 12 8 13 9 15 10 14 11 10 12
REMARK SMILES IDX 9 13 8 14 3 15 4 16 5 17 7 18 6 19 2 20 1 21 21 22 22 23
REMARK SMILES IDX 23 24 24 25 25 27 26 28 27 29 85 30 28 31 84 32 29 33 30 34
REMARK SMILES IDX 31 35 78 36 32 37 83 38 77 39 79 40 33 41 82 42 76 43 75 44
REMARK SMILES IDX 34 46 64 47 45 48 63 49 46 50 49 51 62 52 80 53 47 54 48 55
REMARK SMILES IDX 61 57 81 58 50 59 35 60 36 61 44 62 37 63 43 64 38 65 39 66
REMARK SMILES IDX 40 67 41 68 42 69 65 70 66 71 74 72 67 73 73 74 68 75 69 76
REMARK SMILES IDX 70 77 71 78 72 79 51 80 52 81 60 82 53 83 59 84 54 85 55 86
REMARK SMILES IDX 56 87 57 88 58 89
REMARK H PARENT 19 5 23 26 79 45 49 56
REMARK Flexibility Score: inf
ROOT
ATOM      1  C   UNL A   1      33.478  27.241  24.435  1.00  0.00     0.118 C 
ENDROOT
BRANCH   1   2
ATOM      2  N   UNL A   1      32.748  26.485  25.428  1.00  0.00    -0.351 N 
ATOM      3  C   UNL A   1      32.495  25.145  25.579  1.00  0.00     0.265 C 
ATOM      4  O   UNL A   1      31.897  24.888  26.634  1.00  0.00    -0.268 OA
ATOM      5  H   UNL A   1      32.353  27.043  26.136  1.00  0.00     0.163 HD
BRANCH   3   6
ATOM      6  C   UNL A   1      32.904  24.103  24.634  1.00  0.00     0.134 A 
ATOM      7  C   UNL A   1      34.099  23.656  24.082  1.00  0.00     0.143 A 
ATOM      8  C   UNL A   1      33.907  22.548  23.197  1.00  0.00     0.062 A 
ATOM      9  C   UNL A   1      32.591  22.200  23.032  1.00  0.00     0.006 A 
ATOM     10  S   UNL A   1      31.576  23.196  23.955  1.00  0.00    -0.132 S 
ATOM     11  C   UNL A   1      32.027  21.106  22.195  1.00  0.00     0.056 C 
BRANCH   7  12
ATOM     12  O   UNL A   1      35.305  24.153  24.455  1.00  0.00    -0.487 OA
BRANCH  12  13
ATOM     13  C   UNL A   1      35.690  23.985  25.829  1.00  0.00     0.271 C 
BRANCH  13  14
ATOM     14  C   UNL A   1      37.048  23.374  26.041  1.00  0.00     0.052 A 
ATOM     15  C   UNL A   1      37.321  22.046  25.730  1.00  0.00     0.219 A 
ATOM     16  N   UNL A   1      38.550  21.487  25.788  1.00  0.00    -0.222 NA
ATOM     17  C   UNL A   1      39.554  22.286  26.215  1.00  0.00     0.115 A 
ATOM     18  C   UNL A   1      38.108  24.153  26.518  1.00  0.00     0.014 A 
ATOM     19  C   UNL A   1      39.382  23.606  26.602  1.00  0.00     0.021 A 
BRANCH  15  20
ATOM     20  O   UNL A   1      36.271  21.204  25.454  1.00  0.00    -0.481 OA
ATOM     21  C   UNL A   1      36.732  20.004  24.846  1.00  0.00     0.280 C 
ENDBRANCH  15  20
ENDBRANCH  13  14
ENDBRANCH  12  13
ENDBRANCH   7  12
ENDBRANCH   3   6
ENDBRANCH   1   2
BRANCH   1  22
ATOM     22  C   UNL A   1      33.519  28.728  24.782  1.00  0.00     0.042 C 
BRANCH  22  23
ATOM     23  C   UNL A   1      34.009  29.015  26.195  1.00  0.00     0.118 C 
BRANCH  23  24
ATOM     24  N   UNL A   1      33.745  30.392  26.586  1.00  0.00    -0.352 N 
ATOM     25  C   UNL A   1      34.313  31.156  27.576  1.00  0.00     0.251 C 
ATOM     26  H   UNL A   1      33.049  30.846  26.058  1.00  0.00     0.163 HD
ATOM     27  O   UNL A   1      33.781  32.219  27.884  1.00  0.00    -0.269 OA
BRANCH  25  28
ATOM     28  C   UNL A   1      35.544  30.715  28.274  1.00  0.00     0.039 A 
ATOM     29  C   UNL A   1      36.752  31.348  27.966  1.00  0.00     0.014 A 
ATOM     30  C   UNL A   1      35.532  29.650  29.178  1.00  0.00     0.014 A 
ATOM     31  C   UNL A   1      37.935  30.942  28.590  1.00  0.00     0.010 A 
ATOM     32  C   UNL A   1      36.696  29.298  29.858  1.00  0.00     0.010 A 
ATOM     33  C   UNL A   1      37.913  29.927  29.559  1.00  0.00    -0.014 A 
BRANCH  33  34
ATOM     34  C   UNL A   1      39.154  29.493  30.253  1.00  0.00     0.031 A 
ATOM     35  C   UNL A   1      39.607  30.203  31.503  1.00  0.00     0.074 A 
ATOM     36  C   UNL A   1      39.902  28.503  29.728  1.00  0.00     0.049 A 
ATOM     37  N   UNL A   1      40.696  30.020  32.207  1.00  0.00    -0.248 NA
ATOM     38  C   UNL A   1      38.737  31.275  32.014  1.00  0.00     0.031 C 
ATOM     39  C   UNL A   1      39.591  27.763  28.502  1.00  0.00     0.029 A 
ATOM     40  N   UNL A   1      41.086  27.952  30.154  1.00  0.00    -0.354 N 
ATOM     41  C   UNL A   1      40.652  30.967  33.224  1.00  0.00     0.074 A 
ATOM     42  C   UNL A   1      39.454  31.751  33.021  1.00  0.00     0.031 C 
ATOM     43  C   UNL A   1      40.544  26.841  28.290  1.00  0.00     0.029 A 
ATOM     44  C   UNL A   1      41.554  26.951  29.338  1.00  0.00     0.049 A 
ATOM     45  H   UNL A   1      41.554  28.247  30.969  1.00  0.00     0.167 HD
ATOM     46  C   UNL A   1      41.521  31.155  34.247  1.00  0.00     0.031 A 
ATOM     47  C   UNL A   1      42.675  26.207  29.418  1.00  0.00     0.031 A 
ATOM     48  C   UNL A   1      42.699  30.357  34.460  1.00  0.00     0.049 A 
ATOM     49  C   UNL A   1      43.619  26.429  30.568  1.00  0.00     0.074 A 
ATOM     50  C   UNL A   1      43.612  30.429  35.496  1.00  0.00     0.029 A 
ATOM     51  N   UNL A   1      43.124  29.336  33.622  1.00  0.00    -0.354 N 
ATOM     52  N   UNL A   1      43.532  27.293  31.550  1.00  0.00    -0.248 NA
ATOM     53  C   UNL A   1      44.806  25.564  30.627  1.00  0.00     0.031 C 
ATOM     54  C   UNL A   1      44.615  29.483  35.262  1.00  0.00     0.029 A 
ATOM     55  C   UNL A   1      44.296  28.784  34.110  1.00  0.00     0.049 A 
ATOM     56  H   UNL A   1      42.661  29.049  32.802  1.00  0.00     0.167 HD
ATOM     57  C   UNL A   1      44.636  27.057  32.362  1.00  0.00     0.074 A 
ATOM     58  C   UNL A   1      45.369  25.961  31.761  1.00  0.00     0.031 C 
ATOM     59  C   UNL A   1      45.010  27.690  33.501  1.00  0.00     0.031 A 
BRANCH  46  60
ATOM     60  C   UNL A   1      41.227  32.270  35.217  1.00  0.00    -0.014 A 
ATOM     61  C   UNL A   1      41.668  33.583  34.972  1.00  0.00     0.010 A 
ATOM     62  C   UNL A   1      40.462  32.012  36.369  1.00  0.00     0.010 A 
ATOM     63  C   UNL A   1      41.385  34.607  35.879  1.00  0.00     0.020 A 
ATOM     64  C   UNL A   1      40.151  33.039  37.264  1.00  0.00     0.020 A 
ATOM     65  C   UNL A   1      40.630  34.329  37.022  1.00  0.00     0.054 A 
BRANCH  65  66
ATOM     66  S   UNL A   1      40.253  35.683  38.168  1.00  0.00     0.124 S 
ATOM     67  O   UNL A   1      41.524  35.845  38.870  1.00  0.00    -0.237 OA
ATOM     68  O   UNL A   1      39.891  36.775  37.268  1.00  0.00    -0.237 OA
ATOM     69  O   UNL A   1      39.157  35.159  38.978  1.00  0.00    -0.744 OA
ENDBRANCH  65  66
ENDBRANCH  46  60
BRANCH  47  70
ATOM     70  C   UNL A   1      42.957  25.172  28.386  1.00  0.00    -0.014 A 
ATOM     71  C   UNL A   1      42.630  23.825  28.616  1.00  0.00     0.010 A 
ATOM     72  C   UNL A   1      43.547  25.531  27.159  1.00  0.00     0.010 A 
ATOM     73  C   UNL A   1      42.906  22.852  27.650  1.00  0.00     0.020 A 
ATOM     74  C   UNL A   1      43.800  24.567  26.181  1.00  0.00     0.020 A 
ATOM     75  C   UNL A   1      43.489  23.231  26.438  1.00  0.00     0.054 A 
BRANCH  75  76
ATOM     76  S   UNL A   1      43.796  21.960  25.180  1.00  0.00     0.124 S 
ATOM     77  O   UNL A   1      45.140  21.508  25.526  1.00  0.00    -0.237 OA
ATOM     78  O   UNL A   1      42.721  21.002  25.427  1.00  0.00    -0.237 OA
ATOM     79  O   UNL A   1      43.687  22.694  23.920  1.00  0.00    -0.744 OA
ENDBRANCH  75  76
ENDBRANCH  47  70
BRANCH  59  80
ATOM     80  C   UNL A   1      46.245  27.186  34.199  1.00  0.00    -0.014 A 
ATOM     81  C   UNL A   1      47.512  27.730  33.924  1.00  0.00     0.010 A 
ATOM     82  C   UNL A   1      46.124  26.188  35.183  1.00  0.00     0.010 A 
ATOM     83  C   UNL A   1      48.642  27.260  34.598  1.00  0.00     0.020 A 
ATOM     84  C   UNL A   1      47.248  25.735  35.878  1.00  0.00     0.020 A 
ATOM     85  C   UNL A   1      48.502  26.264  35.570  1.00  0.00     0.054 A 
BRANCH  85  86
ATOM     86  S   UNL A   1      49.978  25.699  36.459  1.00  0.00     0.124 S 
ATOM     87  O   UNL A   1      51.027  25.898  35.463  1.00  0.00    -0.237 OA
ATOM     88  O   UNL A   1      50.025  26.597  37.610  1.00  0.00    -0.237 OA
ATOM     89  O   UNL A   1      49.678  24.305  36.778  1.00  0.00    -0.744 OA
ENDBRANCH  85  86
ENDBRANCH  59  80
ENDBRANCH  33  34
ENDBRANCH  25  28
ENDBRANCH  23  24
ENDBRANCH  22  23
ENDBRANCH   1  22
TORSDOF 17
ENDMDL
