MODEL 1
REMARK VINA RESULT:     -11.8      0.000      0.000
REMARK SMILES Cc1c(Br)c(C)c2c(c1Br)O[C@H](C(F)(F)F)C(C(=O)NCCCNC(=O)c1ccc(-c3c4nc(c(-c5ccc(S(=O)(=O)[O-])cc5)c5ccc([nH]5)c(-c5ccc(S(=O)(=O)[O-])cc5)c5nc(c(-c6ccc(S(=O)(=O)[O-])cc6)c6ccc3[nH]6)C=C5)C=C4)cc1)=C2
REMARK SMILES IDX 23 1 22 2 21 3 20 4 18 5 19 6 17 8 1 9 2 10 3 11 9 12 4 13
REMARK SMILES IDX 5 14 8 15 10 16 6 17 7 18 11 19 87 20 12 21 13 22 14 23
REMARK SMILES IDX 15 24 16 25 24 26 25 27 26 29 27 30 28 31 86 32 29 33 85 34
REMARK SMILES IDX 30 35 31 36 32 37 79 38 33 39 84 40 78 41 80 42 34 43 83 44
REMARK SMILES IDX 77 45 76 46 35 48 65 49 46 50 64 51 47 52 50 53 63 54 81 55
REMARK SMILES IDX 48 56 49 57 62 59 82 60 51 61 36 62 37 63 45 64 38 65 44 66
REMARK SMILES IDX 39 67 40 68 41 69 42 70 43 71 66 72 67 73 75 74 68 75 74 76
REMARK SMILES IDX 69 77 70 78 71 79 72 80 73 81 52 82 53 83 61 84 54 85 60 86
REMARK SMILES IDX 55 87 56 88 57 89 58 90 59 91
REMARK H PARENT 20 7 24 28 80 47 50 58
REMARK Flexibility Score: inf
ROOT
ATOM      1  C   UNL A   1      33.752  28.258  26.840  1.00  0.00     0.118 C 
ENDROOT
BRANCH   1   2
ATOM      2  C   UNL A   1      34.020  28.162  25.344  1.00  0.00     0.042 C 
BRANCH   2   3
ATOM      3  C   UNL A   1      32.983  27.310  24.627  1.00  0.00     0.118 C 
BRANCH   3   4
ATOM      4  N   UNL A   1      32.007  26.749  25.550  1.00  0.00    -0.352 N 
ATOM      5  C   UNL A   1      31.706  25.531  26.056  1.00  0.00     0.251 C 
ATOM      6  O   UNL A   1      30.762  25.510  26.852  1.00  0.00    -0.270 OA
ATOM      7  H   UNL A   1      31.403  27.443  25.899  1.00  0.00     0.163 HD
BRANCH   5   8
ATOM      8  C   UNL A   1      32.424  24.266  25.731  1.00  0.00     0.067 C 
ATOM      9  C   UNL A   1      36.661  19.349  24.804  1.00  0.00     0.047 C 
ATOM     10  C   UNL A   1      35.938  20.642  25.103  1.00  0.00    -0.019 A 
ATOM     11  C   UNL A   1      36.634  21.816  25.491  1.00  0.00     0.025 A 
ATOM     12  C   UNL A   1      34.531  20.686  25.072  1.00  0.00     0.064 A 
ATOM     13  Br  UNL A   1      38.542  21.737  25.690  1.00  0.00    -0.050 Br
ATOM     14  C   UNL A   1      35.950  23.029  25.770  1.00  0.00    -0.026 A 
ATOM     15  C   UNL A   1      33.846  21.876  25.354  1.00  0.00     0.142 A 
ATOM     16  Br  UNL A   1      33.494  19.127  24.662  1.00  0.00    -0.046 Br
ATOM     17  C   UNL A   1      36.674  24.301  26.158  1.00  0.00     0.046 C 
ATOM     18  C   UNL A   1      34.536  23.046  25.699  1.00  0.00     0.022 A 
ATOM     19  O   UNL A   1      32.476  21.833  25.335  1.00  0.00    -0.474 OA
ATOM     20  C   UNL A   1      33.736  24.236  26.025  1.00  0.00     0.026 C 
ATOM     21  C   UNL A   1      31.782  23.077  25.089  1.00  0.00     0.314 C 
BRANCH  21  22
ATOM     22  C   UNL A   1      31.556  23.264  23.578  1.00  0.00     0.429 C 
ATOM     23  F   UNL A   1      31.760  22.100  22.914  1.00  0.00    -0.167 F 
ATOM     24  F   UNL A   1      30.291  23.655  23.286  1.00  0.00    -0.167 F 
ATOM     25  F   UNL A   1      32.380  24.190  23.038  1.00  0.00    -0.167 F 
ENDBRANCH  21  22
ENDBRANCH   5   8
ENDBRANCH   3   4
ENDBRANCH   2   3
ENDBRANCH   1   2
BRANCH   1  26
ATOM     26  N   UNL A   1      33.642  29.647  27.281  1.00  0.00    -0.352 N 
ATOM     27  C   UNL A   1      34.499  30.403  28.041  1.00  0.00     0.251 C 
ATOM     28  H   UNL A   1      32.827  30.113  26.985  1.00  0.00     0.163 HD
ATOM     29  O   UNL A   1      34.101  31.452  28.544  1.00  0.00    -0.269 OA
BRANCH  27  30
ATOM     30  C   UNL A   1      35.887  29.954  28.253  1.00  0.00     0.039 A 
ATOM     31  C   UNL A   1      36.820  30.091  27.223  1.00  0.00     0.014 A 
ATOM     32  C   UNL A   1      36.261  29.378  29.469  1.00  0.00     0.014 A 
ATOM     33  C   UNL A   1      38.146  29.711  27.442  1.00  0.00     0.010 A 
ATOM     34  C   UNL A   1      37.595  29.093  29.719  1.00  0.00     0.010 A 
ATOM     35  C   UNL A   1      38.549  29.243  28.704  1.00  0.00    -0.014 A 
BRANCH  35  36
ATOM     36  C   UNL A   1      39.959  28.879  28.980  1.00  0.00     0.031 A 
ATOM     37  C   UNL A   1      40.881  29.888  29.612  1.00  0.00     0.074 A 
ATOM     38  C   UNL A   1      40.419  27.668  28.613  1.00  0.00     0.049 A 
ATOM     39  N   UNL A   1      42.155  29.781  29.882  1.00  0.00    -0.248 NA
ATOM     40  C   UNL A   1      40.303  31.198  29.962  1.00  0.00     0.031 C 
ATOM     41  C   UNL A   1      39.627  26.623  27.957  1.00  0.00     0.029 A 
ATOM     42  N   UNL A   1      41.663  27.106  28.740  1.00  0.00    -0.354 N 
ATOM     43  C   UNL A   1      42.530  31.007  30.420  1.00  0.00     0.074 A 
ATOM     44  C   UNL A   1      41.368  31.863  30.380  1.00  0.00     0.031 C 
ATOM     45  C   UNL A   1      40.392  25.534  27.782  1.00  0.00     0.029 A 
ATOM     46  C   UNL A   1      41.738  25.815  28.271  1.00  0.00     0.049 A 
ATOM     47  H   UNL A   1      42.432  27.582  29.132  1.00  0.00     0.167 HD
ATOM     48  C   UNL A   1      43.727  31.374  30.933  1.00  0.00     0.031 A 
ATOM     49  C   UNL A   1      42.774  24.955  28.241  1.00  0.00     0.031 A 
ATOM     50  C   UNL A   1      44.873  30.508  30.990  1.00  0.00     0.049 A 
ATOM     51  C   UNL A   1      44.100  25.394  28.800  1.00  0.00     0.074 A 
ATOM     52  C   UNL A   1      46.120  30.768  31.528  1.00  0.00     0.029 A 
ATOM     53  N   UNL A   1      44.909  29.213  30.497  1.00  0.00    -0.354 N 
ATOM     54  N   UNL A   1      44.421  26.541  29.351  1.00  0.00    -0.248 NA
ATOM     55  C   UNL A   1      45.201  24.423  28.741  1.00  0.00     0.031 C 
ATOM     56  C   UNL A   1      46.926  29.645  31.319  1.00  0.00     0.029 A 
ATOM     57  C   UNL A   1      46.163  28.666  30.702  1.00  0.00     0.049 A 
ATOM     58  H   UNL A   1      44.154  28.751  30.066  1.00  0.00     0.167 HD
ATOM     59  C   UNL A   1      45.755  26.420  29.725  1.00  0.00     0.074 A 
ATOM     60  C   UNL A   1      46.175  25.085  29.351  1.00  0.00     0.031 C 
ATOM     61  C   UNL A   1      46.558  27.333  30.323  1.00  0.00     0.031 A 
BRANCH  48  62
ATOM     62  C   UNL A   1      43.851  32.766  31.491  1.00  0.00    -0.014 A 
ATOM     63  C   UNL A   1      44.326  33.823  30.694  1.00  0.00     0.010 A 
ATOM     64  C   UNL A   1      43.436  33.035  32.809  1.00  0.00     0.010 A 
ATOM     65  C   UNL A   1      44.415  35.117  31.211  1.00  0.00     0.020 A 
ATOM     66  C   UNL A   1      43.497  34.336  33.322  1.00  0.00     0.020 A 
ATOM     67  C   UNL A   1      43.996  35.365  32.522  1.00  0.00     0.054 A 
BRANCH  67  68
ATOM     68  S   UNL A   1      44.085  37.065  33.149  1.00  0.00     0.124 S 
ATOM     69  O   UNL A   1      42.938  37.112  34.053  1.00  0.00    -0.237 OA
ATOM     70  O   UNL A   1      45.395  37.098  33.795  1.00  0.00    -0.237 OA
ATOM     71  O   UNL A   1      43.964  37.886  31.947  1.00  0.00    -0.744 OA
ENDBRANCH  67  68
ENDBRANCH  48  62
BRANCH  49  72
ATOM     72  C   UNL A   1      42.586  23.584  27.694  1.00  0.00    -0.014 A 
ATOM     73  C   UNL A   1      42.936  23.298  26.362  1.00  0.00     0.010 A 
ATOM     74  C   UNL A   1      42.082  22.550  28.505  1.00  0.00     0.010 A 
ATOM     75  C   UNL A   1      42.774  22.008  25.848  1.00  0.00     0.020 A 
ATOM     76  C   UNL A   1      41.944  21.253  28.003  1.00  0.00     0.020 A 
ATOM     77  C   UNL A   1      42.282  20.992  26.673  1.00  0.00     0.054 A 
BRANCH  77  78
ATOM     78  S   UNL A   1      42.130  19.316  25.996  1.00  0.00     0.124 S 
ATOM     79  O   UNL A   1      42.636  18.498  27.093  1.00  0.00    -0.237 OA
ATOM     80  O   UNL A   1      40.696  19.212  25.737  1.00  0.00    -0.237 OA
ATOM     81  O   UNL A   1      42.971  19.351  24.802  1.00  0.00    -0.744 OA
ENDBRANCH  77  78
ENDBRANCH  49  72
BRANCH  61  82
ATOM     82  C   UNL A   1      47.970  26.921  30.636  1.00  0.00    -0.014 A 
ATOM     83  C   UNL A   1      49.031  27.275  29.785  1.00  0.00     0.010 A 
ATOM     84  C   UNL A   1      48.249  26.259  31.846  1.00  0.00     0.010 A 
ATOM     85  C   UNL A   1      50.347  26.961  30.134  1.00  0.00     0.020 A 
ATOM     86  C   UNL A   1      49.565  25.968  32.210  1.00  0.00     0.020 A 
ATOM     87  C   UNL A   1      50.605  26.316  31.347  1.00  0.00     0.054 A 
BRANCH  87  88
ATOM     88  S   UNL A   1      52.329  25.988  31.806  1.00  0.00     0.124 S 
ATOM     89  O   UNL A   1      52.263  24.605  32.270  1.00  0.00    -0.237 OA
ATOM     90  O   UNL A   1      53.038  26.196  30.546  1.00  0.00    -0.237 OA
ATOM     91  O   UNL A   1      52.608  26.981  32.842  1.00  0.00    -0.744 OA
ENDBRANCH  87  88
ENDBRANCH  61  82
ENDBRANCH  35  36
ENDBRANCH  27  30
ENDBRANCH   1  26
TORSDOF 14
ENDMDL
MODEL 2
REMARK VINA RESULT:     -11.1      2.359      2.889
REMARK SMILES Cc1c(Br)c(C)c2c(c1Br)O[C@H](C(F)(F)F)C(C(=O)NCCCNC(=O)c1ccc(-c3c4nc(c(-c5ccc(S(=O)(=O)[O-])cc5)c5ccc([nH]5)c(-c5ccc(S(=O)(=O)[O-])cc5)c5nc(c(-c6ccc(S(=O)(=O)[O-])cc6)c6ccc3[nH]6)C=C5)C=C4)cc1)=C2
REMARK SMILES IDX 23 1 22 2 21 3 20 4 18 5 19 6 17 8 1 9 2 10 3 11 9 12 4 13
REMARK SMILES IDX 5 14 8 15 10 16 6 17 7 18 11 19 87 20 12 21 13 22 14 23
REMARK SMILES IDX 15 24 16 25 24 26 25 27 26 29 27 30 28 31 86 32 29 33 85 34
REMARK SMILES IDX 30 35 31 36 32 37 79 38 33 39 84 40 78 41 80 42 34 43 83 44
REMARK SMILES IDX 77 45 76 46 35 48 65 49 46 50 64 51 47 52 50 53 63 54 81 55
REMARK SMILES IDX 48 56 49 57 62 59 82 60 51 61 36 62 37 63 45 64 38 65 44 66
REMARK SMILES IDX 39 67 40 68 41 69 42 70 43 71 66 72 67 73 75 74 68 75 74 76
REMARK SMILES IDX 69 77 70 78 71 79 72 80 73 81 52 82 53 83 61 84 54 85 60 86
REMARK SMILES IDX 55 87 56 88 57 89 58 90 59 91
REMARK H PARENT 20 7 24 28 80 47 50 58
REMARK Flexibility Score: inf
ROOT
ATOM      1  C   UNL A   1      34.099  28.712  26.178  1.00  0.00     0.118 C 
ENDROOT
BRANCH   1   2
ATOM      2  C   UNL A   1      33.919  28.571  24.673  1.00  0.00     0.042 C 
BRANCH   2   3
ATOM      3  C   UNL A   1      33.237  27.265  24.295  1.00  0.00     0.118 C 
BRANCH   3   4
ATOM      4  N   UNL A   1      32.310  26.817  25.323  1.00  0.00    -0.352 N 
ATOM      5  C   UNL A   1      31.983  25.649  25.924  1.00  0.00     0.251 C 
ATOM      6  O   UNL A   1      31.108  25.730  26.791  1.00  0.00    -0.270 OA
ATOM      7  H   UNL A   1      31.777  27.564  25.677  1.00  0.00     0.163 HD
BRANCH   5   8
ATOM      8  C   UNL A   1      32.599  24.326  25.619  1.00  0.00     0.067 C 
ATOM      9  C   UNL A   1      36.439  19.081  24.766  1.00  0.00     0.047 C 
ATOM     10  C   UNL A   1      35.819  20.431  25.044  1.00  0.00    -0.019 A 
ATOM     11  C   UNL A   1      36.606  21.554  25.405  1.00  0.00     0.025 A 
ATOM     12  C   UNL A   1      34.420  20.583  25.020  1.00  0.00     0.064 A 
ATOM     13  Br  UNL A   1      38.504  21.332  25.594  1.00  0.00    -0.050 Br
ATOM     14  C   UNL A   1      36.019  22.823  25.663  1.00  0.00    -0.026 A 
ATOM     15  C   UNL A   1      33.830  21.827  25.282  1.00  0.00     0.142 A 
ATOM     16  Br  UNL A   1      33.263  19.100  24.647  1.00  0.00    -0.046 Br
ATOM     17  C   UNL A   1      36.842  24.041  26.022  1.00  0.00     0.046 C 
ATOM     18  C   UNL A   1      34.611  22.946  25.601  1.00  0.00     0.022 A 
ATOM     19  O   UNL A   1      32.461  21.889  25.272  1.00  0.00    -0.474 OA
ATOM     20  C   UNL A   1      33.908  24.200  25.907  1.00  0.00     0.026 C 
ATOM     21  C   UNL A   1      31.863  23.178  25.005  1.00  0.00     0.314 C 
BRANCH  21  22
ATOM     22  C   UNL A   1      31.641  23.353  23.492  1.00  0.00     0.429 C 
ATOM     23  F   UNL A   1      31.757  22.166  22.849  1.00  0.00    -0.167 F 
ATOM     24  F   UNL A   1      30.406  23.829  23.199  1.00  0.00    -0.167 F 
ATOM     25  F   UNL A   1      32.527  24.207  22.931  1.00  0.00    -0.167 F 
ENDBRANCH  21  22
ENDBRANCH   5   8
ENDBRANCH   3   4
ENDBRANCH   2   3
ENDBRANCH   1   2
BRANCH   1  26
ATOM     26  N   UNL A   1      33.847  30.080  26.627  1.00  0.00    -0.352 N 
ATOM     27  C   UNL A   1      34.444  30.807  27.626  1.00  0.00     0.251 C 
ATOM     28  H   UNL A   1      33.138  30.554  26.134  1.00  0.00     0.163 HD
ATOM     29  O   UNL A   1      33.904  31.830  28.040  1.00  0.00    -0.269 OA
BRANCH  27  30
ATOM     30  C   UNL A   1      35.725  30.355  28.199  1.00  0.00     0.039 A 
ATOM     31  C   UNL A   1      36.923  30.712  27.574  1.00  0.00     0.014 A 
ATOM     32  C   UNL A   1      35.740  29.562  29.348  1.00  0.00     0.014 A 
ATOM     33  C   UNL A   1      38.137  30.325  28.146  1.00  0.00     0.010 A 
ATOM     34  C   UNL A   1      36.945  29.264  29.968  1.00  0.00     0.010 A 
ATOM     35  C   UNL A   1      38.155  29.630  29.367  1.00  0.00    -0.014 A 
BRANCH  35  36
ATOM     36  C   UNL A   1      39.429  29.250  30.022  1.00  0.00     0.031 A 
ATOM     37  C   UNL A   1      39.898  30.005  31.237  1.00  0.00     0.074 A 
ATOM     38  C   UNL A   1      40.186  28.270  29.491  1.00  0.00     0.049 A 
ATOM     39  N   UNL A   1      41.006  29.863  31.917  1.00  0.00    -0.248 NA
ATOM     40  C   UNL A   1      39.022  31.078  31.739  1.00  0.00     0.031 C 
ATOM     41  C   UNL A   1      39.852  27.496  28.292  1.00  0.00     0.029 A 
ATOM     42  N   UNL A   1      41.391  27.752  29.892  1.00  0.00    -0.354 N 
ATOM     43  C   UNL A   1      40.962  30.830  32.914  1.00  0.00     0.074 A 
ATOM     44  C   UNL A   1      39.754  31.595  32.714  1.00  0.00     0.031 C 
ATOM     45  C   UNL A   1      40.805  26.574  28.082  1.00  0.00     0.029 A 
ATOM     46  C   UNL A   1      41.838  26.718  29.103  1.00  0.00     0.049 A 
ATOM     47  H   UNL A   1      41.889  28.089  30.672  1.00  0.00     0.167 HD
ATOM     48  C   UNL A   1      41.835  31.040  33.927  1.00  0.00     0.031 A 
ATOM     49  C   UNL A   1      42.954  25.969  29.194  1.00  0.00     0.031 A 
ATOM     50  C   UNL A   1      43.025  30.259  34.133  1.00  0.00     0.049 A 
ATOM     51  C   UNL A   1      43.918  26.235  30.318  1.00  0.00     0.074 A 
ATOM     52  C   UNL A   1      43.953  30.361  35.152  1.00  0.00     0.029 A 
ATOM     53  N   UNL A   1      43.444  29.227  33.308  1.00  0.00    -0.354 N 
ATOM     54  N   UNL A   1      43.834  27.123  31.281  1.00  0.00    -0.248 NA
ATOM     55  C   UNL A   1      45.123  25.395  30.373  1.00  0.00     0.031 C 
ATOM     56  C   UNL A   1      44.960  29.422  34.918  1.00  0.00     0.029 A 
ATOM     57  C   UNL A   1      44.630  28.696  33.784  1.00  0.00     0.049 A 
ATOM     58  H   UNL A   1      42.969  28.919  32.502  1.00  0.00     0.167 HD
ATOM     59  C   UNL A   1      44.963  26.932  32.070  1.00  0.00     0.074 A 
ATOM     60  C   UNL A   1      45.706  25.837  31.480  1.00  0.00     0.031 C 
ATOM     61  C   UNL A   1      45.350  27.604  33.181  1.00  0.00     0.031 A 
BRANCH  48  62
ATOM     62  C   UNL A   1      41.524  32.145  34.900  1.00  0.00    -0.014 A 
ATOM     63  C   UNL A   1      42.002  33.450  34.685  1.00  0.00     0.010 A 
ATOM     64  C   UNL A   1      40.700  31.892  36.012  1.00  0.00     0.010 A 
ATOM     65  C   UNL A   1      41.689  34.476  35.579  1.00  0.00     0.020 A 
ATOM     66  C   UNL A   1      40.360  32.923  36.894  1.00  0.00     0.020 A 
ATOM     67  C   UNL A   1      40.867  34.205  36.677  1.00  0.00     0.054 A 
BRANCH  67  68
ATOM     68  S   UNL A   1      40.445  35.570  37.796  1.00  0.00     0.124 S 
ATOM     69  O   UNL A   1      41.766  36.055  38.190  1.00  0.00    -0.237 OA
ATOM     70  O   UNL A   1      39.679  36.465  36.932  1.00  0.00    -0.237 OA
ATOM     71  O   UNL A   1      39.677  34.925  38.857  1.00  0.00    -0.744 OA
ENDBRANCH  67  68
ENDBRANCH  48  62
BRANCH  49  72
ATOM     72  C   UNL A   1      43.198  24.877  28.214  1.00  0.00    -0.014 A 
ATOM     73  C   UNL A   1      43.819  25.155  26.983  1.00  0.00     0.010 A 
ATOM     74  C   UNL A   1      42.836  23.550  28.512  1.00  0.00     0.010 A 
ATOM     75  C   UNL A   1      44.063  24.130  26.064  1.00  0.00     0.020 A 
ATOM     76  C   UNL A   1      43.102  22.518  27.607  1.00  0.00     0.020 A 
ATOM     77  C   UNL A   1      43.706  22.816  26.384  1.00  0.00     0.054 A 
BRANCH  77  78
ATOM     78  S   UNL A   1      44.080  21.497  25.195  1.00  0.00     0.124 S 
ATOM     79  O   UNL A   1      43.017  20.535  25.465  1.00  0.00    -0.237 OA
ATOM     80  O   UNL A   1      43.993  22.195  23.916  1.00  0.00    -0.237 OA
ATOM     81  O   UNL A   1      45.425  21.068  25.573  1.00  0.00    -0.744 OA
ENDBRANCH  77  78
ENDBRANCH  49  72
BRANCH  61  82
ATOM     82  C   UNL A   1      46.622  27.167  33.853  1.00  0.00    -0.014 A 
ATOM     83  C   UNL A   1      46.633  26.077  34.741  1.00  0.00     0.010 A 
ATOM     84  C   UNL A   1      47.837  27.792  33.515  1.00  0.00     0.010 A 
ATOM     85  C   UNL A   1      47.838  25.628  35.289  1.00  0.00     0.020 A 
ATOM     86  C   UNL A   1      49.045  27.329  34.040  1.00  0.00     0.020 A 
ATOM     87  C   UNL A   1      49.035  26.253  34.929  1.00  0.00     0.054 A 
BRANCH  87  88
ATOM     88  S   UNL A   1      50.590  25.601  35.599  1.00  0.00     0.124 S 
ATOM     89  O   UNL A   1      50.115  24.634  36.585  1.00  0.00    -0.237 OA
ATOM     90  O   UNL A   1      51.231  25.030  34.417  1.00  0.00    -0.237 OA
ATOM     91  O   UNL A   1      51.252  26.781  36.151  1.00  0.00    -0.744 OA
ENDBRANCH  87  88
ENDBRANCH  61  82
ENDBRANCH  35  36
ENDBRANCH  27  30
ENDBRANCH   1  26
TORSDOF 14
ENDMDL
MODEL 3
REMARK VINA RESULT:     -11.0      2.887      3.732
REMARK SMILES Cc1c(Br)c(C)c2c(c1Br)O[C@H](C(F)(F)F)C(C(=O)NCCCNC(=O)c1ccc(-c3c4nc(c(-c5ccc(S(=O)(=O)[O-])cc5)c5ccc([nH]5)c(-c5ccc(S(=O)(=O)[O-])cc5)c5nc(c(-c6ccc(S(=O)(=O)[O-])cc6)c6ccc3[nH]6)C=C5)C=C4)cc1)=C2
REMARK SMILES IDX 23 1 22 2 21 3 20 4 18 5 19 6 17 8 1 9 2 10 3 11 9 12 4 13
REMARK SMILES IDX 5 14 8 15 10 16 6 17 7 18 11 19 87 20 12 21 13 22 14 23
REMARK SMILES IDX 15 24 16 25 24 26 25 27 26 29 27 30 28 31 86 32 29 33 85 34
REMARK SMILES IDX 30 35 31 36 32 37 79 38 33 39 84 40 78 41 80 42 34 43 83 44
REMARK SMILES IDX 77 45 76 46 35 48 65 49 46 50 64 51 47 52 50 53 63 54 81 55
REMARK SMILES IDX 48 56 49 57 62 59 82 60 51 61 36 62 37 63 45 64 38 65 44 66
REMARK SMILES IDX 39 67 40 68 41 69 42 70 43 71 66 72 67 73 75 74 68 75 74 76
REMARK SMILES IDX 69 77 70 78 71 79 72 80 73 81 52 82 53 83 61 84 54 85 60 86
REMARK SMILES IDX 55 87 56 88 57 89 58 90 59 91
REMARK H PARENT 20 7 24 28 80 47 50 58
REMARK Flexibility Score: inf
ROOT
ATOM      1  C   UNL A   1      35.605  31.077  28.186  1.00  0.00     0.118 C 
ENDROOT
BRANCH   1   2
ATOM      2  C   UNL A   1      34.305  30.677  27.500  1.00  0.00     0.042 C 
BRANCH   2   3
ATOM      3  C   UNL A   1      34.391  29.298  26.862  1.00  0.00     0.118 C 
BRANCH   3   4
ATOM      4  N   UNL A   1      34.019  29.325  25.455  1.00  0.00    -0.352 N 
ATOM      5  C   UNL A   1      33.471  28.474  24.557  1.00  0.00     0.251 C 
ATOM      6  O   UNL A   1      33.315  28.934  23.422  1.00  0.00    -0.270 OA
ATOM      7  H   UNL A   1      34.220  30.197  25.047  1.00  0.00     0.163 HD
BRANCH   5   8
ATOM      8  C   UNL A   1      33.052  27.073  24.849  1.00  0.00     0.067 C 
ATOM      9  C   UNL A   1      32.526  20.635  25.971  1.00  0.00     0.047 C 
ATOM     10  C   UNL A   1      32.943  22.050  25.644  1.00  0.00    -0.019 A 
ATOM     11  C   UNL A   1      34.246  22.356  25.174  1.00  0.00     0.025 A 
ATOM     12  C   UNL A   1      32.055  23.117  25.873  1.00  0.00     0.064 A 
ATOM     13  Br  UNL A   1      35.525  20.934  25.001  1.00  0.00    -0.050 Br
ATOM     14  C   UNL A   1      34.633  23.688  24.866  1.00  0.00    -0.026 A 
ATOM     15  C   UNL A   1      32.429  24.436  25.580  1.00  0.00     0.142 A 
ATOM     16  Br  UNL A   1      30.308  22.820  26.605  1.00  0.00    -0.046 Br
ATOM     17  C   UNL A   1      36.008  24.033  24.336  1.00  0.00     0.046 C 
ATOM     18  C   UNL A   1      33.703  24.734  25.079  1.00  0.00     0.022 A 
ATOM     19  O   UNL A   1      31.522  25.425  25.860  1.00  0.00    -0.474 OA
ATOM     20  C   UNL A   1      34.029  26.148  24.845  1.00  0.00     0.026 C 
ATOM     21  C   UNL A   1      31.639  26.656  25.112  1.00  0.00     0.314 C 
BRANCH  21  22
ATOM     22  C   UNL A   1      30.793  26.576  23.828  1.00  0.00     0.429 C 
ATOM     23  F   UNL A   1      31.558  26.212  22.771  1.00  0.00    -0.167 F 
ATOM     24  F   UNL A   1      29.800  25.659  23.917  1.00  0.00    -0.167 F 
ATOM     25  F   UNL A   1      30.205  27.754  23.518  1.00  0.00    -0.167 F 
ENDBRANCH  21  22
ENDBRANCH   5   8
ENDBRANCH   3   4
ENDBRANCH   2   3
ENDBRANCH   1   2
BRANCH   1  26
ATOM     26  N   UNL A   1      35.532  30.889  29.633  1.00  0.00    -0.352 N 
ATOM     27  C   UNL A   1      36.343  30.166  30.472  1.00  0.00     0.251 C 
ATOM     28  H   UNL A   1      34.785  31.353  30.075  1.00  0.00     0.163 HD
ATOM     29  O   UNL A   1      35.957  29.896  31.607  1.00  0.00    -0.269 OA
BRANCH  27  30
ATOM     30  C   UNL A   1      37.668  29.717  30.008  1.00  0.00     0.039 A 
ATOM     31  C   UNL A   1      37.977  29.772  28.647  1.00  0.00     0.014 A 
ATOM     32  C   UNL A   1      38.602  29.223  30.922  1.00  0.00     0.014 A 
ATOM     33  C   UNL A   1      39.249  29.393  28.215  1.00  0.00     0.010 A 
ATOM     34  C   UNL A   1      39.895  28.942  30.506  1.00  0.00     0.010 A 
ATOM     35  C   UNL A   1      40.228  29.011  29.147  1.00  0.00    -0.014 A 
BRANCH  35  36
ATOM     36  C   UNL A   1      41.602  28.651  28.723  1.00  0.00     0.031 A 
ATOM     37  C   UNL A   1      42.677  29.705  28.702  1.00  0.00     0.074 A 
ATOM     38  C   UNL A   1      41.865  27.398  28.305  1.00  0.00     0.049 A 
ATOM     39  N   UNL A   1      43.921  29.604  28.312  1.00  0.00    -0.248 NA
ATOM     40  C   UNL A   1      42.300  31.057  29.153  1.00  0.00     0.031 C 
ATOM     41  C   UNL A   1      40.892  26.303  28.244  1.00  0.00     0.029 A 
ATOM     42  N   UNL A   1      43.029  26.829  27.856  1.00  0.00    -0.354 N 
ATOM     43  C   UNL A   1      44.467  30.873  28.461  1.00  0.00     0.074 A 
ATOM     44  C   UNL A   1      43.407  31.743  28.913  1.00  0.00     0.031 C 
ATOM     45  C   UNL A   1      41.510  25.187  27.827  1.00  0.00     0.029 A 
ATOM     46  C   UNL A   1      42.909  25.493  27.550  1.00  0.00     0.049 A 
ATOM     47  H   UNL A   1      43.871  27.330  27.761  1.00  0.00     0.167 HD
ATOM     48  C   UNL A   1      45.746  31.271  28.269  1.00  0.00     0.031 A 
ATOM     49  C   UNL A   1      43.826  24.614  27.101  1.00  0.00     0.031 A 
ATOM     50  C   UNL A   1      46.801  30.394  27.840  1.00  0.00     0.049 A 
ATOM     51  C   UNL A   1      45.237  25.086  26.877  1.00  0.00     0.074 A 
ATOM     52  C   UNL A   1      48.139  30.687  27.657  1.00  0.00     0.029 A 
ATOM     53  N   UNL A   1      46.636  29.052  27.534  1.00  0.00    -0.354 N 
ATOM     54  N   UNL A   1      45.745  26.280  27.070  1.00  0.00    -0.248 NA
ATOM     55  C   UNL A   1      46.199  24.093  26.381  1.00  0.00     0.031 C 
ATOM     56  C   UNL A   1      48.777  29.532  27.194  1.00  0.00     0.029 A 
ATOM     57  C   UNL A   1      47.846  28.506  27.145  1.00  0.00     0.049 A 
ATOM     58  H   UNL A   1      45.784  28.560  27.586  1.00  0.00     0.167 HD
ATOM     59  C   UNL A   1      47.092  26.175  26.743  1.00  0.00     0.074 A 
ATOM     60  C   UNL A   1      47.322  24.798  26.352  1.00  0.00     0.031 C 
ATOM     61  C   UNL A   1      48.052  27.132  26.763  1.00  0.00     0.031 A 
BRANCH  48  62
ATOM     62  C   UNL A   1      46.078  32.713  28.542  1.00  0.00    -0.014 A 
ATOM     63  C   UNL A   1      46.537  33.120  29.807  1.00  0.00     0.010 A 
ATOM     64  C   UNL A   1      45.982  33.665  27.509  1.00  0.00     0.010 A 
ATOM     65  C   UNL A   1      46.866  34.456  30.046  1.00  0.00     0.020 A 
ATOM     66  C   UNL A   1      46.337  34.999  27.737  1.00  0.00     0.020 A 
ATOM     67  C   UNL A   1      46.766  35.386  29.007  1.00  0.00     0.054 A 
BRANCH  67  68
ATOM     68  S   UNL A   1      47.241  37.105  29.339  1.00  0.00     0.124 S 
ATOM     69  O   UNL A   1      46.917  37.757  28.073  1.00  0.00    -0.237 OA
ATOM     70  O   UNL A   1      46.383  37.461  30.466  1.00  0.00    -0.237 OA
ATOM     71  O   UNL A   1      48.666  37.019  29.647  1.00  0.00    -0.744 OA
ENDBRANCH  67  68
ENDBRANCH  48  62
BRANCH  49  72
ATOM     72  C   UNL A   1      43.443  23.196  26.867  1.00  0.00    -0.014 A 
ATOM     73  C   UNL A   1      43.578  22.626  25.588  1.00  0.00     0.010 A 
ATOM     74  C   UNL A   1      42.967  22.397  27.924  1.00  0.00     0.010 A 
ATOM     75  C   UNL A   1      43.233  21.290  25.367  1.00  0.00     0.020 A 
ATOM     76  C   UNL A   1      42.646  21.053  27.713  1.00  0.00     0.020 A 
ATOM     77  C   UNL A   1      42.772  20.510  26.432  1.00  0.00     0.054 A 
BRANCH  77  78
ATOM     78  S   UNL A   1      42.379  18.764  26.130  1.00  0.00     0.124 S 
ATOM     79  O   UNL A   1      40.972  18.830  25.751  1.00  0.00    -0.237 OA
ATOM     80  O   UNL A   1      43.308  18.416  25.058  1.00  0.00    -0.237 OA
ATOM     81  O   UNL A   1      42.653  18.125  27.414  1.00  0.00    -0.744 OA
ENDBRANCH  77  78
ENDBRANCH  49  72
BRANCH  61  82
ATOM     82  C   UNL A   1      49.447  26.729  26.374  1.00  0.00    -0.014 A 
ATOM     83  C   UNL A   1      50.316  26.140  27.308  1.00  0.00     0.010 A 
ATOM     84  C   UNL A   1      49.857  26.850  25.032  1.00  0.00     0.010 A 
ATOM     85  C   UNL A   1      51.578  25.691  26.909  1.00  0.00     0.020 A 
ATOM     86  C   UNL A   1      51.106  26.378  24.625  1.00  0.00     0.020 A 
ATOM     87  C   UNL A   1      51.961  25.806  25.569  1.00  0.00     0.054 A 
BRANCH  87  88
ATOM     88  S   UNL A   1      53.575  25.148  25.068  1.00  0.00     0.124 S 
ATOM     89  O   UNL A   1      54.468  25.746  26.056  1.00  0.00    -0.237 OA
ATOM     90  O   UNL A   1      53.380  23.704  25.188  1.00  0.00    -0.237 OA
ATOM     91  O   UNL A   1      53.740  25.636  23.701  1.00  0.00    -0.744 OA
ENDBRANCH  87  88
ENDBRANCH  61  82
ENDBRANCH  35  36
ENDBRANCH  27  30
ENDBRANCH   1  26
TORSDOF 14
ENDMDL
