MODEL 1
REMARK VINA RESULT:      -9.1      0.000      0.000
REMARK SMILES CC[C@@](C)(NC(=O)N1CCC[C@H]1C1CCCC1)C(=O)NCCCNC(=O)c1ccc(-c2c3nc(c(-c4ccc(S(=O)(=O)[O-])cc4)c4ccc([nH]4)c(-c4ccc(S(=O)(=O)[O-])cc4)c4nc(c(-c5ccc(S(=O)(=O)[O-])cc5)c5ccc2[nH]5)C=C4)C=C3)cc1
REMARK SMILES IDX 22 1 21 2 20 3 18 4 19 5 3 7 4 8 2 9 1 10 5 11 6 12 7 14
REMARK SMILES IDX 8 15 9 16 12 17 10 18 11 19 13 20 14 21 17 22 15 23 16 24
REMARK SMILES IDX 23 25 24 26 25 27 26 29 27 30 28 31 86 32 29 33 85 34 30 35
REMARK SMILES IDX 31 36 32 37 79 38 33 39 84 40 78 41 80 42 34 43 83 44 77 45
REMARK SMILES IDX 76 46 35 48 65 49 46 50 64 51 47 52 50 53 63 54 81 55 48 56
REMARK SMILES IDX 49 57 62 59 82 60 51 61 36 62 37 63 45 64 38 65 44 66 39 67
REMARK SMILES IDX 40 68 41 69 42 70 43 71 66 72 67 73 75 74 68 75 74 76 69 77
REMARK SMILES IDX 70 78 71 79 72 80 73 81 52 82 53 83 61 84 54 85 60 86 55 87
REMARK SMILES IDX 56 88 57 89 58 90 59 91
REMARK H PARENT 20 6 5 13 24 28 80 47 50 58
REMARK Flexibility Score: inf
ROOT
ATOM      1  C   UNL A   1      41.807  21.004  26.183  1.00  0.00     0.042 C 
ENDROOT
BRANCH   1   2
ATOM      2  C   UNL A   1      42.762  22.118  25.767  1.00  0.00     0.117 C 
BRANCH   2   3
ATOM      3  N   UNL A   1      44.120  21.720  25.432  1.00  0.00    -0.354 N 
ATOM      4  C   UNL A   1      45.337  22.315  25.616  1.00  0.00     0.245 C 
ATOM      5  O   UNL A   1      46.303  21.544  25.558  1.00  0.00    -0.272 OA
ATOM      6  H   UNL A   1      44.174  20.846  24.982  1.00  0.00     0.163 HD
BRANCH   4   7
ATOM      7  C   UNL A   1      45.523  23.821  25.994  1.00  0.00     0.117 C 
ATOM      8  C   UNL A   1      44.982  23.961  27.443  1.00  0.00     0.045 C 
BRANCH   7   9
ATOM      9  C   UNL A   1      47.016  24.293  26.017  1.00  0.00     0.035 C 
ATOM     10  C   UNL A   1      47.656  24.612  27.366  1.00  0.00     0.007 C 
ENDBRANCH   7   9
BRANCH   7  11
ATOM     11  N   UNL A   1      44.771  24.776  25.127  1.00  0.00    -0.324 N 
ATOM     12  C   UNL A   1      44.492  26.099  25.248  1.00  0.00     0.318 C 
ATOM     13  H   UNL A   1      44.407  24.367  24.310  1.00  0.00     0.166 HD
ATOM     14  O   UNL A   1      43.299  26.380  25.107  1.00  0.00    -0.249 OA
BRANCH  12  15
ATOM     15  N   UNL A   1      45.438  27.058  25.443  1.00  0.00    -0.322 N 
ATOM     16  C   UNL A   1      46.324  27.675  24.485  1.00  0.00     0.122 C 
ATOM     17  C   UNL A   1      45.759  27.566  26.799  1.00  0.00     0.090 C 
ATOM     18  C   UNL A   1      47.606  27.928  25.240  1.00  0.00     0.024 C 
ATOM     19  C   UNL A   1      47.143  28.246  26.646  1.00  0.00     0.027 C 
BRANCH  17  20
ATOM     20  C   UNL A   1      44.772  28.595  27.425  1.00  0.00     0.012 C 
ATOM     21  C   UNL A   1      45.382  29.945  27.787  1.00  0.00     0.006 C 
ATOM     22  C   UNL A   1      43.561  29.008  26.590  1.00  0.00     0.006 C 
ATOM     23  C   UNL A   1      44.183  30.827  28.096  1.00  0.00     0.000 C 
ATOM     24  C   UNL A   1      43.057  30.312  27.211  1.00  0.00     0.000 C 
ENDBRANCH  17  20
ENDBRANCH  12  15
ENDBRANCH   7  11
ENDBRANCH   4   7
ENDBRANCH   2   3
ENDBRANCH   1   2
BRANCH   1  25
ATOM     25  C   UNL A   1      40.590  21.400  27.017  1.00  0.00     0.118 C 
BRANCH  25  26
ATOM     26  N   UNL A   1      39.400  21.736  26.264  1.00  0.00    -0.352 N 
ATOM     27  C   UNL A   1      38.762  22.947  26.106  1.00  0.00     0.251 C 
ATOM     28  H   UNL A   1      38.980  20.980  25.793  1.00  0.00     0.163 HD
ATOM     29  O   UNL A   1      37.757  22.989  25.399  1.00  0.00    -0.269 OA
BRANCH  27  30
ATOM     30  C   UNL A   1      39.214  24.187  26.795  1.00  0.00     0.039 A 
ATOM     31  C   UNL A   1      38.761  24.405  28.100  1.00  0.00     0.014 A 
ATOM     32  C   UNL A   1      39.997  25.170  26.184  1.00  0.00     0.014 A 
ATOM     33  C   UNL A   1      39.129  25.562  28.803  1.00  0.00     0.010 A 
ATOM     34  C   UNL A   1      40.409  26.303  26.911  1.00  0.00     0.010 A 
ATOM     35  C   UNL A   1      39.988  26.517  28.234  1.00  0.00    -0.014 A 
BRANCH  35  36
ATOM     36  C   UNL A   1      40.421  27.718  29.027  1.00  0.00     0.031 A 
ATOM     37  C   UNL A   1      41.791  27.788  29.665  1.00  0.00     0.074 A 
ATOM     38  C   UNL A   1      39.589  28.772  29.183  1.00  0.00     0.049 A 
ATOM     39  N   UNL A   1      42.341  28.771  30.337  1.00  0.00    -0.248 NA
ATOM     40  C   UNL A   1      42.647  26.598  29.551  1.00  0.00     0.031 C 
ATOM     41  C   UNL A   1      38.218  28.854  28.675  1.00  0.00     0.029 A 
ATOM     42  N   UNL A   1      39.778  29.990  29.801  1.00  0.00    -0.354 N 
ATOM     43  C   UNL A   1      43.594  28.315  30.735  1.00  0.00     0.074 A 
ATOM     44  C   UNL A   1      43.700  26.946  30.278  1.00  0.00     0.031 C 
ATOM     45  C   UNL A   1      37.712  30.066  28.955  1.00  0.00     0.029 A 
ATOM     46  C   UNL A   1      38.700  30.842  29.702  1.00  0.00     0.049 A 
ATOM     47  H   UNL A   1      40.610  30.228  30.273  1.00  0.00     0.167 HD
ATOM     48  C   UNL A   1      44.582  28.971  31.393  1.00  0.00     0.031 A 
ATOM     49  C   UNL A   1      38.515  32.101  30.150  1.00  0.00     0.031 A 
ATOM     50  C   UNL A   1      44.505  30.338  31.842  1.00  0.00     0.049 A 
ATOM     51  C   UNL A   1      39.622  32.808  30.889  1.00  0.00     0.074 A 
ATOM     52  C   UNL A   1      45.488  31.093  32.462  1.00  0.00     0.029 A 
ATOM     53  N   UNL A   1      43.392  31.153  31.728  1.00  0.00    -0.354 N 
ATOM     54  N   UNL A   1      40.826  32.379  31.178  1.00  0.00    -0.248 NA
ATOM     55  C   UNL A   1      39.348  34.178  31.353  1.00  0.00     0.031 C 
ATOM     56  C   UNL A   1      44.948  32.345  32.776  1.00  0.00     0.029 A 
ATOM     57  C   UNL A   1      43.652  32.394  32.289  1.00  0.00     0.049 A 
ATOM     58  H   UNL A   1      42.540  30.890  31.309  1.00  0.00     0.167 HD
ATOM     59  C   UNL A   1      41.461  33.434  31.828  1.00  0.00     0.074 A 
ATOM     60  C   UNL A   1      40.514  34.529  31.876  1.00  0.00     0.031 C 
ATOM     61  C   UNL A   1      42.716  33.489  32.337  1.00  0.00     0.031 A 
BRANCH  48  62
ATOM     62  C   UNL A   1      45.856  28.210  31.675  1.00  0.00    -0.014 A 
ATOM     63  C   UNL A   1      46.916  28.199  30.750  1.00  0.00     0.010 A 
ATOM     64  C   UNL A   1      46.015  27.538  32.902  1.00  0.00     0.010 A 
ATOM     65  C   UNL A   1      48.088  27.488  31.022  1.00  0.00     0.020 A 
ATOM     66  C   UNL A   1      47.200  26.853  33.192  1.00  0.00     0.020 A 
ATOM     67  C   UNL A   1      48.220  26.816  32.241  1.00  0.00     0.054 A 
BRANCH  67  68
ATOM     68  S   UNL A   1      49.757  25.909  32.568  1.00  0.00     0.124 S 
ATOM     69  O   UNL A   1      50.205  25.580  31.218  1.00  0.00    -0.237 OA
ATOM     70  O   UNL A   1      50.567  26.897  33.276  1.00  0.00    -0.237 OA
ATOM     71  O   UNL A   1      49.323  24.770  33.374  1.00  0.00    -0.744 OA
ENDBRANCH  67  68
ENDBRANCH  48  62
BRANCH  49  72
ATOM     72  C   UNL A   1      37.221  32.802  29.900  1.00  0.00    -0.014 A 
ATOM     73  C   UNL A   1      37.014  33.533  28.716  1.00  0.00     0.010 A 
ATOM     74  C   UNL A   1      36.189  32.754  30.858  1.00  0.00     0.010 A 
ATOM     75  C   UNL A   1      35.815  34.219  28.503  1.00  0.00     0.020 A 
ATOM     76  C   UNL A   1      34.976  33.412  30.634  1.00  0.00     0.020 A 
ATOM     77  C   UNL A   1      34.801  34.151  29.464  1.00  0.00     0.054 A 
BRANCH  77  78
ATOM     78  S   UNL A   1      33.234  35.009  29.144  1.00  0.00     0.124 S 
ATOM     79  O   UNL A   1      33.692  36.319  28.690  1.00  0.00    -0.237 OA
ATOM     80  O   UNL A   1      32.615  34.167  28.124  1.00  0.00    -0.237 OA
ATOM     81  O   UNL A   1      32.566  34.995  30.443  1.00  0.00    -0.744 OA
ENDBRANCH  77  78
ENDBRANCH  49  72
BRANCH  61  82
ATOM     82  C   UNL A   1      43.173  34.784  32.959  1.00  0.00    -0.014 A 
ATOM     83  C   UNL A   1      43.638  35.855  32.174  1.00  0.00     0.010 A 
ATOM     84  C   UNL A   1      43.080  34.955  34.354  1.00  0.00     0.010 A 
ATOM     85  C   UNL A   1      44.025  37.059  32.773  1.00  0.00     0.020 A 
ATOM     86  C   UNL A   1      43.438  36.165  34.954  1.00  0.00     0.020 A 
ATOM     87  C   UNL A   1      43.921  37.207  34.160  1.00  0.00     0.054 A 
BRANCH  87  88
ATOM     88  S   UNL A   1      44.384  38.795  34.906  1.00  0.00     0.124 S 
ATOM     89  O   UNL A   1      44.063  38.578  36.313  1.00  0.00    -0.237 OA
ATOM     90  O   UNL A   1      45.808  38.892  34.595  1.00  0.00    -0.237 OA
ATOM     91  O   UNL A   1      43.535  39.763  34.216  1.00  0.00    -0.744 OA
ENDBRANCH  87  88
ENDBRANCH  61  82
ENDBRANCH  35  36
ENDBRANCH  27  30
ENDBRANCH  25  26
ENDBRANCH   1  25
TORSDOF 17
ENDMDL
MODEL 2
REMARK VINA RESULT:      -9.1      1.194      8.283
REMARK SMILES CC[C@@](C)(NC(=O)N1CCC[C@H]1C1CCCC1)C(=O)NCCCNC(=O)c1ccc(-c2c3nc(c(-c4ccc(S(=O)(=O)[O-])cc4)c4ccc([nH]4)c(-c4ccc(S(=O)(=O)[O-])cc4)c4nc(c(-c5ccc(S(=O)(=O)[O-])cc5)c5ccc2[nH]5)C=C4)C=C3)cc1
REMARK SMILES IDX 22 1 21 2 20 3 18 4 19 5 3 7 4 8 2 9 1 10 5 11 6 12 7 14
REMARK SMILES IDX 8 15 9 16 12 17 10 18 11 19 13 20 14 21 17 22 15 23 16 24
REMARK SMILES IDX 23 25 24 26 25 27 26 29 27 30 28 31 86 32 29 33 85 34 30 35
REMARK SMILES IDX 31 36 32 37 79 38 33 39 84 40 78 41 80 42 34 43 83 44 77 45
REMARK SMILES IDX 76 46 35 48 65 49 46 50 64 51 47 52 50 53 63 54 81 55 48 56
REMARK SMILES IDX 49 57 62 59 82 60 51 61 36 62 37 63 45 64 38 65 44 66 39 67
REMARK SMILES IDX 40 68 41 69 42 70 43 71 66 72 67 73 75 74 68 75 74 76 69 77
REMARK SMILES IDX 70 78 71 79 72 80 73 81 52 82 53 83 61 84 54 85 60 86 55 87
REMARK SMILES IDX 56 88 57 89 58 90 59 91
REMARK H PARENT 20 6 5 13 24 28 80 47 50 58
REMARK Flexibility Score: inf
ROOT
ATOM      1  C   UNL A   1      41.516  21.171  26.097  1.00  0.00     0.042 C 
ENDROOT
BRANCH   1   2
ATOM      2  C   UNL A   1      42.884  21.842  26.147  1.00  0.00     0.117 C 
BRANCH   2   3
ATOM      3  N   UNL A   1      43.473  22.215  24.870  1.00  0.00    -0.354 N 
ATOM      4  C   UNL A   1      44.503  23.045  24.525  1.00  0.00     0.245 C 
ATOM      5  O   UNL A   1      44.978  22.840  23.401  1.00  0.00    -0.272 OA
ATOM      6  H   UNL A   1      43.042  21.782  24.097  1.00  0.00     0.163 HD
BRANCH   4   7
ATOM      7  C   UNL A   1      45.136  24.097  25.495  1.00  0.00     0.117 C 
ATOM      8  C   UNL A   1      43.946  24.931  26.044  1.00  0.00     0.045 C 
BRANCH   7   9
ATOM      9  C   UNL A   1      45.861  23.468  26.732  1.00  0.00     0.035 C 
ATOM     10  C   UNL A   1      45.275  23.716  28.121  1.00  0.00     0.007 C 
ENDBRANCH   7   9
BRANCH   7  11
ATOM     11  N   UNL A   1      46.099  25.037  24.849  1.00  0.00    -0.324 N 
ATOM     12  C   UNL A   1      46.458  26.315  25.127  1.00  0.00     0.318 C 
ATOM     13  H   UNL A   1      46.563  24.654  24.070  1.00  0.00     0.166 HD
ATOM     14  O   UNL A   1      46.401  27.079  24.160  1.00  0.00    -0.249 OA
BRANCH  12  15
ATOM     15  N   UNL A   1      46.908  26.729  26.343  1.00  0.00    -0.322 N 
ATOM     16  C   UNL A   1      48.254  26.744  26.863  1.00  0.00     0.122 C 
ATOM     17  C   UNL A   1      45.972  27.171  27.406  1.00  0.00     0.090 C 
ATOM     18  C   UNL A   1      48.113  26.443  28.335  1.00  0.00     0.024 C 
ATOM     19  C   UNL A   1      46.800  27.095  28.714  1.00  0.00     0.027 C 
BRANCH  17  20
ATOM     20  C   UNL A   1      45.382  28.606  27.281  1.00  0.00     0.012 C 
ATOM     21  C   UNL A   1      43.879  28.674  27.030  1.00  0.00     0.006 C 
ATOM     22  C   UNL A   1      45.545  29.542  28.479  1.00  0.00     0.006 C 
ATOM     23  C   UNL A   1      43.530  30.139  27.236  1.00  0.00     0.000 C 
ATOM     24  C   UNL A   1      44.511  30.652  28.279  1.00  0.00     0.000 C 
ENDBRANCH  17  20
ENDBRANCH  12  15
ENDBRANCH   7  11
ENDBRANCH   4   7
ENDBRANCH   2   3
ENDBRANCH   1   2
BRANCH   1  25
ATOM     25  C   UNL A   1      40.380  21.841  26.868  1.00  0.00     0.118 C 
BRANCH  25  26
ATOM     26  N   UNL A   1      39.295  22.356  26.060  1.00  0.00    -0.352 N 
ATOM     27  C   UNL A   1      38.732  23.613  26.026  1.00  0.00     0.251 C 
ATOM     28  H   UNL A   1      38.896  21.705  25.438  1.00  0.00     0.163 HD
ATOM     29  O   UNL A   1      37.813  23.820  25.236  1.00  0.00    -0.269 OA
BRANCH  27  30
ATOM     30  C   UNL A   1      39.161  24.708  26.940  1.00  0.00     0.039 A 
ATOM     31  C   UNL A   1      40.071  25.648  26.443  1.00  0.00     0.014 A 
ATOM     32  C   UNL A   1      38.765  24.798  28.276  1.00  0.00     0.014 A 
ATOM     33  C   UNL A   1      40.535  26.694  27.254  1.00  0.00     0.010 A 
ATOM     34  C   UNL A   1      39.190  25.881  29.071  1.00  0.00     0.010 A 
ATOM     35  C   UNL A   1      40.077  26.851  28.573  1.00  0.00    -0.014 A 
BRANCH  35  36
ATOM     36  C   UNL A   1      40.538  28.014  29.405  1.00  0.00     0.031 A 
ATOM     37  C   UNL A   1      39.664  29.234  29.606  1.00  0.00     0.074 A 
ATOM     38  C   UNL A   1      41.752  27.993  30.000  1.00  0.00     0.049 A 
ATOM     39  N   UNL A   1      39.889  30.301  30.334  1.00  0.00    -0.248 NA
ATOM     40  C   UNL A   1      38.385  29.270  28.883  1.00  0.00     0.031 C 
ATOM     41  C   UNL A   1      42.739  26.919  29.876  1.00  0.00     0.029 A 
ATOM     42  N   UNL A   1      42.360  28.895  30.846  1.00  0.00    -0.354 N 
ATOM     43  C   UNL A   1      38.791  31.135  30.148  1.00  0.00     0.074 A 
ATOM     44  C   UNL A   1      37.929  30.476  29.191  1.00  0.00     0.031 C 
ATOM     45  C   UNL A   1      43.799  27.198  30.651  1.00  0.00     0.029 A 
ATOM     46  C   UNL A   1      43.596  28.491  31.301  1.00  0.00     0.049 A 
ATOM     47  H   UNL A   1      41.948  29.753  31.102  1.00  0.00     0.167 HD
ATOM     48  C   UNL A   1      38.503  32.326  30.730  1.00  0.00     0.031 A 
ATOM     49  C   UNL A   1      44.472  29.078  32.143  1.00  0.00     0.031 A 
ATOM     50  C   UNL A   1      39.339  32.992  31.696  1.00  0.00     0.049 A 
ATOM     51  C   UNL A   1      44.137  30.407  32.771  1.00  0.00     0.074 A 
ATOM     52  C   UNL A   1      39.087  34.171  32.380  1.00  0.00     0.029 A 
ATOM     53  N   UNL A   1      40.583  32.550  32.115  1.00  0.00    -0.354 N 
ATOM     54  N   UNL A   1      43.054  31.133  32.639  1.00  0.00    -0.248 NA
ATOM     55  C   UNL A   1      45.142  30.990  33.676  1.00  0.00     0.031 C 
ATOM     56  C   UNL A   1      40.205  34.472  33.166  1.00  0.00     0.029 A 
ATOM     57  C   UNL A   1      41.123  33.445  33.026  1.00  0.00     0.049 A 
ATOM     58  H   UNL A   1      41.019  31.720  31.812  1.00  0.00     0.167 HD
ATOM     59  C   UNL A   1      43.234  32.240  33.464  1.00  0.00     0.074 A 
ATOM     60  C   UNL A   1      44.522  32.081  34.105  1.00  0.00     0.031 C 
ATOM     61  C   UNL A   1      42.403  33.291  33.671  1.00  0.00     0.031 A 
BRANCH  48  62
ATOM     62  C   UNL A   1      37.211  33.000  30.336  1.00  0.00    -0.014 A 
ATOM     63  C   UNL A   1      37.093  33.687  29.114  1.00  0.00     0.010 A 
ATOM     64  C   UNL A   1      36.085  32.903  31.175  1.00  0.00     0.010 A 
ATOM     65  C   UNL A   1      35.892  34.310  28.763  1.00  0.00     0.020 A 
ATOM     66  C   UNL A   1      34.871  33.496  30.811  1.00  0.00     0.020 A 
ATOM     67  C   UNL A   1      34.790  34.213  29.617  1.00  0.00     0.054 A 
BRANCH  67  68
ATOM     68  S   UNL A   1      33.242  35.025  29.130  1.00  0.00     0.124 S 
ATOM     69  O   UNL A   1      32.740  34.119  28.100  1.00  0.00    -0.237 OA
ATOM     70  O   UNL A   1      32.483  35.040  30.378  1.00  0.00    -0.237 OA
ATOM     71  O   UNL A   1      33.673  36.336  28.649  1.00  0.00    -0.744 OA
ENDBRANCH  67  68
ENDBRANCH  48  62
BRANCH  49  72
ATOM     72  C   UNL A   1      45.765  28.407  32.466  1.00  0.00    -0.014 A 
ATOM     73  C   UNL A   1      46.940  28.732  31.765  1.00  0.00     0.010 A 
ATOM     74  C   UNL A   1      45.824  27.422  33.471  1.00  0.00     0.010 A 
ATOM     75  C   UNL A   1      48.141  28.073  32.044  1.00  0.00     0.020 A 
ATOM     76  C   UNL A   1      47.030  26.784  33.776  1.00  0.00     0.020 A 
ATOM     77  C   UNL A   1      48.179  27.104  33.052  1.00  0.00     0.054 A 
BRANCH  77  78
ATOM     78  S   UNL A   1      49.759  26.296  33.431  1.00  0.00     0.124 S 
ATOM     79  O   UNL A   1      49.615  25.996  34.852  1.00  0.00    -0.237 OA
ATOM     80  O   UNL A   1      49.745  25.142  32.536  1.00  0.00    -0.237 OA
ATOM     81  O   UNL A   1      50.752  27.317  33.103  1.00  0.00    -0.744 OA
ENDBRANCH  77  78
ENDBRANCH  49  72
BRANCH  61  82
ATOM     82  C   UNL A   1      42.828  34.346  34.662  1.00  0.00    -0.014 A 
ATOM     83  C   UNL A   1      43.478  35.523  34.250  1.00  0.00     0.010 A 
ATOM     84  C   UNL A   1      42.515  34.184  36.025  1.00  0.00     0.010 A 
ATOM     85  C   UNL A   1      43.832  36.503  35.184  1.00  0.00     0.020 A 
ATOM     86  C   UNL A   1      42.841  35.172  36.958  1.00  0.00     0.020 A 
ATOM     87  C   UNL A   1      43.509  36.321  36.533  1.00  0.00     0.054 A 
BRANCH  87  88
ATOM     88  S   UNL A   1      43.936  37.629  37.717  1.00  0.00     0.124 S 
ATOM     89  O   UNL A   1      42.729  37.708  38.534  1.00  0.00    -0.237 OA
ATOM     90  O   UNL A   1      45.113  37.082  38.387  1.00  0.00    -0.237 OA
ATOM     91  O   UNL A   1      44.193  38.792  36.871  1.00  0.00    -0.744 OA
ENDBRANCH  87  88
ENDBRANCH  61  82
ENDBRANCH  35  36
ENDBRANCH  27  30
ENDBRANCH  25  26
ENDBRANCH   1  25
TORSDOF 17
ENDMDL
MODEL 3
REMARK VINA RESULT:      -9.1      4.112     11.175
REMARK SMILES CC[C@@](C)(NC(=O)N1CCC[C@H]1C1CCCC1)C(=O)NCCCNC(=O)c1ccc(-c2c3nc(c(-c4ccc(S(=O)(=O)[O-])cc4)c4ccc([nH]4)c(-c4ccc(S(=O)(=O)[O-])cc4)c4nc(c(-c5ccc(S(=O)(=O)[O-])cc5)c5ccc2[nH]5)C=C4)C=C3)cc1
REMARK SMILES IDX 22 1 21 2 20 3 18 4 19 5 3 7 4 8 2 9 1 10 5 11 6 12 7 14
REMARK SMILES IDX 8 15 9 16 12 17 10 18 11 19 13 20 14 21 17 22 15 23 16 24
REMARK SMILES IDX 23 25 24 26 25 27 26 29 27 30 28 31 86 32 29 33 85 34 30 35
REMARK SMILES IDX 31 36 32 37 79 38 33 39 84 40 78 41 80 42 34 43 83 44 77 45
REMARK SMILES IDX 76 46 35 48 65 49 46 50 64 51 47 52 50 53 63 54 81 55 48 56
REMARK SMILES IDX 49 57 62 59 82 60 51 61 36 62 37 63 45 64 38 65 44 66 39 67
REMARK SMILES IDX 40 68 41 69 42 70 43 71 66 72 67 73 75 74 68 75 74 76 69 77
REMARK SMILES IDX 70 78 71 79 72 80 73 81 52 82 53 83 61 84 54 85 60 86 55 87
REMARK SMILES IDX 56 88 57 89 58 90 59 91
REMARK H PARENT 20 6 5 13 24 28 80 47 50 58
REMARK Flexibility Score: inf
ROOT
ATOM      1  C   UNL A   1      33.486  27.608  26.270  1.00  0.00     0.042 C 
ENDROOT
BRANCH   1   2
ATOM      2  C   UNL A   1      31.993  27.539  26.570  1.00  0.00     0.117 C 
BRANCH   2   3
ATOM      3  N   UNL A   1      31.103  27.437  25.425  1.00  0.00    -0.354 N 
ATOM      4  C   UNL A   1      30.753  26.399  24.606  1.00  0.00     0.245 C 
ATOM      5  O   UNL A   1      29.700  26.568  23.979  1.00  0.00    -0.272 OA
ATOM      6  H   UNL A   1      30.663  28.286  25.192  1.00  0.00     0.163 HD
BRANCH   4   7
ATOM      7  C   UNL A   1      31.533  25.045  24.534  1.00  0.00     0.117 C 
ATOM      8  C   UNL A   1      30.632  24.085  23.709  1.00  0.00     0.045 C 
BRANCH   7   9
ATOM      9  C   UNL A   1      32.906  25.138  23.786  1.00  0.00     0.035 C 
ATOM     10  C   UNL A   1      32.959  25.889  22.457  1.00  0.00     0.007 C 
ENDBRANCH   7   9
BRANCH   7  11
ATOM     11  N   UNL A   1      31.794  24.407  25.858  1.00  0.00    -0.324 N 
ATOM     12  C   UNL A   1      31.758  23.117  26.278  1.00  0.00     0.318 C 
ATOM     13  H   UNL A   1      32.040  25.047  26.564  1.00  0.00     0.166 HD
ATOM     14  O   UNL A   1      31.084  22.934  27.295  1.00  0.00    -0.249 OA
BRANCH  12  15
ATOM     15  N   UNL A   1      32.449  22.107  25.682  1.00  0.00    -0.322 N 
ATOM     16  C   UNL A   1      31.978  21.089  24.775  1.00  0.00     0.122 C 
ATOM     17  C   UNL A   1      33.879  21.860  25.990  1.00  0.00     0.090 C 
ATOM     18  C   UNL A   1      32.787  19.859  25.107  1.00  0.00     0.024 C 
ATOM     19  C   UNL A   1      34.140  20.411  25.506  1.00  0.00     0.027 C 
BRANCH  17  20
ATOM     20  C   UNL A   1      34.925  22.797  25.318  1.00  0.00     0.012 C 
ATOM     21  C   UNL A   1      36.232  22.970  26.083  1.00  0.00     0.006 C 
ATOM     22  C   UNL A   1      35.421  22.415  23.924  1.00  0.00     0.006 C 
ATOM     23  C   UNL A   1      37.153  23.674  25.099  1.00  0.00     0.000 C 
ATOM     24  C   UNL A   1      36.720  23.197  23.720  1.00  0.00     0.000 C 
ENDBRANCH  17  20
ENDBRANCH  12  15
ENDBRANCH   7  11
ENDBRANCH   4   7
ENDBRANCH   2   3
ENDBRANCH   1   2
BRANCH   1  25
ATOM     25  C   UNL A   1      34.044  28.951  25.802  1.00  0.00     0.118 C 
BRANCH  25  26
ATOM     26  N   UNL A   1      33.694  30.092  26.620  1.00  0.00    -0.352 N 
ATOM     27  C   UNL A   1      34.411  30.728  27.610  1.00  0.00     0.251 C 
ATOM     28  H   UNL A   1      32.804  30.474  26.442  1.00  0.00     0.163 HD
ATOM     29  O   UNL A   1      33.903  31.699  28.167  1.00  0.00    -0.269 OA
BRANCH  27  30
ATOM     30  C   UNL A   1      35.749  30.254  28.061  1.00  0.00     0.039 A 
ATOM     31  C   UNL A   1      36.825  30.418  27.181  1.00  0.00     0.014 A 
ATOM     32  C   UNL A   1      35.967  29.592  29.271  1.00  0.00     0.014 A 
ATOM     33  C   UNL A   1      38.110  29.976  27.530  1.00  0.00     0.010 A 
ATOM     34  C   UNL A   1      37.268  29.199  29.642  1.00  0.00     0.010 A 
ATOM     35  C   UNL A   1      38.363  29.389  28.781  1.00  0.00    -0.014 A 
BRANCH  35  36
ATOM     36  C   UNL A   1      39.758  28.979  29.161  1.00  0.00     0.031 A 
ATOM     37  C   UNL A   1      40.660  29.899  29.955  1.00  0.00     0.074 A 
ATOM     38  C   UNL A   1      40.238  27.767  28.801  1.00  0.00     0.049 A 
ATOM     39  N   UNL A   1      41.871  29.680  30.409  1.00  0.00    -0.248 NA
ATOM     40  C   UNL A   1      40.146  31.241  30.264  1.00  0.00     0.031 C 
ATOM     41  C   UNL A   1      39.522  26.776  27.996  1.00  0.00     0.029 A 
ATOM     42  N   UNL A   1      41.440  27.152  29.079  1.00  0.00    -0.354 N 
ATOM     43  C   UNL A   1      42.266  30.854  31.042  1.00  0.00     0.074 A 
ATOM     44  C   UNL A   1      41.187  31.803  30.862  1.00  0.00     0.031 C 
ATOM     45  C   UNL A   1      40.271  25.667  27.889  1.00  0.00     0.029 A 
ATOM     46  C   UNL A   1      41.543  25.873  28.579  1.00  0.00     0.049 A 
ATOM     47  H   UNL A   1      42.161  27.589  29.590  1.00  0.00     0.167 HD
ATOM     48  C   UNL A   1      43.402  31.123  31.732  1.00  0.00     0.031 A 
ATOM     49  C   UNL A   1      42.534  24.960  28.660  1.00  0.00     0.031 A 
ATOM     50  C   UNL A   1      44.480  30.189  31.937  1.00  0.00     0.049 A 
ATOM     51  C   UNL A   1      43.793  25.284  29.424  1.00  0.00     0.074 A 
ATOM     52  C   UNL A   1      45.637  30.366  32.678  1.00  0.00     0.029 A 
ATOM     53  N   UNL A   1      44.542  28.913  31.403  1.00  0.00    -0.354 N 
ATOM     54  N   UNL A   1      44.103  26.374  30.081  1.00  0.00    -0.248 NA
ATOM     55  C   UNL A   1      44.834  24.243  29.466  1.00  0.00     0.031 C 
ATOM     56  C   UNL A   1      46.426  29.218  32.543  1.00  0.00     0.029 A 
ATOM     57  C   UNL A   1      45.729  28.300  31.774  1.00  0.00     0.049 A 
ATOM     58  H   UNL A   1      43.845  28.501  30.842  1.00  0.00     0.167 HD
ATOM     59  C   UNL A   1      45.357  26.139  30.639  1.00  0.00     0.074 A 
ATOM     60  C   UNL A   1      45.743  24.797  30.256  1.00  0.00     0.031 C 
ATOM     61  C   UNL A   1      46.117  26.964  31.401  1.00  0.00     0.031 A 
BRANCH  48  62
ATOM     62  C   UNL A   1      43.544  32.503  32.330  1.00  0.00    -0.014 A 
ATOM     63  C   UNL A   1      44.181  33.539  31.622  1.00  0.00     0.010 A 
ATOM     64  C   UNL A   1      42.990  32.780  33.593  1.00  0.00     0.010 A 
ATOM     65  C   UNL A   1      44.309  34.809  32.189  1.00  0.00     0.020 A 
ATOM     66  C   UNL A   1      43.086  34.060  34.149  1.00  0.00     0.020 A 
ATOM     67  C   UNL A   1      43.764  35.061  33.451  1.00  0.00     0.054 A 
BRANCH  67  68
ATOM     68  S   UNL A   1      43.939  36.723  34.157  1.00  0.00     0.124 S 
ATOM     69  O   UNL A   1      44.421  37.487  33.008  1.00  0.00    -0.237 OA
ATOM     70  O   UNL A   1      42.579  37.031  34.590  1.00  0.00    -0.237 OA
ATOM     71  O   UNL A   1      44.909  36.543  35.235  1.00  0.00    -0.744 OA
ENDBRANCH  67  68
ENDBRANCH  48  62
BRANCH  49  72
ATOM     72  C   UNL A   1      42.379  23.627  28.009  1.00  0.00    -0.014 A 
ATOM     73  C   UNL A   1      41.757  22.563  28.687  1.00  0.00     0.010 A 
ATOM     74  C   UNL A   1      42.871  23.409  26.708  1.00  0.00     0.010 A 
ATOM     75  C   UNL A   1      41.648  21.304  28.088  1.00  0.00     0.020 A 
ATOM     76  C   UNL A   1      42.735  22.160  26.093  1.00  0.00     0.020 A 
ATOM     77  C   UNL A   1      42.135  21.112  26.792  1.00  0.00     0.054 A 
BRANCH  77  78
ATOM     78  S   UNL A   1      41.940  19.483  26.015  1.00  0.00     0.124 S 
ATOM     79  O   UNL A   1      42.352  18.583  27.089  1.00  0.00    -0.237 OA
ATOM     80  O   UNL A   1      40.518  19.461  25.683  1.00  0.00    -0.237 OA
ATOM     81  O   UNL A   1      42.840  19.542  24.866  1.00  0.00    -0.744 OA
ENDBRANCH  77  78
ENDBRANCH  49  72
BRANCH  61  82
ATOM     82  C   UNL A   1      47.434  26.439  31.917  1.00  0.00    -0.014 A 
ATOM     83  C   UNL A   1      47.525  25.765  33.149  1.00  0.00     0.010 A 
ATOM     84  C   UNL A   1      48.592  26.570  31.127  1.00  0.00     0.010 A 
ATOM     85  C   UNL A   1      48.752  25.257  33.591  1.00  0.00     0.020 A 
ATOM     86  C   UNL A   1      49.813  26.039  31.551  1.00  0.00     0.020 A 
ATOM     87  C   UNL A   1      49.888  25.396  32.787  1.00  0.00     0.054 A 
BRANCH  87  88
ATOM     88  S   UNL A   1      51.457  24.687  33.363  1.00  0.00     0.124 S 
ATOM     89  O   UNL A   1      51.010  23.748  34.388  1.00  0.00    -0.237 OA
ATOM     90  O   UNL A   1      51.998  24.081  32.149  1.00  0.00    -0.237 OA
ATOM     91  O   UNL A   1      52.199  25.843  33.859  1.00  0.00    -0.744 OA
ENDBRANCH  87  88
ENDBRANCH  61  82
ENDBRANCH  35  36
ENDBRANCH  27  30
ENDBRANCH  25  26
ENDBRANCH   1  25
TORSDOF 17
ENDMDL
