MODEL 1
REMARK VINA RESULT:     -14.4      0.000      0.000
REMARK SMILES Cc1ccccc1/C=C1\SC(=O)N(CC(=O)Nc2ccccc2C(=O)NCCCNC(=O)c2ccc(-c3c4nc(c(-c5ccc(S(=O)(=O)[O-])cc5)c5ccc([nH]5)c(-c5ccc(S(=O)(=O)[O-])cc5)c5nc(c(-c6ccc(S(=O)(=O)[O-])cc6)c6ccc3[nH]6)C=C5)C=C4)cc2)C1=O
REMARK SMILES IDX 27 1 26 2 24 3 25 4 23 6 18 7 19 8 20 9 22 10 21 11 17 12
REMARK SMILES IDX 15 13 16 14 14 16 13 17 8 18 9 19 10 20 93 21 11 22 94 23
REMARK SMILES IDX 12 24 7 25 1 26 2 27 3 28 4 29 6 30 5 31 28 32 29 33 30 34
REMARK SMILES IDX 31 35 32 37 33 38 34 39 92 40 35 41 91 42 36 43 37 44 38 45
REMARK SMILES IDX 85 46 39 47 90 48 84 49 86 50 40 51 89 52 83 53 82 54 41 56
REMARK SMILES IDX 71 57 52 58 70 59 53 60 56 61 69 62 87 63 54 64 55 65 68 67
REMARK SMILES IDX 88 68 57 69 42 70 43 71 51 72 44 73 50 74 45 75 46 76 47 77
REMARK SMILES IDX 48 78 49 79 72 80 73 81 81 82 74 83 80 84 75 85 76 86 77 87
REMARK SMILES IDX 78 88 79 89 58 90 59 91 67 92 60 93 66 94 61 95 62 96 63 97
REMARK SMILES IDX 64 98 65 99
REMARK H PARENT 26 5 17 15 30 36 86 55 56 66
REMARK Flexibility Score: inf
ROOT
ATOM      1  C   UNL A   1      33.299  29.410  25.325  1.00  0.00     0.118 C 
ENDROOT
BRANCH   1   2
ATOM      2  N   UNL A   1      32.003  29.650  24.673  1.00  0.00    -0.352 N 
ATOM      3  C   UNL A   1      31.121  28.987  23.845  1.00  0.00     0.253 C 
ATOM      4  O   UNL A   1      29.992  29.461  23.720  1.00  0.00    -0.269 OA
ATOM      5  H   UNL A   1      31.665  30.549  24.891  1.00  0.00     0.163 HD
BRANCH   3   6
ATOM      6  C   UNL A   1      31.411  27.742  23.099  1.00  0.00     0.063 A 
ATOM      7  C   UNL A   1      30.908  26.467  23.470  1.00  0.00     0.054 A 
ATOM      8  C   UNL A   1      31.448  25.323  22.836  1.00  0.00     0.027 A 
ATOM      9  C   UNL A   1      32.444  25.409  21.866  1.00  0.00     0.002 A 
ATOM     10  C   UNL A   1      32.467  27.787  22.169  1.00  0.00     0.016 A 
ATOM     11  C   UNL A   1      32.965  26.646  21.542  1.00  0.00     0.001 A 
BRANCH   7  12
ATOM     12  N   UNL A   1      30.112  26.109  24.580  1.00  0.00    -0.324 N 
ATOM     13  C   UNL A   1      30.283  25.670  25.854  1.00  0.00     0.244 C 
ATOM     14  O   UNL A   1      29.236  25.526  26.506  1.00  0.00    -0.273 OA
ATOM     15  H   UNL A   1      29.156  26.203  24.369  1.00  0.00     0.170 HD
BRANCH  13  16
ATOM     16  C   UNL A   1      31.614  25.571  26.571  1.00  0.00     0.230 C 
BRANCH  16  17
ATOM     17  N   UNL A   1      32.365  24.373  26.333  1.00  0.00    -0.259 N 
ATOM     18  C   UNL A   1      32.354  20.936  25.809  1.00  0.00     0.029 C 
ATOM     19  C   UNL A   1      32.910  22.100  26.205  1.00  0.00     0.083 C 
ATOM     20  S   UNL A   1      34.327  22.915  25.692  1.00  0.00    -0.022 SA
ATOM     21  C   UNL A   1      32.039  23.136  26.867  1.00  0.00     0.268 C 
ATOM     22  C   UNL A   1      33.565  24.468  25.690  1.00  0.00     0.294 C 
ATOM     23  O   UNL A   1      31.173  22.897  27.695  1.00  0.00    -0.268 OA
ATOM     24  O   UNL A   1      34.069  25.451  25.189  1.00  0.00    -0.261 OA
BRANCH  18  25
ATOM     25  C   UNL A   1      32.612  20.025  24.641  1.00  0.00    -0.021 A 
ATOM     26  C   UNL A   1      32.174  21.531  22.581  1.00  0.00     0.045 C 
ATOM     27  C   UNL A   1      32.371  20.240  23.279  1.00  0.00    -0.044 A 
ATOM     28  C   UNL A   1      32.320  19.161  22.373  1.00  0.00     0.004 A 
ATOM     29  C   UNL A   1      32.659  17.878  22.742  1.00  0.00     0.000 A 
ATOM     30  C   UNL A   1      33.005  18.709  24.983  1.00  0.00     0.008 A 
ATOM     31  C   UNL A   1      33.048  17.659  24.047  1.00  0.00     0.001 A 
ENDBRANCH  18  25
ENDBRANCH  16  17
ENDBRANCH  13  16
ENDBRANCH   7  12
ENDBRANCH   3   6
ENDBRANCH   1   2
BRANCH   1  32
ATOM     32  C   UNL A   1      33.292  29.193  26.837  1.00  0.00     0.042 C 
BRANCH  32  33
ATOM     33  C   UNL A   1      34.670  29.134  27.497  1.00  0.00     0.118 C 
BRANCH  33  34
ATOM     34  N   UNL A   1      35.514  30.319  27.336  1.00  0.00    -0.352 N 
ATOM     35  C   UNL A   1      36.794  30.582  27.806  1.00  0.00     0.251 C 
ATOM     36  H   UNL A   1      35.109  31.045  26.808  1.00  0.00     0.163 HD
ATOM     37  O   UNL A   1      37.155  31.746  27.950  1.00  0.00    -0.269 OA
BRANCH  35  38
ATOM     38  C   UNL A   1      37.762  29.476  28.014  1.00  0.00     0.039 A 
ATOM     39  C   UNL A   1      37.624  28.672  29.162  1.00  0.00     0.014 A 
ATOM     40  C   UNL A   1      38.904  29.379  27.232  1.00  0.00     0.014 A 
ATOM     41  C   UNL A   1      38.719  27.952  29.641  1.00  0.00     0.010 A 
ATOM     42  C   UNL A   1      40.018  28.778  27.769  1.00  0.00     0.010 A 
ATOM     43  C   UNL A   1      39.940  28.119  29.004  1.00  0.00    -0.014 A 
BRANCH  43  44
ATOM     44  C   UNL A   1      41.205  27.539  29.425  1.00  0.00     0.031 A 
ATOM     45  C   UNL A   1      41.415  26.149  28.970  1.00  0.00     0.074 A 
ATOM     46  C   UNL A   1      42.179  28.338  29.930  1.00  0.00     0.049 A 
ATOM     47  N   UNL A   1      42.434  25.433  29.264  1.00  0.00    -0.248 NA
ATOM     48  C   UNL A   1      40.433  25.426  28.150  1.00  0.00     0.031 C 
ATOM     49  C   UNL A   1      43.625  28.136  29.954  1.00  0.00     0.029 A 
ATOM     50  N   UNL A   1      42.008  29.473  30.731  1.00  0.00    -0.354 N 
ATOM     51  C   UNL A   1      42.391  24.307  28.470  1.00  0.00     0.074 A 
ATOM     52  C   UNL A   1      41.087  24.298  27.868  1.00  0.00     0.031 C 
ATOM     53  C   UNL A   1      44.158  28.901  30.930  1.00  0.00     0.029 A 
ATOM     54  C   UNL A   1      43.041  29.476  31.672  1.00  0.00     0.049 A 
ATOM     55  H   UNL A   1      41.293  30.145  30.648  1.00  0.00     0.167 HD
ATOM     56  C   UNL A   1      43.538  23.595  28.320  1.00  0.00     0.031 A 
ATOM     57  C   UNL A   1      42.752  29.288  32.990  1.00  0.00     0.031 A 
ATOM     58  C   UNL A   1      44.538  24.084  29.264  1.00  0.00     0.049 A 
ATOM     59  C   UNL A   1      43.432  28.030  33.451  1.00  0.00     0.074 A 
ATOM     60  C   UNL A   1      45.561  25.008  29.138  1.00  0.00     0.029 A 
ATOM     61  N   UNL A   1      44.279  23.952  30.624  1.00  0.00    -0.354 N 
ATOM     62  N   UNL A   1      43.612  26.982  32.692  1.00  0.00    -0.248 NA
ATOM     63  C   UNL A   1      44.062  27.914  34.760  1.00  0.00     0.031 C 
ATOM     64  C   UNL A   1      45.827  25.524  30.437  1.00  0.00     0.029 A 
ATOM     65  C   UNL A   1      45.001  24.881  31.347  1.00  0.00     0.049 A 
ATOM     66  H   UNL A   1      43.667  23.290  31.016  1.00  0.00     0.167 HD
ATOM     67  C   UNL A   1      44.424  26.101  33.348  1.00  0.00     0.074 A 
ATOM     68  C   UNL A   1      44.660  26.718  34.645  1.00  0.00     0.031 C 
ATOM     69  C   UNL A   1      44.873  24.939  32.797  1.00  0.00     0.031 A 
BRANCH  56  70
ATOM     70  C   UNL A   1      43.847  22.643  27.193  1.00  0.00    -0.014 A 
ATOM     71  C   UNL A   1      42.960  21.570  26.972  1.00  0.00     0.010 A 
ATOM     72  C   UNL A   1      45.005  22.668  26.389  1.00  0.00     0.010 A 
ATOM     73  C   UNL A   1      43.226  20.562  26.036  1.00  0.00     0.020 A 
ATOM     74  C   UNL A   1      45.280  21.670  25.439  1.00  0.00     0.020 A 
ATOM     75  C   UNL A   1      44.391  20.613  25.277  1.00  0.00     0.054 A 
BRANCH  75  76
ATOM     76  S   UNL A   1      44.723  19.285  24.094  1.00  0.00     0.124 S 
ATOM     77  O   UNL A   1      44.489  19.943  22.811  1.00  0.00    -0.237 OA
ATOM     78  O   UNL A   1      46.113  18.945  24.384  1.00  0.00    -0.237 OA
ATOM     79  O   UNL A   1      43.748  18.254  24.446  1.00  0.00    -0.744 OA
ENDBRANCH  75  76
ENDBRANCH  56  70
BRANCH  57  80
ATOM     80  C   UNL A   1      41.363  29.722  33.367  1.00  0.00    -0.014 A 
ATOM     81  C   UNL A   1      41.075  31.104  33.473  1.00  0.00     0.010 A 
ATOM     82  C   UNL A   1      40.282  28.834  33.225  1.00  0.00     0.010 A 
ATOM     83  C   UNL A   1      39.764  31.588  33.322  1.00  0.00     0.020 A 
ATOM     84  C   UNL A   1      38.970  29.317  33.079  1.00  0.00     0.020 A 
ATOM     85  C   UNL A   1      38.724  30.692  33.075  1.00  0.00     0.054 A 
BRANCH  85  86
ATOM     86  S   UNL A   1      37.068  31.331  32.656  1.00  0.00     0.124 S 
ATOM     87  O   UNL A   1      36.326  30.111  32.354  1.00  0.00    -0.237 OA
ATOM     88  O   UNL A   1      36.664  32.015  33.880  1.00  0.00    -0.237 OA
ATOM     89  O   UNL A   1      37.317  32.213  31.519  1.00  0.00    -0.744 OA
ENDBRANCH  85  86
ENDBRANCH  57  80
BRANCH  69  90
ATOM     90  C   UNL A   1      45.295  23.752  33.620  1.00  0.00    -0.014 A 
ATOM     91  C   UNL A   1      46.561  23.649  34.215  1.00  0.00     0.010 A 
ATOM     92  C   UNL A   1      44.343  22.762  33.957  1.00  0.00     0.010 A 
ATOM     93  C   UNL A   1      46.904  22.558  35.010  1.00  0.00     0.020 A 
ATOM     94  C   UNL A   1      44.651  21.707  34.814  1.00  0.00     0.020 A 
ATOM     95  C   UNL A   1      45.946  21.589  35.299  1.00  0.00     0.054 A 
BRANCH  95  96
ATOM     96  S   UNL A   1      46.416  20.195  36.341  1.00  0.00     0.124 S 
ATOM     97  O   UNL A   1      45.769  19.081  35.651  1.00  0.00    -0.237 OA
ATOM     98  O   UNL A   1      47.875  20.215  36.269  1.00  0.00    -0.237 OA
ATOM     99  O   UNL A   1      45.856  20.534  37.646  1.00  0.00    -0.744 OA
ENDBRANCH  95  96
ENDBRANCH  69  90
ENDBRANCH  43  44
ENDBRANCH  35  38
ENDBRANCH  33  34
ENDBRANCH  32  33
ENDBRANCH   1  32
TORSDOF 17
ENDMDL
MODEL 2
REMARK VINA RESULT:     -12.9      2.242      3.607
REMARK SMILES Cc1ccccc1/C=C1\SC(=O)N(CC(=O)Nc2ccccc2C(=O)NCCCNC(=O)c2ccc(-c3c4nc(c(-c5ccc(S(=O)(=O)[O-])cc5)c5ccc([nH]5)c(-c5ccc(S(=O)(=O)[O-])cc5)c5nc(c(-c6ccc(S(=O)(=O)[O-])cc6)c6ccc3[nH]6)C=C5)C=C4)cc2)C1=O
REMARK SMILES IDX 27 1 26 2 24 3 25 4 23 6 18 7 19 8 20 9 22 10 21 11 17 12
REMARK SMILES IDX 15 13 16 14 14 16 13 17 8 18 9 19 10 20 93 21 11 22 94 23
REMARK SMILES IDX 12 24 7 25 1 26 2 27 3 28 4 29 6 30 5 31 28 32 29 33 30 34
REMARK SMILES IDX 31 35 32 37 33 38 34 39 92 40 35 41 91 42 36 43 37 44 38 45
REMARK SMILES IDX 85 46 39 47 90 48 84 49 86 50 40 51 89 52 83 53 82 54 41 56
REMARK SMILES IDX 71 57 52 58 70 59 53 60 56 61 69 62 87 63 54 64 55 65 68 67
REMARK SMILES IDX 88 68 57 69 42 70 43 71 51 72 44 73 50 74 45 75 46 76 47 77
REMARK SMILES IDX 48 78 49 79 72 80 73 81 81 82 74 83 80 84 75 85 76 86 77 87
REMARK SMILES IDX 78 88 79 89 58 90 59 91 67 92 60 93 66 94 61 95 62 96 63 97
REMARK SMILES IDX 64 98 65 99
REMARK H PARENT 26 5 17 15 30 36 86 55 56 66
REMARK Flexibility Score: inf
ROOT
ATOM      1  C   UNL A   1      32.332  27.307  26.287  1.00  0.00     0.118 C 
ENDROOT
BRANCH   1   2
ATOM      2  N   UNL A   1      31.222  27.527  25.348  1.00  0.00    -0.352 N 
ATOM      3  C   UNL A   1      30.621  26.885  24.285  1.00  0.00     0.253 C 
ATOM      4  O   UNL A   1      29.526  27.305  23.911  1.00  0.00    -0.269 OA
ATOM      5  H   UNL A   1      30.777  28.387  25.531  1.00  0.00     0.163 HD
BRANCH   3   6
ATOM      6  C   UNL A   1      31.175  25.720  23.559  1.00  0.00     0.063 A 
ATOM      7  C   UNL A   1      31.143  24.392  24.060  1.00  0.00     0.054 A 
ATOM      8  C   UNL A   1      31.917  23.408  23.400  1.00  0.00     0.027 A 
ATOM      9  C   UNL A   1      32.696  23.698  22.282  1.00  0.00     0.002 A 
ATOM     10  C   UNL A   1      32.028  25.994  22.473  1.00  0.00     0.016 A 
ATOM     11  C   UNL A   1      32.763  25.000  21.827  1.00  0.00     0.001 A 
BRANCH   7  12
ATOM     12  N   UNL A   1      30.655  23.915  25.297  1.00  0.00    -0.324 N 
ATOM     13  C   UNL A   1      31.129  23.645  26.540  1.00  0.00     0.244 C 
ATOM     14  O   UNL A   1      30.275  23.266  27.358  1.00  0.00    -0.273 OA
ATOM     15  H   UNL A   1      29.692  23.721  25.240  1.00  0.00     0.170 HD
BRANCH  13  16
ATOM     16  C   UNL A   1      32.521  23.979  27.035  1.00  0.00     0.230 C 
BRANCH  16  17
ATOM     17  N   UNL A   1      33.596  23.268  26.405  1.00  0.00    -0.259 N 
ATOM     18  C   UNL A   1      36.890  23.275  25.291  1.00  0.00     0.029 C 
ATOM     19  C   UNL A   1      35.608  22.853  25.283  1.00  0.00     0.083 C 
ATOM     20  S   UNL A   1      34.921  21.303  25.529  1.00  0.00    -0.022 SA
ATOM     21  C   UNL A   1      34.509  23.851  25.541  1.00  0.00     0.268 C 
ATOM     22  C   UNL A   1      33.636  21.908  26.516  1.00  0.00     0.294 C 
ATOM     23  O   UNL A   1      34.474  24.986  25.090  1.00  0.00    -0.268 OA
ATOM     24  O   UNL A   1      32.911  21.189  27.172  1.00  0.00    -0.261 OA
BRANCH  18  25
ATOM     25  C   UNL A   1      38.175  22.631  25.730  1.00  0.00    -0.021 A 
ATOM     26  C   UNL A   1      38.073  20.272  24.667  1.00  0.00     0.045 C 
ATOM     27  C   UNL A   1      38.590  21.300  25.599  1.00  0.00    -0.044 A 
ATOM     28  C   UNL A   1      39.642  20.789  26.385  1.00  0.00     0.004 A 
ATOM     29  C   UNL A   1      40.412  21.596  27.192  1.00  0.00     0.000 A 
ATOM     30  C   UNL A   1      39.012  23.448  26.527  1.00  0.00     0.008 A 
ATOM     31  C   UNL A   1      40.124  22.945  27.228  1.00  0.00     0.001 A 
ENDBRANCH  18  25
ENDBRANCH  16  17
ENDBRANCH  13  16
ENDBRANCH   7  12
ENDBRANCH   3   6
ENDBRANCH   1   2
BRANCH   1  32
ATOM     32  C   UNL A   1      32.807  28.509  27.101  1.00  0.00     0.042 C 
BRANCH  32  33
ATOM     33  C   UNL A   1      33.509  29.607  26.301  1.00  0.00     0.118 C 
BRANCH  33  34
ATOM     34  N   UNL A   1      33.776  30.856  27.015  1.00  0.00    -0.352 N 
ATOM     35  C   UNL A   1      34.580  31.106  28.120  1.00  0.00     0.251 C 
ATOM     36  H   UNL A   1      33.310  31.645  26.654  1.00  0.00     0.163 HD
ATOM     37  O   UNL A   1      34.344  32.081  28.827  1.00  0.00    -0.269 OA
BRANCH  35  38
ATOM     38  C   UNL A   1      35.786  30.280  28.375  1.00  0.00     0.039 A 
ATOM     39  C   UNL A   1      36.003  29.795  29.679  1.00  0.00     0.014 A 
ATOM     40  C   UNL A   1      36.791  30.182  27.423  1.00  0.00     0.014 A 
ATOM     41  C   UNL A   1      37.288  29.429  30.079  1.00  0.00     0.010 A 
ATOM     42  C   UNL A   1      38.077  29.947  27.847  1.00  0.00     0.010 A 
ATOM     43  C   UNL A   1      38.333  29.633  29.190  1.00  0.00    -0.014 A 
BRANCH  43  44
ATOM     44  C   UNL A   1      39.742  29.414  29.469  1.00  0.00     0.031 A 
ATOM     45  C   UNL A   1      40.212  28.044  29.178  1.00  0.00     0.074 A 
ATOM     46  C   UNL A   1      40.559  30.475  29.691  1.00  0.00     0.049 A 
ATOM     47  N   UNL A   1      41.400  27.620  29.393  1.00  0.00    -0.248 NA
ATOM     48  C   UNL A   1      39.328  27.000  28.638  1.00  0.00     0.031 C 
ATOM     49  C   UNL A   1      42.002  30.591  29.502  1.00  0.00     0.029 A 
ATOM     50  N   UNL A   1      40.233  31.667  30.349  1.00  0.00    -0.354 N 
ATOM     51  C   UNL A   1      41.519  26.393  28.777  1.00  0.00     0.074 A 
ATOM     52  C   UNL A   1      40.186  26.006  28.407  1.00  0.00     0.031 C 
ATOM     53  C   UNL A   1      42.464  31.606  30.263  1.00  0.00     0.029 A 
ATOM     54  C   UNL A   1      41.351  32.049  31.095  1.00  0.00     0.049 A 
ATOM     55  H   UNL A   1      39.375  32.148  30.295  1.00  0.00     0.167 HD
ATOM     56  C   UNL A   1      42.771  25.925  28.537  1.00  0.00     0.031 A 
ATOM     57  C   UNL A   1      41.289  32.030  32.457  1.00  0.00     0.031 A 
ATOM     58  C   UNL A   1      43.744  26.768  29.225  1.00  0.00     0.049 A 
ATOM     59  C   UNL A   1      42.301  31.042  32.963  1.00  0.00     0.074 A 
ATOM     60  C   UNL A   1      44.494  27.852  28.806  1.00  0.00     0.029 A 
ATOM     61  N   UNL A   1      43.704  26.817  30.614  1.00  0.00    -0.354 N 
ATOM     62  N   UNL A   1      42.621  29.942  32.335  1.00  0.00    -0.248 NA
ATOM     63  C   UNL A   1      43.107  31.286  34.153  1.00  0.00     0.031 C 
ATOM     64  C   UNL A   1      44.801  28.626  29.962  1.00  0.00     0.029 A 
ATOM     65  C   UNL A   1      44.276  27.986  31.075  1.00  0.00     0.049 A 
ATOM     66  H   UNL A   1      43.322  26.116  31.189  1.00  0.00     0.167 HD
ATOM     67  C   UNL A   1      43.696  29.378  32.960  1.00  0.00     0.074 A 
ATOM     68  C   UNL A   1      43.949  30.242  34.103  1.00  0.00     0.031 C 
ATOM     69  C   UNL A   1      44.330  28.261  32.505  1.00  0.00     0.031 A 
BRANCH  56  70
ATOM     70  C   UNL A   1      43.144  24.883  27.513  1.00  0.00    -0.014 A 
ATOM     71  C   UNL A   1      43.793  23.715  27.964  1.00  0.00     0.010 A 
ATOM     72  C   UNL A   1      42.992  25.010  26.117  1.00  0.00     0.010 A 
ATOM     73  C   UNL A   1      44.294  22.751  27.080  1.00  0.00     0.020 A 
ATOM     74  C   UNL A   1      43.480  24.046  25.219  1.00  0.00     0.020 A 
ATOM     75  C   UNL A   1      44.140  22.924  25.708  1.00  0.00     0.054 A 
BRANCH  75  76
ATOM     76  S   UNL A   1      44.820  21.676  24.588  1.00  0.00     0.124 S 
ATOM     77  O   UNL A   1      43.999  20.506  24.890  1.00  0.00    -0.237 OA
ATOM     78  O   UNL A   1      44.601  22.278  23.276  1.00  0.00    -0.237 OA
ATOM     79  O   UNL A   1      46.221  21.569  24.994  1.00  0.00    -0.744 OA
ENDBRANCH  75  76
ENDBRANCH  56  70
BRANCH  57  80
ATOM     80  C   UNL A   1      39.899  32.218  32.996  1.00  0.00    -0.014 A 
ATOM     81  C   UNL A   1      39.405  33.529  33.193  1.00  0.00     0.010 A 
ATOM     82  C   UNL A   1      38.968  31.166  32.931  1.00  0.00     0.010 A 
ATOM     83  C   UNL A   1      38.024  33.793  33.202  1.00  0.00     0.020 A 
ATOM     84  C   UNL A   1      37.587  31.428  32.947  1.00  0.00     0.020 A 
ATOM     85  C   UNL A   1      37.122  32.742  33.028  1.00  0.00     0.054 A 
BRANCH  85  86
ATOM     86  S   UNL A   1      35.348  33.108  32.814  1.00  0.00     0.124 S 
ATOM     87  O   UNL A   1      34.888  33.256  34.192  1.00  0.00    -0.237 OA
ATOM     88  O   UNL A   1      35.361  34.338  32.030  1.00  0.00    -0.237 OA
ATOM     89  O   UNL A   1      34.839  31.938  32.104  1.00  0.00    -0.744 OA
ENDBRANCH  85  86
ENDBRANCH  57  80
BRANCH  69  90
ATOM     90  C   UNL A   1      45.123  27.348  33.398  1.00  0.00    -0.014 A 
ATOM     91  C   UNL A   1      44.771  27.093  34.733  1.00  0.00     0.010 A 
ATOM     92  C   UNL A   1      46.175  26.577  32.853  1.00  0.00     0.010 A 
ATOM     93  C   UNL A   1      45.500  26.205  35.520  1.00  0.00     0.020 A 
ATOM     94  C   UNL A   1      46.862  25.629  33.609  1.00  0.00     0.020 A 
ATOM     95  C   UNL A   1      46.547  25.482  34.953  1.00  0.00     0.054 A 
BRANCH  95  96
ATOM     96  S   UNL A   1      47.464  24.331  35.994  1.00  0.00     0.124 S 
ATOM     97  O   UNL A   1      46.624  24.281  37.189  1.00  0.00    -0.237 OA
ATOM     98  O   UNL A   1      47.481  23.112  35.189  1.00  0.00    -0.237 OA
ATOM     99  O   UNL A   1      48.761  24.978  36.165  1.00  0.00    -0.744 OA
ENDBRANCH  95  96
ENDBRANCH  69  90
ENDBRANCH  43  44
ENDBRANCH  35  38
ENDBRANCH  33  34
ENDBRANCH  32  33
ENDBRANCH   1  32
TORSDOF 17
ENDMDL
MODEL 3
REMARK VINA RESULT:     -12.8      1.917      2.807
REMARK SMILES Cc1ccccc1/C=C1\SC(=O)N(CC(=O)Nc2ccccc2C(=O)NCCCNC(=O)c2ccc(-c3c4nc(c(-c5ccc(S(=O)(=O)[O-])cc5)c5ccc([nH]5)c(-c5ccc(S(=O)(=O)[O-])cc5)c5nc(c(-c6ccc(S(=O)(=O)[O-])cc6)c6ccc3[nH]6)C=C5)C=C4)cc2)C1=O
REMARK SMILES IDX 27 1 26 2 24 3 25 4 23 6 18 7 19 8 20 9 22 10 21 11 17 12
REMARK SMILES IDX 15 13 16 14 14 16 13 17 8 18 9 19 10 20 93 21 11 22 94 23
REMARK SMILES IDX 12 24 7 25 1 26 2 27 3 28 4 29 6 30 5 31 28 32 29 33 30 34
REMARK SMILES IDX 31 35 32 37 33 38 34 39 92 40 35 41 91 42 36 43 37 44 38 45
REMARK SMILES IDX 85 46 39 47 90 48 84 49 86 50 40 51 89 52 83 53 82 54 41 56
REMARK SMILES IDX 71 57 52 58 70 59 53 60 56 61 69 62 87 63 54 64 55 65 68 67
REMARK SMILES IDX 88 68 57 69 42 70 43 71 51 72 44 73 50 74 45 75 46 76 47 77
REMARK SMILES IDX 48 78 49 79 72 80 73 81 81 82 74 83 80 84 75 85 76 86 77 87
REMARK SMILES IDX 78 88 79 89 58 90 59 91 67 92 60 93 66 94 61 95 62 96 63 97
REMARK SMILES IDX 64 98 65 99
REMARK H PARENT 26 5 17 15 30 36 86 55 56 66
REMARK Flexibility Score: inf
ROOT
ATOM      1  C   UNL A   1      34.011  28.641  26.785  1.00  0.00     0.118 C 
ENDROOT
BRANCH   1   2
ATOM      2  N   UNL A   1      32.941  29.461  26.196  1.00  0.00    -0.352 N 
ATOM      3  C   UNL A   1      32.151  29.476  25.065  1.00  0.00     0.253 C 
ATOM      4  O   UNL A   1      31.172  30.222  25.065  1.00  0.00    -0.269 OA
ATOM      5  H   UNL A   1      32.725  30.223  26.781  1.00  0.00     0.163 HD
BRANCH   3   6
ATOM      6  C   UNL A   1      32.372  28.660  23.850  1.00  0.00     0.063 A 
ATOM      7  C   UNL A   1      31.630  27.489  23.543  1.00  0.00     0.054 A 
ATOM      8  C   UNL A   1      32.092  26.660  22.494  1.00  0.00     0.027 A 
ATOM      9  C   UNL A   1      33.235  26.957  21.756  1.00  0.00     0.002 A 
ATOM     10  C   UNL A   1      33.562  28.892  23.135  1.00  0.00     0.016 A 
ATOM     11  C   UNL A   1      33.982  28.071  22.089  1.00  0.00     0.001 A 
BRANCH   7  12
ATOM     12  N   UNL A   1      30.617  26.851  24.292  1.00  0.00    -0.324 N 
ATOM     13  C   UNL A   1      30.505  26.111  25.426  1.00  0.00     0.244 C 
ATOM     14  O   UNL A   1      29.345  25.789  25.731  1.00  0.00    -0.273 OA
ATOM     15  H   UNL A   1      29.738  26.977  23.869  1.00  0.00     0.170 HD
BRANCH  13  16
ATOM     16  C   UNL A   1      31.622  25.860  26.418  1.00  0.00     0.230 C 
BRANCH  16  17
ATOM     17  N   UNL A   1      32.338  24.627  26.256  1.00  0.00    -0.259 N 
ATOM     18  C   UNL A   1      32.221  21.180  25.819  1.00  0.00     0.029 C 
ATOM     19  C   UNL A   1      32.798  22.333  26.218  1.00  0.00     0.083 C 
ATOM     20  S   UNL A   1      34.274  23.078  25.771  1.00  0.00    -0.022 SA
ATOM     21  C   UNL A   1      31.932  23.420  26.800  1.00  0.00     0.268 C 
ATOM     22  C   UNL A   1      33.576  24.659  25.684  1.00  0.00     0.294 C 
ATOM     23  O   UNL A   1      31.009  23.237  27.580  1.00  0.00    -0.268 OA
ATOM     24  O   UNL A   1      34.149  25.608  25.190  1.00  0.00    -0.261 OA
BRANCH  18  25
ATOM     25  C   UNL A   1      32.511  20.228  24.692  1.00  0.00    -0.021 A 
ATOM     26  C   UNL A   1      32.137  21.661  22.568  1.00  0.00     0.045 C 
ATOM     27  C   UNL A   1      32.310  20.395  23.317  1.00  0.00    -0.044 A 
ATOM     28  C   UNL A   1      32.284  19.285  22.449  1.00  0.00     0.004 A 
ATOM     29  C   UNL A   1      32.609  18.016  22.872  1.00  0.00     0.000 A 
ATOM     30  C   UNL A   1      32.891  18.925  25.092  1.00  0.00     0.008 A 
ATOM     31  C   UNL A   1      32.960  17.842  24.196  1.00  0.00     0.001 A 
ENDBRANCH  18  25
ENDBRANCH  16  17
ENDBRANCH  13  16
ENDBRANCH   7  12
ENDBRANCH   3   6
ENDBRANCH   1   2
BRANCH   1  32
ATOM     32  C   UNL A   1      35.352  29.324  27.046  1.00  0.00     0.042 C 
BRANCH  32  33
ATOM     33  C   UNL A   1      35.594  29.764  28.491  1.00  0.00     0.118 C 
BRANCH  33  34
ATOM     34  N   UNL A   1      35.111  31.097  28.849  1.00  0.00    -0.352 N 
ATOM     35  C   UNL A   1      35.480  31.938  29.891  1.00  0.00     0.251 C 
ATOM     36  H   UNL A   1      34.411  31.456  28.255  1.00  0.00     0.163 HD
ATOM     37  O   UNL A   1      34.690  32.791  30.286  1.00  0.00    -0.269 OA
BRANCH  35  38
ATOM     38  C   UNL A   1      36.858  31.895  30.440  1.00  0.00     0.039 A 
ATOM     39  C   UNL A   1      37.913  32.379  29.644  1.00  0.00     0.014 A 
ATOM     40  C   UNL A   1      37.135  31.189  31.603  1.00  0.00     0.014 A 
ATOM     41  C   UNL A   1      39.220  31.959  29.891  1.00  0.00     0.010 A 
ATOM     42  C   UNL A   1      38.396  30.671  31.772  1.00  0.00     0.010 A 
ATOM     43  C   UNL A   1      39.424  31.006  30.878  1.00  0.00    -0.014 A 
BRANCH  43  44
ATOM     44  C   UNL A   1      40.693  30.374  31.201  1.00  0.00     0.031 A 
ATOM     45  C   UNL A   1      40.884  29.047  30.581  1.00  0.00     0.074 A 
ATOM     46  C   UNL A   1      41.682  31.102  31.778  1.00  0.00     0.049 A 
ATOM     47  N   UNL A   1      41.903  28.296  30.768  1.00  0.00    -0.248 NA
ATOM     48  C   UNL A   1      39.881  28.431  29.700  1.00  0.00     0.031 C 
ATOM     49  C   UNL A   1      43.127  30.892  31.750  1.00  0.00     0.029 A 
ATOM     50  N   UNL A   1      41.535  32.135  32.712  1.00  0.00    -0.354 N 
ATOM     51  C   UNL A   1      41.836  27.272  29.847  1.00  0.00     0.074 A 
ATOM     52  C   UNL A   1      40.521  27.342  29.274  1.00  0.00     0.031 C 
ATOM     53  C   UNL A   1      43.684  31.532  32.799  1.00  0.00     0.029 A 
ATOM     54  C   UNL A   1      42.586  32.021  33.626  1.00  0.00     0.049 A 
ATOM     55  H   UNL A   1      40.823  32.815  32.723  1.00  0.00     0.167 HD
ATOM     56  C   UNL A   1      42.975  26.577  29.591  1.00  0.00     0.031 A 
ATOM     57  C   UNL A   1      42.320  31.679  34.918  1.00  0.00     0.031 A 
ATOM     58  C   UNL A   1      43.997  26.946  30.566  1.00  0.00     0.049 A 
ATOM     59  C   UNL A   1      43.000  30.372  35.212  1.00  0.00     0.074 A 
ATOM     60  C   UNL A   1      45.023  27.873  30.529  1.00  0.00     0.029 A 
ATOM     61  N   UNL A   1      43.763  26.655  31.905  1.00  0.00    -0.354 N 
ATOM     62  N   UNL A   1      43.158  29.420  34.332  1.00  0.00    -0.248 NA
ATOM     63  C   UNL A   1      43.654  30.098  36.486  1.00  0.00     0.031 C 
ATOM     64  C   UNL A   1      45.318  28.230  31.876  1.00  0.00     0.029 A 
ATOM     65  C   UNL A   1      44.506  27.487  32.719  1.00  0.00     0.049 A 
ATOM     66  H   UNL A   1      43.154  25.953  32.228  1.00  0.00     0.167 HD
ATOM     67  C   UNL A   1      43.975  28.464  34.862  1.00  0.00     0.074 A 
ATOM     68  C   UNL A   1      44.241  28.921  36.217  1.00  0.00     0.031 C 
ATOM     69  C   UNL A   1      44.406  27.373  34.168  1.00  0.00     0.031 A 
BRANCH  56  70
ATOM     70  C   UNL A   1      43.256  25.765  28.352  1.00  0.00    -0.014 A 
ATOM     71  C   UNL A   1      43.483  24.382  28.506  1.00  0.00     0.010 A 
ATOM     72  C   UNL A   1      43.410  26.280  27.048  1.00  0.00     0.010 A 
ATOM     73  C   UNL A   1      43.878  23.567  27.437  1.00  0.00     0.020 A 
ATOM     74  C   UNL A   1      43.796  25.472  25.965  1.00  0.00     0.020 A 
ATOM     75  C   UNL A   1      44.039  24.119  26.170  1.00  0.00     0.054 A 
BRANCH  75  76
ATOM     76  S   UNL A   1      44.575  23.049  24.812  1.00  0.00     0.124 S 
ATOM     77  O   UNL A   1      45.584  23.869  24.148  1.00  0.00    -0.237 OA
ATOM     78  O   UNL A   1      45.080  21.875  25.517  1.00  0.00    -0.237 OA
ATOM     79  O   UNL A   1      43.353  22.829  24.040  1.00  0.00    -0.744 OA
ENDBRANCH  75  76
ENDBRANCH  56  70
BRANCH  57  80
ATOM     80  C   UNL A   1      40.942  32.072  35.371  1.00  0.00    -0.014 A 
ATOM     81  C   UNL A   1      40.636  33.443  35.545  1.00  0.00     0.010 A 
ATOM     82  C   UNL A   1      39.871  31.170  35.240  1.00  0.00     0.010 A 
ATOM     83  C   UNL A   1      39.311  33.909  35.470  1.00  0.00     0.020 A 
ATOM     84  C   UNL A   1      38.546  31.634  35.171  1.00  0.00     0.020 A 
ATOM     85  C   UNL A   1      38.277  33.003  35.232  1.00  0.00     0.054 A 
BRANCH  85  86
ATOM     86  S   UNL A   1      36.593  33.627  34.910  1.00  0.00     0.124 S 
ATOM     87  O   UNL A   1      36.011  32.562  34.099  1.00  0.00    -0.237 OA
ATOM     88  O   UNL A   1      36.034  33.761  36.251  1.00  0.00    -0.237 OA
ATOM     89  O   UNL A   1      36.822  34.892  34.217  1.00  0.00    -0.744 OA
ENDBRANCH  85  86
ENDBRANCH  57  80
BRANCH  69  90
ATOM     90  C   UNL A   1      44.834  26.095  34.835  1.00  0.00    -0.014 A 
ATOM     91  C   UNL A   1      43.947  25.271  35.544  1.00  0.00     0.010 A 
ATOM     92  C   UNL A   1      46.140  25.598  34.619  1.00  0.00     0.010 A 
ATOM     93  C   UNL A   1      44.366  24.069  36.110  1.00  0.00     0.020 A 
ATOM     94  C   UNL A   1      46.549  24.361  35.115  1.00  0.00     0.020 A 
ATOM     95  C   UNL A   1      45.669  23.625  35.897  1.00  0.00     0.054 A 
BRANCH  95  96
ATOM     96  S   UNL A   1      46.179  22.060  36.632  1.00  0.00     0.124 S 
ATOM     97  O   UNL A   1      47.620  22.080  36.394  1.00  0.00    -0.237 OA
ATOM     98  O   UNL A   1      45.771  22.211  38.026  1.00  0.00    -0.237 OA
ATOM     99  O   UNL A   1      45.431  21.062  35.873  1.00  0.00    -0.744 OA
ENDBRANCH  95  96
ENDBRANCH  69  90
ENDBRANCH  43  44
ENDBRANCH  35  38
ENDBRANCH  33  34
ENDBRANCH  32  33
ENDBRANCH   1  32
TORSDOF 17
ENDMDL
