MODEL 1
REMARK VINA RESULT:     -11.1      0.000      0.000
REMARK SMILES C[C@H]1[C@H]([NH+]2CCC(CC(=O)NCCCNC(=O)c3ccc(-c4c5nc(c(-c6ccc(S(=O)(=O)[O-])cc6)c6ccc([nH]6)c(-c6ccc(S(=O)(=O)[O-])cc6)c6nc(c(-c7ccc(S(=O)(=O)[O-])cc7)c7ccc4[nH]7)C=C6)C=C5)cc3)CC2)CCC[C@@H]1C
REMARK SMILES IDX 13 1 12 2 11 3 9 4 10 5 8 7 7 8 4 9 5 10 79 11 6 13 78 14
REMARK SMILES IDX 3 15 1 16 2 17 83 18 80 19 82 20 84 21 81 22 14 23 15 24
REMARK SMILES IDX 16 25 17 27 18 28 19 29 77 30 20 31 76 32 21 33 22 34 23 35
REMARK SMILES IDX 70 36 24 37 75 38 69 39 71 40 25 41 74 42 68 43 67 44 26 46
REMARK SMILES IDX 56 47 37 48 55 49 38 50 41 51 54 52 72 53 39 54 40 55 53 57
REMARK SMILES IDX 73 58 42 59 27 60 28 61 36 62 29 63 35 64 30 65 31 66 32 67
REMARK SMILES IDX 33 68 34 69 57 70 58 71 66 72 59 73 65 74 60 75 61 76 62 77
REMARK SMILES IDX 63 78 64 79 43 80 44 81 52 82 45 83 51 84 46 85 47 86 48 87
REMARK SMILES IDX 49 88 50 89
REMARK H PARENT 11 6 4 12 15 26 71 45 41 56
REMARK Flexibility Score: inf
ROOT
ATOM      1  C   UNL A   1      33.632  27.906  25.530  1.00  0.00     0.042 C 
ENDROOT
BRANCH   1   2
ATOM      2  C   UNL A   1      32.197  28.119  25.046  1.00  0.00     0.117 C 
BRANCH   2   3
ATOM      3  N   UNL A   1      31.231  27.366  25.838  1.00  0.00    -0.356 N 
ATOM      4  C   UNL A   1      30.903  26.042  25.846  1.00  0.00     0.220 C 
ATOM      5  O   UNL A   1      30.012  25.672  26.614  1.00  0.00    -0.275 OA
ATOM      6  H   UNL A   1      30.725  27.912  26.482  1.00  0.00     0.163 HD
BRANCH   4   7
ATOM      7  C   UNL A   1      31.617  25.041  24.956  1.00  0.00     0.104 C 
BRANCH   7   8
ATOM      8  C   UNL A   1      31.631  23.594  25.503  1.00  0.00     0.009 C 
ATOM      9  N   UNL A   1      33.612  21.371  25.532  1.00  0.00    -0.332 N 
ATOM     10  C   UNL A   1      33.215  22.036  26.771  1.00  0.00     0.262 C 
ATOM     11  C   UNL A   1      32.454  21.255  24.657  1.00  0.00     0.262 C 
ATOM     12  H   UNL A   1      33.904  20.432  25.806  1.00  0.00     0.348 HD
ATOM     13  C   UNL A   1      32.734  23.466  26.569  1.00  0.00     0.066 C 
ATOM     14  C   UNL A   1      31.787  22.593  24.354  1.00  0.00     0.066 C 
BRANCH   9  15
ATOM     15  C   UNL A   1      34.945  21.635  24.923  1.00  0.00     0.187 C 
ATOM     16  C   UNL A   1      35.237  24.091  24.225  1.00  0.00     0.014 C 
ATOM     17  C   UNL A   1      35.670  22.999  25.233  1.00  0.00     0.047 C 
ATOM     18  C   UNL A   1      37.234  23.006  25.213  1.00  0.00    -0.006 C 
ATOM     19  C   UNL A   1      35.831  20.382  25.099  1.00  0.00     0.065 C 
ATOM     20  C   UNL A   1      37.888  21.662  25.504  1.00  0.00     0.004 C 
ATOM     21  C   UNL A   1      37.796  24.065  26.175  1.00  0.00     0.008 C 
ATOM     22  C   UNL A   1      37.261  20.585  24.641  1.00  0.00     0.006 C 
ENDBRANCH   9  15
ENDBRANCH   7   8
ENDBRANCH   4   7
ENDBRANCH   2   3
ENDBRANCH   1   2
BRANCH   1  23
ATOM     23  C   UNL A   1      33.839  28.166  27.015  1.00  0.00     0.118 C 
BRANCH  23  24
ATOM     24  N   UNL A   1      33.689  29.575  27.340  1.00  0.00    -0.352 N 
ATOM     25  C   UNL A   1      34.532  30.416  28.028  1.00  0.00     0.251 C 
ATOM     26  H   UNL A   1      32.856  29.991  27.018  1.00  0.00     0.163 HD
ATOM     27  O   UNL A   1      34.101  31.506  28.413  1.00  0.00    -0.269 OA
BRANCH  25  28
ATOM     28  C   UNL A   1      35.935  30.034  28.327  1.00  0.00     0.039 A 
ATOM     29  C   UNL A   1      36.262  29.570  29.606  1.00  0.00     0.014 A 
ATOM     30  C   UNL A   1      36.946  30.181  27.375  1.00  0.00     0.014 A 
ATOM     31  C   UNL A   1      37.582  29.206  29.911  1.00  0.00     0.010 A 
ATOM     32  C   UNL A   1      38.238  29.733  27.648  1.00  0.00     0.010 A 
ATOM     33  C   UNL A   1      38.578  29.259  28.925  1.00  0.00    -0.014 A 
BRANCH  33  34
ATOM     34  C   UNL A   1      39.994  28.884  29.195  1.00  0.00     0.031 A 
ATOM     35  C   UNL A   1      40.949  29.932  29.716  1.00  0.00     0.074 A 
ATOM     36  C   UNL A   1      40.450  27.654  28.887  1.00  0.00     0.049 A 
ATOM     37  N   UNL A   1      42.250  29.878  29.836  1.00  0.00    -0.248 NA
ATOM     38  C   UNL A   1      40.365  31.223  30.121  1.00  0.00     0.031 C 
ATOM     39  C   UNL A   1      39.643  26.553  28.355  1.00  0.00     0.029 A 
ATOM     40  N   UNL A   1      41.719  27.129  28.953  1.00  0.00    -0.354 N 
ATOM     41  C   UNL A   1      42.642  31.137  30.279  1.00  0.00     0.074 A 
ATOM     42  C   UNL A   1      41.446  31.943  30.381  1.00  0.00     0.031 C 
ATOM     43  C   UNL A   1      40.433  25.485  28.149  1.00  0.00     0.029 A 
ATOM     44  C   UNL A   1      41.810  25.836  28.486  1.00  0.00     0.049 A 
ATOM     45  H   UNL A   1      42.491  27.630  29.301  1.00  0.00     0.167 HD
ATOM     46  C   UNL A   1      43.884  31.580  30.584  1.00  0.00     0.031 A 
ATOM     47  C   UNL A   1      42.881  25.033  28.323  1.00  0.00     0.031 A 
ATOM     48  C   UNL A   1      45.065  30.761  30.540  1.00  0.00     0.049 A 
ATOM     49  C   UNL A   1      44.250  25.546  28.692  1.00  0.00     0.074 A 
ATOM     50  C   UNL A   1      46.356  31.099  30.909  1.00  0.00     0.029 A 
ATOM     51  N   UNL A   1      45.099  29.444  30.116  1.00  0.00    -0.354 N 
ATOM     52  N   UNL A   1      44.589  26.722  29.160  1.00  0.00    -0.248 NA
ATOM     53  C   UNL A   1      45.379  24.620  28.518  1.00  0.00     0.031 C 
ATOM     54  C   UNL A   1      47.179  29.996  30.668  1.00  0.00     0.029 A 
ATOM     55  C   UNL A   1      46.390  28.957  30.201  1.00  0.00     0.049 A 
ATOM     56  H   UNL A   1      44.320  28.930  29.801  1.00  0.00     0.167 HD
ATOM     57  C   UNL A   1      45.963  26.662  29.375  1.00  0.00     0.074 A 
ATOM     58  C   UNL A   1      46.391  25.334  28.990  1.00  0.00     0.031 C 
ATOM     59  C   UNL A   1      46.794  27.621  29.850  1.00  0.00     0.031 A 
BRANCH  46  60
ATOM     60  C   UNL A   1      44.045  33.019  31.000  1.00  0.00    -0.014 A 
ATOM     61  C   UNL A   1      44.269  34.029  30.049  1.00  0.00     0.010 A 
ATOM     62  C   UNL A   1      43.877  33.374  32.351  1.00  0.00     0.010 A 
ATOM     63  C   UNL A   1      44.345  35.368  30.446  1.00  0.00     0.020 A 
ATOM     64  C   UNL A   1      43.925  34.713  32.748  1.00  0.00     0.020 A 
ATOM     65  C   UNL A   1      44.168  35.701  31.791  1.00  0.00     0.054 A 
BRANCH  65  66
ATOM     66  S   UNL A   1      44.205  37.451  32.266  1.00  0.00     0.124 S 
ATOM     67  O   UNL A   1      45.585  37.609  32.721  1.00  0.00    -0.237 OA
ATOM     68  O   UNL A   1      43.875  38.130  31.016  1.00  0.00    -0.237 OA
ATOM     69  O   UNL A   1      43.191  37.549  33.313  1.00  0.00    -0.744 OA
ENDBRANCH  65  66
ENDBRANCH  46  60
BRANCH  47  70
ATOM     70  C   UNL A   1      42.719  23.658  27.775  1.00  0.00    -0.014 A 
ATOM     71  C   UNL A   1      42.764  23.432  26.388  1.00  0.00     0.010 A 
ATOM     72  C   UNL A   1      42.482  22.570  28.636  1.00  0.00     0.010 A 
ATOM     73  C   UNL A   1      42.530  22.155  25.868  1.00  0.00     0.020 A 
ATOM     74  C   UNL A   1      42.279  21.286  28.121  1.00  0.00     0.020 A 
ATOM     75  C   UNL A   1      42.283  21.090  26.739  1.00  0.00     0.054 A 
BRANCH  75  76
ATOM     76  S   UNL A   1      41.988  19.440  26.045  1.00  0.00     0.124 S 
ATOM     77  O   UNL A   1      42.811  19.467  24.840  1.00  0.00    -0.237 OA
ATOM     78  O   UNL A   1      42.456  18.558  27.111  1.00  0.00    -0.237 OA
ATOM     79  O   UNL A   1      40.545  19.420  25.818  1.00  0.00    -0.744 OA
ENDBRANCH  75  76
ENDBRANCH  47  70
BRANCH  59  80
ATOM     80  C   UNL A   1      48.241  27.263  30.056  1.00  0.00    -0.014 A 
ATOM     81  C   UNL A   1      49.221  27.604  29.110  1.00  0.00     0.010 A 
ATOM     82  C   UNL A   1      48.632  26.663  31.268  1.00  0.00     0.010 A 
ATOM     83  C   UNL A   1      50.569  27.341  29.369  1.00  0.00     0.020 A 
ATOM     84  C   UNL A   1      49.979  26.423  31.540  1.00  0.00     0.020 A 
ATOM     85  C   UNL A   1      50.940  26.758  30.585  1.00  0.00     0.054 A 
BRANCH  85  86
ATOM     86  S   UNL A   1      52.703  26.502  30.930  1.00  0.00     0.124 S 
ATOM     87  O   UNL A   1      53.245  26.268  29.595  1.00  0.00    -0.237 OA
ATOM     88  O   UNL A   1      53.093  27.763  31.557  1.00  0.00    -0.237 OA
ATOM     89  O   UNL A   1      52.716  25.342  31.820  1.00  0.00    -0.744 OA
ENDBRANCH  85  86
ENDBRANCH  59  80
ENDBRANCH  33  34
ENDBRANCH  25  28
ENDBRANCH  23  24
ENDBRANCH   1  23
TORSDOF 15
ENDMDL
MODEL 2
REMARK VINA RESULT:     -10.9      1.264      1.973
REMARK SMILES C[C@H]1[C@H]([NH+]2CCC(CC(=O)NCCCNC(=O)c3ccc(-c4c5nc(c(-c6ccc(S(=O)(=O)[O-])cc6)c6ccc([nH]6)c(-c6ccc(S(=O)(=O)[O-])cc6)c6nc(c(-c7ccc(S(=O)(=O)[O-])cc7)c7ccc4[nH]7)C=C6)C=C5)cc3)CC2)CCC[C@@H]1C
REMARK SMILES IDX 13 1 12 2 11 3 9 4 10 5 8 7 7 8 4 9 5 10 79 11 6 13 78 14
REMARK SMILES IDX 3 15 1 16 2 17 83 18 80 19 82 20 84 21 81 22 14 23 15 24
REMARK SMILES IDX 16 25 17 27 18 28 19 29 77 30 20 31 76 32 21 33 22 34 23 35
REMARK SMILES IDX 70 36 24 37 75 38 69 39 71 40 25 41 74 42 68 43 67 44 26 46
REMARK SMILES IDX 56 47 37 48 55 49 38 50 41 51 54 52 72 53 39 54 40 55 53 57
REMARK SMILES IDX 73 58 42 59 27 60 28 61 36 62 29 63 35 64 30 65 31 66 32 67
REMARK SMILES IDX 33 68 34 69 57 70 58 71 66 72 59 73 65 74 60 75 61 76 62 77
REMARK SMILES IDX 63 78 64 79 43 80 44 81 52 82 45 83 51 84 46 85 47 86 48 87
REMARK SMILES IDX 49 88 50 89
REMARK H PARENT 11 6 4 12 15 26 71 45 41 56
REMARK Flexibility Score: inf
ROOT
ATOM      1  C   UNL A   1      33.175  28.368  25.125  1.00  0.00     0.042 C 
ENDROOT
BRANCH   1   2
ATOM      2  C   UNL A   1      31.768  28.961  25.220  1.00  0.00     0.117 C 
BRANCH   2   3
ATOM      3  N   UNL A   1      31.123  29.059  23.916  1.00  0.00    -0.356 N 
ATOM      4  C   UNL A   1      30.416  28.150  23.184  1.00  0.00     0.220 C 
ATOM      5  O   UNL A   1      29.998  28.497  22.078  1.00  0.00    -0.275 OA
ATOM      6  H   UNL A   1      31.215  29.940  23.486  1.00  0.00     0.163 HD
BRANCH   4   7
ATOM      7  C   UNL A   1      30.131  26.755  23.713  1.00  0.00     0.104 C 
BRANCH   7   8
ATOM      8  C   UNL A   1      30.703  25.612  22.841  1.00  0.00     0.009 C 
ATOM      9  N   UNL A   1      33.105  23.858  22.980  1.00  0.00    -0.332 N 
ATOM     10  C   UNL A   1      31.764  23.306  23.155  1.00  0.00     0.262 C 
ATOM     11  C   UNL A   1      33.067  24.899  21.964  1.00  0.00     0.262 C 
ATOM     12  H   UNL A   1      33.675  23.087  22.630  1.00  0.00     0.348 HD
ATOM     13  C   UNL A   1      30.750  24.317  23.672  1.00  0.00     0.066 C 
ATOM     14  C   UNL A   1      32.069  26.011  22.272  1.00  0.00     0.066 C 
BRANCH   9  15
ATOM     15  C   UNL A   1      34.012  24.031  24.149  1.00  0.00     0.187 C 
ATOM     16  C   UNL A   1      32.756  24.767  26.266  1.00  0.00     0.014 C 
ATOM     17  C   UNL A   1      33.508  23.601  25.579  1.00  0.00     0.047 C 
ATOM     18  C   UNL A   1      34.583  23.127  26.611  1.00  0.00    -0.006 C 
ATOM     19  C   UNL A   1      35.414  23.499  23.775  1.00  0.00     0.065 C 
ATOM     20  C   UNL A   1      35.854  22.554  25.999  1.00  0.00     0.004 C 
ATOM     21  C   UNL A   1      33.990  22.111  27.600  1.00  0.00     0.008 C 
ATOM     22  C   UNL A   1      36.387  23.496  24.937  1.00  0.00     0.006 C 
ENDBRANCH   9  15
ENDBRANCH   7   8
ENDBRANCH   4   7
ENDBRANCH   2   3
ENDBRANCH   1   2
BRANCH   1  23
ATOM     23  C   UNL A   1      34.021  28.554  26.376  1.00  0.00     0.118 C 
BRANCH  23  24
ATOM     24  N   UNL A   1      33.843  29.877  26.953  1.00  0.00    -0.352 N 
ATOM     25  C   UNL A   1      34.617  30.552  27.867  1.00  0.00     0.251 C 
ATOM     26  H   UNL A   1      33.047  30.365  26.640  1.00  0.00     0.163 HD
ATOM     27  O   UNL A   1      34.154  31.556  28.413  1.00  0.00    -0.269 OA
BRANCH  25  28
ATOM     28  C   UNL A   1      35.984  30.090  28.218  1.00  0.00     0.039 A 
ATOM     29  C   UNL A   1      36.997  30.149  27.254  1.00  0.00     0.014 A 
ATOM     30  C   UNL A   1      36.267  29.545  29.472  1.00  0.00     0.014 A 
ATOM     31  C   UNL A   1      38.294  29.716  27.563  1.00  0.00     0.010 A 
ATOM     32  C   UNL A   1      37.575  29.200  29.809  1.00  0.00     0.010 A 
ATOM     33  C   UNL A   1      38.602  29.262  28.854  1.00  0.00    -0.014 A 
BRANCH  33  34
ATOM     34  C   UNL A   1      39.963  28.791  29.235  1.00  0.00     0.031 A 
ATOM     35  C   UNL A   1      40.918  29.753  29.900  1.00  0.00     0.074 A 
ATOM     36  C   UNL A   1      40.379  27.553  28.903  1.00  0.00     0.049 A 
ATOM     37  N   UNL A   1      42.197  29.616  30.138  1.00  0.00    -0.248 NA
ATOM     38  C   UNL A   1      40.369  31.055  30.318  1.00  0.00     0.031 C 
ATOM     39  C   UNL A   1      39.568  26.529  28.238  1.00  0.00     0.029 A 
ATOM     40  N   UNL A   1      41.605  26.950  29.059  1.00  0.00    -0.354 N 
ATOM     41  C   UNL A   1      42.612  30.826  30.684  1.00  0.00     0.074 A 
ATOM     42  C   UNL A   1      41.457  31.696  30.718  1.00  0.00     0.031 C 
ATOM     43  C   UNL A   1      40.316  25.428  28.049  1.00  0.00     0.029 A 
ATOM     44  C   UNL A   1      41.671  25.680  28.532  1.00  0.00     0.049 A 
ATOM     45  H   UNL A   1      42.366  27.387  29.505  1.00  0.00     0.167 HD
ATOM     46  C   UNL A   1      43.841  31.179  31.128  1.00  0.00     0.031 A 
ATOM     47  C   UNL A   1      42.707  24.824  28.426  1.00  0.00     0.031 A 
ATOM     48  C   UNL A   1      44.974  30.295  31.151  1.00  0.00     0.049 A 
ATOM     49  C   UNL A   1      44.060  25.235  28.950  1.00  0.00     0.074 A 
ATOM     50  C   UNL A   1      46.239  30.536  31.657  1.00  0.00     0.029 A 
ATOM     51  N   UNL A   1      44.977  29.000  30.660  1.00  0.00    -0.354 N 
ATOM     52  N   UNL A   1      44.415  26.365  29.512  1.00  0.00    -0.248 NA
ATOM     53  C   UNL A   1      45.148  24.253  28.832  1.00  0.00     0.031 C 
ATOM     54  C   UNL A   1      47.021  29.400  31.435  1.00  0.00     0.029 A 
ATOM     55  C   UNL A   1      46.226  28.433  30.839  1.00  0.00     0.049 A 
ATOM     56  H   UNL A   1      44.205  28.550  30.245  1.00  0.00     0.167 HD
ATOM     57  C   UNL A   1      45.757  26.212  29.852  1.00  0.00     0.074 A 
ATOM     58  C   UNL A   1      46.147  24.882  29.436  1.00  0.00     0.031 C 
ATOM     59  C   UNL A   1      46.589  27.095  30.454  1.00  0.00     0.031 A 
BRANCH  46  60
ATOM     60  C   UNL A   1      44.038  32.584  31.636  1.00  0.00    -0.014 A 
ATOM     61  C   UNL A   1      44.515  33.601  30.792  1.00  0.00     0.010 A 
ATOM     62  C   UNL A   1      43.654  32.907  32.950  1.00  0.00     0.010 A 
ATOM     63  C   UNL A   1      44.624  34.914  31.260  1.00  0.00     0.020 A 
ATOM     64  C   UNL A   1      43.737  34.222  33.414  1.00  0.00     0.020 A 
ATOM     65  C   UNL A   1      44.231  35.216  32.567  1.00  0.00     0.054 A 
BRANCH  65  66
ATOM     66  S   UNL A   1      44.322  36.940  33.126  1.00  0.00     0.124 S 
ATOM     67  O   UNL A   1      43.709  37.650  32.005  1.00  0.00    -0.237 OA
ATOM     68  O   UNL A   1      43.540  36.919  34.358  1.00  0.00    -0.237 OA
ATOM     69  O   UNL A   1      45.753  37.173  33.302  1.00  0.00    -0.744 OA
ENDBRANCH  65  66
ENDBRANCH  46  60
BRANCH  47  70
ATOM     70  C   UNL A   1      42.524  23.489  27.791  1.00  0.00    -0.014 A 
ATOM     71  C   UNL A   1      41.898  22.444  28.493  1.00  0.00     0.010 A 
ATOM     72  C   UNL A   1      43.008  23.244  26.492  1.00  0.00     0.010 A 
ATOM     73  C   UNL A   1      41.799  21.168  27.928  1.00  0.00     0.020 A 
ATOM     74  C   UNL A   1      42.883  21.979  25.913  1.00  0.00     0.020 A 
ATOM     75  C   UNL A   1      42.299  20.942  26.643  1.00  0.00     0.054 A 
BRANCH  75  76
ATOM     76  S   UNL A   1      42.156  19.281  25.926  1.00  0.00     0.124 S 
ATOM     77  O   UNL A   1      42.974  19.400  24.723  1.00  0.00    -0.237 OA
ATOM     78  O   UNL A   1      42.701  18.432  26.982  1.00  0.00    -0.237 OA
ATOM     79  O   UNL A   1      40.720  19.133  25.696  1.00  0.00    -0.744 OA
ENDBRANCH  75  76
ENDBRANCH  47  70
BRANCH  59  80
ATOM     80  C   UNL A   1      47.987  26.642  30.775  1.00  0.00    -0.014 A 
ATOM     81  C   UNL A   1      49.040  26.817  29.863  1.00  0.00     0.010 A 
ATOM     82  C   UNL A   1      48.262  26.124  32.055  1.00  0.00     0.010 A 
ATOM     83  C   UNL A   1      50.346  26.471  30.223  1.00  0.00     0.020 A 
ATOM     84  C   UNL A   1      49.568  25.802  32.426  1.00  0.00     0.020 A 
ATOM     85  C   UNL A   1      50.603  25.972  31.504  1.00  0.00     0.054 A 
BRANCH  85  86
ATOM     86  S   UNL A   1      52.317  25.607  31.973  1.00  0.00     0.124 S 
ATOM     87  O   UNL A   1      53.044  25.935  30.751  1.00  0.00    -0.237 OA
ATOM     88  O   UNL A   1      52.539  26.509  33.100  1.00  0.00    -0.237 OA
ATOM     89  O   UNL A   1      52.286  24.186  32.318  1.00  0.00    -0.744 OA
ENDBRANCH  85  86
ENDBRANCH  59  80
ENDBRANCH  33  34
ENDBRANCH  25  28
ENDBRANCH  23  24
ENDBRANCH   1  23
TORSDOF 15
ENDMDL
MODEL 3
REMARK VINA RESULT:     -10.9      2.963      9.471
REMARK SMILES C[C@H]1[C@H]([NH+]2CCC(CC(=O)NCCCNC(=O)c3ccc(-c4c5nc(c(-c6ccc(S(=O)(=O)[O-])cc6)c6ccc([nH]6)c(-c6ccc(S(=O)(=O)[O-])cc6)c6nc(c(-c7ccc(S(=O)(=O)[O-])cc7)c7ccc4[nH]7)C=C6)C=C5)cc3)CC2)CCC[C@@H]1C
REMARK SMILES IDX 13 1 12 2 11 3 9 4 10 5 8 7 7 8 4 9 5 10 79 11 6 13 78 14
REMARK SMILES IDX 3 15 1 16 2 17 83 18 80 19 82 20 84 21 81 22 14 23 15 24
REMARK SMILES IDX 16 25 17 27 18 28 19 29 77 30 20 31 76 32 21 33 22 34 23 35
REMARK SMILES IDX 70 36 24 37 75 38 69 39 71 40 25 41 74 42 68 43 67 44 26 46
REMARK SMILES IDX 56 47 37 48 55 49 38 50 41 51 54 52 72 53 39 54 40 55 53 57
REMARK SMILES IDX 73 58 42 59 27 60 28 61 36 62 29 63 35 64 30 65 31 66 32 67
REMARK SMILES IDX 33 68 34 69 57 70 58 71 66 72 59 73 65 74 60 75 61 76 62 77
REMARK SMILES IDX 63 78 64 79 43 80 44 81 52 82 45 83 51 84 46 85 47 86 48 87
REMARK SMILES IDX 49 88 50 89
REMARK H PARENT 11 6 4 12 15 26 71 45 41 56
REMARK Flexibility Score: inf
ROOT
ATOM      1  C   UNL A   1      35.683  23.956  25.961  1.00  0.00     0.042 C 
ENDROOT
BRANCH   1   2
ATOM      2  C   UNL A   1      34.355  24.362  25.319  1.00  0.00     0.117 C 
BRANCH   2   3
ATOM      3  N   UNL A   1      34.371  24.200  23.870  1.00  0.00    -0.356 N 
ATOM      4  C   UNL A   1      33.393  24.351  22.931  1.00  0.00     0.220 C 
ATOM      5  O   UNL A   1      33.679  24.118  21.755  1.00  0.00    -0.275 OA
ATOM      6  H   UNL A   1      35.245  23.932  23.504  1.00  0.00     0.163 HD
BRANCH   4   7
ATOM      7  C   UNL A   1      31.995  24.810  23.307  1.00  0.00     0.104 C 
BRANCH   7   8
ATOM      8  C   UNL A   1      31.572  26.156  22.672  1.00  0.00     0.009 C 
ATOM      9  N   UNL A   1      31.132  28.919  23.691  1.00  0.00    -0.332 N 
ATOM     10  C   UNL A   1      32.237  28.623  22.782  1.00  0.00     0.262 C 
ATOM     11  C   UNL A   1      29.971  28.131  23.307  1.00  0.00     0.262 C 
ATOM     12  H   UNL A   1      30.914  29.906  23.545  1.00  0.00     0.348 HD
ATOM     13  C   UNL A   1      32.711  27.178  22.847  1.00  0.00     0.066 C 
ATOM     14  C   UNL A   1      30.243  26.630  23.269  1.00  0.00     0.066 C 
BRANCH   9  15
ATOM     15  C   UNL A   1      31.385  29.163  25.138  1.00  0.00     0.187 C 
ATOM     16  C   UNL A   1      32.126  27.038  26.377  1.00  0.00     0.014 C 
ATOM     17  C   UNL A   1      32.581  28.417  25.842  1.00  0.00     0.047 C 
ATOM     18  C   UNL A   1      33.266  29.132  27.052  1.00  0.00    -0.006 C 
ATOM     19  C   UNL A   1      31.330  30.684  25.405  1.00  0.00     0.065 C 
ATOM     20  C   UNL A   1      33.154  30.651  27.051  1.00  0.00     0.004 C 
ATOM     21  C   UNL A   1      34.746  28.731  27.167  1.00  0.00     0.008 C 
ATOM     22  C   UNL A   1      31.712  31.062  26.821  1.00  0.00     0.006 C 
ENDBRANCH   9  15
ENDBRANCH   7   8
ENDBRANCH   4   7
ENDBRANCH   2   3
ENDBRANCH   1   2
BRANCH   1  23
ATOM     23  C   UNL A   1      36.850  23.871  24.989  1.00  0.00     0.118 C 
BRANCH  23  24
ATOM     24  N   UNL A   1      37.787  22.823  25.363  1.00  0.00    -0.352 N 
ATOM     25  C   UNL A   1      38.990  22.910  26.022  1.00  0.00     0.251 C 
ATOM     26  H   UNL A   1      37.517  21.911  25.105  1.00  0.00     0.163 HD
ATOM     27  O   UNL A   1      39.745  21.934  26.015  1.00  0.00    -0.269 OA
BRANCH  25  28
ATOM     28  C   UNL A   1      39.402  24.151  26.726  1.00  0.00     0.039 A 
ATOM     29  C   UNL A   1      40.187  25.093  26.052  1.00  0.00     0.014 A 
ATOM     30  C   UNL A   1      39.070  24.371  28.064  1.00  0.00     0.014 A 
ATOM     31  C   UNL A   1      40.589  26.271  26.698  1.00  0.00     0.010 A 
ATOM     32  C   UNL A   1      39.391  25.581  28.677  1.00  0.00     0.010 A 
ATOM     33  C   UNL A   1      40.172  26.539  28.010  1.00  0.00    -0.014 A 
BRANCH  33  34
ATOM     34  C   UNL A   1      40.570  27.773  28.742  1.00  0.00     0.031 A 
ATOM     35  C   UNL A   1      41.892  27.804  29.472  1.00  0.00     0.074 A 
ATOM     36  C   UNL A   1      39.724  28.818  28.840  1.00  0.00     0.049 A 
ATOM     37  N   UNL A   1      42.346  28.689  30.321  1.00  0.00    -0.248 NA
ATOM     38  C   UNL A   1      42.806  26.671  29.245  1.00  0.00     0.031 C 
ATOM     39  C   UNL A   1      38.407  28.911  28.204  1.00  0.00     0.029 A 
ATOM     40  N   UNL A   1      39.836  29.997  29.537  1.00  0.00    -0.354 N 
ATOM     41  C   UNL A   1      43.569  28.197  30.764  1.00  0.00     0.074 A 
ATOM     42  C   UNL A   1      43.774  26.923  30.113  1.00  0.00     0.031 C 
ATOM     43  C   UNL A   1      37.839  30.083  28.536  1.00  0.00     0.029 A 
ATOM     44  C   UNL A   1      38.725  30.804  29.446  1.00  0.00     0.049 A 
ATOM     45  H   UNL A   1      40.636  30.241  30.055  1.00  0.00     0.167 HD
ATOM     46  C   UNL A   1      44.448  28.758  31.627  1.00  0.00     0.031 A 
ATOM     47  C   UNL A   1      38.438  31.978  30.045  1.00  0.00     0.031 A 
ATOM     48  C   UNL A   1      44.271  30.052  32.228  1.00  0.00     0.049 A 
ATOM     49  C   UNL A   1      39.446  32.591  30.984  1.00  0.00     0.074 A 
ATOM     50  C   UNL A   1      45.145  30.741  33.051  1.00  0.00     0.029 A 
ATOM     51  N   UNL A   1      43.157  30.857  32.061  1.00  0.00    -0.354 N 
ATOM     52  N   UNL A   1      40.619  32.133  31.346  1.00  0.00    -0.248 NA
ATOM     53  C   UNL A   1      39.093  33.884  31.591  1.00  0.00     0.031 C 
ATOM     54  C   UNL A   1      44.540  31.946  33.417  1.00  0.00     0.029 A 
ATOM     55  C   UNL A   1      43.314  32.030  32.777  1.00  0.00     0.049 A 
ATOM     56  H   UNL A   1      42.370  30.629  31.514  1.00  0.00     0.167 HD
ATOM     57  C   UNL A   1      41.160  33.101  32.187  1.00  0.00     0.074 A 
ATOM     58  C   UNL A   1      40.190  34.170  32.278  1.00  0.00     0.031 C 
ATOM     59  C   UNL A   1      42.355  33.102  32.827  1.00  0.00     0.031 A 
BRANCH  46  60
ATOM     60  C   UNL A   1      45.691  27.986  31.980  1.00  0.00    -0.014 A 
ATOM     61  C   UNL A   1      46.872  28.128  31.233  1.00  0.00     0.010 A 
ATOM     62  C   UNL A   1      45.701  27.176  33.131  1.00  0.00     0.010 A 
ATOM     63  C   UNL A   1      48.037  27.458  31.618  1.00  0.00     0.020 A 
ATOM     64  C   UNL A   1      46.871  26.525  33.535  1.00  0.00     0.020 A 
ATOM     65  C   UNL A   1      48.029  26.664  32.769  1.00  0.00     0.054 A 
BRANCH  65  66
ATOM     66  S   UNL A   1      49.572  25.859  33.280  1.00  0.00     0.124 S 
ATOM     67  O   UNL A   1      50.465  26.192  32.173  1.00  0.00    -0.237 OA
ATOM     68  O   UNL A   1      49.873  26.519  34.548  1.00  0.00    -0.237 OA
ATOM     69  O   UNL A   1      49.211  24.448  33.385  1.00  0.00    -0.744 OA
ENDBRANCH  65  66
ENDBRANCH  46  60
BRANCH  47  70
ATOM     70  C   UNL A   1      37.138  32.660  29.792  1.00  0.00    -0.014 A 
ATOM     71  C   UNL A   1      36.982  33.509  28.682  1.00  0.00     0.010 A 
ATOM     72  C   UNL A   1      36.060  32.492  30.680  1.00  0.00     0.010 A 
ATOM     73  C   UNL A   1      35.789  34.213  28.489  1.00  0.00     0.020 A 
ATOM     74  C   UNL A   1      34.855  33.170  30.473  1.00  0.00     0.020 A 
ATOM     75  C   UNL A   1      34.734  34.043  29.390  1.00  0.00     0.054 A 
BRANCH  75  76
ATOM     76  S   UNL A   1      33.193  34.962  29.118  1.00  0.00     0.124 S 
ATOM     77  O   UNL A   1      33.689  36.263  28.683  1.00  0.00    -0.237 OA
ATOM     78  O   UNL A   1      32.524  34.164  28.094  1.00  0.00    -0.237 OA
ATOM     79  O   UNL A   1      32.550  34.942  30.431  1.00  0.00    -0.744 OA
ENDBRANCH  75  76
ENDBRANCH  47  70
BRANCH  59  80
ATOM     80  C   UNL A   1      42.727  34.321  33.625  1.00  0.00    -0.014 A 
ATOM     81  C   UNL A   1      42.588  34.352  35.022  1.00  0.00     0.010 A 
ATOM     82  C   UNL A   1      43.320  35.416  32.967  1.00  0.00     0.010 A 
ATOM     83  C   UNL A   1      43.027  35.463  35.748  1.00  0.00     0.020 A 
ATOM     84  C   UNL A   1      43.783  36.515  33.692  1.00  0.00     0.020 A 
ATOM     85  C   UNL A   1      43.627  36.535  35.079  1.00  0.00     0.054 A 
BRANCH  85  86
ATOM     86  S   UNL A   1      44.262  37.928  36.052  1.00  0.00     0.124 S 
ATOM     87  O   UNL A   1      44.003  39.060  35.168  1.00  0.00    -0.237 OA
ATOM     88  O   UNL A   1      43.444  37.873  37.261  1.00  0.00    -0.237 OA
ATOM     89  O   UNL A   1      45.673  37.599  36.247  1.00  0.00    -0.744 OA
ENDBRANCH  85  86
ENDBRANCH  59  80
ENDBRANCH  33  34
ENDBRANCH  25  28
ENDBRANCH  23  24
ENDBRANCH   1  23
TORSDOF 15
ENDMDL
