MODEL 1
REMARK VINA RESULT:     -10.8      0.000      0.000
REMARK SMILES CC(C)[C@@H](C)[N@@H+]1[C@@H](C(=O)NCCCNC(=O)c2ccc(-c3c4nc(c(-c5ccc(S(=O)(=O)[O-])cc5)c5ccc([nH]5)c(-c5ccc(S(=O)(=O)[O-])cc5)c5nc(c(-c6ccc(S(=O)(=O)[O-])cc6)c6ccc3[nH]6)C=C5)C=C4)cc2)C[C@H]2CCCC[C@H]21
REMARK SMILES IDX 12 1 11 2 10 3 8 4 9 5 7 7 6 8 83 9 77 11 78 12 82 13 79 14
REMARK SMILES IDX 81 15 80 16 4 17 5 18 2 19 1 20 3 21 13 22 14 23 15 24 16 26
REMARK SMILES IDX 17 27 18 28 76 29 19 30 75 31 20 32 21 33 22 34 69 35 23 36
REMARK SMILES IDX 74 37 68 38 70 39 24 40 73 41 67 42 66 43 25 45 55 46 36 47
REMARK SMILES IDX 54 48 37 49 40 50 53 51 71 52 38 53 39 54 52 56 72 57 41 58
REMARK SMILES IDX 26 59 27 60 35 61 28 62 34 63 29 64 30 65 31 66 32 67 33 68
REMARK SMILES IDX 56 69 57 70 65 71 58 72 64 73 59 74 60 75 61 76 62 77 63 78
REMARK SMILES IDX 42 79 43 80 51 81 44 82 50 83 45 84 46 85 47 86 48 87 49 88
REMARK H PARENT 10 6 6 10 14 25 70 44 40 55
REMARK Flexibility Score: inf
ROOT
ATOM      1  C   UNL A   1      32.689  27.919  25.973  1.00  0.00     0.042 C 
ENDROOT
BRANCH   1   2
ATOM      2  C   UNL A   1      31.342  27.337  26.376  1.00  0.00     0.118 C 
BRANCH   2   3
ATOM      3  N   UNL A   1      31.427  25.943  26.777  1.00  0.00    -0.351 N 
ATOM      4  C   UNL A   1      32.152  24.877  26.353  1.00  0.00     0.278 C 
ATOM      5  O   UNL A   1      31.914  23.814  26.948  1.00  0.00    -0.268 OA
ATOM      6  H   UNL A   1      30.824  25.722  27.524  1.00  0.00     0.163 HD
BRANCH   4   7
ATOM      7  C   UNL A   1      33.235  24.876  25.257  1.00  0.00     0.275 C 
ATOM      8  N   UNL A   1      32.951  24.083  24.043  1.00  0.00    -0.320 N 
ATOM      9  C   UNL A   1      33.984  23.040  23.928  1.00  0.00     0.188 C 
ATOM     10  H   UNL A   1      32.058  23.604  24.159  1.00  0.00     0.349 HD
ATOM     11  C   UNL A   1      34.563  24.339  25.821  1.00  0.00     0.085 C 
ATOM     12  C   UNL A   1      35.197  23.642  24.626  1.00  0.00     0.054 C 
ATOM     13  C   UNL A   1      33.488  21.765  24.644  1.00  0.00     0.065 C 
ATOM     14  C   UNL A   1      36.284  22.623  24.961  1.00  0.00     0.010 C 
ATOM     15  C   UNL A   1      34.598  20.749  24.890  1.00  0.00     0.006 C 
ATOM     16  C   UNL A   1      35.759  21.371  25.658  1.00  0.00     0.001 C 
BRANCH   8  17
ATOM     17  C   UNL A   1      32.461  24.790  22.830  1.00  0.00     0.184 C 
ATOM     18  C   UNL A   1      33.088  24.215  21.544  1.00  0.00     0.075 C 
BRANCH  17  19
ATOM     19  C   UNL A   1      32.411  26.359  22.861  1.00  0.00     0.041 C 
ATOM     20  C   UNL A   1      33.501  27.051  22.029  1.00  0.00     0.013 C 
ATOM     21  C   UNL A   1      31.063  26.891  22.322  1.00  0.00     0.013 C 
ENDBRANCH  17  19
ENDBRANCH   8  17
ENDBRANCH   4   7
ENDBRANCH   2   3
ENDBRANCH   1   2
BRANCH   1  22
ATOM     22  C   UNL A   1      33.581  28.291  27.144  1.00  0.00     0.118 C 
BRANCH  22  23
ATOM     23  N   UNL A   1      33.489  29.702  27.484  1.00  0.00    -0.352 N 
ATOM     24  C   UNL A   1      34.397  30.532  28.093  1.00  0.00     0.251 C 
ATOM     25  H   UNL A   1      32.639  30.131  27.236  1.00  0.00     0.163 HD
ATOM     26  O   UNL A   1      34.023  31.639  28.472  1.00  0.00    -0.269 OA
BRANCH  24  27
ATOM     27  C   UNL A   1      35.804  30.112  28.310  1.00  0.00     0.039 A 
ATOM     28  C   UNL A   1      36.182  29.676  29.584  1.00  0.00     0.014 A 
ATOM     29  C   UNL A   1      36.766  30.204  27.301  1.00  0.00     0.014 A 
ATOM     30  C   UNL A   1      37.507  29.309  29.832  1.00  0.00     0.010 A 
ATOM     31  C   UNL A   1      38.062  29.742  27.521  1.00  0.00     0.010 A 
ATOM     32  C   UNL A   1      38.457  29.323  28.798  1.00  0.00    -0.014 A 
BRANCH  32  33
ATOM     33  C   UNL A   1      39.877  28.969  29.055  1.00  0.00     0.031 A 
ATOM     34  C   UNL A   1      40.798  29.972  29.707  1.00  0.00     0.074 A 
ATOM     35  C   UNL A   1      40.349  27.762  28.687  1.00  0.00     0.049 A 
ATOM     36  N   UNL A   1      42.067  29.856  30.003  1.00  0.00    -0.248 NA
ATOM     37  C   UNL A   1      40.225  31.287  30.042  1.00  0.00     0.031 C 
ATOM     38  C   UNL A   1      39.575  26.719  28.007  1.00  0.00     0.029 A 
ATOM     39  N   UNL A   1      41.594  27.205  28.835  1.00  0.00    -0.354 N 
ATOM     40  C   UNL A   1      42.446  31.083  30.538  1.00  0.00     0.074 A 
ATOM     41  C   UNL A   1      41.289  31.948  30.472  1.00  0.00     0.031 C 
ATOM     42  C   UNL A   1      40.352  25.637  27.836  1.00  0.00     0.029 A 
ATOM     43  C   UNL A   1      41.683  25.917  28.363  1.00  0.00     0.049 A 
ATOM     44  H   UNL A   1      42.352  27.683  29.243  1.00  0.00     0.167 HD
ATOM     45  C   UNL A   1      43.636  31.453  31.066  1.00  0.00     0.031 A 
ATOM     46  C   UNL A   1      42.719  25.056  28.361  1.00  0.00     0.031 A 
ATOM     47  C   UNL A   1      44.779  30.584  31.161  1.00  0.00     0.049 A 
ATOM     48  C   UNL A   1      44.027  25.481  28.970  1.00  0.00     0.074 A 
ATOM     49  C   UNL A   1      46.014  30.843  31.729  1.00  0.00     0.029 A 
ATOM     50  N   UNL A   1      44.822  29.284  30.681  1.00  0.00    -0.354 N 
ATOM     51  N   UNL A   1      44.345  26.627  29.526  1.00  0.00    -0.248 NA
ATOM     52  C   UNL A   1      45.111  24.490  28.966  1.00  0.00     0.031 C 
ATOM     53  C   UNL A   1      46.817  29.710  31.560  1.00  0.00     0.029 A 
ATOM     54  C   UNL A   1      46.066  28.732  30.928  1.00  0.00     0.049 A 
ATOM     55  H   UNL A   1      44.078  28.822  30.232  1.00  0.00     0.167 HD
ATOM     56  C   UNL A   1      45.659  26.487  29.954  1.00  0.00     0.074 A 
ATOM     57  C   UNL A   1      46.069  25.139  29.613  1.00  0.00     0.031 C 
ATOM     58  C   UNL A   1      46.457  27.391  30.575  1.00  0.00     0.031 A 
BRANCH  45  59
ATOM     59  C   UNL A   1      43.756  32.861  31.589  1.00  0.00    -0.014 A 
ATOM     60  C   UNL A   1      44.173  33.911  30.751  1.00  0.00     0.010 A 
ATOM     61  C   UNL A   1      43.425  33.144  32.926  1.00  0.00     0.010 A 
ATOM     62  C   UNL A   1      44.304  35.208  31.252  1.00  0.00     0.020 A 
ATOM     63  C   UNL A   1      43.528  34.446  33.424  1.00  0.00     0.020 A 
ATOM     64  C   UNL A   1      43.986  35.467  32.588  1.00  0.00     0.054 A 
BRANCH  64  65
ATOM     65  S   UNL A   1      44.151  37.163  33.210  1.00  0.00     0.124 S 
ATOM     66  O   UNL A   1      45.413  37.093  33.944  1.00  0.00    -0.237 OA
ATOM     67  O   UNL A   1      44.182  37.954  31.983  1.00  0.00    -0.237 OA
ATOM     68  O   UNL A   1      42.960  37.347  34.035  1.00  0.00    -0.744 OA
ENDBRANCH  64  65
ENDBRANCH  45  59
BRANCH  46  69
ATOM     69  C   UNL A   1      42.552  23.691  27.793  1.00  0.00    -0.014 A 
ATOM     70  C   UNL A   1      42.236  22.605  28.628  1.00  0.00     0.010 A 
ATOM     71  C   UNL A   1      42.699  23.470  26.411  1.00  0.00     0.010 A 
ATOM     72  C   UNL A   1      42.093  21.320  28.099  1.00  0.00     0.020 A 
ATOM     73  C   UNL A   1      42.531  22.190  25.874  1.00  0.00     0.020 A 
ATOM     74  C   UNL A   1      42.242  21.120  26.723  1.00  0.00     0.054 A 
BRANCH  74  75
ATOM     75  S   UNL A   1      42.005  19.453  26.048  1.00  0.00     0.124 S 
ATOM     76  O   UNL A   1      40.569  19.434  25.787  1.00  0.00    -0.237 OA
ATOM     77  O   UNL A   1      42.863  19.464  24.865  1.00  0.00    -0.237 OA
ATOM     78  O   UNL A   1      42.458  18.581  27.128  1.00  0.00    -0.744 OA
ENDBRANCH  74  75
ENDBRANCH  46  69
BRANCH  58  79
ATOM     79  C   UNL A   1      47.845  26.943  30.942  1.00  0.00    -0.014 A 
ATOM     80  C   UNL A   1      48.932  27.166  30.078  1.00  0.00     0.010 A 
ATOM     81  C   UNL A   1      48.070  26.322  32.183  1.00  0.00     0.010 A 
ATOM     82  C   UNL A   1      50.214  26.739  30.432  1.00  0.00     0.020 A 
ATOM     83  C   UNL A   1      49.356  25.918  32.553  1.00  0.00     0.020 A 
ATOM     84  C   UNL A   1      50.417  26.114  31.667  1.00  0.00     0.054 A 
BRANCH  84  85
ATOM     85  S   UNL A   1      52.094  25.593  32.117  1.00  0.00     0.124 S 
ATOM     86  O   UNL A   1      52.841  25.884  30.896  1.00  0.00    -0.237 OA
ATOM     87  O   UNL A   1      52.402  26.448  33.262  1.00  0.00    -0.237 OA
ATOM     88  O   UNL A   1      51.942  24.174  32.432  1.00  0.00    -0.744 OA
ENDBRANCH  84  85
ENDBRANCH  58  79
ENDBRANCH  32  33
ENDBRANCH  24  27
ENDBRANCH  22  23
ENDBRANCH   1  22
TORSDOF 15
ENDMDL
MODEL 2
REMARK VINA RESULT:     -10.7      1.083      2.164
REMARK SMILES CC(C)[C@@H](C)[N@@H+]1[C@@H](C(=O)NCCCNC(=O)c2ccc(-c3c4nc(c(-c5ccc(S(=O)(=O)[O-])cc5)c5ccc([nH]5)c(-c5ccc(S(=O)(=O)[O-])cc5)c5nc(c(-c6ccc(S(=O)(=O)[O-])cc6)c6ccc3[nH]6)C=C5)C=C4)cc2)C[C@H]2CCCC[C@H]21
REMARK SMILES IDX 12 1 11 2 10 3 8 4 9 5 7 7 6 8 83 9 77 11 78 12 82 13 79 14
REMARK SMILES IDX 81 15 80 16 4 17 5 18 2 19 1 20 3 21 13 22 14 23 15 24 16 26
REMARK SMILES IDX 17 27 18 28 76 29 19 30 75 31 20 32 21 33 22 34 69 35 23 36
REMARK SMILES IDX 74 37 68 38 70 39 24 40 73 41 67 42 66 43 25 45 55 46 36 47
REMARK SMILES IDX 54 48 37 49 40 50 53 51 71 52 38 53 39 54 52 56 72 57 41 58
REMARK SMILES IDX 26 59 27 60 35 61 28 62 34 63 29 64 30 65 31 66 32 67 33 68
REMARK SMILES IDX 56 69 57 70 65 71 58 72 64 73 59 74 60 75 61 76 62 77 63 78
REMARK SMILES IDX 42 79 43 80 51 81 44 82 50 83 45 84 46 85 47 86 48 87 49 88
REMARK H PARENT 10 6 6 10 14 25 70 44 40 55
REMARK Flexibility Score: inf
ROOT
ATOM      1  C   UNL A   1      34.029  28.522  24.824  1.00  0.00     0.042 C 
ENDROOT
BRANCH   1   2
ATOM      2  C   UNL A   1      32.787  27.932  24.174  1.00  0.00     0.118 C 
BRANCH   2   3
ATOM      3  N   UNL A   1      33.095  26.891  23.208  1.00  0.00    -0.351 N 
ATOM      4  C   UNL A   1      33.701  25.678  23.284  1.00  0.00     0.278 C 
ATOM      5  O   UNL A   1      33.803  25.078  22.202  1.00  0.00    -0.268 OA
ATOM      6  H   UNL A   1      32.797  27.113  22.297  1.00  0.00     0.163 HD
BRANCH   4   7
ATOM      7  C   UNL A   1      34.225  24.987  24.557  1.00  0.00     0.275 C 
ATOM      8  N   UNL A   1      34.762  23.621  24.398  1.00  0.00    -0.320 N 
ATOM      9  C   UNL A   1      33.945  22.712  25.220  1.00  0.00     0.188 C 
ATOM     10  H   UNL A   1      34.646  23.327  23.429  1.00  0.00     0.349 HD
ATOM     11  C   UNL A   1      33.106  24.891  25.610  1.00  0.00     0.085 C 
ATOM     12  C   UNL A   1      33.425  23.597  26.345  1.00  0.00     0.054 C 
ATOM     13  C   UNL A   1      32.795  22.154  24.354  1.00  0.00     0.065 C 
ATOM     14  C   UNL A   1      32.265  22.983  27.126  1.00  0.00     0.010 C 
ATOM     15  C   UNL A   1      31.698  21.487  25.177  1.00  0.00     0.006 C 
ATOM     16  C   UNL A   1      31.151  22.432  26.240  1.00  0.00     0.001 C 
BRANCH   8  17
ATOM     17  C   UNL A   1      36.237  23.440  24.320  1.00  0.00     0.184 C 
ATOM     18  C   UNL A   1      36.670  22.889  22.947  1.00  0.00     0.075 C 
BRANCH  17  19
ATOM     19  C   UNL A   1      36.960  22.754  25.533  1.00  0.00     0.041 C 
ATOM     20  C   UNL A   1      37.708  21.459  25.183  1.00  0.00     0.013 C 
ATOM     21  C   UNL A   1      38.010  23.694  26.168  1.00  0.00     0.013 C 
ENDBRANCH  17  19
ENDBRANCH   8  17
ENDBRANCH   4   7
ENDBRANCH   2   3
ENDBRANCH   1   2
BRANCH   1  22
ATOM     22  C   UNL A   1      34.049  28.410  26.338  1.00  0.00     0.118 C 
BRANCH  22  23
ATOM     23  N   UNL A   1      33.724  29.668  26.991  1.00  0.00    -0.352 N 
ATOM     24  C   UNL A   1      34.426  30.400  27.917  1.00  0.00     0.251 C 
ATOM     25  H   UNL A   1      32.861  30.060  26.726  1.00  0.00     0.163 HD
ATOM     26  O   UNL A   1      33.860  31.328  28.489  1.00  0.00    -0.269 OA
BRANCH  24  27
ATOM     27  C   UNL A   1      35.838  30.082  28.242  1.00  0.00     0.039 A 
ATOM     28  C   UNL A   1      36.811  30.279  27.255  1.00  0.00     0.014 A 
ATOM     29  C   UNL A   1      36.209  29.535  29.472  1.00  0.00     0.014 A 
ATOM     30  C   UNL A   1      38.145  29.955  27.514  1.00  0.00     0.010 A 
ATOM     31  C   UNL A   1      37.552  29.308  29.765  1.00  0.00     0.010 A 
ATOM     32  C   UNL A   1      38.531  29.481  28.778  1.00  0.00    -0.014 A 
BRANCH  32  33
ATOM     33  C   UNL A   1      39.940  29.100  29.058  1.00  0.00     0.031 A 
ATOM     34  C   UNL A   1      40.870  30.085  29.723  1.00  0.00     0.074 A 
ATOM     35  C   UNL A   1      40.394  27.884  28.697  1.00  0.00     0.049 A 
ATOM     36  N   UNL A   1      42.132  29.945  30.039  1.00  0.00    -0.248 NA
ATOM     37  C   UNL A   1      40.317  31.411  30.048  1.00  0.00     0.031 C 
ATOM     38  C   UNL A   1      39.611  26.855  28.006  1.00  0.00     0.029 A 
ATOM     39  N   UNL A   1      41.625  27.303  28.866  1.00  0.00    -0.354 N 
ATOM     40  C   UNL A   1      42.526  31.165  30.580  1.00  0.00     0.074 A 
ATOM     41  C   UNL A   1      41.388  32.052  30.495  1.00  0.00     0.031 C 
ATOM     42  C   UNL A   1      40.369  25.758  27.848  1.00  0.00     0.029 A 
ATOM     43  C   UNL A   1      41.697  26.013  28.396  1.00  0.00     0.049 A 
ATOM     44  H   UNL A   1      42.387  27.766  29.285  1.00  0.00     0.167 HD
ATOM     45  C   UNL A   1      43.715  31.512  31.125  1.00  0.00     0.031 A 
ATOM     46  C   UNL A   1      42.716  25.132  28.410  1.00  0.00     0.031 A 
ATOM     47  C   UNL A   1      44.839  30.621  31.239  1.00  0.00     0.049 A 
ATOM     48  C   UNL A   1      44.023  25.531  29.040  1.00  0.00     0.074 A 
ATOM     49  C   UNL A   1      46.070  30.857  31.826  1.00  0.00     0.029 A 
ATOM     50  N   UNL A   1      44.864  29.320  30.761  1.00  0.00    -0.354 N 
ATOM     51  N   UNL A   1      44.353  26.671  29.599  1.00  0.00    -0.248 NA
ATOM     52  C   UNL A   1      45.087  24.519  29.052  1.00  0.00     0.031 C 
ATOM     53  C   UNL A   1      46.854  29.708  31.670  1.00  0.00     0.029 A 
ATOM     54  C   UNL A   1      46.094  28.744  31.027  1.00  0.00     0.049 A 
ATOM     55  H   UNL A   1      44.118  28.872  30.300  1.00  0.00     0.167 HD
ATOM     56  C   UNL A   1      45.658  26.506  30.049  1.00  0.00     0.074 A 
ATOM     57  C   UNL A   1      46.047  25.150  29.715  1.00  0.00     0.031 C 
ATOM     58  C   UNL A   1      46.464  27.395  30.681  1.00  0.00     0.031 A 
BRANCH  45  59
ATOM     59  C   UNL A   1      43.854  32.918  31.649  1.00  0.00    -0.014 A 
ATOM     60  C   UNL A   1      44.311  33.958  30.819  1.00  0.00     0.010 A 
ATOM     61  C   UNL A   1      43.502  33.209  32.980  1.00  0.00     0.010 A 
ATOM     62  C   UNL A   1      44.459  35.253  31.321  1.00  0.00     0.020 A 
ATOM     63  C   UNL A   1      43.623  34.510  33.478  1.00  0.00     0.020 A 
ATOM     64  C   UNL A   1      44.119  35.520  32.651  1.00  0.00     0.054 A 
BRANCH  64  65
ATOM     65  S   UNL A   1      44.307  37.213  33.275  1.00  0.00     0.124 S 
ATOM     66  O   UNL A   1      45.637  37.165  33.878  1.00  0.00    -0.237 OA
ATOM     67  O   UNL A   1      44.198  38.017  32.060  1.00  0.00    -0.237 OA
ATOM     68  O   UNL A   1      43.201  37.360  34.216  1.00  0.00    -0.744 OA
ENDBRANCH  64  65
ENDBRANCH  45  59
BRANCH  46  69
ATOM     69  C   UNL A   1      42.531  23.770  27.840  1.00  0.00    -0.014 A 
ATOM     70  C   UNL A   1      42.093  22.710  28.654  1.00  0.00     0.010 A 
ATOM     71  C   UNL A   1      42.784  23.526  26.478  1.00  0.00     0.010 A 
ATOM     72  C   UNL A   1      41.933  21.427  28.124  1.00  0.00     0.020 A 
ATOM     73  C   UNL A   1      42.600  22.249  25.938  1.00  0.00     0.020 A 
ATOM     74  C   UNL A   1      42.188  21.205  26.768  1.00  0.00     0.054 A 
BRANCH  74  75
ATOM     75  S   UNL A   1      41.928  19.543  26.087  1.00  0.00     0.124 S 
ATOM     76  O   UNL A   1      40.489  19.538  25.841  1.00  0.00    -0.237 OA
ATOM     77  O   UNL A   1      42.774  19.551  24.896  1.00  0.00    -0.237 OA
ATOM     78  O   UNL A   1      42.384  18.661  27.159  1.00  0.00    -0.744 OA
ENDBRANCH  74  75
ENDBRANCH  46  69
BRANCH  58  79
ATOM     79  C   UNL A   1      47.837  26.921  31.070  1.00  0.00    -0.014 A 
ATOM     80  C   UNL A   1      48.945  27.141  30.232  1.00  0.00     0.010 A 
ATOM     81  C   UNL A   1      48.027  26.277  32.306  1.00  0.00     0.010 A 
ATOM     82  C   UNL A   1      50.213  26.689  30.607  1.00  0.00     0.020 A 
ATOM     83  C   UNL A   1      49.298  25.848  32.696  1.00  0.00     0.020 A 
ATOM     84  C   UNL A   1      50.380  26.042  31.835  1.00  0.00     0.054 A 
BRANCH  84  85
ATOM     85  S   UNL A   1      52.040  25.488  32.313  1.00  0.00     0.124 S 
ATOM     86  O   UNL A   1      51.801  24.093  32.674  1.00  0.00    -0.237 OA
ATOM     87  O   UNL A   1      52.814  25.697  31.091  1.00  0.00    -0.237 OA
ATOM     88  O   UNL A   1      52.391  26.369  33.424  1.00  0.00    -0.744 OA
ENDBRANCH  84  85
ENDBRANCH  58  79
ENDBRANCH  32  33
ENDBRANCH  24  27
ENDBRANCH  22  23
ENDBRANCH   1  22
TORSDOF 15
ENDMDL
MODEL 3
REMARK VINA RESULT:     -10.6      0.663      2.317
REMARK SMILES CC(C)[C@@H](C)[N@@H+]1[C@@H](C(=O)NCCCNC(=O)c2ccc(-c3c4nc(c(-c5ccc(S(=O)(=O)[O-])cc5)c5ccc([nH]5)c(-c5ccc(S(=O)(=O)[O-])cc5)c5nc(c(-c6ccc(S(=O)(=O)[O-])cc6)c6ccc3[nH]6)C=C5)C=C4)cc2)C[C@H]2CCCC[C@H]21
REMARK SMILES IDX 12 1 11 2 10 3 8 4 9 5 7 7 6 8 83 9 77 11 78 12 82 13 79 14
REMARK SMILES IDX 81 15 80 16 4 17 5 18 2 19 1 20 3 21 13 22 14 23 15 24 16 26
REMARK SMILES IDX 17 27 18 28 76 29 19 30 75 31 20 32 21 33 22 34 69 35 23 36
REMARK SMILES IDX 74 37 68 38 70 39 24 40 73 41 67 42 66 43 25 45 55 46 36 47
REMARK SMILES IDX 54 48 37 49 40 50 53 51 71 52 38 53 39 54 52 56 72 57 41 58
REMARK SMILES IDX 26 59 27 60 35 61 28 62 34 63 29 64 30 65 31 66 32 67 33 68
REMARK SMILES IDX 56 69 57 70 65 71 58 72 64 73 59 74 60 75 61 76 62 77 63 78
REMARK SMILES IDX 42 79 43 80 51 81 44 82 50 83 45 84 46 85 47 86 48 87 49 88
REMARK H PARENT 10 6 6 10 14 25 70 44 40 55
REMARK Flexibility Score: inf
ROOT
ATOM      1  C   UNL A   1      31.991  27.717  27.421  1.00  0.00     0.042 C 
ENDROOT
BRANCH   1   2
ATOM      2  C   UNL A   1      31.641  26.675  26.369  1.00  0.00     0.118 C 
BRANCH   2   3
ATOM      3  N   UNL A   1      31.346  25.372  26.942  1.00  0.00    -0.351 N 
ATOM      4  C   UNL A   1      31.269  24.113  26.440  1.00  0.00     0.278 C 
ATOM      5  O   UNL A   1      30.955  23.241  27.266  1.00  0.00    -0.268 OA
ATOM      6  H   UNL A   1      31.164  25.410  27.908  1.00  0.00     0.163 HD
BRANCH   4   7
ATOM      7  C   UNL A   1      31.560  23.678  24.991  1.00  0.00     0.275 C 
ATOM      8  N   UNL A   1      32.981  23.580  24.600  1.00  0.00    -0.320 N 
ATOM      9  C   UNL A   1      33.218  24.532  23.502  1.00  0.00     0.188 C 
ATOM     10  H   UNL A   1      33.563  23.879  25.381  1.00  0.00     0.349 HD
ATOM     11  C   UNL A   1      30.906  24.658  23.999  1.00  0.00     0.085 C 
ATOM     12  C   UNL A   1      31.863  24.651  22.816  1.00  0.00     0.054 C 
ATOM     13  C   UNL A   1      33.674  25.881  24.100  1.00  0.00     0.065 C 
ATOM     14  C   UNL A   1      31.751  25.849  21.875  1.00  0.00     0.010 C 
ATOM     15  C   UNL A   1      33.612  27.029  23.099  1.00  0.00     0.006 C 
ATOM     16  C   UNL A   1      32.220  27.162  22.493  1.00  0.00     0.001 C 
BRANCH   8  17
ATOM     17  C   UNL A   1      33.623  22.239  24.580  1.00  0.00     0.184 C 
ATOM     18  C   UNL A   1      32.579  21.110  24.471  1.00  0.00     0.075 C 
BRANCH  17  19
ATOM     19  C   UNL A   1      34.759  21.950  25.625  1.00  0.00     0.041 C 
ATOM     20  C   UNL A   1      35.755  20.860  25.203  1.00  0.00     0.013 C 
ATOM     21  C   UNL A   1      35.604  23.215  25.902  1.00  0.00     0.013 C 
ENDBRANCH  17  19
ENDBRANCH   8  17
ENDBRANCH   4   7
ENDBRANCH   2   3
ENDBRANCH   1   2
BRANCH   1  22
ATOM     22  C   UNL A   1      33.342  28.379  27.214  1.00  0.00     0.118 C 
BRANCH  22  23
ATOM     23  N   UNL A   1      33.292  29.817  27.422  1.00  0.00    -0.352 N 
ATOM     24  C   UNL A   1      34.222  30.673  27.958  1.00  0.00     0.251 C 
ATOM     25  H   UNL A   1      32.456  30.248  27.130  1.00  0.00     0.163 HD
ATOM     26  O   UNL A   1      33.881  31.821  28.230  1.00  0.00    -0.269 OA
BRANCH  24  27
ATOM     27  C   UNL A   1      35.614  30.233  28.221  1.00  0.00     0.039 A 
ATOM     28  C   UNL A   1      35.935  29.758  29.497  1.00  0.00     0.014 A 
ATOM     29  C   UNL A   1      36.619  30.343  27.256  1.00  0.00     0.014 A 
ATOM     30  C   UNL A   1      37.245  29.371  29.791  1.00  0.00     0.010 A 
ATOM     31  C   UNL A   1      37.900  29.862  27.518  1.00  0.00     0.010 A 
ATOM     32  C   UNL A   1      38.238  29.404  28.798  1.00  0.00    -0.014 A 
BRANCH  32  33
ATOM     33  C   UNL A   1      39.643  29.029  29.104  1.00  0.00     0.031 A 
ATOM     34  C   UNL A   1      40.552  30.014  29.797  1.00  0.00     0.074 A 
ATOM     35  C   UNL A   1      40.111  27.818  28.743  1.00  0.00     0.049 A 
ATOM     36  N   UNL A   1      41.808  29.878  30.139  1.00  0.00    -0.248 NA
ATOM     37  C   UNL A   1      39.984  31.334  30.122  1.00  0.00     0.031 C 
ATOM     38  C   UNL A   1      39.349  26.791  28.027  1.00  0.00     0.029 A 
ATOM     39  N   UNL A   1      41.342  27.243  28.933  1.00  0.00    -0.354 N 
ATOM     40  C   UNL A   1      42.183  31.096  30.698  1.00  0.00     0.074 A 
ATOM     41  C   UNL A   1      41.041  31.977  30.596  1.00  0.00     0.031 C 
ATOM     42  C   UNL A   1      40.117  25.700  27.877  1.00  0.00     0.029 A 
ATOM     43  C   UNL A   1      41.432  25.958  28.454  1.00  0.00     0.049 A 
ATOM     44  H   UNL A   1      42.092  27.707  29.373  1.00  0.00     0.167 HD
ATOM     45  C   UNL A   1      43.358  31.446  31.272  1.00  0.00     0.031 A 
ATOM     46  C   UNL A   1      42.455  25.082  28.483  1.00  0.00     0.031 A 
ATOM     47  C   UNL A   1      44.484  30.560  31.401  1.00  0.00     0.049 A 
ATOM     48  C   UNL A   1      43.746  25.485  29.144  1.00  0.00     0.074 A 
ATOM     49  C   UNL A   1      45.701  30.798  32.017  1.00  0.00     0.029 A 
ATOM     50  N   UNL A   1      44.528  29.263  30.914  1.00  0.00    -0.354 N 
ATOM     51  N   UNL A   1      44.058  26.622  29.720  1.00  0.00    -0.248 NA
ATOM     52  C   UNL A   1      44.816  24.479  29.171  1.00  0.00     0.031 C 
ATOM     53  C   UNL A   1      46.495  29.655  31.868  1.00  0.00     0.029 A 
ATOM     54  C   UNL A   1      45.755  28.692  31.201  1.00  0.00     0.049 A 
ATOM     55  H   UNL A   1      43.794  28.815  30.434  1.00  0.00     0.167 HD
ATOM     56  C   UNL A   1      45.354  26.460  30.196  1.00  0.00     0.074 A 
ATOM     57  C   UNL A   1      45.757  25.110  29.859  1.00  0.00     0.031 C 
ATOM     58  C   UNL A   1      46.140  27.349  30.853  1.00  0.00     0.031 A 
BRANCH  45  59
ATOM     59  C   UNL A   1      43.477  32.848  31.810  1.00  0.00    -0.014 A 
ATOM     60  C   UNL A   1      43.683  33.940  30.946  1.00  0.00     0.010 A 
ATOM     61  C   UNL A   1      43.358  33.082  33.192  1.00  0.00     0.010 A 
ATOM     62  C   UNL A   1      43.816  35.232  31.458  1.00  0.00     0.020 A 
ATOM     63  C   UNL A   1      43.464  34.378  33.705  1.00  0.00     0.020 A 
ATOM     64  C   UNL A   1      43.711  35.443  32.836  1.00  0.00     0.054 A 
BRANCH  64  65
ATOM     65  S   UNL A   1      43.874  37.134  33.473  1.00  0.00     0.124 S 
ATOM     66  O   UNL A   1      44.288  37.867  32.279  1.00  0.00    -0.237 OA
ATOM     67  O   UNL A   1      42.526  37.427  33.953  1.00  0.00    -0.237 OA
ATOM     68  O   UNL A   1      44.890  37.015  34.515  1.00  0.00    -0.744 OA
ENDBRANCH  64  65
ENDBRANCH  45  59
BRANCH  46  69
ATOM     69  C   UNL A   1      42.291  23.724  27.898  1.00  0.00    -0.014 A 
ATOM     70  C   UNL A   1      42.660  23.474  26.565  1.00  0.00     0.010 A 
ATOM     71  C   UNL A   1      41.771  22.672  28.673  1.00  0.00     0.010 A 
ATOM     72  C   UNL A   1      42.493  22.202  26.009  1.00  0.00     0.020 A 
ATOM     73  C   UNL A   1      41.627  21.392  28.128  1.00  0.00     0.020 A 
ATOM     74  C   UNL A   1      41.976  21.168  26.795  1.00  0.00     0.054 A 
BRANCH  74  75
ATOM     75  S   UNL A   1      41.812  19.513  26.071  1.00  0.00     0.124 S 
ATOM     76  O   UNL A   1      42.690  19.603  24.908  1.00  0.00    -0.237 OA
ATOM     77  O   UNL A   1      42.277  18.646  27.151  1.00  0.00    -0.237 OA
ATOM     78  O   UNL A   1      40.385  19.412  25.773  1.00  0.00    -0.744 OA
ENDBRANCH  74  75
ENDBRANCH  46  69
BRANCH  58  79
ATOM     79  C   UNL A   1      47.508  26.880  31.266  1.00  0.00    -0.014 A 
ATOM     80  C   UNL A   1      48.647  27.205  30.509  1.00  0.00     0.010 A 
ATOM     81  C   UNL A   1      47.658  26.132  32.448  1.00  0.00     0.010 A 
ATOM     82  C   UNL A   1      49.909  26.756  30.906  1.00  0.00     0.020 A 
ATOM     83  C   UNL A   1      48.922  25.705  32.862  1.00  0.00     0.020 A 
ATOM     84  C   UNL A   1      50.038  26.005  32.078  1.00  0.00     0.054 A 
BRANCH  84  85
ATOM     85  S   UNL A   1      51.690  25.457  32.588  1.00  0.00     0.124 S 
ATOM     86  O   UNL A   1      51.617  24.017  32.351  1.00  0.00    -0.237 OA
ATOM     87  O   UNL A   1      52.569  26.199  31.687  1.00  0.00    -0.237 OA
ATOM     88  O   UNL A   1      51.768  25.855  33.991  1.00  0.00    -0.744 OA
ENDBRANCH  84  85
ENDBRANCH  58  79
ENDBRANCH  32  33
ENDBRANCH  24  27
ENDBRANCH  22  23
ENDBRANCH   1  22
TORSDOF 15
ENDMDL
