MODEL 1
REMARK VINA RESULT:     -11.4      0.000      0.000
REMARK SMILES O=C(/C=C/CC(=O)Nc1cccc(Oc2ncccn2)c1)NCCCNC(=O)c1ccc(-c2c3nc(c(-c4ccc(S(=O)(=O)[O-])cc4)c4ccc([nH]4)c(-c4ccc(S(=O)(=O)[O-])cc4)c4nc(c(-c5ccc(S(=O)(=O)[O-])cc5)c5ccc2[nH]5)C=C4)C=C3)cc1
REMARK SMILES IDX 23 1 22 2 1 3 2 4 3 6 4 7 5 8 6 9 7 10 8 11 9 13 10 14 21 15
REMARK SMILES IDX 11 16 13 17 12 18 14 19 15 20 16 21 20 22 17 23 19 24 18 25
REMARK SMILES IDX 24 26 25 27 26 28 27 29 28 31 29 32 30 33 88 34 31 35 87 36
REMARK SMILES IDX 32 37 33 38 34 39 81 40 35 41 86 42 80 43 82 44 36 45 85 46
REMARK SMILES IDX 79 47 78 48 37 50 67 51 48 52 66 53 49 54 52 55 65 56 83 57
REMARK SMILES IDX 50 58 51 59 64 61 84 62 53 63 38 64 39 65 47 66 40 67 46 68
REMARK SMILES IDX 41 69 42 70 43 71 44 72 45 73 68 74 69 75 77 76 70 77 76 78
REMARK SMILES IDX 71 79 72 80 73 81 74 82 75 83 54 84 55 85 63 86 56 87 62 88
REMARK SMILES IDX 57 89 58 90 59 91 60 92 61 93
REMARK H PARENT 22 5 8 12 26 30 82 49 52 60
REMARK Flexibility Score: inf
ROOT
ATOM      1  C   UNL A   1      33.182  26.809  26.124  1.00  0.00     0.118 C 
ENDROOT
BRANCH   1   2
ATOM      2  N   UNL A   1      32.033  25.074  26.107  1.00  0.00    -0.352 N 
ATOM      3  O   UNL A   1      29.732  24.773  26.787  1.00  0.00    -0.270 OA
ATOM      4  C   UNL A   1      30.790  24.381  26.309  1.00  0.00     0.243 C 
ATOM      5  H   UNL A   1      32.656  24.371  25.810  1.00  0.00     0.163 HD
BRANCH   4   6
ATOM      6  C   UNL A   1      30.806  22.985  25.771  1.00  0.00     0.067 C 
ATOM      7  C   UNL A   1      31.810  22.104  25.914  1.00  0.00    -0.011 C 
BRANCH   7   8
ATOM      8  C   UNL A   1      31.778  20.750  25.283  1.00  0.00     0.128 C 
BRANCH   8   9
ATOM      9  C   UNL A   1      33.096  19.963  25.314  1.00  0.00     0.228 C 
ATOM     10  O   UNL A   1      33.146  18.826  25.789  1.00  0.00    -0.274 OA
ATOM     11  N   UNL A   1      34.178  20.454  24.626  1.00  0.00    -0.326 N 
ATOM     12  H   UNL A   1      34.747  19.784  24.184  1.00  0.00     0.169 HD
BRANCH  11  13
ATOM     13  C   UNL A   1      34.577  21.790  24.474  1.00  0.00     0.044 A 
ATOM     14  C   UNL A   1      35.321  22.400  25.478  1.00  0.00     0.026 A 
ATOM     15  C   UNL A   1      34.105  22.557  23.405  1.00  0.00     0.073 A 
ATOM     16  C   UNL A   1      35.689  23.741  25.347  1.00  0.00     0.006 A 
ATOM     17  C   UNL A   1      34.466  23.899  23.254  1.00  0.00     0.133 A 
ATOM     18  C   UNL A   1      35.272  24.483  24.235  1.00  0.00     0.047 A 
BRANCH  17  19
ATOM     19  O   UNL A   1      34.028  24.740  22.255  1.00  0.00    -0.424 OA
BRANCH  19  20
ATOM     20  C   UNL A   1      33.231  25.809  22.631  1.00  0.00     0.321 A 
ATOM     21  N   UNL A   1      33.922  27.411  22.502  1.00  0.00    -0.203 NA
ATOM     22  N   UNL A   1      31.513  25.526  22.992  1.00  0.00    -0.203 NA
ATOM     23  C   UNL A   1      32.842  28.792  22.752  1.00  0.00     0.118 A 
ATOM     24  C   UNL A   1      30.456  26.940  23.230  1.00  0.00     0.118 A 
ATOM     25  C   UNL A   1      31.079  28.601  23.053  1.00  0.00     0.040 A 
ENDBRANCH  19  20
ENDBRANCH  17  19
ENDBRANCH  11  13
ENDBRANCH   8   9
ENDBRANCH   7   8
ENDBRANCH   4   6
ENDBRANCH   1   2
BRANCH   1  26
ATOM     26  C   UNL A   1      32.897  28.392  26.675  1.00  0.00     0.042 C 
BRANCH  26  27
ATOM     27  C   UNL A   1      33.830  29.534  26.256  1.00  0.00     0.118 C 
BRANCH  27  28
ATOM     28  N   UNL A   1      33.523  30.839  26.814  1.00  0.00    -0.352 N 
ATOM     29  C   UNL A   1      34.254  31.496  27.784  1.00  0.00     0.251 C 
ATOM     30  H   UNL A   1      32.721  31.297  26.470  1.00  0.00     0.163 HD
ATOM     31  O   UNL A   1      33.863  32.546  28.278  1.00  0.00    -0.269 OA
BRANCH  29  32
ATOM     32  C   UNL A   1      35.512  30.865  28.247  1.00  0.00     0.039 A 
ATOM     33  C   UNL A   1      36.733  31.467  27.934  1.00  0.00     0.014 A 
ATOM     34  C   UNL A   1      35.464  29.751  29.089  1.00  0.00     0.014 A 
ATOM     35  C   UNL A   1      37.904  30.995  28.532  1.00  0.00     0.010 A 
ATOM     36  C   UNL A   1      36.622  29.328  29.736  1.00  0.00     0.010 A 
ATOM     37  C   UNL A   1      37.854  29.950  29.473  1.00  0.00    -0.014 A 
BRANCH  37  38
ATOM     38  C   UNL A   1      39.071  29.503  30.200  1.00  0.00     0.031 A 
ATOM     39  C   UNL A   1      39.491  30.197  31.467  1.00  0.00     0.074 A 
ATOM     40  C   UNL A   1      39.838  28.519  29.687  1.00  0.00     0.049 A 
ATOM     41  N   UNL A   1      40.550  29.992  32.208  1.00  0.00    -0.248 NA
ATOM     42  C   UNL A   1      38.621  31.280  31.952  1.00  0.00     0.031 C 
ATOM     43  C   UNL A   1      39.566  27.790  28.445  1.00  0.00     0.029 A 
ATOM     44  N   UNL A   1      41.010  27.965  30.143  1.00  0.00    -0.354 N 
ATOM     45  C   UNL A   1      40.480  30.926  33.235  1.00  0.00     0.074 A 
ATOM     46  C   UNL A   1      39.304  31.732  32.993  1.00  0.00     0.031 C 
ATOM     47  C   UNL A   1      40.528  26.871  28.254  1.00  0.00     0.029 A 
ATOM     48  C   UNL A   1      41.505  26.969  29.334  1.00  0.00     0.049 A 
ATOM     49  H   UNL A   1      41.453  28.254  30.973  1.00  0.00     0.167 HD
ATOM     50  C   UNL A   1      41.308  31.086  34.295  1.00  0.00     0.031 A 
ATOM     51  C   UNL A   1      42.622  26.220  29.442  1.00  0.00     0.031 A 
ATOM     52  C   UNL A   1      42.471  30.277  34.541  1.00  0.00     0.049 A 
ATOM     53  C   UNL A   1      43.535  26.427  30.622  1.00  0.00     0.074 A 
ATOM     54  C   UNL A   1      43.340  30.328  35.618  1.00  0.00     0.029 A 
ATOM     55  N   UNL A   1      42.930  29.274  33.702  1.00  0.00    -0.354 N 
ATOM     56  N   UNL A   1      43.413  27.270  31.619  1.00  0.00    -0.248 NA
ATOM     57  C   UNL A   1      44.731  25.575  30.696  1.00  0.00     0.031 C 
ATOM     58  C   UNL A   1      44.354  29.389  35.403  1.00  0.00     0.029 A 
ATOM     59  C   UNL A   1      44.083  28.714  34.224  1.00  0.00     0.049 A 
ATOM     60  H   UNL A   1      42.500  29.000  32.860  1.00  0.00     0.167 HD
ATOM     61  C   UNL A   1      44.499  27.029  32.455  1.00  0.00     0.074 A 
ATOM     62  C   UNL A   1      45.262  25.956  31.851  1.00  0.00     0.031 C 
ATOM     63  C   UNL A   1      44.830  27.640  33.618  1.00  0.00     0.031 A 
BRANCH  50  64
ATOM     64  C   UNL A   1      40.983  32.188  35.269  1.00  0.00    -0.014 A 
ATOM     65  C   UNL A   1      40.118  31.963  36.356  1.00  0.00     0.010 A 
ATOM     66  C   UNL A   1      41.578  33.454  35.119  1.00  0.00     0.010 A 
ATOM     67  C   UNL A   1      39.818  32.996  37.247  1.00  0.00     0.020 A 
ATOM     68  C   UNL A   1      41.303  34.482  36.026  1.00  0.00     0.020 A 
ATOM     69  C   UNL A   1      40.410  34.251  37.073  1.00  0.00     0.054 A 
BRANCH  69  70
ATOM     70  S   UNL A   1      40.013  35.568  38.254  1.00  0.00     0.124 S 
ATOM     71  O   UNL A   1      39.656  36.672  37.365  1.00  0.00    -0.237 OA
ATOM     72  O   UNL A   1      38.908  34.994  39.017  1.00  0.00    -0.237 OA
ATOM     73  O   UNL A   1      41.255  35.749  39.003  1.00  0.00    -0.744 OA
ENDBRANCH  69  70
ENDBRANCH  50  64
BRANCH  51  74
ATOM     74  C   UNL A   1      42.934  25.193  28.410  1.00  0.00    -0.014 A 
ATOM     75  C   UNL A   1      42.413  23.891  28.517  1.00  0.00     0.010 A 
ATOM     76  C   UNL A   1      43.748  25.513  27.308  1.00  0.00     0.010 A 
ATOM     77  C   UNL A   1      42.714  22.925  27.553  1.00  0.00     0.020 A 
ATOM     78  C   UNL A   1      44.028  24.559  26.327  1.00  0.00     0.020 A 
ATOM     79  C   UNL A   1      43.518  23.266  26.462  1.00  0.00     0.054 A 
BRANCH  79  80
ATOM     80  S   UNL A   1      43.853  22.010  25.195  1.00  0.00     0.124 S 
ATOM     81  O   UNL A   1      43.624  22.754  23.961  1.00  0.00    -0.237 OA
ATOM     82  O   UNL A   1      45.241  21.648  25.469  1.00  0.00    -0.237 OA
ATOM     83  O   UNL A   1      42.876  20.963  25.487  1.00  0.00    -0.744 OA
ENDBRANCH  79  80
ENDBRANCH  51  74
BRANCH  63  84
ATOM     84  C   UNL A   1      46.050  27.145  34.348  1.00  0.00    -0.014 A 
ATOM     85  C   UNL A   1      45.967  26.093  35.276  1.00  0.00     0.010 A 
ATOM     86  C   UNL A   1      47.311  27.682  34.030  1.00  0.00     0.010 A 
ATOM     87  C   UNL A   1      47.124  25.596  35.884  1.00  0.00     0.020 A 
ATOM     88  C   UNL A   1      48.471  27.172  34.616  1.00  0.00     0.020 A 
ATOM     89  C   UNL A   1      48.369  26.136  35.547  1.00  0.00     0.054 A 
BRANCH  89  90
ATOM     90  S   UNL A   1      49.861  25.424  36.294  1.00  0.00     0.124 S 
ATOM     91  O   UNL A   1      50.878  26.413  35.946  1.00  0.00    -0.237 OA
ATOM     92  O   UNL A   1      49.509  25.355  37.710  1.00  0.00    -0.237 OA
ATOM     93  O   UNL A   1      49.998  24.129  35.629  1.00  0.00    -0.744 OA
ENDBRANCH  89  90
ENDBRANCH  63  84
ENDBRANCH  37  38
ENDBRANCH  29  32
ENDBRANCH  27  28
ENDBRANCH  26  27
ENDBRANCH   1  26
TORSDOF 18
ENDMDL
MODEL 2
REMARK VINA RESULT:     -11.3      2.260      4.335
REMARK SMILES O=C(/C=C/CC(=O)Nc1cccc(Oc2ncccn2)c1)NCCCNC(=O)c1ccc(-c2c3nc(c(-c4ccc(S(=O)(=O)[O-])cc4)c4ccc([nH]4)c(-c4ccc(S(=O)(=O)[O-])cc4)c4nc(c(-c5ccc(S(=O)(=O)[O-])cc5)c5ccc2[nH]5)C=C4)C=C3)cc1
REMARK SMILES IDX 23 1 22 2 1 3 2 4 3 6 4 7 5 8 6 9 7 10 8 11 9 13 10 14 21 15
REMARK SMILES IDX 11 16 13 17 12 18 14 19 15 20 16 21 20 22 17 23 19 24 18 25
REMARK SMILES IDX 24 26 25 27 26 28 27 29 28 31 29 32 30 33 88 34 31 35 87 36
REMARK SMILES IDX 32 37 33 38 34 39 81 40 35 41 86 42 80 43 82 44 36 45 85 46
REMARK SMILES IDX 79 47 78 48 37 50 67 51 48 52 66 53 49 54 52 55 65 56 83 57
REMARK SMILES IDX 50 58 51 59 64 61 84 62 53 63 38 64 39 65 47 66 40 67 46 68
REMARK SMILES IDX 41 69 42 70 43 71 44 72 45 73 68 74 69 75 77 76 70 77 76 78
REMARK SMILES IDX 71 79 72 80 73 81 74 82 75 83 54 84 55 85 63 86 56 87 62 88
REMARK SMILES IDX 57 89 58 90 59 91 60 92 61 93
REMARK H PARENT 22 5 8 12 26 30 82 49 52 60
REMARK Flexibility Score: inf
ROOT
ATOM      1  C   UNL A   1      31.805  30.497  26.719  1.00  0.00     0.118 C 
ENDROOT
BRANCH   1   2
ATOM      2  N   UNL A   1      31.691  29.216  25.081  1.00  0.00    -0.352 N 
ATOM      3  O   UNL A   1      29.916  28.990  23.456  1.00  0.00    -0.270 OA
ATOM      4  C   UNL A   1      31.024  28.727  23.906  1.00  0.00     0.243 C 
ATOM      5  H   UNL A   1      32.508  28.668  25.143  1.00  0.00     0.163 HD
BRANCH   4   6
ATOM      6  C   UNL A   1      31.878  27.809  23.091  1.00  0.00     0.067 C 
ATOM      7  C   UNL A   1      32.932  27.111  23.547  1.00  0.00    -0.011 C 
BRANCH   7   8
ATOM      8  C   UNL A   1      33.779  26.269  22.648  1.00  0.00     0.128 C 
BRANCH   8   9
ATOM      9  C   UNL A   1      33.031  25.482  21.563  1.00  0.00     0.228 C 
ATOM     10  O   UNL A   1      32.903  25.935  20.424  1.00  0.00    -0.274 OA
ATOM     11  N   UNL A   1      32.679  24.178  21.814  1.00  0.00    -0.326 N 
ATOM     12  H   UNL A   1      32.747  23.560  21.051  1.00  0.00     0.169 HD
BRANCH  11  13
ATOM     13  C   UNL A   1      32.234  23.615  23.019  1.00  0.00     0.044 A 
ATOM     14  C   UNL A   1      31.053  24.074  23.592  1.00  0.00     0.026 A 
ATOM     15  C   UNL A   1      33.037  22.715  23.725  1.00  0.00     0.073 A 
ATOM     16  C   UNL A   1      30.624  23.542  24.810  1.00  0.00     0.006 A 
ATOM     17  C   UNL A   1      32.624  22.168  24.943  1.00  0.00     0.133 A 
ATOM     18  C   UNL A   1      31.402  22.586  25.476  1.00  0.00     0.047 A 
BRANCH  17  19
ATOM     19  O   UNL A   1      33.357  21.302  25.723  1.00  0.00    -0.424 OA
BRANCH  19  20
ATOM     20  C   UNL A   1      33.527  20.011  25.248  1.00  0.00     0.321 A 
ATOM     21  N   UNL A   1      35.161  19.488  24.906  1.00  0.00    -0.203 NA
ATOM     22  N   UNL A   1      32.137  18.902  25.237  1.00  0.00    -0.203 NA
ATOM     23  C   UNL A   1      35.411  17.776  24.528  1.00  0.00     0.118 A 
ATOM     24  C   UNL A   1      32.429  17.185  24.860  1.00  0.00     0.118 A 
ATOM     25  C   UNL A   1      34.076  16.571  24.561  1.00  0.00     0.040 A 
ENDBRANCH  19  20
ENDBRANCH  17  19
ENDBRANCH  11  13
ENDBRANCH   8   9
ENDBRANCH   7   8
ENDBRANCH   4   6
ENDBRANCH   1   2
BRANCH   1  26
ATOM     26  C   UNL A   1      31.742  32.187  26.885  1.00  0.00     0.042 C 
BRANCH  26  27
ATOM     27  C   UNL A   1      32.993  32.968  27.305  1.00  0.00     0.118 C 
BRANCH  27  28
ATOM     28  N   UNL A   1      32.754  34.216  28.009  1.00  0.00    -0.352 N 
ATOM     29  C   UNL A   1      33.458  34.672  29.107  1.00  0.00     0.251 C 
ATOM     30  H   UNL A   1      32.024  34.787  27.675  1.00  0.00     0.163 HD
ATOM     31  O   UNL A   1      33.118  35.684  29.708  1.00  0.00    -0.269 OA
BRANCH  29  32
ATOM     32  C   UNL A   1      34.616  33.872  29.567  1.00  0.00     0.039 A 
ATOM     33  C   UNL A   1      35.905  34.261  29.198  1.00  0.00     0.014 A 
ATOM     34  C   UNL A   1      34.421  32.814  30.459  1.00  0.00     0.014 A 
ATOM     35  C   UNL A   1      37.006  33.636  29.789  1.00  0.00     0.010 A 
ATOM     36  C   UNL A   1      35.519  32.241  31.096  1.00  0.00     0.010 A 
ATOM     37  C   UNL A   1      36.823  32.652  30.776  1.00  0.00    -0.014 A 
BRANCH  37  38
ATOM     38  C   UNL A   1      37.978  32.050  31.493  1.00  0.00     0.031 A 
ATOM     39  C   UNL A   1      38.386  32.575  32.843  1.00  0.00     0.074 A 
ATOM     40  C   UNL A   1      38.704  31.077  30.904  1.00  0.00     0.049 A 
ATOM     41  N   UNL A   1      39.397  32.222  33.595  1.00  0.00    -0.248 NA
ATOM     42  C   UNL A   1      37.564  33.656  33.412  1.00  0.00     0.031 C 
ATOM     43  C   UNL A   1      38.441  30.505  29.581  1.00  0.00     0.029 A 
ATOM     44  N   UNL A   1      39.818  30.401  31.339  1.00  0.00    -0.354 N 
ATOM     45  C   UNL A   1      39.342  33.044  34.714  1.00  0.00     0.074 A 
ATOM     46  C   UNL A   1      38.230  33.948  34.520  1.00  0.00     0.031 C 
ATOM     47  C   UNL A   1      39.350  29.550  29.325  1.00  0.00     0.029 A 
ATOM     48  C   UNL A   1      40.285  29.466  30.443  1.00  0.00     0.049 A 
ATOM     49  H   UNL A   1      40.243  30.570  32.211  1.00  0.00     0.167 HD
ATOM     50  C   UNL A   1      40.131  33.035  35.814  1.00  0.00     0.031 A 
ATOM     51  C   UNL A   1      41.347  28.638  30.510  1.00  0.00     0.031 A 
ATOM     52  C   UNL A   1      41.230  32.128  36.012  1.00  0.00     0.049 A 
ATOM     53  C   UNL A   1      42.220  28.656  31.737  1.00  0.00     0.074 A 
ATOM     54  C   UNL A   1      42.054  32.006  37.119  1.00  0.00     0.029 A 
ATOM     55  N   UNL A   1      41.661  31.192  35.086  1.00  0.00    -0.354 N 
ATOM     56  N   UNL A   1      42.107  29.395  32.815  1.00  0.00    -0.248 NA
ATOM     57  C   UNL A   1      43.356  27.724  31.760  1.00  0.00     0.031 C 
ATOM     58  C   UNL A   1      43.015  31.030  36.839  1.00  0.00     0.029 A 
ATOM     59  C   UNL A   1      42.754  30.504  35.584  1.00  0.00     0.049 A 
ATOM     60  H   UNL A   1      41.252  31.039  34.204  1.00  0.00     0.167 HD
ATOM     61  C   UNL A   1      43.140  28.994  33.658  1.00  0.00     0.074 A 
ATOM     62  C   UNL A   1      43.859  27.943  32.968  1.00  0.00     0.031 C 
ATOM     63  C   UNL A   1      43.458  29.454  34.892  1.00  0.00     0.031 A 
BRANCH  50  64
ATOM     64  C   UNL A   1      39.835  34.045  36.891  1.00  0.00    -0.014 A 
ATOM     65  C   UNL A   1      39.118  33.683  38.047  1.00  0.00     0.010 A 
ATOM     66  C   UNL A   1      40.308  35.364  36.765  1.00  0.00     0.010 A 
ATOM     67  C   UNL A   1      38.841  34.633  39.033  1.00  0.00     0.020 A 
ATOM     68  C   UNL A   1      40.059  36.309  37.764  1.00  0.00     0.020 A 
ATOM     69  C   UNL A   1      39.311  35.941  38.883  1.00  0.00     0.054 A 
BRANCH  69  70
ATOM     70  S   UNL A   1      38.949  37.148  40.187  1.00  0.00     0.124 S 
ATOM     71  O   UNL A   1      38.025  36.403  41.039  1.00  0.00    -0.237 OA
ATOM     72  O   UNL A   1      40.266  37.403  40.763  1.00  0.00    -0.237 OA
ATOM     73  O   UNL A   1      38.359  38.273  39.465  1.00  0.00    -0.744 OA
ENDBRANCH  69  70
ENDBRANCH  50  64
BRANCH  51  74
ATOM     74  C   UNL A   1      41.639  27.708  29.383  1.00  0.00    -0.014 A 
ATOM     75  C   UNL A   1      42.633  28.020  28.439  1.00  0.00     0.010 A 
ATOM     76  C   UNL A   1      40.930  26.500  29.253  1.00  0.00     0.010 A 
ATOM     77  C   UNL A   1      42.902  27.151  27.377  1.00  0.00     0.020 A 
ATOM     78  C   UNL A   1      41.215  25.615  28.209  1.00  0.00     0.020 A 
ATOM     79  C   UNL A   1      42.191  25.953  27.271  1.00  0.00     0.054 A 
BRANCH  79  80
ATOM     80  S   UNL A   1      42.592  24.816  25.913  1.00  0.00     0.124 S 
ATOM     81  O   UNL A   1      42.409  25.665  24.741  1.00  0.00    -0.237 OA
ATOM     82  O   UNL A   1      43.971  24.440  26.215  1.00  0.00    -0.237 OA
ATOM     83  O   UNL A   1      41.614  23.741  26.069  1.00  0.00    -0.744 OA
ENDBRANCH  79  80
ENDBRANCH  51  74
BRANCH  63  84
ATOM     84  C   UNL A   1      44.612  28.803  35.607  1.00  0.00    -0.014 A 
ATOM     85  C   UNL A   1      45.918  29.311  35.496  1.00  0.00     0.010 A 
ATOM     86  C   UNL A   1      44.367  27.724  36.475  1.00  0.00     0.010 A 
ATOM     87  C   UNL A   1      46.962  28.739  36.229  1.00  0.00     0.020 A 
ATOM     88  C   UNL A   1      45.402  27.166  37.229  1.00  0.00     0.020 A 
ATOM     89  C   UNL A   1      46.696  27.673  37.095  1.00  0.00     0.054 A 
BRANCH  89  90
ATOM     90  S   UNL A   1      48.054  27.000  38.092  1.00  0.00     0.124 S 
ATOM     91  O   UNL A   1      48.993  26.554  37.065  1.00  0.00    -0.237 OA
ATOM     92  O   UNL A   1      48.481  28.155  38.876  1.00  0.00    -0.237 OA
ATOM     93  O   UNL A   1      47.421  25.930  38.863  1.00  0.00    -0.744 OA
ENDBRANCH  89  90
ENDBRANCH  63  84
ENDBRANCH  37  38
ENDBRANCH  29  32
ENDBRANCH  27  28
ENDBRANCH  26  27
ENDBRANCH   1  26
TORSDOF 18
ENDMDL
MODEL 3
REMARK VINA RESULT:     -11.1      5.090      7.075
REMARK SMILES O=C(/C=C/CC(=O)Nc1cccc(Oc2ncccn2)c1)NCCCNC(=O)c1ccc(-c2c3nc(c(-c4ccc(S(=O)(=O)[O-])cc4)c4ccc([nH]4)c(-c4ccc(S(=O)(=O)[O-])cc4)c4nc(c(-c5ccc(S(=O)(=O)[O-])cc5)c5ccc2[nH]5)C=C4)C=C3)cc1
REMARK SMILES IDX 23 1 22 2 1 3 2 4 3 6 4 7 5 8 6 9 7 10 8 11 9 13 10 14 21 15
REMARK SMILES IDX 11 16 13 17 12 18 14 19 15 20 16 21 20 22 17 23 19 24 18 25
REMARK SMILES IDX 24 26 25 27 26 28 27 29 28 31 29 32 30 33 88 34 31 35 87 36
REMARK SMILES IDX 32 37 33 38 34 39 81 40 35 41 86 42 80 43 82 44 36 45 85 46
REMARK SMILES IDX 79 47 78 48 37 50 67 51 48 52 66 53 49 54 52 55 65 56 83 57
REMARK SMILES IDX 50 58 51 59 64 61 84 62 53 63 38 64 39 65 47 66 40 67 46 68
REMARK SMILES IDX 41 69 42 70 43 71 44 72 45 73 68 74 69 75 77 76 70 77 76 78
REMARK SMILES IDX 71 79 72 80 73 81 74 82 75 83 54 84 55 85 63 86 56 87 62 88
REMARK SMILES IDX 57 89 58 90 59 91 60 92 61 93
REMARK H PARENT 22 5 8 12 26 30 82 49 52 60
REMARK Flexibility Score: inf
ROOT
ATOM      1  C   UNL A   1      33.642  32.586  27.949  1.00  0.00     0.118 C 
ENDROOT
BRANCH   1   2
ATOM      2  N   UNL A   1      33.493  30.766  26.948  1.00  0.00    -0.352 N 
ATOM      3  O   UNL A   1      33.875  28.535  27.798  1.00  0.00    -0.270 OA
ATOM      4  C   UNL A   1      33.541  29.330  26.928  1.00  0.00     0.243 C 
ATOM      5  H   UNL A   1      33.286  31.015  26.018  1.00  0.00     0.163 HD
BRANCH   4   6
ATOM      6  C   UNL A   1      33.023  28.748  25.651  1.00  0.00     0.067 C 
ATOM      7  C   UNL A   1      32.395  29.430  24.679  1.00  0.00    -0.011 C 
BRANCH   7   8
ATOM      8  C   UNL A   1      31.843  28.759  23.463  1.00  0.00     0.128 C 
BRANCH   8   9
ATOM      9  C   UNL A   1      30.319  28.583  23.426  1.00  0.00     0.228 C 
ATOM     10  O   UNL A   1      29.570  29.550  23.269  1.00  0.00    -0.274 OA
ATOM     11  N   UNL A   1      29.799  27.312  23.368  1.00  0.00    -0.326 N 
ATOM     12  H   UNL A   1      28.997  27.201  22.809  1.00  0.00     0.169 HD
BRANCH  11  13
ATOM     13  C   UNL A   1      30.266  26.153  24.004  1.00  0.00     0.044 A 
ATOM     14  C   UNL A   1      30.222  26.071  25.392  1.00  0.00     0.026 A 
ATOM     15  C   UNL A   1      30.914  25.153  23.275  1.00  0.00     0.073 A 
ATOM     16  C   UNL A   1      30.720  24.933  26.032  1.00  0.00     0.006 A 
ATOM     17  C   UNL A   1      31.414  24.005  23.897  1.00  0.00     0.133 A 
ATOM     18  C   UNL A   1      31.303  23.902  25.286  1.00  0.00     0.047 A 
BRANCH  17  19
ATOM     19  O   UNL A   1      32.093  22.984  23.269  1.00  0.00    -0.424 OA
BRANCH  19  20
ATOM     20  C   UNL A   1      33.387  22.729  23.694  1.00  0.00     0.321 A 
ATOM     21  N   UNL A   1      33.619  21.406  24.816  1.00  0.00    -0.203 NA
ATOM     22  N   UNL A   1      34.739  23.582  22.915  1.00  0.00    -0.203 NA
ATOM     23  C   UNL A   1      35.284  20.922  25.179  1.00  0.00     0.118 A 
ATOM     24  C   UNL A   1      36.400  23.061  23.299  1.00  0.00     0.118 A 
ATOM     25  C   UNL A   1      36.709  21.682  24.386  1.00  0.00     0.040 A 
ENDBRANCH  19  20
ENDBRANCH  17  19
ENDBRANCH  11  13
ENDBRANCH   8   9
ENDBRANCH   7   8
ENDBRANCH   4   6
ENDBRANCH   1   2
BRANCH   1  26
ATOM     26  C   UNL A   1      34.937  33.421  28.665  1.00  0.00     0.042 C 
BRANCH  26  27
ATOM     27  C   UNL A   1      36.070  32.647  29.347  1.00  0.00     0.118 C 
BRANCH  27  28
ATOM     28  N   UNL A   1      35.661  31.669  30.340  1.00  0.00    -0.352 N 
ATOM     29  C   UNL A   1      36.419  30.603  30.786  1.00  0.00     0.251 C 
ATOM     30  H   UNL A   1      34.762  31.773  30.728  1.00  0.00     0.163 HD
ATOM     31  O   UNL A   1      35.954  29.762  31.544  1.00  0.00    -0.269 OA
BRANCH  29  32
ATOM     32  C   UNL A   1      37.807  30.483  30.281  1.00  0.00     0.039 A 
ATOM     33  C   UNL A   1      38.872  30.617  31.173  1.00  0.00     0.014 A 
ATOM     34  C   UNL A   1      38.034  30.119  28.951  1.00  0.00     0.014 A 
ATOM     35  C   UNL A   1      40.166  30.306  30.748  1.00  0.00     0.010 A 
ATOM     36  C   UNL A   1      39.314  29.745  28.550  1.00  0.00     0.010 A 
ATOM     37  C   UNL A   1      40.393  29.824  29.446  1.00  0.00    -0.014 A 
BRANCH  37  38
ATOM     38  C   UNL A   1      41.745  29.388  29.007  1.00  0.00     0.031 A 
ATOM     39  C   UNL A   1      42.872  30.383  28.933  1.00  0.00     0.074 A 
ATOM     40  C   UNL A   1      41.946  28.115  28.609  1.00  0.00     0.049 A 
ATOM     41  N   UNL A   1      44.101  30.207  28.518  1.00  0.00    -0.248 NA
ATOM     42  C   UNL A   1      42.573  31.760  29.356  1.00  0.00     0.031 C 
ATOM     43  C   UNL A   1      40.928  27.061  28.593  1.00  0.00     0.029 A 
ATOM     44  N   UNL A   1      43.073  27.491  28.133  1.00  0.00    -0.354 N 
ATOM     45  C   UNL A   1      44.714  31.450  28.617  1.00  0.00     0.074 A 
ATOM     46  C   UNL A   1      43.710  32.381  29.081  1.00  0.00     0.031 C 
ATOM     47  C   UNL A   1      41.485  25.918  28.156  1.00  0.00     0.029 A 
ATOM     48  C   UNL A   1      42.884  26.164  27.822  1.00  0.00     0.049 A 
ATOM     49  H   UNL A   1      43.936  27.951  28.024  1.00  0.00     0.167 HD
ATOM     50  C   UNL A   1      46.003  31.784  28.365  1.00  0.00     0.031 A 
ATOM     51  C   UNL A   1      43.737  25.247  27.321  1.00  0.00     0.031 A 
ATOM     52  C   UNL A   1      47.004  30.855  27.914  1.00  0.00     0.049 A 
ATOM     53  C   UNL A   1      45.161  25.646  27.033  1.00  0.00     0.074 A 
ATOM     54  C   UNL A   1      48.350  31.088  27.684  1.00  0.00     0.029 A 
ATOM     55  N   UNL A   1      46.773  29.521  27.623  1.00  0.00    -0.354 N 
ATOM     56  N   UNL A   1      45.739  26.812  27.201  1.00  0.00    -0.248 NA
ATOM     57  C   UNL A   1      46.049  24.603  26.500  1.00  0.00     0.031 C 
ATOM     58  C   UNL A   1      48.920  29.905  27.204  1.00  0.00     0.029 A 
ATOM     59  C   UNL A   1      47.944  28.921  27.192  1.00  0.00     0.049 A 
ATOM     60  H   UNL A   1      45.904  29.066  27.708  1.00  0.00     0.167 HD
ATOM     61  C   UNL A   1      47.065  26.634  26.822  1.00  0.00     0.074 A 
ATOM     62  C   UNL A   1      47.207  25.248  26.426  1.00  0.00     0.031 C 
ATOM     63  C   UNL A   1      48.074  27.538  26.808  1.00  0.00     0.031 A 
BRANCH  50  64
ATOM     64  C   UNL A   1      46.400  33.222  28.568  1.00  0.00    -0.014 A 
ATOM     65  C   UNL A   1      47.116  33.622  29.712  1.00  0.00     0.010 A 
ATOM     66  C   UNL A   1      46.087  34.181  27.587  1.00  0.00     0.010 A 
ATOM     67  C   UNL A   1      47.470  34.961  29.892  1.00  0.00     0.020 A 
ATOM     68  C   UNL A   1      46.466  35.517  27.750  1.00  0.00     0.020 A 
ATOM     69  C   UNL A   1      47.139  35.901  28.911  1.00  0.00     0.054 A 
BRANCH  69  70
ATOM     70  S   UNL A   1      47.626  37.629  29.166  1.00  0.00     0.124 S 
ATOM     71  O   UNL A   1      46.390  38.339  28.846  1.00  0.00    -0.237 OA
ATOM     72  O   UNL A   1      48.014  37.649  30.574  1.00  0.00    -0.237 OA
ATOM     73  O   UNL A   1      48.720  37.825  28.217  1.00  0.00    -0.744 OA
ENDBRANCH  69  70
ENDBRANCH  50  64
BRANCH  51  74
ATOM     74  C   UNL A   1      43.272  23.855  27.069  1.00  0.00    -0.014 A 
ATOM     75  C   UNL A   1      43.183  22.930  28.125  1.00  0.00     0.010 A 
ATOM     76  C   UNL A   1      42.906  23.448  25.773  1.00  0.00     0.010 A 
ATOM     77  C   UNL A   1      42.755  21.620  27.887  1.00  0.00     0.020 A 
ATOM     78  C   UNL A   1      42.450  22.149  25.536  1.00  0.00     0.020 A 
ATOM     79  C   UNL A   1      42.389  21.239  26.593  1.00  0.00     0.054 A 
BRANCH  79  80
ATOM     80  S   UNL A   1      41.786  19.549  26.317  1.00  0.00     0.124 S 
ATOM     81  O   UNL A   1      40.347  19.756  26.190  1.00  0.00    -0.237 OA
ATOM     82  O   UNL A   1      42.482  19.163  25.091  1.00  0.00    -0.237 OA
ATOM     83  O   UNL A   1      42.214  18.834  27.517  1.00  0.00    -0.744 OA
ENDBRANCH  79  80
ENDBRANCH  51  74
BRANCH  63  84
ATOM     84  C   UNL A   1      49.439  27.060  26.388  1.00  0.00    -0.014 A 
ATOM     85  C   UNL A   1      50.310  26.446  27.304  1.00  0.00     0.010 A 
ATOM     86  C   UNL A   1      49.815  27.147  25.036  1.00  0.00     0.010 A 
ATOM     87  C   UNL A   1      51.540  25.939  26.877  1.00  0.00     0.020 A 
ATOM     88  C   UNL A   1      51.033  26.618  24.599  1.00  0.00     0.020 A 
ATOM     89  C   UNL A   1      51.892  26.025  25.526  1.00  0.00     0.054 A 
BRANCH  89  90
ATOM     90  S   UNL A   1      53.461  25.293  24.985  1.00  0.00     0.124 S 
ATOM     91  O   UNL A   1      53.276  23.886  25.332  1.00  0.00    -0.237 OA
ATOM     92  O   UNL A   1      53.478  25.590  23.555  1.00  0.00    -0.237 OA
ATOM     93  O   UNL A   1      54.466  26.002  25.774  1.00  0.00    -0.744 OA
ENDBRANCH  89  90
ENDBRANCH  63  84
ENDBRANCH  37  38
ENDBRANCH  29  32
ENDBRANCH  27  28
ENDBRANCH  26  27
ENDBRANCH   1  26
TORSDOF 18
ENDMDL
