MODEL 1
REMARK VINA RESULT:     -11.5      0.000      0.000
REMARK SMILES O=C1C[C@@H]([N@@H+]2[C@@H](C(=O)NCCCNC(=O)c3ccc(-c4c5nc(c(-c6ccc(S(=O)(=O)[O-])cc6)c6ccc([nH]6)c(-c6ccc(S(=O)(=O)[O-])cc6)c6nc(c(-c7ccc(S(=O)(=O)[O-])cc7)c7ccc4[nH]7)C=C6)C=C5)cc3)CC[C@@H]3CCCC[C@H]32)C(=O)N1
REMARK SMILES IDX 12 1 11 2 10 3 9 4 7 5 8 6 6 8 5 9 83 10 76 12 78 13 82 14
REMARK SMILES IDX 77 15 79 16 81 17 80 18 4 19 1 20 2 21 3 22 86 23 84 24
REMARK SMILES IDX 85 26 13 27 14 28 15 30 16 31 17 32 75 33 18 34 74 35 19 36
REMARK SMILES IDX 20 37 21 38 68 39 22 40 73 41 67 42 69 43 23 44 72 45 66 46
REMARK SMILES IDX 65 47 24 49 54 50 35 51 53 52 36 53 39 54 52 55 70 56 37 57
REMARK SMILES IDX 38 58 51 60 71 61 40 62 25 63 26 64 34 65 27 66 33 67 28 68
REMARK SMILES IDX 29 69 30 70 31 71 32 72 55 73 56 74 64 75 57 76 63 77 58 78
REMARK SMILES IDX 59 79 60 80 61 81 62 82 41 83 42 84 50 85 43 86 49 87 44 88
REMARK SMILES IDX 45 89 46 90 47 91 48 92
REMARK H PARENT 9 7 5 11 86 25 13 29 69 48 39 59
REMARK Flexibility Score: inf
ROOT
ATOM      1  C   UNL A   1      33.427  28.596  27.260  1.00  0.00     0.118 C 
ENDROOT
BRANCH   1   2
ATOM      2  C   UNL A   1      32.337  28.179  26.283  1.00  0.00     0.042 C 
BRANCH   2   3
ATOM      3  C   UNL A   1      31.459  27.049  26.799  1.00  0.00     0.118 C 
BRANCH   3   4
ATOM      4  N   UNL A   1      30.937  26.243  25.706  1.00  0.00    -0.351 N 
ATOM      5  C   UNL A   1      31.508  25.198  25.047  1.00  0.00     0.278 C 
ATOM      6  O   UNL A   1      30.835  24.605  24.198  1.00  0.00    -0.268 OA
ATOM      7  H   UNL A   1      30.036  26.493  25.396  1.00  0.00     0.163 HD
BRANCH   5   8
ATOM      8  C   UNL A   1      32.944  24.739  25.358  1.00  0.00     0.275 C 
ATOM      9  N   UNL A   1      33.684  24.283  24.130  1.00  0.00    -0.311 N 
ATOM     10  C   UNL A   1      34.977  23.616  24.480  1.00  0.00     0.188 C 
ATOM     11  H   UNL A   1      33.078  23.590  23.689  1.00  0.00     0.349 HD
ATOM     12  C   UNL A   1      32.843  23.714  26.498  1.00  0.00     0.076 C 
ATOM     13  C   UNL A   1      34.807  22.526  25.573  1.00  0.00     0.048 C 
ATOM     14  C   UNL A   1      35.662  22.963  23.252  1.00  0.00     0.065 C 
ATOM     15  C   UNL A   1      34.188  23.115  26.838  1.00  0.00     0.016 C 
ATOM     16  C   UNL A   1      36.143  21.860  25.931  1.00  0.00     0.010 C 
ATOM     17  C   UNL A   1      36.981  22.282  23.609  1.00  0.00     0.006 C 
ATOM     18  C   UNL A   1      36.810  21.248  24.709  1.00  0.00     0.001 C 
BRANCH   9  19
ATOM     19  C   UNL A   1      33.881  25.363  23.102  1.00  0.00     0.284 C 
ATOM     20  O   UNL A   1      31.932  28.338  22.726  1.00  0.00    -0.274 OA
ATOM     21  C   UNL A   1      32.489  27.257  22.652  1.00  0.00     0.233 C 
ATOM     22  C   UNL A   1      33.606  26.803  23.544  1.00  0.00     0.176 C 
ATOM     23  N   UNL A   1      32.248  26.308  21.717  1.00  0.00    -0.291 N 
ATOM     24  C   UNL A   1      33.051  25.218  21.832  1.00  0.00     0.285 C 
ATOM     25  H   UNL A   1      31.558  26.399  21.020  1.00  0.00     0.173 HD
ATOM     26  O   UNL A   1      33.117  24.313  21.015  1.00  0.00    -0.268 OA
ENDBRANCH   9  19
ENDBRANCH   5   8
ENDBRANCH   3   4
ENDBRANCH   2   3
ENDBRANCH   1   2
BRANCH   1  27
ATOM     27  N   UNL A   1      33.404  30.025  27.539  1.00  0.00    -0.352 N 
ATOM     28  C   UNL A   1      34.347  30.818  28.141  1.00  0.00     0.251 C 
ATOM     29  H   UNL A   1      32.587  30.494  27.250  1.00  0.00     0.163 HD
ATOM     30  O   UNL A   1      34.053  31.964  28.470  1.00  0.00    -0.269 OA
BRANCH  28  31
ATOM     31  C   UNL A   1      35.705  30.296  28.413  1.00  0.00     0.039 A 
ATOM     32  C   UNL A   1      36.663  30.367  27.399  1.00  0.00     0.014 A 
ATOM     33  C   UNL A   1      36.034  29.722  29.644  1.00  0.00     0.014 A 
ATOM     34  C   UNL A   1      37.962  29.919  27.641  1.00  0.00     0.010 A 
ATOM     35  C   UNL A   1      37.352  29.355  29.913  1.00  0.00     0.010 A 
ATOM     36  C   UNL A   1      38.330  29.447  28.914  1.00  0.00    -0.014 A 
BRANCH  36  37
ATOM     37  C   UNL A   1      39.738  29.070  29.202  1.00  0.00     0.031 A 
ATOM     38  C   UNL A   1      40.684  30.052  29.839  1.00  0.00     0.074 A 
ATOM     39  C   UNL A   1      40.171  27.839  28.860  1.00  0.00     0.049 A 
ATOM     40  N   UNL A   1      41.939  29.888  30.169  1.00  0.00    -0.248 NA
ATOM     41  C   UNL A   1      40.161  31.399  30.127  1.00  0.00     0.031 C 
ATOM     42  C   UNL A   1      39.366  26.815  28.189  1.00  0.00     0.029 A 
ATOM     43  N   UNL A   1      41.392  27.236  29.034  1.00  0.00    -0.354 N 
ATOM     44  C   UNL A   1      42.355  31.101  30.704  1.00  0.00     0.074 A 
ATOM     45  C   UNL A   1      41.238  32.013  30.598  1.00  0.00     0.031 C 
ATOM     46  C   UNL A   1      40.101  25.701  28.042  1.00  0.00     0.029 A 
ATOM     47  C   UNL A   1      41.441  25.944  28.566  1.00  0.00     0.049 A 
ATOM     48  H   UNL A   1      42.159  27.686  29.453  1.00  0.00     0.167 HD
ATOM     49  C   UNL A   1      43.550  31.422  31.256  1.00  0.00     0.031 A 
ATOM     50  C   UNL A   1      42.450  25.053  28.552  1.00  0.00     0.031 A 
ATOM     51  C   UNL A   1      44.663  30.513  31.357  1.00  0.00     0.049 A 
ATOM     52  C   UNL A   1      43.773  25.440  29.155  1.00  0.00     0.074 A 
ATOM     53  C   UNL A   1      45.902  30.731  31.935  1.00  0.00     0.029 A 
ATOM     54  N   UNL A   1      44.674  29.215  30.869  1.00  0.00    -0.354 N 
ATOM     55  N   UNL A   1      44.122  26.573  29.718  1.00  0.00    -0.248 NA
ATOM     56  C   UNL A   1      44.833  24.425  29.134  1.00  0.00     0.031 C 
ATOM     57  C   UNL A   1      46.682  29.586  31.743  1.00  0.00     0.029 A 
ATOM     58  C   UNL A   1      45.906  28.629  31.108  1.00  0.00     0.049 A 
ATOM     59  H   UNL A   1      43.918  28.774  30.418  1.00  0.00     0.167 HD
ATOM     60  C   UNL A   1      45.437  26.398  30.137  1.00  0.00     0.074 A 
ATOM     61  C   UNL A   1      45.806  25.040  29.791  1.00  0.00     0.031 C 
ATOM     62  C   UNL A   1      46.266  27.281  30.747  1.00  0.00     0.031 A 
BRANCH  49  63
ATOM     63  C   UNL A   1      43.718  32.816  31.805  1.00  0.00    -0.014 A 
ATOM     64  C   UNL A   1      43.379  33.114  33.138  1.00  0.00     0.010 A 
ATOM     65  C   UNL A   1      44.285  33.825  31.005  1.00  0.00     0.010 A 
ATOM     66  C   UNL A   1      43.578  34.399  33.651  1.00  0.00     0.020 A 
ATOM     67  C   UNL A   1      44.514  35.104  31.522  1.00  0.00     0.020 A 
ATOM     68  C   UNL A   1      44.148  35.385  32.840  1.00  0.00     0.054 A 
BRANCH  68  69
ATOM     69  S   UNL A   1      44.440  37.029  33.550  1.00  0.00     0.124 S 
ATOM     70  O   UNL A   1      45.849  36.948  33.927  1.00  0.00    -0.237 OA
ATOM     71  O   UNL A   1      44.139  37.917  32.430  1.00  0.00    -0.237 OA
ATOM     72  O   UNL A   1      43.500  37.098  34.667  1.00  0.00    -0.744 OA
ENDBRANCH  68  69
ENDBRANCH  49  63
BRANCH  50  73
ATOM     73  C   UNL A   1      42.253  23.708  27.942  1.00  0.00    -0.014 A 
ATOM     74  C   UNL A   1      41.736  22.639  28.695  1.00  0.00     0.010 A 
ATOM     75  C   UNL A   1      42.595  23.489  26.594  1.00  0.00     0.010 A 
ATOM     76  C   UNL A   1      41.596  21.371  28.122  1.00  0.00     0.020 A 
ATOM     77  C   UNL A   1      42.423  22.233  26.007  1.00  0.00     0.020 A 
ATOM     78  C   UNL A   1      41.940  21.177  26.781  1.00  0.00     0.054 A 
BRANCH  78  79
ATOM     79  S   UNL A   1      41.723  19.531  26.048  1.00  0.00     0.124 S 
ATOM     80  O   UNL A   1      42.613  19.593  24.894  1.00  0.00    -0.237 OA
ATOM     81  O   UNL A   1      42.148  18.646  27.130  1.00  0.00    -0.237 OA
ATOM     82  O   UNL A   1      40.296  19.482  25.738  1.00  0.00    -0.744 OA
ENDBRANCH  78  79
ENDBRANCH  50  73
BRANCH  62  83
ATOM     83  C   UNL A   1      47.648  26.795  31.099  1.00  0.00    -0.014 A 
ATOM     84  C   UNL A   1      47.919  26.205  32.347  1.00  0.00     0.010 A 
ATOM     85  C   UNL A   1      48.687  26.910  30.158  1.00  0.00     0.010 A 
ATOM     86  C   UNL A   1      49.215  25.791  32.668  1.00  0.00     0.020 A 
ATOM     87  C   UNL A   1      49.977  26.465  30.461  1.00  0.00     0.020 A 
ATOM     88  C   UNL A   1      50.236  25.928  31.723  1.00  0.00     0.054 A 
BRANCH  88  89
ATOM     89  S   UNL A   1      51.906  25.371  32.160  1.00  0.00     0.124 S 
ATOM     90  O   UNL A   1      52.108  26.008  33.458  1.00  0.00    -0.237 OA
ATOM     91  O   UNL A   1      51.763  23.918  32.186  1.00  0.00    -0.237 OA
ATOM     92  O   UNL A   1      52.739  25.890  31.077  1.00  0.00    -0.744 OA
ENDBRANCH  88  89
ENDBRANCH  62  83
ENDBRANCH  36  37
ENDBRANCH  28  31
ENDBRANCH   1  27
TORSDOF 14
ENDMDL
MODEL 2
REMARK VINA RESULT:     -11.3      2.538      9.152
REMARK SMILES O=C1C[C@@H]([N@@H+]2[C@@H](C(=O)NCCCNC(=O)c3ccc(-c4c5nc(c(-c6ccc(S(=O)(=O)[O-])cc6)c6ccc([nH]6)c(-c6ccc(S(=O)(=O)[O-])cc6)c6nc(c(-c7ccc(S(=O)(=O)[O-])cc7)c7ccc4[nH]7)C=C6)C=C5)cc3)CC[C@@H]3CCCC[C@H]32)C(=O)N1
REMARK SMILES IDX 12 1 11 2 10 3 9 4 7 5 8 6 6 8 5 9 83 10 76 12 78 13 82 14
REMARK SMILES IDX 77 15 79 16 81 17 80 18 4 19 1 20 2 21 3 22 86 23 84 24
REMARK SMILES IDX 85 26 13 27 14 28 15 30 16 31 17 32 75 33 18 34 74 35 19 36
REMARK SMILES IDX 20 37 21 38 68 39 22 40 73 41 67 42 69 43 23 44 72 45 66 46
REMARK SMILES IDX 65 47 24 49 54 50 35 51 53 52 36 53 39 54 52 55 70 56 37 57
REMARK SMILES IDX 38 58 51 60 71 61 40 62 25 63 26 64 34 65 27 66 33 67 28 68
REMARK SMILES IDX 29 69 30 70 31 71 32 72 55 73 56 74 64 75 57 76 63 77 58 78
REMARK SMILES IDX 59 79 60 80 61 81 62 82 41 83 42 84 50 85 43 86 49 87 44 88
REMARK SMILES IDX 45 89 46 90 47 91 48 92
REMARK H PARENT 9 7 5 11 86 25 13 29 69 48 39 59
REMARK Flexibility Score: inf
ROOT
ATOM      1  C   UNL A   1      36.979  23.714  24.991  1.00  0.00     0.118 C 
ENDROOT
BRANCH   1   2
ATOM      2  C   UNL A   1      35.842  23.850  25.994  1.00  0.00     0.042 C 
BRANCH   2   3
ATOM      3  C   UNL A   1      34.461  23.820  25.355  1.00  0.00     0.118 C 
BRANCH   3   4
ATOM      4  N   UNL A   1      33.412  23.883  26.361  1.00  0.00    -0.351 N 
ATOM      5  C   UNL A   1      32.223  24.544  26.335  1.00  0.00     0.278 C 
ATOM      6  O   UNL A   1      31.444  24.382  27.280  1.00  0.00    -0.268 OA
ATOM      7  H   UNL A   1      33.590  23.371  27.183  1.00  0.00     0.163 HD
BRANCH   5   8
ATOM      8  C   UNL A   1      31.832  25.453  25.155  1.00  0.00     0.275 C 
ATOM      9  N   UNL A   1      31.789  26.907  25.536  1.00  0.00    -0.311 N 
ATOM     10  C   UNL A   1      31.176  27.742  24.455  1.00  0.00     0.188 C 
ATOM     11  H   UNL A   1      31.185  26.955  26.356  1.00  0.00     0.349 HD
ATOM     12  C   UNL A   1      30.536  24.876  24.564  1.00  0.00     0.076 C 
ATOM     13  C   UNL A   1      29.823  27.166  23.954  1.00  0.00     0.048 C 
ATOM     14  C   UNL A   1      30.938  29.209  24.899  1.00  0.00     0.065 C 
ATOM     15  C   UNL A   1      29.995  25.737  23.446  1.00  0.00     0.016 C 
ATOM     16  C   UNL A   1      29.212  28.025  22.838  1.00  0.00     0.010 C 
ATOM     17  C   UNL A   1      30.311  30.060  23.797  1.00  0.00     0.006 C 
ATOM     18  C   UNL A   1      29.011  29.464  23.284  1.00  0.00     0.001 C 
BRANCH   9  19
ATOM     19  C   UNL A   1      33.116  27.461  25.974  1.00  0.00     0.284 C 
ATOM     20  O   UNL A   1      33.701  30.629  27.530  1.00  0.00    -0.274 OA
ATOM     21  C   UNL A   1      33.608  29.649  26.811  1.00  0.00     0.233 C 
ATOM     22  C   UNL A   1      33.132  28.299  27.256  1.00  0.00     0.176 C 
ATOM     23  N   UNL A   1      33.979  29.588  25.510  1.00  0.00    -0.291 N 
ATOM     24  C   UNL A   1      33.819  28.356  24.959  1.00  0.00     0.285 C 
ATOM     25  H   UNL A   1      34.331  30.361  25.011  1.00  0.00     0.173 HD
ATOM     26  O   UNL A   1      34.226  28.030  23.855  1.00  0.00    -0.268 OA
ENDBRANCH   9  19
ENDBRANCH   5   8
ENDBRANCH   3   4
ENDBRANCH   2   3
ENDBRANCH   1   2
BRANCH   1  27
ATOM     27  N   UNL A   1      37.959  22.717  25.396  1.00  0.00    -0.352 N 
ATOM     28  C   UNL A   1      39.131  22.869  26.093  1.00  0.00     0.251 C 
ATOM     29  H   UNL A   1      37.748  21.792  25.132  1.00  0.00     0.163 HD
ATOM     30  O   UNL A   1      39.923  21.932  26.156  1.00  0.00    -0.269 OA
BRANCH  28  31
ATOM     31  C   UNL A   1      39.454  24.156  26.748  1.00  0.00     0.039 A 
ATOM     32  C   UNL A   1      39.015  24.367  28.057  1.00  0.00     0.014 A 
ATOM     33  C   UNL A   1      40.162  25.158  26.080  1.00  0.00     0.014 A 
ATOM     34  C   UNL A   1      39.339  25.555  28.713  1.00  0.00     0.010 A 
ATOM     35  C   UNL A   1      40.560  26.306  26.764  1.00  0.00     0.010 A 
ATOM     36  C   UNL A   1      40.150  26.519  28.087  1.00  0.00    -0.014 A 
BRANCH  36  37
ATOM     37  C   UNL A   1      40.584  27.735  28.822  1.00  0.00     0.031 A 
ATOM     38  C   UNL A   1      41.942  27.802  29.467  1.00  0.00     0.074 A 
ATOM     39  C   UNL A   1      39.732  28.775  28.931  1.00  0.00     0.049 A 
ATOM     40  N   UNL A   1      42.486  28.786  30.138  1.00  0.00    -0.248 NA
ATOM     41  C   UNL A   1      42.796  26.606  29.363  1.00  0.00     0.031 C 
ATOM     42  C   UNL A   1      38.368  28.811  28.396  1.00  0.00     0.029 A 
ATOM     43  N   UNL A   1      39.886  30.004  29.522  1.00  0.00    -0.354 N 
ATOM     44  C   UNL A   1      43.739  28.332  30.531  1.00  0.00     0.074 A 
ATOM     45  C   UNL A   1      43.853  26.964  30.079  1.00  0.00     0.031 C 
ATOM     46  C   UNL A   1      37.826  30.012  28.650  1.00  0.00     0.029 A 
ATOM     47  C   UNL A   1      38.783  30.816  29.404  1.00  0.00     0.049 A 
ATOM     48  H   UNL A   1      40.709  30.278  29.987  1.00  0.00     0.167 HD
ATOM     49  C   UNL A   1      44.717  29.002  31.187  1.00  0.00     0.031 A 
ATOM     50  C   UNL A   1      38.560  32.065  29.854  1.00  0.00     0.031 A 
ATOM     51  C   UNL A   1      44.600  30.364  31.640  1.00  0.00     0.049 A 
ATOM     52  C   UNL A   1      39.655  32.779  30.596  1.00  0.00     0.074 A 
ATOM     53  C   UNL A   1      45.549  31.143  32.279  1.00  0.00     0.029 A 
ATOM     54  N   UNL A   1      43.466  31.151  31.504  1.00  0.00    -0.354 N 
ATOM     55  N   UNL A   1      40.860  32.354  30.897  1.00  0.00    -0.248 NA
ATOM     56  C   UNL A   1      39.368  34.147  31.047  1.00  0.00     0.031 C 
ATOM     57  C   UNL A   1      44.970  32.379  32.582  1.00  0.00     0.029 A 
ATOM     58  C   UNL A   1      43.682  32.397  32.070  1.00  0.00     0.049 A 
ATOM     59  H   UNL A   1      42.630  30.866  31.068  1.00  0.00     0.167 HD
ATOM     60  C   UNL A   1      41.480  33.411  31.555  1.00  0.00     0.074 A 
ATOM     61  C   UNL A   1      40.529  34.504  31.577  1.00  0.00     0.031 C 
ATOM     62  C   UNL A   1      42.723  33.471  32.097  1.00  0.00     0.031 A 
BRANCH  49  63
ATOM     63  C   UNL A   1      46.011  28.273  31.452  1.00  0.00    -0.014 A 
ATOM     64  C   UNL A   1      47.077  28.336  30.535  1.00  0.00     0.010 A 
ATOM     65  C   UNL A   1      46.192  27.574  32.659  1.00  0.00     0.010 A 
ATOM     66  C   UNL A   1      48.287  27.693  30.807  1.00  0.00     0.020 A 
ATOM     67  C   UNL A   1      47.411  26.954  32.950  1.00  0.00     0.020 A 
ATOM     68  C   UNL A   1      48.448  27.009  32.016  1.00  0.00     0.054 A 
BRANCH  68  69
ATOM     69  S   UNL A   1      50.047  26.227  32.363  1.00  0.00     0.124 S 
ATOM     70  O   UNL A   1      50.243  25.401  31.173  1.00  0.00    -0.237 OA
ATOM     71  O   UNL A   1      50.942  27.374  32.485  1.00  0.00    -0.237 OA
ATOM     72  O   UNL A   1      49.813  25.488  33.602  1.00  0.00    -0.744 OA
ENDBRANCH  68  69
ENDBRANCH  49  63
BRANCH  50  73
ATOM     73  C   UNL A   1      37.241  32.719  29.622  1.00  0.00    -0.014 A 
ATOM     74  C   UNL A   1      36.944  33.336  28.393  1.00  0.00     0.010 A 
ATOM     75  C   UNL A   1      36.273  32.737  30.644  1.00  0.00     0.010 A 
ATOM     76  C   UNL A   1      35.720  33.984  28.202  1.00  0.00     0.020 A 
ATOM     77  C   UNL A   1      35.034  33.352  30.445  1.00  0.00     0.020 A 
ATOM     78  C   UNL A   1      34.773  33.987  29.230  1.00  0.00     0.054 A 
BRANCH  78  79
ATOM     79  S   UNL A   1      33.178  34.807  28.952  1.00  0.00     0.124 S 
ATOM     80  O   UNL A   1      33.593  36.122  28.473  1.00  0.00    -0.237 OA
ATOM     81  O   UNL A   1      32.548  33.941  27.959  1.00  0.00    -0.237 OA
ATOM     82  O   UNL A   1      32.551  34.790  30.271  1.00  0.00    -0.744 OA
ENDBRANCH  78  79
ENDBRANCH  50  73
BRANCH  62  83
ATOM     83  C   UNL A   1      43.129  34.772  32.739  1.00  0.00    -0.014 A 
ATOM     84  C   UNL A   1      42.872  35.027  34.099  1.00  0.00     0.010 A 
ATOM     85  C   UNL A   1      43.796  35.747  31.976  1.00  0.00     0.010 A 
ATOM     86  C   UNL A   1      43.226  36.253  34.668  1.00  0.00     0.020 A 
ATOM     87  C   UNL A   1      44.184  36.961  32.550  1.00  0.00     0.020 A 
ATOM     88  C   UNL A   1      43.876  37.214  33.888  1.00  0.00     0.054 A 
BRANCH  88  89
ATOM     89  S   UNL A   1      44.336  38.792  34.654  1.00  0.00     0.124 S 
ATOM     90  O   UNL A   1      44.184  38.494  36.076  1.00  0.00    -0.237 OA
ATOM     91  O   UNL A   1      45.708  38.984  34.194  1.00  0.00    -0.237 OA
ATOM     92  O   UNL A   1      43.364  39.738  34.110  1.00  0.00    -0.744 OA
ENDBRANCH  88  89
ENDBRANCH  62  83
ENDBRANCH  36  37
ENDBRANCH  28  31
ENDBRANCH   1  27
TORSDOF 14
ENDMDL
MODEL 3
REMARK VINA RESULT:     -11.3      2.460      9.189
REMARK SMILES O=C1C[C@@H]([N@@H+]2[C@@H](C(=O)NCCCNC(=O)c3ccc(-c4c5nc(c(-c6ccc(S(=O)(=O)[O-])cc6)c6ccc([nH]6)c(-c6ccc(S(=O)(=O)[O-])cc6)c6nc(c(-c7ccc(S(=O)(=O)[O-])cc7)c7ccc4[nH]7)C=C6)C=C5)cc3)CC[C@@H]3CCCC[C@H]32)C(=O)N1
REMARK SMILES IDX 12 1 11 2 10 3 9 4 7 5 8 6 6 8 5 9 83 10 76 12 78 13 82 14
REMARK SMILES IDX 77 15 79 16 81 17 80 18 4 19 1 20 2 21 3 22 86 23 84 24
REMARK SMILES IDX 85 26 13 27 14 28 15 30 16 31 17 32 75 33 18 34 74 35 19 36
REMARK SMILES IDX 20 37 21 38 68 39 22 40 73 41 67 42 69 43 23 44 72 45 66 46
REMARK SMILES IDX 65 47 24 49 54 50 35 51 53 52 36 53 39 54 52 55 70 56 37 57
REMARK SMILES IDX 38 58 51 60 71 61 40 62 25 63 26 64 34 65 27 66 33 67 28 68
REMARK SMILES IDX 29 69 30 70 31 71 32 72 55 73 56 74 64 75 57 76 63 77 58 78
REMARK SMILES IDX 59 79 60 80 61 81 62 82 41 83 42 84 50 85 43 86 49 87 44 88
REMARK SMILES IDX 45 89 46 90 47 91 48 92
REMARK H PARENT 9 7 5 11 86 25 13 29 69 48 39 59
REMARK Flexibility Score: inf
ROOT
ATOM      1  C   UNL A   1      37.162  23.677  25.073  1.00  0.00     0.118 C 
ENDROOT
BRANCH   1   2
ATOM      2  C   UNL A   1      35.847  23.015  24.685  1.00  0.00     0.042 C 
BRANCH   2   3
ATOM      3  C   UNL A   1      35.374  23.379  23.285  1.00  0.00     0.118 C 
BRANCH   3   4
ATOM      4  N   UNL A   1      33.927  23.283  23.174  1.00  0.00    -0.351 N 
ATOM      5  C   UNL A   1      32.966  24.167  23.559  1.00  0.00     0.278 C 
ATOM      6  O   UNL A   1      31.790  23.907  23.284  1.00  0.00    -0.268 OA
ATOM      7  H   UNL A   1      33.593  22.454  22.760  1.00  0.00     0.163 HD
BRANCH   5   8
ATOM      8  C   UNL A   1      33.320  25.472  24.294  1.00  0.00     0.275 C 
ATOM      9  N   UNL A   1      32.315  25.830  25.354  1.00  0.00    -0.311 N 
ATOM     10  C   UNL A   1      32.540  27.211  25.885  1.00  0.00     0.188 C 
ATOM     11  H   UNL A   1      31.409  25.812  24.887  1.00  0.00     0.349 HD
ATOM     12  C   UNL A   1      33.560  26.537  23.212  1.00  0.00     0.076 C 
ATOM     13  C   UNL A   1      32.687  28.265  24.753  1.00  0.00     0.048 C 
ATOM     14  C   UNL A   1      31.403  27.677  26.831  1.00  0.00     0.065 C 
ATOM     15  C   UNL A   1      33.830  27.898  23.812  1.00  0.00     0.016 C 
ATOM     16  C   UNL A   1      32.929  29.675  25.311  1.00  0.00     0.010 C 
ATOM     17  C   UNL A   1      31.632  29.087  27.371  1.00  0.00     0.006 C 
ATOM     18  C   UNL A   1      31.817  30.103  26.257  1.00  0.00     0.001 C 
BRANCH   9  19
ATOM     19  C   UNL A   1      32.219  24.822  26.466  1.00  0.00     0.284 C 
ATOM     20  O   UNL A   1      33.102  21.360  26.296  1.00  0.00    -0.274 OA
ATOM     21  C   UNL A   1      32.577  22.458  26.363  1.00  0.00     0.233 C 
ATOM     22  C   UNL A   1      33.314  23.753  26.533  1.00  0.00     0.176 C 
ATOM     23  N   UNL A   1      31.244  22.696  26.364  1.00  0.00    -0.291 N 
ATOM     24  C   UNL A   1      30.929  24.010  26.505  1.00  0.00     0.285 C 
ATOM     25  H   UNL A   1      30.568  21.986  26.271  1.00  0.00     0.173 HD
ATOM     26  O   UNL A   1      29.800  24.440  26.684  1.00  0.00    -0.268 OA
ENDBRANCH   9  19
ENDBRANCH   5   8
ENDBRANCH   3   4
ENDBRANCH   2   3
ENDBRANCH   1   2
BRANCH   1  27
ATOM     27  N   UNL A   1      38.177  22.707  25.460  1.00  0.00    -0.352 N 
ATOM     28  C   UNL A   1      39.358  22.892  26.132  1.00  0.00     0.251 C 
ATOM     29  H   UNL A   1      37.985  21.776  25.201  1.00  0.00     0.163 HD
ATOM     30  O   UNL A   1      40.176  21.977  26.180  1.00  0.00    -0.269 OA
BRANCH  28  31
ATOM     31  C   UNL A   1      39.660  24.189  26.778  1.00  0.00     0.039 A 
ATOM     32  C   UNL A   1      39.189  24.414  28.073  1.00  0.00     0.014 A 
ATOM     33  C   UNL A   1      40.379  25.186  26.114  1.00  0.00     0.014 A 
ATOM     34  C   UNL A   1      39.493  25.612  28.721  1.00  0.00     0.010 A 
ATOM     35  C   UNL A   1      40.756  26.344  26.793  1.00  0.00     0.010 A 
ATOM     36  C   UNL A   1      40.314  26.572  28.103  1.00  0.00    -0.014 A 
BRANCH  36  37
ATOM     37  C   UNL A   1      40.725  27.799  28.833  1.00  0.00     0.031 A 
ATOM     38  C   UNL A   1      42.082  27.895  29.477  1.00  0.00     0.074 A 
ATOM     39  C   UNL A   1      39.854  28.823  28.937  1.00  0.00     0.049 A 
ATOM     40  N   UNL A   1      42.607  28.891  30.143  1.00  0.00    -0.248 NA
ATOM     41  C   UNL A   1      42.957  26.714  29.379  1.00  0.00     0.031 C 
ATOM     42  C   UNL A   1      38.489  28.832  28.402  1.00  0.00     0.029 A 
ATOM     43  N   UNL A   1      39.985  30.058  29.522  1.00  0.00    -0.354 N 
ATOM     44  C   UNL A   1      43.868  28.463  30.539  1.00  0.00     0.074 A 
ATOM     45  C   UNL A   1      44.008  27.094  30.094  1.00  0.00     0.031 C 
ATOM     46  C   UNL A   1      37.924  30.024  28.650  1.00  0.00     0.029 A 
ATOM     47  C   UNL A   1      38.866  30.849  29.400  1.00  0.00     0.049 A 
ATOM     48  H   UNL A   1      40.802  30.349  29.986  1.00  0.00     0.167 HD
ATOM     49  C   UNL A   1      44.833  29.153  31.193  1.00  0.00     0.031 A 
ATOM     50  C   UNL A   1      38.620  32.095  29.845  1.00  0.00     0.031 A 
ATOM     51  C   UNL A   1      44.691  30.516  31.639  1.00  0.00     0.049 A 
ATOM     52  C   UNL A   1      39.702  32.833  30.584  1.00  0.00     0.074 A 
ATOM     53  C   UNL A   1      45.625  31.315  32.275  1.00  0.00     0.029 A 
ATOM     54  N   UNL A   1      43.543  31.280  31.499  1.00  0.00    -0.354 N 
ATOM     55  N   UNL A   1      40.914  32.432  30.887  1.00  0.00    -0.248 NA
ATOM     56  C   UNL A   1      39.389  34.197  31.028  1.00  0.00     0.031 C 
ATOM     57  C   UNL A   1      45.023  32.541  32.572  1.00  0.00     0.029 A 
ATOM     58  C   UNL A   1      43.735  32.532  32.059  1.00  0.00     0.049 A 
ATOM     59  H   UNL A   1      42.712  30.978  31.065  1.00  0.00     0.167 HD
ATOM     60  C   UNL A   1      41.515  33.503  31.540  1.00  0.00     0.074 A 
ATOM     61  C   UNL A   1      40.544  34.578  31.557  1.00  0.00     0.031 C 
ATOM     62  C   UNL A   1      42.756  33.589  32.082  1.00  0.00     0.031 A 
BRANCH  49  63
ATOM     63  C   UNL A   1      46.140  28.450  31.460  1.00  0.00    -0.014 A 
ATOM     64  C   UNL A   1      46.308  27.645  32.602  1.00  0.00     0.010 A 
ATOM     65  C   UNL A   1      47.191  28.539  30.529  1.00  0.00     0.010 A 
ATOM     66  C   UNL A   1      47.508  26.964  32.821  1.00  0.00     0.020 A 
ATOM     67  C   UNL A   1      48.384  27.836  30.728  1.00  0.00     0.020 A 
ATOM     68  C   UNL A   1      48.538  27.060  31.880  1.00  0.00     0.054 A 
BRANCH  68  69
ATOM     69  S   UNL A   1      50.065  26.124  32.167  1.00  0.00     0.124 S 
ATOM     70  O   UNL A   1      50.641  26.070  30.825  1.00  0.00    -0.237 OA
ATOM     71  O   UNL A   1      50.779  26.966  33.123  1.00  0.00    -0.237 OA
ATOM     72  O   UNL A   1      49.595  24.845  32.695  1.00  0.00    -0.744 OA
ENDBRANCH  68  69
ENDBRANCH  49  63
BRANCH  50  73
ATOM     73  C   UNL A   1      37.290  32.724  29.609  1.00  0.00    -0.014 A 
ATOM     74  C   UNL A   1      36.990  33.349  28.386  1.00  0.00     0.010 A 
ATOM     75  C   UNL A   1      36.313  32.707  30.623  1.00  0.00     0.010 A 
ATOM     76  C   UNL A   1      35.753  33.973  28.192  1.00  0.00     0.020 A 
ATOM     77  C   UNL A   1      35.063  33.298  30.421  1.00  0.00     0.020 A 
ATOM     78  C   UNL A   1      34.798  33.943  29.212  1.00  0.00     0.054 A 
BRANCH  78  79
ATOM     79  S   UNL A   1      33.188  34.732  28.931  1.00  0.00     0.124 S 
ATOM     80  O   UNL A   1      32.554  33.804  28.000  1.00  0.00    -0.237 OA
ATOM     81  O   UNL A   1      32.617  34.770  30.274  1.00  0.00    -0.237 OA
ATOM     82  O   UNL A   1      33.540  36.036  28.375  1.00  0.00    -0.744 OA
ENDBRANCH  78  79
ENDBRANCH  50  73
BRANCH  62  83
ATOM     83  C   UNL A   1      43.137  34.900  32.718  1.00  0.00    -0.014 A 
ATOM     84  C   UNL A   1      43.667  35.957  31.954  1.00  0.00     0.010 A 
ATOM     85  C   UNL A   1      42.944  35.086  34.099  1.00  0.00     0.010 A 
ATOM     86  C   UNL A   1      44.047  37.152  32.568  1.00  0.00     0.020 A 
ATOM     87  C   UNL A   1      43.289  36.294  34.711  1.00  0.00     0.020 A 
ATOM     88  C   UNL A   1      43.859  37.311  33.944  1.00  0.00     0.054 A 
BRANCH  88  89
ATOM     89  S   UNL A   1      44.349  38.879  34.714  1.00  0.00     0.124 S 
ATOM     90  O   UNL A   1      44.048  38.632  36.122  1.00  0.00    -0.237 OA
ATOM     91  O   UNL A   1      45.767  38.970  34.381  1.00  0.00    -0.237 OA
ATOM     92  O   UNL A   1      43.495  39.869  34.060  1.00  0.00    -0.744 OA
ENDBRANCH  88  89
ENDBRANCH  62  83
ENDBRANCH  36  37
ENDBRANCH  28  31
ENDBRANCH   1  27
TORSDOF 14
ENDMDL
