MODEL 1
REMARK VINA RESULT:     -11.0      0.000      0.000
REMARK SMILES CCc1ccsc1CNC(=O)N1[C@@H]2CC[C@H]1[C@H](C(=O)NCCCNC(=O)c1ccc(-c3c4nc(c(-c5ccc(S(=O)(=O)[O-])cc5)c5ccc([nH]5)c(-c5ccc(S(=O)(=O)[O-])cc5)c5nc(c(-c6ccc(S(=O)(=O)[O-])cc6)c6ccc3[nH]6)C=C5)C=C4)cc1)C2
REMARK SMILES IDX 21 1 20 2 18 3 19 4 17 6 12 7 13 8 16 9 14 10 87 11 15 12
REMARK SMILES IDX 10 13 9 14 11 16 8 17 7 18 3 19 4 20 5 21 6 22 2 23 1 24
REMARK SMILES IDX 22 25 23 26 24 27 25 28 26 30 27 31 28 32 86 33 29 34 85 35
REMARK SMILES IDX 30 36 31 37 32 38 79 39 33 40 84 41 78 42 80 43 34 44 83 45
REMARK SMILES IDX 77 46 76 47 35 49 65 50 46 51 64 52 47 53 50 54 63 55 81 56
REMARK SMILES IDX 48 57 49 58 62 60 82 61 51 62 36 63 37 64 45 65 38 66 44 67
REMARK SMILES IDX 39 68 40 69 41 70 42 71 43 72 66 73 67 74 75 75 68 76 74 77
REMARK SMILES IDX 69 78 70 79 71 80 72 81 73 82 52 83 53 84 61 85 54 86 60 87
REMARK SMILES IDX 55 88 56 89 57 90 58 91 59 92
REMARK H PARENT 20 5 9 15 24 29 80 48 50 59
REMARK Flexibility Score: inf
ROOT
ATOM      1  C   UNL A   1      34.709  21.619  25.139  1.00  0.00     0.117 C 
ENDROOT
BRANCH   1   2
ATOM      2  N   UNL A   1      33.674  21.431  24.093  1.00  0.00    -0.356 N 
ATOM      3  C   UNL A   1      32.549  22.039  23.572  1.00  0.00     0.225 C 
ATOM      4  O   UNL A   1      32.201  21.722  22.423  1.00  0.00    -0.275 OA
ATOM      5  H   UNL A   1      33.848  20.593  23.608  1.00  0.00     0.163 HD
BRANCH   3   6
ATOM      6  C   UNL A   1      31.589  22.978  24.277  1.00  0.00     0.103 C 
ATOM      7  N   UNL A   1      32.471  24.857  23.503  1.00  0.00    -0.318 N 
ATOM      8  C   UNL A   1      31.047  24.940  23.086  1.00  0.00     0.088 C 
ATOM      9  C   UNL A   1      32.301  24.244  24.771  1.00  0.00     0.099 C 
ATOM     10  C   UNL A   1      30.404  25.707  24.247  1.00  0.00     0.027 C 
ATOM     11  C   UNL A   1      30.534  23.486  23.310  1.00  0.00     0.040 C 
ATOM     12  C   UNL A   1      31.306  25.260  25.421  1.00  0.00     0.028 C 
BRANCH   7  13
ATOM     13  C   UNL A   1      33.596  25.228  22.856  1.00  0.00     0.318 C 
ATOM     14  N   UNL A   1      33.861  26.511  22.444  1.00  0.00    -0.333 N 
ATOM     15  H   UNL A   1      34.778  26.558  22.090  1.00  0.00     0.165 HD
ATOM     16  O   UNL A   1      34.486  24.390  22.683  1.00  0.00    -0.249 OA
BRANCH  14  17
ATOM     17  C   UNL A   1      33.215  27.874  22.353  1.00  0.00     0.165 C 
BRANCH  17  18
ATOM     18  C   UNL A   1      32.772  28.586  23.699  1.00  0.00     0.027 A 
ATOM     19  C   UNL A   1      31.598  29.202  24.182  1.00  0.00    -0.033 A 
ATOM     20  C   UNL A   1      31.843  29.922  25.426  1.00  0.00     0.016 A 
ATOM     21  C   UNL A   1      33.034  29.589  26.006  1.00  0.00     0.065 A 
ATOM     22  S   UNL A   1      33.638  28.237  25.192  1.00  0.00    -0.147 S 
BRANCH  19  23
ATOM     23  C   UNL A   1      30.189  29.190  23.678  1.00  0.00     0.033 C 
ATOM     24  C   UNL A   1      29.981  29.578  22.240  1.00  0.00     0.009 C 
ENDBRANCH  19  23
ENDBRANCH  17  18
ENDBRANCH  14  17
ENDBRANCH   7  13
ENDBRANCH   3   6
ENDBRANCH   1   2
BRANCH   1  25
ATOM     25  C   UNL A   1      35.100  22.980  25.829  1.00  0.00     0.042 C 
BRANCH  25  26
ATOM     26  C   UNL A   1      36.493  23.594  26.086  1.00  0.00     0.118 C 
BRANCH  26  27
ATOM     27  N   UNL A   1      37.614  22.676  26.000  1.00  0.00    -0.352 N 
ATOM     28  C   UNL A   1      38.944  22.887  26.320  1.00  0.00     0.251 C 
ATOM     29  H   UNL A   1      37.398  21.775  25.667  1.00  0.00     0.163 HD
ATOM     30  O   UNL A   1      39.768  22.014  26.091  1.00  0.00    -0.269 OA
BRANCH  28  31
ATOM     31  C   UNL A   1      39.402  24.161  26.944  1.00  0.00     0.039 A 
ATOM     32  C   UNL A   1      39.036  24.453  28.262  1.00  0.00     0.014 A 
ATOM     33  C   UNL A   1      40.078  25.128  26.196  1.00  0.00     0.014 A 
ATOM     34  C   UNL A   1      39.395  25.680  28.843  1.00  0.00     0.010 A 
ATOM     35  C   UNL A   1      40.455  26.349  26.786  1.00  0.00     0.010 A 
ATOM     36  C   UNL A   1      40.127  26.641  28.121  1.00  0.00    -0.014 A 
BRANCH  36  37
ATOM     37  C   UNL A   1      40.572  27.915  28.775  1.00  0.00     0.031 A 
ATOM     38  C   UNL A   1      41.973  28.071  29.323  1.00  0.00     0.074 A 
ATOM     39  C   UNL A   1      39.703  28.941  28.899  1.00  0.00     0.049 A 
ATOM     40  N   UNL A   1      42.522  29.112  29.902  1.00  0.00    -0.248 NA
ATOM     41  C   UNL A   1      42.868  26.910  29.220  1.00  0.00     0.031 C 
ATOM     42  C   UNL A   1      38.311  28.926  28.444  1.00  0.00     0.029 A 
ATOM     43  N   UNL A   1      39.854  30.198  29.440  1.00  0.00    -0.354 N 
ATOM     44  C   UNL A   1      43.815  28.727  30.247  1.00  0.00     0.074 A 
ATOM     45  C   UNL A   1      43.959  27.346  29.839  1.00  0.00     0.031 C 
ATOM     46  C   UNL A   1      37.749  30.120  28.693  1.00  0.00     0.029 A 
ATOM     47  C   UNL A   1      38.719  30.978  29.365  1.00  0.00     0.049 A 
ATOM     48  H   UNL A   1      40.696  30.512  29.845  1.00  0.00     0.167 HD
ATOM     49  C   UNL A   1      44.796  29.456  30.838  1.00  0.00     0.031 A 
ATOM     50  C   UNL A   1      38.479  32.236  29.791  1.00  0.00     0.031 A 
ATOM     51  C   UNL A   1      44.661  30.837  31.230  1.00  0.00     0.049 A 
ATOM     52  C   UNL A   1      39.581  33.011  30.467  1.00  0.00     0.074 A 
ATOM     53  C   UNL A   1      45.628  31.676  31.759  1.00  0.00     0.029 A 
ATOM     54  N   UNL A   1      43.494  31.579  31.148  1.00  0.00    -0.354 N 
ATOM     55  N   UNL A   1      40.825  32.656  30.687  1.00  0.00    -0.248 NA
ATOM     56  C   UNL A   1      39.250  34.362  30.949  1.00  0.00     0.031 C 
ATOM     57  C   UNL A   1      45.027  32.899  32.068  1.00  0.00     0.029 A 
ATOM     58  C   UNL A   1      43.704  32.849  31.662  1.00  0.00     0.049 A 
ATOM     59  H   UNL A   1      42.641  31.252  30.780  1.00  0.00     0.167 HD
ATOM     60  C   UNL A   1      41.427  33.748  31.304  1.00  0.00     0.074 A 
ATOM     61  C   UNL A   1      40.422  34.784  31.402  1.00  0.00     0.031 C 
ATOM     62  C   UNL A   1      42.699  33.879  31.752  1.00  0.00     0.031 A 
BRANCH  49  63
ATOM     63  C   UNL A   1      46.116  28.783  31.124  1.00  0.00    -0.014 A 
ATOM     64  C   UNL A   1      46.352  28.113  32.338  1.00  0.00     0.010 A 
ATOM     65  C   UNL A   1      47.101  28.731  30.118  1.00  0.00     0.010 A 
ATOM     66  C   UNL A   1      47.553  27.428  32.550  1.00  0.00     0.020 A 
ATOM     67  C   UNL A   1      48.292  28.025  30.315  1.00  0.00     0.020 A 
ATOM     68  C   UNL A   1      48.514  27.386  31.535  1.00  0.00     0.054 A 
BRANCH  68  69
ATOM     69  S   UNL A   1      50.040  26.446  31.821  1.00  0.00     0.124 S 
ATOM     70  O   UNL A   1      50.796  27.351  32.683  1.00  0.00    -0.237 OA
ATOM     71  O   UNL A   1      49.549  25.230  32.465  1.00  0.00    -0.237 OA
ATOM     72  O   UNL A   1      50.591  26.258  30.481  1.00  0.00    -0.744 OA
ENDBRANCH  68  69
ENDBRANCH  49  63
BRANCH  50  73
ATOM     73  C   UNL A   1      37.133  32.857  29.607  1.00  0.00    -0.014 A 
ATOM     74  C   UNL A   1      36.771  33.440  28.378  1.00  0.00     0.010 A 
ATOM     75  C   UNL A   1      36.219  32.910  30.676  1.00  0.00     0.010 A 
ATOM     76  C   UNL A   1      35.545  34.096  28.234  1.00  0.00     0.020 A 
ATOM     77  C   UNL A   1      34.977  33.535  30.526  1.00  0.00     0.020 A 
ATOM     78  C   UNL A   1      34.656  34.142  29.310  1.00  0.00     0.054 A 
BRANCH  78  79
ATOM     79  S   UNL A   1      33.067  34.994  29.100  1.00  0.00     0.124 S 
ATOM     80  O   UNL A   1      32.395  34.145  28.121  1.00  0.00    -0.237 OA
ATOM     81  O   UNL A   1      32.512  34.962  30.451  1.00  0.00    -0.237 OA
ATOM     82  O   UNL A   1      33.449  36.320  28.622  1.00  0.00    -0.744 OA
ENDBRANCH  78  79
ENDBRANCH  50  73
BRANCH  62  83
ATOM     83  C   UNL A   1      43.097  35.197  32.364  1.00  0.00    -0.014 A 
ATOM     84  C   UNL A   1      43.648  36.229  31.582  1.00  0.00     0.010 A 
ATOM     85  C   UNL A   1      42.853  35.432  33.731  1.00  0.00     0.010 A 
ATOM     86  C   UNL A   1      43.971  37.460  32.161  1.00  0.00     0.020 A 
ATOM     87  C   UNL A   1      43.144  36.672  34.306  1.00  0.00     0.020 A 
ATOM     88  C   UNL A   1      43.712  37.676  33.518  1.00  0.00     0.054 A 
BRANCH  88  89
ATOM     89  S   UNL A   1      44.083  39.303  34.228  1.00  0.00     0.124 S 
ATOM     90  O   UNL A   1      44.122  39.010  35.658  1.00  0.00    -0.237 OA
ATOM     91  O   UNL A   1      45.369  39.631  33.618  1.00  0.00    -0.237 OA
ATOM     92  O   UNL A   1      42.964  40.136  33.794  1.00  0.00    -0.744 OA
ENDBRANCH  88  89
ENDBRANCH  62  83
ENDBRANCH  36  37
ENDBRANCH  28  31
ENDBRANCH  26  27
ENDBRANCH  25  26
ENDBRANCH   1  25
TORSDOF 17
ENDMDL
MODEL 2
REMARK VINA RESULT:     -10.6      4.258      9.761
REMARK SMILES CCc1ccsc1CNC(=O)N1[C@@H]2CC[C@H]1[C@H](C(=O)NCCCNC(=O)c1ccc(-c3c4nc(c(-c5ccc(S(=O)(=O)[O-])cc5)c5ccc([nH]5)c(-c5ccc(S(=O)(=O)[O-])cc5)c5nc(c(-c6ccc(S(=O)(=O)[O-])cc6)c6ccc3[nH]6)C=C5)C=C4)cc1)C2
REMARK SMILES IDX 21 1 20 2 18 3 19 4 17 6 12 7 13 8 16 9 14 10 87 11 15 12
REMARK SMILES IDX 10 13 9 14 11 16 8 17 7 18 3 19 4 20 5 21 6 22 2 23 1 24
REMARK SMILES IDX 22 25 23 26 24 27 25 28 26 30 27 31 28 32 86 33 29 34 85 35
REMARK SMILES IDX 30 36 31 37 32 38 79 39 33 40 84 41 78 42 80 43 34 44 83 45
REMARK SMILES IDX 77 46 76 47 35 49 65 50 46 51 64 52 47 53 50 54 63 55 81 56
REMARK SMILES IDX 48 57 49 58 62 60 82 61 51 62 36 63 37 64 45 65 38 66 44 67
REMARK SMILES IDX 39 68 40 69 41 70 42 71 43 72 66 73 67 74 75 75 68 76 74 77
REMARK SMILES IDX 69 78 70 79 71 80 72 81 73 82 52 83 53 84 61 85 54 86 60 87
REMARK SMILES IDX 55 88 56 89 57 90 58 91 59 92
REMARK H PARENT 20 5 9 15 24 29 80 48 50 59
REMARK Flexibility Score: inf
ROOT
ATOM      1  C   UNL A   1      32.886  30.141  26.266  1.00  0.00     0.117 C 
ENDROOT
BRANCH   1   2
ATOM      2  N   UNL A   1      31.831  29.880  25.257  1.00  0.00    -0.356 N 
ATOM      3  C   UNL A   1      31.443  28.936  24.326  1.00  0.00     0.225 C 
ATOM      4  O   UNL A   1      30.257  28.942  23.958  1.00  0.00    -0.275 OA
ATOM      5  H   UNL A   1      31.194  30.630  25.248  1.00  0.00     0.163 HD
BRANCH   3   6
ATOM      6  C   UNL A   1      32.321  27.945  23.586  1.00  0.00     0.103 C 
ATOM      7  N   UNL A   1      31.838  26.195  24.856  1.00  0.00    -0.318 N 
ATOM      8  C   UNL A   1      31.484  25.743  23.484  1.00  0.00     0.088 C 
ATOM      9  C   UNL A   1      32.994  26.960  24.551  1.00  0.00     0.099 C 
ATOM     10  C   UNL A   1      32.774  25.061  23.015  1.00  0.00     0.027 C 
ATOM     11  C   UNL A   1      31.484  27.071  22.670  1.00  0.00     0.040 C 
ATOM     12  C   UNL A   1      33.831  25.878  23.793  1.00  0.00     0.028 C 
BRANCH   7  13
ATOM     13  C   UNL A   1      31.226  25.969  26.036  1.00  0.00     0.318 C 
ATOM     14  N   UNL A   1      30.906  24.722  26.513  1.00  0.00    -0.333 N 
ATOM     15  H   UNL A   1      30.562  24.800  27.432  1.00  0.00     0.165 HD
ATOM     16  O   UNL A   1      31.002  26.927  26.783  1.00  0.00    -0.249 OA
BRANCH  14  17
ATOM     17  C   UNL A   1      30.904  23.269  26.097  1.00  0.00     0.165 C 
BRANCH  17  18
ATOM     18  C   UNL A   1      32.292  22.504  26.037  1.00  0.00     0.027 A 
ATOM     19  C   UNL A   1      32.821  21.418  25.306  1.00  0.00    -0.033 A 
ATOM     20  C   UNL A   1      34.099  20.977  25.852  1.00  0.00     0.016 A 
ATOM     21  C   UNL A   1      34.647  21.881  26.718  1.00  0.00     0.065 A 
ATOM     22  S   UNL A   1      33.753  23.310  26.597  1.00  0.00    -0.147 S 
BRANCH  19  23
ATOM     23  C   UNL A   1      32.333  20.712  24.081  1.00  0.00     0.033 C 
ATOM     24  C   UNL A   1      32.119  21.555  22.854  1.00  0.00     0.009 C 
ENDBRANCH  19  23
ENDBRANCH  17  18
ENDBRANCH  14  17
ENDBRANCH   7  13
ENDBRANCH   3   6
ENDBRANCH   1   2
BRANCH   1  25
ATOM     25  C   UNL A   1      33.928  29.097  26.819  1.00  0.00     0.042 C 
BRANCH  25  26
ATOM     26  C   UNL A   1      35.306  29.327  27.473  1.00  0.00     0.118 C 
BRANCH  26  27
ATOM     27  N   UNL A   1      35.289  29.964  28.776  1.00  0.00    -0.352 N 
ATOM     28  C   UNL A   1      36.330  30.164  29.667  1.00  0.00     0.251 C 
ATOM     29  H   UNL A   1      34.412  30.303  29.070  1.00  0.00     0.163 HD
ATOM     30  O   UNL A   1      36.101  30.642  30.769  1.00  0.00    -0.269 OA
BRANCH  28  31
ATOM     31  C   UNL A   1      37.734  29.810  29.315  1.00  0.00     0.039 A 
ATOM     32  C   UNL A   1      38.124  29.794  27.972  1.00  0.00     0.014 A 
ATOM     33  C   UNL A   1      38.632  29.367  30.289  1.00  0.00     0.014 A 
ATOM     34  C   UNL A   1      39.422  29.392  27.614  1.00  0.00     0.010 A 
ATOM     35  C   UNL A   1      39.939  28.983  29.932  1.00  0.00     0.010 A 
ATOM     36  C   UNL A   1      40.357  28.998  28.589  1.00  0.00    -0.014 A 
BRANCH  36  37
ATOM     37  C   UNL A   1      41.762  28.646  28.205  1.00  0.00     0.031 A 
ATOM     38  C   UNL A   1      42.133  27.243  27.775  1.00  0.00     0.074 A 
ATOM     39  C   UNL A   1      42.727  29.590  28.260  1.00  0.00     0.049 A 
ATOM     40  N   UNL A   1      43.298  26.778  27.394  1.00  0.00    -0.248 NA
ATOM     41  C   UNL A   1      41.065  26.234  27.785  1.00  0.00     0.031 C 
ATOM     42  C   UNL A   1      42.525  30.978  28.682  1.00  0.00     0.029 A 
ATOM     43  N   UNL A   1      44.070  29.534  27.959  1.00  0.00    -0.354 N 
ATOM     44  C   UNL A   1      43.109  25.422  27.137  1.00  0.00     0.074 A 
ATOM     45  C   UNL A   1      41.722  25.134  27.435  1.00  0.00     0.031 C 
ATOM     46  C   UNL A   1      43.685  31.646  28.584  1.00  0.00     0.029 A 
ATOM     47  C   UNL A   1      44.730  30.732  28.133  1.00  0.00     0.049 A 
ATOM     48  H   UNL A   1      44.518  28.713  27.648  1.00  0.00     0.167 HD
ATOM     49  C   UNL A   1      44.001  24.504  26.686  1.00  0.00     0.031 A 
ATOM     50  C   UNL A   1      46.027  31.062  27.957  1.00  0.00     0.031 A 
ATOM     51  C   UNL A   1      45.378  24.792  26.371  1.00  0.00     0.049 A 
ATOM     52  C   UNL A   1      46.999  30.013  27.479  1.00  0.00     0.074 A 
ATOM     53  C   UNL A   1      46.329  23.942  25.832  1.00  0.00     0.029 A 
ATOM     54  N   UNL A   1      46.004  26.010  26.576  1.00  0.00    -0.354 N 
ATOM     55  N   UNL A   1      46.768  28.765  27.147  1.00  0.00    -0.248 NA
ATOM     56  C   UNL A   1      48.408  30.418  27.346  1.00  0.00     0.031 C 
ATOM     57  C   UNL A   1      47.549  24.623  25.781  1.00  0.00     0.029 A 
ATOM     58  C   UNL A   1      47.340  25.921  26.219  1.00  0.00     0.049 A 
ATOM     59  H   UNL A   1      45.565  26.821  26.924  1.00  0.00     0.167 HD
ATOM     60  C   UNL A   1      47.995  28.250  26.739  1.00  0.00     0.074 A 
ATOM     61  C   UNL A   1      48.960  29.323  26.844  1.00  0.00     0.031 C 
ATOM     62  C   UNL A   1      48.295  26.996  26.320  1.00  0.00     0.031 A 
BRANCH  49  63
ATOM     63  C   UNL A   1      43.535  23.078  26.511  1.00  0.00    -0.014 A 
ATOM     64  C   UNL A   1      43.798  22.359  25.332  1.00  0.00     0.010 A 
ATOM     65  C   UNL A   1      42.914  22.415  27.587  1.00  0.00     0.010 A 
ATOM     66  C   UNL A   1      43.428  21.015  25.222  1.00  0.00     0.020 A 
ATOM     67  C   UNL A   1      42.567  21.063  27.493  1.00  0.00     0.020 A 
ATOM     68  C   UNL A   1      42.817  20.374  26.305  1.00  0.00     0.054 A 
BRANCH  68  69
ATOM     69  S   UNL A   1      42.396  18.616  26.151  1.00  0.00     0.124 S 
ATOM     70  O   UNL A   1      42.638  18.128  27.507  1.00  0.00    -0.237 OA
ATOM     71  O   UNL A   1      40.994  18.658  25.741  1.00  0.00    -0.237 OA
ATOM     72  O   UNL A   1      43.324  18.122  25.137  1.00  0.00    -0.744 OA
ENDBRANCH  68  69
ENDBRANCH  49  63
BRANCH  50  73
ATOM     73  C   UNL A   1      46.504  32.449  28.241  1.00  0.00    -0.014 A 
ATOM     74  C   UNL A   1      46.921  32.815  29.534  1.00  0.00     0.010 A 
ATOM     75  C   UNL A   1      46.498  33.426  27.229  1.00  0.00     0.010 A 
ATOM     76  C   UNL A   1      47.284  34.136  29.818  1.00  0.00     0.020 A 
ATOM     77  C   UNL A   1      46.895  34.740  27.500  1.00  0.00     0.020 A 
ATOM     78  C   UNL A   1      47.266  35.091  28.799  1.00  0.00     0.054 A 
BRANCH  78  79
ATOM     79  S   UNL A   1      47.747  36.798  29.187  1.00  0.00     0.124 S 
ATOM     80  O   UNL A   1      47.625  37.450  27.888  1.00  0.00    -0.237 OA
ATOM     81  O   UNL A   1      46.753  37.185  30.185  1.00  0.00    -0.237 OA
ATOM     82  O   UNL A   1      49.110  36.663  29.695  1.00  0.00    -0.744 OA
ENDBRANCH  78  79
ENDBRANCH  50  73
BRANCH  62  83
ATOM     83  C   UNL A   1      49.717  26.714  25.909  1.00  0.00    -0.014 A 
ATOM     84  C   UNL A   1      50.178  27.017  24.615  1.00  0.00     0.010 A 
ATOM     85  C   UNL A   1      50.626  26.201  26.854  1.00  0.00     0.010 A 
ATOM     86  C   UNL A   1      51.512  26.787  24.266  1.00  0.00     0.020 A 
ATOM     87  C   UNL A   1      51.969  26.001  26.520  1.00  0.00     0.020 A 
ATOM     88  C   UNL A   1      52.401  26.286  25.223  1.00  0.00     0.054 A 
BRANCH  88  89
ATOM     89  S   UNL A   1      54.140  26.057  24.761  1.00  0.00     0.124 S 
ATOM     90  O   UNL A   1      54.814  27.026  25.621  1.00  0.00    -0.237 OA
ATOM     91  O   UNL A   1      54.375  24.653  25.091  1.00  0.00    -0.237 OA
ATOM     92  O   UNL A   1      54.165  26.368  23.334  1.00  0.00    -0.744 OA
ENDBRANCH  88  89
ENDBRANCH  62  83
ENDBRANCH  36  37
ENDBRANCH  28  31
ENDBRANCH  26  27
ENDBRANCH  25  26
ENDBRANCH   1  25
TORSDOF 17
ENDMDL
MODEL 3
REMARK VINA RESULT:     -10.4      2.827      8.628
REMARK SMILES CCc1ccsc1CNC(=O)N1[C@@H]2CC[C@H]1[C@H](C(=O)NCCCNC(=O)c1ccc(-c3c4nc(c(-c5ccc(S(=O)(=O)[O-])cc5)c5ccc([nH]5)c(-c5ccc(S(=O)(=O)[O-])cc5)c5nc(c(-c6ccc(S(=O)(=O)[O-])cc6)c6ccc3[nH]6)C=C5)C=C4)cc1)C2
REMARK SMILES IDX 21 1 20 2 18 3 19 4 17 6 12 7 13 8 16 9 14 10 87 11 15 12
REMARK SMILES IDX 10 13 9 14 11 16 8 17 7 18 3 19 4 20 5 21 6 22 2 23 1 24
REMARK SMILES IDX 22 25 23 26 24 27 25 28 26 30 27 31 28 32 86 33 29 34 85 35
REMARK SMILES IDX 30 36 31 37 32 38 79 39 33 40 84 41 78 42 80 43 34 44 83 45
REMARK SMILES IDX 77 46 76 47 35 49 65 50 46 51 64 52 47 53 50 54 63 55 81 56
REMARK SMILES IDX 48 57 49 58 62 60 82 61 51 62 36 63 37 64 45 65 38 66 44 67
REMARK SMILES IDX 39 68 40 69 41 70 42 71 43 72 66 73 67 74 75 75 68 76 74 77
REMARK SMILES IDX 69 78 70 79 71 80 72 81 73 82 52 83 53 84 61 85 54 86 60 87
REMARK SMILES IDX 55 88 56 89 57 90 58 91 59 92
REMARK H PARENT 20 5 9 15 24 29 80 48 50 59
REMARK Flexibility Score: inf
ROOT
ATOM      1  C   UNL A   1      32.045  28.354  24.719  1.00  0.00     0.117 C 
ENDROOT
BRANCH   1   2
ATOM      2  N   UNL A   1      30.833  27.556  24.415  1.00  0.00    -0.356 N 
ATOM      3  C   UNL A   1      30.450  26.288  24.024  1.00  0.00     0.225 C 
ATOM      4  O   UNL A   1      29.283  25.937  24.265  1.00  0.00    -0.275 OA
ATOM      5  H   UNL A   1      30.033  28.119  24.531  1.00  0.00     0.163 HD
BRANCH   3   6
ATOM      6  C   UNL A   1      31.247  25.285  23.213  1.00  0.00     0.103 C 
ATOM      7  N   UNL A   1      31.990  24.111  24.939  1.00  0.00    -0.318 N 
ATOM      8  C   UNL A   1      31.302  23.098  24.094  1.00  0.00     0.088 C 
ATOM      9  C   UNL A   1      32.559  24.911  23.915  1.00  0.00     0.099 C 
ATOM     10  C   UNL A   1      32.443  22.561  23.224  1.00  0.00     0.027 C 
ATOM     11  C   UNL A   1      30.491  23.974  23.094  1.00  0.00     0.040 C 
ATOM     12  C   UNL A   1      33.349  23.812  23.132  1.00  0.00     0.028 C 
BRANCH   7  13
ATOM     13  C   UNL A   1      32.035  24.246  26.280  1.00  0.00     0.318 C 
ATOM     14  N   UNL A   1      32.628  23.342  27.127  1.00  0.00    -0.333 N 
ATOM     15  H   UNL A   1      32.626  23.701  28.044  1.00  0.00     0.165 HD
ATOM     16  O   UNL A   1      31.589  25.279  26.789  1.00  0.00    -0.249 OA
BRANCH  14  17
ATOM     17  C   UNL A   1      33.280  21.979  27.122  1.00  0.00     0.165 C 
BRANCH  17  18
ATOM     18  C   UNL A   1      34.623  21.793  26.298  1.00  0.00     0.027 A 
ATOM     19  C   UNL A   1      35.142  20.827  25.409  1.00  0.00    -0.033 A 
ATOM     20  C   UNL A   1      36.558  21.050  25.144  1.00  0.00     0.016 A 
ATOM     21  C   UNL A   1      36.984  22.287  25.538  1.00  0.00     0.065 A 
ATOM     22  S   UNL A   1      35.615  23.199  25.926  1.00  0.00    -0.147 S 
BRANCH  19  23
ATOM     23  C   UNL A   1      34.491  19.694  24.681  1.00  0.00     0.033 C 
ATOM     24  C   UNL A   1      33.001  19.557  24.835  1.00  0.00     0.009 C 
ENDBRANCH  19  23
ENDBRANCH  17  18
ENDBRANCH  14  17
ENDBRANCH   7  13
ENDBRANCH   3   6
ENDBRANCH   1   2
BRANCH   1  25
ATOM     25  C   UNL A   1      33.160  27.992  25.771  1.00  0.00     0.042 C 
BRANCH  25  26
ATOM     26  C   UNL A   1      34.334  28.842  26.300  1.00  0.00     0.118 C 
BRANCH  26  27
ATOM     27  N   UNL A   1      33.969  29.990  27.109  1.00  0.00    -0.352 N 
ATOM     28  C   UNL A   1      34.696  30.631  28.098  1.00  0.00     0.251 C 
ATOM     29  H   UNL A   1      33.077  30.367  26.929  1.00  0.00     0.163 HD
ATOM     30  O   UNL A   1      34.179  31.535  28.740  1.00  0.00    -0.269 OA
BRANCH  28  31
ATOM     31  C   UNL A   1      36.104  30.249  28.401  1.00  0.00     0.039 A 
ATOM     32  C   UNL A   1      37.077  30.356  27.401  1.00  0.00     0.014 A 
ATOM     33  C   UNL A   1      36.445  29.661  29.621  1.00  0.00     0.014 A 
ATOM     34  C   UNL A   1      38.394  29.931  27.644  1.00  0.00     0.010 A 
ATOM     35  C   UNL A   1      37.769  29.255  29.871  1.00  0.00     0.010 A 
ATOM     36  C   UNL A   1      38.767  29.391  28.889  1.00  0.00    -0.014 A 
BRANCH  36  37
ATOM     37  C   UNL A   1      40.191  29.013  29.164  1.00  0.00     0.031 A 
ATOM     38  C   UNL A   1      40.740  27.663  28.757  1.00  0.00     0.074 A 
ATOM     39  C   UNL A   1      41.002  29.882  29.806  1.00  0.00     0.049 A 
ATOM     40  N   UNL A   1      41.953  27.187  28.905  1.00  0.00    -0.248 NA
ATOM     41  C   UNL A   1      39.809  26.726  28.114  1.00  0.00     0.031 C 
ATOM     42  C   UNL A   1      40.605  31.209  30.283  1.00  0.00     0.029 A 
ATOM     43  N   UNL A   1      42.327  29.790  30.168  1.00  0.00    -0.354 N 
ATOM     44  C   UNL A   1      41.926  25.892  28.392  1.00  0.00     0.074 A 
ATOM     45  C   UNL A   1      40.568  25.648  27.956  1.00  0.00     0.031 C 
ATOM     46  C   UNL A   1      41.664  31.815  30.843  1.00  0.00     0.029 A 
ATOM     47  C   UNL A   1      42.810  30.912  30.807  1.00  0.00     0.049 A 
ATOM     48  H   UNL A   1      42.880  28.995  29.987  1.00  0.00     0.167 HD
ATOM     49  C   UNL A   1      42.938  24.994  28.284  1.00  0.00     0.031 A 
ATOM     50  C   UNL A   1      44.030  31.186  31.314  1.00  0.00     0.031 A 
ATOM     51  C   UNL A   1      44.295  25.241  28.701  1.00  0.00     0.049 A 
ATOM     52  C   UNL A   1      45.127  30.158  31.201  1.00  0.00     0.074 A 
ATOM     53  C   UNL A   1      45.400  24.419  28.554  1.00  0.00     0.029 A 
ATOM     54  N   UNL A   1      44.733  26.381  29.354  1.00  0.00    -0.354 N 
ATOM     55  N   UNL A   1      45.098  28.982  30.618  1.00  0.00    -0.248 NA
ATOM     56  C   UNL A   1      46.424  30.495  31.808  1.00  0.00     0.031 C 
ATOM     57  C   UNL A   1      46.488  25.028  29.185  1.00  0.00     0.029 A 
ATOM     58  C   UNL A   1      46.080  26.264  29.659  1.00  0.00     0.049 A 
ATOM     59  H   UNL A   1      44.171  27.161  29.570  1.00  0.00     0.167 HD
ATOM     60  C   UNL A   1      46.378  28.457  30.765  1.00  0.00     0.074 A 
ATOM     61  C   UNL A   1      47.163  29.447  31.469  1.00  0.00     0.031 C 
ATOM     62  C   UNL A   1      46.858  27.257  30.356  1.00  0.00     0.031 A 
BRANCH  49  63
ATOM     63  C   UNL A   1      42.630  23.635  27.702  1.00  0.00    -0.014 A 
ATOM     64  C   UNL A   1      42.766  23.378  26.326  1.00  0.00     0.010 A 
ATOM     65  C   UNL A   1      42.299  22.570  28.563  1.00  0.00     0.010 A 
ATOM     66  C   UNL A   1      42.553  22.091  25.820  1.00  0.00     0.020 A 
ATOM     67  C   UNL A   1      42.112  21.277  28.066  1.00  0.00     0.020 A 
ATOM     68  C   UNL A   1      42.229  21.048  26.694  1.00  0.00     0.054 A 
BRANCH  68  69
ATOM     69  S   UNL A   1      42.011  19.379  26.014  1.00  0.00     0.124 S 
ATOM     70  O   UNL A   1      42.468  18.541  27.119  1.00  0.00    -0.237 OA
ATOM     71  O   UNL A   1      40.575  19.331  25.743  1.00  0.00    -0.237 OA
ATOM     72  O   UNL A   1      42.866  19.370  24.830  1.00  0.00    -0.744 OA
ENDBRANCH  68  69
ENDBRANCH  49  63
BRANCH  50  73
ATOM     73  C   UNL A   1      44.296  32.491  31.991  1.00  0.00    -0.014 A 
ATOM     74  C   UNL A   1      44.748  33.604  31.257  1.00  0.00     0.010 A 
ATOM     75  C   UNL A   1      44.144  32.616  33.384  1.00  0.00     0.010 A 
ATOM     76  C   UNL A   1      45.079  34.798  31.905  1.00  0.00     0.020 A 
ATOM     77  C   UNL A   1      44.439  33.820  34.032  1.00  0.00     0.020 A 
ATOM     78  C   UNL A   1      44.925  34.898  33.289  1.00  0.00     0.054 A 
BRANCH  78  79
ATOM     79  S   UNL A   1      45.354  36.459  34.110  1.00  0.00     0.124 S 
ATOM     80  O   UNL A   1      45.863  37.256  32.999  1.00  0.00    -0.237 OA
ATOM     81  O   UNL A   1      44.071  36.889  34.660  1.00  0.00    -0.237 OA
ATOM     82  O   UNL A   1      46.349  36.062  35.103  1.00  0.00    -0.744 OA
ENDBRANCH  78  79
ENDBRANCH  50  73
BRANCH  62  83
ATOM     83  C   UNL A   1      48.309  26.951  30.627  1.00  0.00    -0.014 A 
ATOM     84  C   UNL A   1      49.326  27.425  29.778  1.00  0.00     0.010 A 
ATOM     85  C   UNL A   1      48.665  26.236  31.786  1.00  0.00     0.010 A 
ATOM     86  C   UNL A   1      50.669  27.167  30.070  1.00  0.00     0.020 A 
ATOM     87  C   UNL A   1      50.007  26.005  32.099  1.00  0.00     0.020 A 
ATOM     88  C   UNL A   1      51.001  26.463  31.231  1.00  0.00     0.054 A 
BRANCH  88  89
ATOM     89  S   UNL A   1      52.753  26.196  31.617  1.00  0.00     0.124 S 
ATOM     90  O   UNL A   1      52.716  24.932  32.348  1.00  0.00    -0.237 OA
ATOM     91  O   UNL A   1      53.366  26.137  30.293  1.00  0.00    -0.237 OA
ATOM     92  O   UNL A   1      53.116  27.366  32.414  1.00  0.00    -0.744 OA
ENDBRANCH  88  89
ENDBRANCH  62  83
ENDBRANCH  36  37
ENDBRANCH  28  31
ENDBRANCH  26  27
ENDBRANCH  25  26
ENDBRANCH   1  25
TORSDOF 17
ENDMDL
