MODEL 1
REMARK VINA RESULT:      -9.2      0.000      0.000
REMARK SMILES C[C@@H](C(=O)NCCCNC(=O)c1ccc(-c2c3nc(c(-c4ccc(S(=O)(=O)[O-])cc4)c4ccc([nH]4)c(-c4ccc(S(=O)(=O)[O-])cc4)c4nc(c(-c5ccc(S(=O)(=O)[O-])cc5)c5ccc2[nH]5)C=C4)C=C3)cc1)c1ccc(-c2ccc3[nH]ccc3c2)cc1
REMARK SMILES IDX 7 1 6 2 5 3 3 4 4 5 2 7 1 8 72 9 73 10 86 11 74 12 85 13
REMARK SMILES IDX 75 14 76 15 77 16 84 17 78 18 83 19 79 20 82 21 80 22 81 23
REMARK SMILES IDX 8 25 9 26 10 27 11 29 12 30 13 31 71 32 14 33 70 34 15 35
REMARK SMILES IDX 16 36 17 37 64 38 18 39 69 40 63 41 65 42 19 43 68 44 62 45
REMARK SMILES IDX 61 46 20 48 50 49 31 50 49 51 32 52 35 53 48 54 66 55 33 56
REMARK SMILES IDX 34 57 47 59 67 60 36 61 21 62 22 63 30 64 23 65 29 66 24 67
REMARK SMILES IDX 25 68 26 69 27 70 28 71 51 72 52 73 60 74 53 75 59 76 54 77
REMARK SMILES IDX 55 78 56 79 57 80 58 81 37 82 38 83 46 84 39 85 45 86 40 87
REMARK SMILES IDX 41 88 42 89 43 90 44 91
REMARK H PARENT 5 6 80 24 9 28 65 47 35 58
REMARK Flexibility Score: inf
ROOT
ATOM      1  C   UNL A   1      34.766  32.686  30.822  1.00  0.00     0.042 C 
ENDROOT
BRANCH   1   2
ATOM      2  C   UNL A   1      35.327  33.933  31.498  1.00  0.00     0.117 C 
BRANCH   2   3
ATOM      3  N   UNL A   1      36.703  34.160  31.111  1.00  0.00    -0.356 N 
ATOM      4  C   UNL A   1      37.852  34.000  31.826  1.00  0.00     0.227 C 
ATOM      5  O   UNL A   1      38.888  34.409  31.297  1.00  0.00    -0.274 OA
ATOM      6  H   UNL A   1      36.828  34.479  30.188  1.00  0.00     0.163 HD
BRANCH   4   7
ATOM      7  C   UNL A   1      37.811  33.299  33.192  1.00  0.00     0.105 C 
ATOM      8  C   UNL A   1      38.031  34.264  34.363  1.00  0.00     0.023 C 
BRANCH   7   9
ATOM      9  C   UNL A   1      38.819  32.161  33.272  1.00  0.00    -0.036 A 
ATOM     10  C   UNL A   1      40.133  32.403  33.695  1.00  0.00     0.005 A 
ATOM     11  C   UNL A   1      38.446  30.854  32.928  1.00  0.00     0.005 A 
ATOM     12  C   UNL A   1      41.041  31.357  33.816  1.00  0.00     0.009 A 
ATOM     13  C   UNL A   1      39.362  29.805  33.049  1.00  0.00     0.009 A 
ATOM     14  C   UNL A   1      40.661  30.044  33.515  1.00  0.00    -0.018 A 
BRANCH  14  15
ATOM     15  C   UNL A   1      41.607  28.954  33.741  1.00  0.00    -0.018 A 
ATOM     16  C   UNL A   1      41.198  27.828  34.470  1.00  0.00     0.011 A 
ATOM     17  C   UNL A   1      42.937  29.051  33.300  1.00  0.00     0.019 A 
ATOM     18  C   UNL A   1      42.073  26.779  34.758  1.00  0.00     0.027 A 
ATOM     19  C   UNL A   1      43.851  28.029  33.623  1.00  0.00    -0.000 A 
ATOM     20  C   UNL A   1      43.393  26.913  34.324  1.00  0.00     0.045 A 
ATOM     21  C   UNL A   1      45.249  27.853  33.426  1.00  0.00     0.028 A 
ATOM     22  N   UNL A   1      44.466  26.066  34.479  1.00  0.00    -0.361 N 
ATOM     23  C   UNL A   1      45.604  26.647  33.986  1.00  0.00     0.083 A 
ATOM     24  H   UNL A   1      44.423  25.171  34.886  1.00  0.00     0.166 HD
ENDBRANCH  14  15
ENDBRANCH   7   9
ENDBRANCH   4   7
ENDBRANCH   2   3
ENDBRANCH   1   2
BRANCH   1  25
ATOM     25  C   UNL A   1      34.856  32.724  29.301  1.00  0.00     0.118 C 
BRANCH  25  26
ATOM     26  N   UNL A   1      34.066  31.676  28.672  1.00  0.00    -0.352 N 
ATOM     27  C   UNL A   1      34.478  30.483  28.128  1.00  0.00     0.251 C 
ATOM     28  H   UNL A   1      33.098  31.845  28.631  1.00  0.00     0.163 HD
ATOM     29  O   UNL A   1      33.701  29.819  27.453  1.00  0.00    -0.269 OA
BRANCH  27  30
ATOM     30  C   UNL A   1      35.865  30.019  28.348  1.00  0.00     0.039 A 
ATOM     31  C   UNL A   1      36.787  30.107  27.302  1.00  0.00     0.014 A 
ATOM     32  C   UNL A   1      36.249  29.498  29.586  1.00  0.00     0.014 A 
ATOM     33  C   UNL A   1      38.113  29.725  27.518  1.00  0.00     0.010 A 
ATOM     34  C   UNL A   1      37.586  29.200  29.823  1.00  0.00     0.010 A 
ATOM     35  C   UNL A   1      38.530  29.299  28.789  1.00  0.00    -0.014 A 
BRANCH  35  36
ATOM     36  C   UNL A   1      39.937  28.919  29.069  1.00  0.00     0.031 A 
ATOM     37  C   UNL A   1      40.892  29.949  29.606  1.00  0.00     0.074 A 
ATOM     38  C   UNL A   1      40.378  27.684  28.756  1.00  0.00     0.049 A 
ATOM     39  N   UNL A   1      42.184  29.863  29.790  1.00  0.00    -0.248 NA
ATOM     40  C   UNL A   1      40.321  31.262  29.951  1.00  0.00     0.031 C 
ATOM     41  C   UNL A   1      39.558  26.604  28.206  1.00  0.00     0.029 A 
ATOM     42  N   UNL A   1      41.635  27.138  28.839  1.00  0.00    -0.354 N 
ATOM     43  C   UNL A   1      42.583  31.116  30.244  1.00  0.00     0.074 A 
ATOM     44  C   UNL A   1      41.407  31.957  30.255  1.00  0.00     0.031 C 
ATOM     45  C   UNL A   1      40.329  25.522  28.014  1.00  0.00     0.029 A 
ATOM     46  C   UNL A   1      41.706  25.845  28.377  1.00  0.00     0.049 A 
ATOM     47  H   UNL A   1      42.412  27.626  29.196  1.00  0.00     0.167 HD
ATOM     48  C   UNL A   1      43.815  31.525  30.630  1.00  0.00     0.031 A 
ATOM     49  C   UNL A   1      42.762  25.019  28.239  1.00  0.00     0.031 A 
ATOM     50  C   UNL A   1      44.980  30.682  30.616  1.00  0.00     0.049 A 
ATOM     51  C   UNL A   1      44.127  25.498  28.653  1.00  0.00     0.074 A 
ATOM     52  C   UNL A   1      46.266  30.984  31.032  1.00  0.00     0.029 A 
ATOM     53  N   UNL A   1      45.004  29.373  30.159  1.00  0.00    -0.354 N 
ATOM     54  N   UNL A   1      44.479  26.670  29.127  1.00  0.00    -0.248 NA
ATOM     55  C   UNL A   1      45.234  24.541  28.524  1.00  0.00     0.031 C 
ATOM     56  C   UNL A   1      47.079  29.877  30.769  1.00  0.00     0.029 A 
ATOM     57  C   UNL A   1      46.287  28.860  30.260  1.00  0.00     0.049 A 
ATOM     58  H   UNL A   1      44.225  28.880  29.814  1.00  0.00     0.167 HD
ATOM     59  C   UNL A   1      45.842  26.579  29.389  1.00  0.00     0.074 A 
ATOM     60  C   UNL A   1      46.248  25.237  29.022  1.00  0.00     0.031 C 
ATOM     61  C   UNL A   1      46.677  27.520  29.897  1.00  0.00     0.031 A 
BRANCH  48  62
ATOM     62  C   UNL A   1      43.961  32.959  31.075  1.00  0.00    -0.014 A 
ATOM     63  C   UNL A   1      43.676  33.347  32.399  1.00  0.00     0.010 A 
ATOM     64  C   UNL A   1      44.391  33.934  30.158  1.00  0.00     0.010 A 
ATOM     65  C   UNL A   1      43.758  34.689  32.777  1.00  0.00     0.020 A 
ATOM     66  C   UNL A   1      44.510  35.273  30.542  1.00  0.00     0.020 A 
ATOM     67  C   UNL A   1      44.169  35.645  31.844  1.00  0.00     0.054 A 
BRANCH  67  68
ATOM     68  S   UNL A   1      44.256  37.381  32.360  1.00  0.00     0.124 S 
ATOM     69  O   UNL A   1      43.797  38.075  31.158  1.00  0.00    -0.237 OA
ATOM     70  O   UNL A   1      43.339  37.423  33.497  1.00  0.00    -0.237 OA
ATOM     71  O   UNL A   1      45.665  37.575  32.691  1.00  0.00    -0.744 OA
ENDBRANCH  67  68
ENDBRANCH  48  62
BRANCH  49  72
ATOM     72  C   UNL A   1      42.556  23.649  27.695  1.00  0.00    -0.014 A 
ATOM     73  C   UNL A   1      42.608  23.415  26.310  1.00  0.00     0.010 A 
ATOM     74  C   UNL A   1      42.354  22.560  28.565  1.00  0.00     0.010 A 
ATOM     75  C   UNL A   1      42.457  22.119  25.804  1.00  0.00     0.020 A 
ATOM     76  C   UNL A   1      42.232  21.261  28.065  1.00  0.00     0.020 A 
ATOM     77  C   UNL A   1      42.280  21.050  26.686  1.00  0.00     0.054 A 
BRANCH  77  78
ATOM     78  S   UNL A   1      42.169  19.369  26.009  1.00  0.00     0.124 S 
ATOM     79  O   UNL A   1      43.058  19.446  24.855  1.00  0.00    -0.237 OA
ATOM     80  O   UNL A   1      42.646  18.552  27.122  1.00  0.00    -0.237 OA
ATOM     81  O   UNL A   1      40.749  19.218  25.699  1.00  0.00    -0.744 OA
ENDBRANCH  77  78
ENDBRANCH  49  72
BRANCH  61  82
ATOM     82  C   UNL A   1      48.110  27.125  30.145  1.00  0.00    -0.014 A 
ATOM     83  C   UNL A   1      49.116  27.360  29.192  1.00  0.00     0.010 A 
ATOM     84  C   UNL A   1      48.464  26.586  31.397  1.00  0.00     0.010 A 
ATOM     85  C   UNL A   1      50.448  27.045  29.481  1.00  0.00     0.020 A 
ATOM     86  C   UNL A   1      49.796  26.298  31.699  1.00  0.00     0.020 A 
ATOM     87  C   UNL A   1      50.779  26.521  30.735  1.00  0.00     0.054 A 
BRANCH  87  88
ATOM     88  S   UNL A   1      52.523  26.185  31.107  1.00  0.00     0.124 S 
ATOM     89  O   UNL A   1      53.119  26.162  29.775  1.00  0.00    -0.237 OA
ATOM     90  O   UNL A   1      52.896  27.321  31.944  1.00  0.00    -0.237 OA
ATOM     91  O   UNL A   1      52.488  24.896  31.795  1.00  0.00    -0.744 OA
ENDBRANCH  87  88
ENDBRANCH  61  82
ENDBRANCH  35  36
ENDBRANCH  27  30
ENDBRANCH  25  26
ENDBRANCH   1  25
TORSDOF 15
ENDMDL
MODEL 2
REMARK VINA RESULT:      -9.1      4.898     12.479
REMARK SMILES C[C@@H](C(=O)NCCCNC(=O)c1ccc(-c2c3nc(c(-c4ccc(S(=O)(=O)[O-])cc4)c4ccc([nH]4)c(-c4ccc(S(=O)(=O)[O-])cc4)c4nc(c(-c5ccc(S(=O)(=O)[O-])cc5)c5ccc2[nH]5)C=C4)C=C3)cc1)c1ccc(-c2ccc3[nH]ccc3c2)cc1
REMARK SMILES IDX 7 1 6 2 5 3 3 4 4 5 2 7 1 8 72 9 73 10 86 11 74 12 85 13
REMARK SMILES IDX 75 14 76 15 77 16 84 17 78 18 83 19 79 20 82 21 80 22 81 23
REMARK SMILES IDX 8 25 9 26 10 27 11 29 12 30 13 31 71 32 14 33 70 34 15 35
REMARK SMILES IDX 16 36 17 37 64 38 18 39 69 40 63 41 65 42 19 43 68 44 62 45
REMARK SMILES IDX 61 46 20 48 50 49 31 50 49 51 32 52 35 53 48 54 66 55 33 56
REMARK SMILES IDX 34 57 47 59 67 60 36 61 21 62 22 63 30 64 23 65 29 66 24 67
REMARK SMILES IDX 25 68 26 69 27 70 28 71 51 72 52 73 60 74 53 75 59 76 54 77
REMARK SMILES IDX 55 78 56 79 57 80 58 81 37 82 38 83 46 84 39 85 45 86 40 87
REMARK SMILES IDX 41 88 42 89 43 90 44 91
REMARK H PARENT 5 6 80 24 9 28 65 47 35 58
REMARK Flexibility Score: inf
ROOT
ATOM      1  C   UNL A   1      37.617  23.439  25.464  1.00  0.00     0.042 C 
ENDROOT
BRANCH   1   2
ATOM      2  C   UNL A   1      37.465  21.952  25.765  1.00  0.00     0.117 C 
BRANCH   2   3
ATOM      3  N   UNL A   1      36.275  21.414  25.141  1.00  0.00    -0.356 N 
ATOM      4  C   UNL A   1      34.968  21.512  25.518  1.00  0.00     0.227 C 
ATOM      5  O   UNL A   1      34.161  20.831  24.881  1.00  0.00    -0.274 OA
ATOM      6  H   UNL A   1      36.433  20.899  24.318  1.00  0.00     0.163 HD
BRANCH   4   7
ATOM      7  C   UNL A   1      34.568  22.470  26.650  1.00  0.00     0.105 C 
ATOM      8  C   UNL A   1      33.685  21.803  27.710  1.00  0.00     0.023 C 
BRANCH   7   9
ATOM      9  C   UNL A   1      33.874  23.715  26.115  1.00  0.00    -0.036 A 
ATOM     10  C   UNL A   1      32.506  23.920  26.345  1.00  0.00     0.005 A 
ATOM     11  C   UNL A   1      34.592  24.676  25.391  1.00  0.00     0.005 A 
ATOM     12  C   UNL A   1      31.880  25.080  25.901  1.00  0.00     0.009 A 
ATOM     13  C   UNL A   1      33.960  25.840  24.945  1.00  0.00     0.009 A 
ATOM     14  C   UNL A   1      32.604  26.061  25.214  1.00  0.00    -0.018 A 
BRANCH  14  15
ATOM     15  C   UNL A   1      31.942  27.310  24.843  1.00  0.00    -0.018 A 
ATOM     16  C   UNL A   1      32.326  28.505  25.468  1.00  0.00     0.011 A 
ATOM     17  C   UNL A   1      30.881  27.318  23.922  1.00  0.00     0.019 A 
ATOM     18  C   UNL A   1      31.696  29.719  25.188  1.00  0.00     0.027 A 
ATOM     19  C   UNL A   1      30.198  28.521  23.662  1.00  0.00    -0.000 A 
ATOM     20  C   UNL A   1      30.633  29.691  24.284  1.00  0.00     0.045 A 
ATOM     21  C   UNL A   1      29.056  28.862  22.885  1.00  0.00     0.028 A 
ATOM     22  N   UNL A   1      29.822  30.711  23.839  1.00  0.00    -0.361 N 
ATOM     23  C   UNL A   1      28.834  30.212  23.033  1.00  0.00     0.083 A 
ATOM     24  H   UNL A   1      29.937  31.661  24.067  1.00  0.00     0.166 HD
ENDBRANCH  14  15
ENDBRANCH   7   9
ENDBRANCH   4   7
ENDBRANCH   2   3
ENDBRANCH   1   2
BRANCH   1  25
ATOM     25  C   UNL A   1      38.533  24.169  26.439  1.00  0.00     0.118 C 
BRANCH  25  26
ATOM     26  N   UNL A   1      39.942  23.974  26.129  1.00  0.00    -0.352 N 
ATOM     27  C   UNL A   1      41.026  24.737  26.490  1.00  0.00     0.251 C 
ATOM     28  H   UNL A   1      40.148  23.181  25.584  1.00  0.00     0.163 HD
ATOM     29  O   UNL A   1      42.114  24.539  25.963  1.00  0.00    -0.269 OA
BRANCH  27  30
ATOM     30  C   UNL A   1      40.865  25.804  27.501  1.00  0.00     0.039 A 
ATOM     31  C   UNL A   1      39.859  25.687  28.462  1.00  0.00     0.014 A 
ATOM     32  C   UNL A   1      41.709  26.917  27.495  1.00  0.00     0.014 A 
ATOM     33  C   UNL A   1      39.736  26.662  29.455  1.00  0.00     0.010 A 
ATOM     34  C   UNL A   1      41.641  27.840  28.532  1.00  0.00     0.010 A 
ATOM     35  C   UNL A   1      40.646  27.729  29.517  1.00  0.00    -0.014 A 
BRANCH  35  36
ATOM     36  C   UNL A   1      40.573  28.765  30.577  1.00  0.00     0.031 A 
ATOM     37  C   UNL A   1      41.468  28.660  31.781  1.00  0.00     0.074 A 
ATOM     38  C   UNL A   1      39.647  29.741  30.504  1.00  0.00     0.049 A 
ATOM     39  N   UNL A   1      41.470  29.377  32.875  1.00  0.00    -0.248 NA
ATOM     40  C   UNL A   1      42.473  27.584  31.765  1.00  0.00     0.031 C 
ATOM     41  C   UNL A   1      38.704  29.936  29.401  1.00  0.00     0.029 A 
ATOM     42  N   UNL A   1      39.334  30.742  31.390  1.00  0.00    -0.354 N 
ATOM     43  C   UNL A   1      42.453  28.821  33.687  1.00  0.00     0.074 A 
ATOM     44  C   UNL A   1      42.988  27.678  32.982  1.00  0.00     0.031 C 
ATOM     45  C   UNL A   1      37.929  30.999  29.670  1.00  0.00     0.029 A 
ATOM     46  C   UNL A   1      38.282  31.529  30.984  1.00  0.00     0.049 A 
ATOM     47  H   UNL A   1      39.818  30.883  32.236  1.00  0.00     0.167 HD
ATOM     48  C   UNL A   1      42.882  29.235  34.903  1.00  0.00     0.031 A 
ATOM     49  C   UNL A   1      37.656  32.548  31.606  1.00  0.00     0.031 A 
ATOM     50  C   UNL A   1      42.345  30.374  35.598  1.00  0.00     0.049 A 
ATOM     51  C   UNL A   1      38.132  32.979  32.967  1.00  0.00     0.074 A 
ATOM     52  C   UNL A   1      42.742  30.906  36.812  1.00  0.00     0.029 A 
ATOM     53  N   UNL A   1      41.293  31.155  35.142  1.00  0.00    -0.354 N 
ATOM     54  N   UNL A   1      39.097  32.474  33.700  1.00  0.00    -0.248 NA
ATOM     55  C   UNL A   1      37.445  34.124  33.579  1.00  0.00     0.031 C 
ATOM     56  C   UNL A   1      41.889  31.971  37.119  1.00  0.00     0.029 A 
ATOM     57  C   UNL A   1      41.011  32.151  36.062  1.00  0.00     0.049 A 
ATOM     58  H   UNL A   1      40.818  31.022  34.290  1.00  0.00     0.167 HD
ATOM     59  C   UNL A   1      39.157  33.264  34.843  1.00  0.00     0.074 A 
ATOM     60  C   UNL A   1      38.133  34.279  34.703  1.00  0.00     0.031 C 
ATOM     61  C   UNL A   1      39.992  33.160  35.907  1.00  0.00     0.031 A 
BRANCH  48  62
ATOM     62  C   UNL A   1      43.971  28.427  35.564  1.00  0.00    -0.014 A 
ATOM     63  C   UNL A   1      43.668  27.341  36.408  1.00  0.00     0.010 A 
ATOM     64  C   UNL A   1      45.319  28.756  35.337  1.00  0.00     0.010 A 
ATOM     65  C   UNL A   1      44.687  26.643  37.059  1.00  0.00     0.020 A 
ATOM     66  C   UNL A   1      46.345  28.036  35.957  1.00  0.00     0.020 A 
ATOM     67  C   UNL A   1      46.020  27.000  36.834  1.00  0.00     0.054 A 
BRANCH  67  68
ATOM     68  S   UNL A   1      47.323  26.083  37.701  1.00  0.00     0.124 S 
ATOM     69  O   UNL A   1      46.979  26.324  39.100  1.00  0.00    -0.237 OA
ATOM     70  O   UNL A   1      47.117  24.714  37.231  1.00  0.00    -0.237 OA
ATOM     71  O   UNL A   1      48.557  26.717  37.244  1.00  0.00    -0.744 OA
ENDBRANCH  67  68
ENDBRANCH  48  62
BRANCH  49  72
ATOM     72  C   UNL A   1      36.520  33.233  30.932  1.00  0.00    -0.014 A 
ATOM     73  C   UNL A   1      35.257  33.295  31.547  1.00  0.00     0.010 A 
ATOM     74  C   UNL A   1      36.707  33.870  29.691  1.00  0.00     0.010 A 
ATOM     75  C   UNL A   1      34.201  33.977  30.932  1.00  0.00     0.020 A 
ATOM     76  C   UNL A   1      35.663  34.577  29.087  1.00  0.00     0.020 A 
ATOM     77  C   UNL A   1      34.415  34.621  29.710  1.00  0.00     0.054 A 
BRANCH  77  78
ATOM     78  S   UNL A   1      33.053  35.567  28.973  1.00  0.00     0.124 S 
ATOM     79  O   UNL A   1      32.431  34.577  28.100  1.00  0.00    -0.237 OA
ATOM     80  O   UNL A   1      32.273  35.957  30.146  1.00  0.00    -0.237 OA
ATOM     81  O   UNL A   1      33.730  36.668  28.291  1.00  0.00    -0.744 OA
ENDBRANCH  77  78
ENDBRANCH  49  72
BRANCH  61  82
ATOM     82  C   UNL A   1      39.882  34.204  36.989  1.00  0.00    -0.014 A 
ATOM     83  C   UNL A   1      40.468  35.474  36.851  1.00  0.00     0.010 A 
ATOM     84  C   UNL A   1      39.102  33.928  38.128  1.00  0.00     0.010 A 
ATOM     85  C   UNL A   1      40.290  36.443  37.843  1.00  0.00     0.020 A 
ATOM     86  C   UNL A   1      38.897  34.903  39.106  1.00  0.00     0.020 A 
ATOM     87  C   UNL A   1      39.501  36.153  38.962  1.00  0.00     0.054 A 
BRANCH  87  88
ATOM     88  S   UNL A   1      39.231  37.451  40.200  1.00  0.00     0.124 S 
ATOM     89  O   UNL A   1      40.575  37.996  40.367  1.00  0.00    -0.237 OA
ATOM     90  O   UNL A   1      38.273  38.331  39.537  1.00  0.00    -0.237 OA
ATOM     91  O   UNL A   1      38.706  36.725  41.355  1.00  0.00    -0.744 OA
ENDBRANCH  87  88
ENDBRANCH  61  82
ENDBRANCH  35  36
ENDBRANCH  27  30
ENDBRANCH  25  26
ENDBRANCH   1  25
TORSDOF 15
ENDMDL
MODEL 3
REMARK VINA RESULT:      -8.9      1.359      8.311
REMARK SMILES C[C@@H](C(=O)NCCCNC(=O)c1ccc(-c2c3nc(c(-c4ccc(S(=O)(=O)[O-])cc4)c4ccc([nH]4)c(-c4ccc(S(=O)(=O)[O-])cc4)c4nc(c(-c5ccc(S(=O)(=O)[O-])cc5)c5ccc2[nH]5)C=C4)C=C3)cc1)c1ccc(-c2ccc3[nH]ccc3c2)cc1
REMARK SMILES IDX 7 1 6 2 5 3 3 4 4 5 2 7 1 8 72 9 73 10 86 11 74 12 85 13
REMARK SMILES IDX 75 14 76 15 77 16 84 17 78 18 83 19 79 20 82 21 80 22 81 23
REMARK SMILES IDX 8 25 9 26 10 27 11 29 12 30 13 31 71 32 14 33 70 34 15 35
REMARK SMILES IDX 16 36 17 37 64 38 18 39 69 40 63 41 65 42 19 43 68 44 62 45
REMARK SMILES IDX 61 46 20 48 50 49 31 50 49 51 32 52 35 53 48 54 66 55 33 56
REMARK SMILES IDX 34 57 47 59 67 60 36 61 21 62 22 63 30 64 23 65 29 66 24 67
REMARK SMILES IDX 25 68 26 69 27 70 28 71 51 72 52 73 60 74 53 75 59 76 54 77
REMARK SMILES IDX 55 78 56 79 57 80 58 81 37 82 38 83 46 84 39 85 45 86 40 87
REMARK SMILES IDX 41 88 42 89 43 90 44 91
REMARK H PARENT 5 6 80 24 9 28 65 47 35 58
REMARK Flexibility Score: inf
ROOT
ATOM      1  C   UNL A   1      34.138  33.329  29.475  1.00  0.00     0.042 C 
ENDROOT
BRANCH   1   2
ATOM      2  C   UNL A   1      34.910  32.860  30.704  1.00  0.00     0.117 C 
BRANCH   2   3
ATOM      3  N   UNL A   1      35.803  33.894  31.182  1.00  0.00    -0.356 N 
ATOM      4  C   UNL A   1      36.282  34.125  32.437  1.00  0.00     0.227 C 
ATOM      5  O   UNL A   1      36.916  35.170  32.598  1.00  0.00    -0.274 OA
ATOM      6  H   UNL A   1      36.112  34.528  30.496  1.00  0.00     0.163 HD
BRANCH   4   7
ATOM      7  C   UNL A   1      36.058  33.085  33.545  1.00  0.00     0.105 C 
ATOM      8  C   UNL A   1      35.731  33.721  34.901  1.00  0.00     0.023 C 
BRANCH   7   9
ATOM      9  C   UNL A   1      37.252  32.152  33.692  1.00  0.00    -0.036 A 
ATOM     10  C   UNL A   1      37.246  30.889  33.085  1.00  0.00     0.005 A 
ATOM     11  C   UNL A   1      38.376  32.545  34.432  1.00  0.00     0.005 A 
ATOM     12  C   UNL A   1      38.355  30.055  33.176  1.00  0.00     0.009 A 
ATOM     13  C   UNL A   1      39.489  31.704  34.523  1.00  0.00     0.009 A 
ATOM     14  C   UNL A   1      39.496  30.461  33.878  1.00  0.00    -0.018 A 
BRANCH  14  15
ATOM     15  C   UNL A   1      40.680  29.604  33.877  1.00  0.00    -0.018 A 
ATOM     16  C   UNL A   1      40.659  28.404  33.153  1.00  0.00     0.011 A 
ATOM     17  C   UNL A   1      41.808  29.933  34.646  1.00  0.00     0.019 A 
ATOM     18  C   UNL A   1      41.743  27.523  33.156  1.00  0.00     0.027 A 
ATOM     19  C   UNL A   1      42.892  29.036  34.704  1.00  0.00    -0.000 A 
ATOM     20  C   UNL A   1      42.841  27.867  33.945  1.00  0.00     0.045 A 
ATOM     21  C   UNL A   1      44.113  29.006  35.434  1.00  0.00     0.028 A 
ATOM     22  N   UNL A   1      44.023  27.195  34.158  1.00  0.00    -0.361 N 
ATOM     23  C   UNL A   1      44.777  27.849  35.096  1.00  0.00     0.083 A 
ATOM     24  H   UNL A   1      44.288  26.364  33.703  1.00  0.00     0.166 HD
ENDBRANCH  14  15
ENDBRANCH   7   9
ENDBRANCH   4   7
ENDBRANCH   2   3
ENDBRANCH   1   2
BRANCH   1  25
ATOM     25  C   UNL A   1      34.554  32.628  28.188  1.00  0.00     0.118 C 
BRANCH  25  26
ATOM     26  N   UNL A   1      33.841  31.376  27.983  1.00  0.00    -0.352 N 
ATOM     27  C   UNL A   1      34.336  30.098  27.877  1.00  0.00     0.251 C 
ATOM     28  H   UNL A   1      32.862  31.455  27.911  1.00  0.00     0.163 HD
ATOM     29  O   UNL A   1      33.607  29.191  27.494  1.00  0.00    -0.269 OA
BRANCH  27  30
ATOM     30  C   UNL A   1      35.752  29.834  28.208  1.00  0.00     0.039 A 
ATOM     31  C   UNL A   1      36.720  29.955  27.208  1.00  0.00     0.014 A 
ATOM     32  C   UNL A   1      36.119  29.465  29.504  1.00  0.00     0.014 A 
ATOM     33  C   UNL A   1      38.068  29.763  27.525  1.00  0.00     0.010 A 
ATOM     34  C   UNL A   1      37.465  29.359  29.836  1.00  0.00     0.010 A 
ATOM     35  C   UNL A   1      38.452  29.495  28.848  1.00  0.00    -0.014 A 
BRANCH  35  36
ATOM     36  C   UNL A   1      39.875  29.320  29.233  1.00  0.00     0.031 A 
ATOM     37  C   UNL A   1      40.572  28.022  28.932  1.00  0.00     0.074 A 
ATOM     38  C   UNL A   1      40.509  30.284  29.931  1.00  0.00     0.049 A 
ATOM     39  N   UNL A   1      41.760  27.616  29.301  1.00  0.00    -0.248 NA
ATOM     40  C   UNL A   1      39.819  27.037  28.139  1.00  0.00     0.031 C 
ATOM     41  C   UNL A   1      39.935  31.576  30.307  1.00  0.00     0.029 A 
ATOM     42  N   UNL A   1      41.773  30.313  30.465  1.00  0.00    -0.354 N 
ATOM     43  C   UNL A   1      41.884  26.321  28.809  1.00  0.00     0.074 A 
ATOM     44  C   UNL A   1      40.632  25.991  28.165  1.00  0.00     0.031 C 
ATOM     45  C   UNL A   1      40.848  32.277  30.998  1.00  0.00     0.029 A 
ATOM     46  C   UNL A   1      42.051  31.466  31.161  1.00  0.00     0.049 A 
ATOM     47  H   UNL A   1      42.419  29.578  30.361  1.00  0.00     0.167 HD
ATOM     48  C   UNL A   1      42.949  25.487  28.875  1.00  0.00     0.031 A 
ATOM     49  C   UNL A   1      43.141  31.825  31.867  1.00  0.00     0.031 A 
ATOM     50  C   UNL A   1      44.191  25.823  29.518  1.00  0.00     0.049 A 
ATOM     51  C   UNL A   1      44.307  30.876  31.948  1.00  0.00     0.074 A 
ATOM     52  C   UNL A   1      45.348  25.068  29.599  1.00  0.00     0.029 A 
ATOM     53  N   UNL A   1      44.437  27.009  30.193  1.00  0.00    -0.354 N 
ATOM     54  N   UNL A   1      44.427  29.674  31.435  1.00  0.00    -0.248 NA
ATOM     55  C   UNL A   1      45.487  31.335  32.693  1.00  0.00     0.031 C 
ATOM     56  C   UNL A   1      46.273  25.774  30.376  1.00  0.00     0.029 A 
ATOM     57  C   UNL A   1      45.720  26.999  30.714  1.00  0.00     0.049 A 
ATOM     58  H   UNL A   1      43.795  27.750  30.287  1.00  0.00     0.167 HD
ATOM     59  C   UNL A   1      45.710  29.249  31.763  1.00  0.00     0.074 A 
ATOM     60  C   UNL A   1      46.326  30.322  32.516  1.00  0.00     0.031 C 
ATOM     61  C   UNL A   1      46.323  28.078  31.457  1.00  0.00     0.031 A 
BRANCH  48  62
ATOM     62  C   UNL A   1      42.798  24.121  28.254  1.00  0.00    -0.014 A 
ATOM     63  C   UNL A   1      43.271  23.850  26.956  1.00  0.00     0.010 A 
ATOM     64  C   UNL A   1      42.176  23.089  28.981  1.00  0.00     0.010 A 
ATOM     65  C   UNL A   1      43.068  22.597  26.375  1.00  0.00     0.020 A 
ATOM     66  C   UNL A   1      42.003  21.822  28.416  1.00  0.00     0.020 A 
ATOM     67  C   UNL A   1      42.429  21.591  27.107  1.00  0.00     0.054 A 
BRANCH  67  68
ATOM     68  S   UNL A   1      42.170  19.977  26.323  1.00  0.00     0.124 S 
ATOM     69  O   UNL A   1      43.090  20.042  25.190  1.00  0.00    -0.237 OA
ATOM     70  O   UNL A   1      42.545  19.043  27.382  1.00  0.00    -0.237 OA
ATOM     71  O   UNL A   1      40.751  19.984  25.974  1.00  0.00    -0.744 OA
ENDBRANCH  67  68
ENDBRANCH  48  62
BRANCH  49  72
ATOM     72  C   UNL A   1      43.178  33.152  32.540  1.00  0.00    -0.014 A 
ATOM     73  C   UNL A   1      43.615  34.293  31.844  1.00  0.00     0.010 A 
ATOM     74  C   UNL A   1      42.730  33.291  33.867  1.00  0.00     0.010 A 
ATOM     75  C   UNL A   1      43.608  35.547  32.464  1.00  0.00     0.020 A 
ATOM     76  C   UNL A   1      42.694  34.546  34.480  1.00  0.00     0.020 A 
ATOM     77  C   UNL A   1      43.138  35.666  33.775  1.00  0.00     0.054 A 
BRANCH  77  78
ATOM     78  S   UNL A   1      43.062  37.316  34.528  1.00  0.00     0.124 S 
ATOM     79  O   UNL A   1      43.005  38.184  33.357  1.00  0.00    -0.237 OA
ATOM     80  O   UNL A   1      41.838  37.241  35.322  1.00  0.00    -0.237 OA
ATOM     81  O   UNL A   1      44.296  37.394  35.307  1.00  0.00    -0.744 OA
ENDBRANCH  77  78
ENDBRANCH  49  72
BRANCH  61  82
ATOM     82  C   UNL A   1      47.758  27.906  31.884  1.00  0.00    -0.014 A 
ATOM     83  C   UNL A   1      48.824  28.374  31.096  1.00  0.00     0.010 A 
ATOM     84  C   UNL A   1      48.034  27.339  33.143  1.00  0.00     0.010 A 
ATOM     85  C   UNL A   1      50.141  28.260  31.552  1.00  0.00     0.020 A 
ATOM     86  C   UNL A   1      49.345  27.251  33.615  1.00  0.00     0.020 A 
ATOM     87  C   UNL A   1      50.392  27.704  32.812  1.00  0.00     0.054 A 
BRANCH  87  88
ATOM     88  S   UNL A   1      52.104  27.631  33.407  1.00  0.00     0.124 S 
ATOM     89  O   UNL A   1      52.545  26.332  32.908  1.00  0.00    -0.237 OA
ATOM     90  O   UNL A   1      52.716  28.791  32.766  1.00  0.00    -0.237 OA
ATOM     91  O   UNL A   1      51.971  27.727  34.859  1.00  0.00    -0.744 OA
ENDBRANCH  87  88
ENDBRANCH  61  82
ENDBRANCH  35  36
ENDBRANCH  27  30
ENDBRANCH  25  26
ENDBRANCH   1  25
TORSDOF 15
ENDMDL
