MODEL 1
REMARK VINA RESULT:      -9.5      0.000      0.000
REMARK SMILES CC(C)(C)OC(=O)N[C@H](c1ccccc1)[C@@H](O)CC(=O)NCCCNC(=O)c1ccc(-c2c3nc(c(-c4ccc(S(=O)(=O)[O-])cc4)c4ccc([nH]4)c(-c4ccc(S(=O)(=O)[O-])cc4)c4nc(c(-c5ccc(S(=O)(=O)[O-])cc5)c5ccc2[nH]5)C=C4)C=C3)cc1
REMARK SMILES IDX 22 1 21 2 19 3 20 4 18 6 16 7 9 8 8 9 6 10 7 11 5 13 2 14
REMARK SMILES IDX 1 15 3 16 4 17 10 18 11 19 15 20 12 21 14 22 13 23 17 24
REMARK SMILES IDX 23 26 24 27 25 28 26 29 27 31 28 32 29 33 87 34 30 35 86 36
REMARK SMILES IDX 31 37 32 38 33 39 80 40 34 41 85 42 79 43 81 44 35 45 84 46
REMARK SMILES IDX 78 47 77 48 36 50 66 51 47 52 65 53 48 54 51 55 64 56 82 57
REMARK SMILES IDX 49 58 50 59 63 61 83 62 52 63 37 64 38 65 46 66 39 67 45 68
REMARK SMILES IDX 40 69 41 70 42 71 43 72 44 73 67 74 68 75 76 76 69 77 75 78
REMARK SMILES IDX 70 79 71 80 72 81 73 82 74 83 53 84 54 85 62 86 55 87 61 88
REMARK SMILES IDX 56 89 57 90 58 91 59 92 60 93
REMARK H PARENT 21 5 8 12 17 25 25 30 81 49 51 60
REMARK Flexibility Score: inf
ROOT
ATOM      1  C   UNL A   1      33.915  35.729  28.899  1.00  0.00     0.117 C 
ENDROOT
BRANCH   1   2
ATOM      2  N   UNL A   1      33.084  35.905  30.076  1.00  0.00    -0.356 N 
ATOM      3  C   UNL A   1      33.249  36.026  31.427  1.00  0.00     0.222 C 
ATOM      4  O   UNL A   1      32.348  36.469  32.142  1.00  0.00    -0.275 OA
ATOM      5  H   UNL A   1      32.131  35.950  29.832  1.00  0.00     0.163 HD
BRANCH   3   6
ATOM      6  C   UNL A   1      34.452  35.501  32.096  1.00  0.00     0.134 C 
BRANCH   6   7
ATOM      7  C   UNL A   1      34.447  33.979  32.199  1.00  0.00     0.150 C 
BRANCH   7   8
ATOM      8  C   UNL A   1      35.795  33.261  32.678  1.00  0.00     0.145 C 
BRANCH   8   9
ATOM      9  N   UNL A   1      36.204  33.518  34.105  1.00  0.00    -0.312 N 
ATOM     10  C   UNL A   1      36.891  32.871  35.139  1.00  0.00     0.408 C 
ATOM     11  O   UNL A   1      36.975  33.481  36.219  1.00  0.00    -0.225 OA
ATOM     12  H   UNL A   1      35.898  34.407  34.398  1.00  0.00     0.167 HD
BRANCH  10  13
ATOM     13  O   UNL A   1      37.458  31.631  34.959  1.00  0.00    -0.444 OA
BRANCH  13  14
ATOM     14  C   UNL A   1      38.899  31.355  34.614  1.00  0.00     0.106 C 
ATOM     15  C   UNL A   1      39.639  30.678  35.816  1.00  0.00     0.056 C 
ATOM     16  C   UNL A   1      39.695  32.619  34.284  1.00  0.00     0.056 C 
ATOM     17  C   UNL A   1      39.001  30.331  33.479  1.00  0.00     0.056 C 
ENDBRANCH  13  14
ENDBRANCH  10  13
ENDBRANCH   8   9
BRANCH   8  18
ATOM     18  C   UNL A   1      36.959  33.415  31.646  1.00  0.00    -0.023 A 
ATOM     19  C   UNL A   1      36.794  32.901  30.350  1.00  0.00     0.006 A 
ATOM     20  C   UNL A   1      38.046  34.291  31.823  1.00  0.00     0.006 A 
ATOM     21  C   UNL A   1      37.474  33.437  29.249  1.00  0.00     0.000 A 
ATOM     22  C   UNL A   1      38.717  34.851  30.724  1.00  0.00     0.000 A 
ATOM     23  C   UNL A   1      38.395  34.459  29.431  1.00  0.00     0.000 A 
ENDBRANCH   8  18
ENDBRANCH   7   8
BRANCH   7  24
ATOM     24  O   UNL A   1      33.308  33.788  33.074  1.00  0.00    -0.390 OA
ATOM     25  H   UNL A   1      33.193  34.574  33.630  1.00  0.00     0.211 HD
ENDBRANCH   7  24
ENDBRANCH   6   7
ENDBRANCH   3   6
ENDBRANCH   1   2
BRANCH   1  26
ATOM     26  C   UNL A   1      33.957  34.354  28.143  1.00  0.00     0.042 C 
BRANCH  26  27
ATOM     27  C   UNL A   1      34.051  32.932  28.758  1.00  0.00     0.118 C 
BRANCH  27  28
ATOM     28  N   UNL A   1      33.632  31.814  27.946  1.00  0.00    -0.352 N 
ATOM     29  C   UNL A   1      34.221  30.576  27.755  1.00  0.00     0.251 C 
ATOM     30  H   UNL A   1      32.794  31.955  27.448  1.00  0.00     0.163 HD
ATOM     31  O   UNL A   1      33.598  29.738  27.100  1.00  0.00    -0.269 OA
BRANCH  29  32
ATOM     32  C   UNL A   1      35.600  30.218  28.211  1.00  0.00     0.039 A 
ATOM     33  C   UNL A   1      36.623  30.298  27.254  1.00  0.00     0.014 A 
ATOM     34  C   UNL A   1      35.904  29.653  29.455  1.00  0.00     0.014 A 
ATOM     35  C   UNL A   1      37.933  29.877  27.546  1.00  0.00     0.010 A 
ATOM     36  C   UNL A   1      37.231  29.242  29.753  1.00  0.00     0.010 A 
ATOM     37  C   UNL A   1      38.268  29.359  28.808  1.00  0.00    -0.014 A 
BRANCH  37  38
ATOM     38  C   UNL A   1      39.702  29.030  29.118  1.00  0.00     0.031 A 
ATOM     39  C   UNL A   1      40.626  29.991  29.833  1.00  0.00     0.074 A 
ATOM     40  C   UNL A   1      40.190  27.816  28.778  1.00  0.00     0.049 A 
ATOM     41  N   UNL A   1      41.861  29.804  30.240  1.00  0.00    -0.248 NA
ATOM     42  C   UNL A   1      40.099  31.330  30.126  1.00  0.00     0.031 C 
ATOM     43  C   UNL A   1      39.435  26.775  28.080  1.00  0.00     0.029 A 
ATOM     44  N   UNL A   1      41.427  27.244  28.983  1.00  0.00    -0.354 N 
ATOM     45  C   UNL A   1      42.262  30.997  30.835  1.00  0.00     0.074 A 
ATOM     46  C   UNL A   1      41.144  31.912  30.704  1.00  0.00     0.031 C 
ATOM     47  C   UNL A   1      40.210  25.688  27.936  1.00  0.00     0.029 A 
ATOM     48  C   UNL A   1      41.529  25.956  28.506  1.00  0.00     0.049 A 
ATOM     49  H   UNL A   1      42.170  27.712  29.427  1.00  0.00     0.167 HD
ATOM     50  C   UNL A   1      43.439  31.308  31.442  1.00  0.00     0.031 A 
ATOM     51  C   UNL A   1      42.553  25.077  28.522  1.00  0.00     0.031 A 
ATOM     52  C   UNL A   1      44.566  30.414  31.567  1.00  0.00     0.049 A 
ATOM     53  C   UNL A   1      43.856  25.449  29.176  1.00  0.00     0.074 A 
ATOM     54  C   UNL A   1      45.780  30.641  32.199  1.00  0.00     0.029 A 
ATOM     55  N   UNL A   1      44.630  29.131  31.049  1.00  0.00    -0.354 N 
ATOM     56  N   UNL A   1      44.184  26.563  29.784  1.00  0.00    -0.248 NA
ATOM     57  C   UNL A   1      44.923  24.436  29.160  1.00  0.00     0.031 C 
ATOM     58  C   UNL A   1      46.593  29.516  32.019  1.00  0.00     0.029 A 
ATOM     59  C   UNL A   1      45.866  28.564  31.326  1.00  0.00     0.049 A 
ATOM     60  H   UNL A   1      43.904  28.685  30.555  1.00  0.00     0.167 HD
ATOM     61  C   UNL A   1      45.482  26.373  30.248  1.00  0.00     0.074 A 
ATOM     62  C   UNL A   1      45.877  25.036  29.860  1.00  0.00     0.031 C 
ATOM     63  C   UNL A   1      46.269  27.234  30.939  1.00  0.00     0.031 A 
BRANCH  50  64
ATOM     64  C   UNL A   1      43.584  32.697  32.018  1.00  0.00    -0.014 A 
ATOM     65  C   UNL A   1      43.230  32.971  33.352  1.00  0.00     0.010 A 
ATOM     66  C   UNL A   1      44.135  33.730  31.235  1.00  0.00     0.010 A 
ATOM     67  C   UNL A   1      43.374  34.259  33.874  1.00  0.00     0.020 A 
ATOM     68  C   UNL A   1      44.306  35.015  31.763  1.00  0.00     0.020 A 
ATOM     69  C   UNL A   1      43.903  35.276  33.074  1.00  0.00     0.054 A 
BRANCH  69  70
ATOM     70  S   UNL A   1      44.078  36.942  33.775  1.00  0.00     0.124 S 
ATOM     71  O   UNL A   1      42.981  36.976  34.742  1.00  0.00    -0.237 OA
ATOM     72  O   UNL A   1      45.420  36.906  34.356  1.00  0.00    -0.237 OA
ATOM     73  O   UNL A   1      43.924  37.823  32.626  1.00  0.00    -0.744 OA
ENDBRANCH  69  70
ENDBRANCH  50  64
BRANCH  51  74
ATOM     74  C   UNL A   1      42.379  23.731  27.908  1.00  0.00    -0.014 A 
ATOM     75  C   UNL A   1      42.865  23.463  26.615  1.00  0.00     0.010 A 
ATOM     76  C   UNL A   1      41.739  22.702  28.624  1.00  0.00     0.010 A 
ATOM     77  C   UNL A   1      42.709  22.195  26.049  1.00  0.00     0.020 A 
ATOM     78  C   UNL A   1      41.605  21.426  28.070  1.00  0.00     0.020 A 
ATOM     79  C   UNL A   1      42.084  21.183  26.782  1.00  0.00     0.054 A 
BRANCH  79  80
ATOM     80  S   UNL A   1      41.958  19.523  26.057  1.00  0.00     0.124 S 
ATOM     81  O   UNL A   1      42.860  19.621  24.914  1.00  0.00    -0.237 OA
ATOM     82  O   UNL A   1      42.411  18.666  27.150  1.00  0.00    -0.237 OA
ATOM     83  O   UNL A   1      40.539  19.401  25.730  1.00  0.00    -0.744 OA
ENDBRANCH  79  80
ENDBRANCH  51  74
BRANCH  63  84
ATOM     84  C   UNL A   1      47.635  26.751  31.358  1.00  0.00    -0.014 A 
ATOM     85  C   UNL A   1      47.849  26.153  32.613  1.00  0.00     0.010 A 
ATOM     86  C   UNL A   1      48.715  26.860  30.462  1.00  0.00     0.010 A 
ATOM     87  C   UNL A   1      49.123  25.701  32.975  1.00  0.00     0.020 A 
ATOM     88  C   UNL A   1      49.984  26.387  30.810  1.00  0.00     0.020 A 
ATOM     89  C   UNL A   1      50.183  25.822  32.072  1.00  0.00     0.054 A 
BRANCH  89  90
ATOM     90  S   UNL A   1      51.818  25.194  32.549  1.00  0.00     0.124 S 
ATOM     91  O   UNL A   1      51.666  23.757  32.339  1.00  0.00    -0.237 OA
ATOM     92  O   UNL A   1      52.710  25.875  31.611  1.00  0.00    -0.237 OA
ATOM     93  O   UNL A   1      51.957  25.610  33.943  1.00  0.00    -0.744 OA
ENDBRANCH  89  90
ENDBRANCH  63  84
ENDBRANCH  37  38
ENDBRANCH  29  32
ENDBRANCH  27  28
ENDBRANCH  26  27
ENDBRANCH   1  26
TORSDOF 20
ENDMDL
MODEL 2
REMARK VINA RESULT:      -9.2      0.830      8.174
REMARK SMILES CC(C)(C)OC(=O)N[C@H](c1ccccc1)[C@@H](O)CC(=O)NCCCNC(=O)c1ccc(-c2c3nc(c(-c4ccc(S(=O)(=O)[O-])cc4)c4ccc([nH]4)c(-c4ccc(S(=O)(=O)[O-])cc4)c4nc(c(-c5ccc(S(=O)(=O)[O-])cc5)c5ccc2[nH]5)C=C4)C=C3)cc1
REMARK SMILES IDX 22 1 21 2 19 3 20 4 18 6 16 7 9 8 8 9 6 10 7 11 5 13 2 14
REMARK SMILES IDX 1 15 3 16 4 17 10 18 11 19 15 20 12 21 14 22 13 23 17 24
REMARK SMILES IDX 23 26 24 27 25 28 26 29 27 31 28 32 29 33 87 34 30 35 86 36
REMARK SMILES IDX 31 37 32 38 33 39 80 40 34 41 85 42 79 43 81 44 35 45 84 46
REMARK SMILES IDX 78 47 77 48 36 50 66 51 47 52 65 53 48 54 51 55 64 56 82 57
REMARK SMILES IDX 49 58 50 59 63 61 83 62 52 63 37 64 38 65 46 66 39 67 45 68
REMARK SMILES IDX 40 69 41 70 42 71 43 72 44 73 67 74 68 75 76 76 69 77 75 78
REMARK SMILES IDX 70 79 71 80 72 81 73 82 74 83 53 84 54 85 62 86 55 87 61 88
REMARK SMILES IDX 56 89 57 90 58 91 59 92 60 93
REMARK H PARENT 21 5 8 12 17 25 25 30 81 49 51 60
REMARK Flexibility Score: inf
ROOT
ATOM      1  C   UNL A   1      33.709  35.207  29.077  1.00  0.00     0.117 C 
ENDROOT
BRANCH   1   2
ATOM      2  N   UNL A   1      33.000  35.150  30.342  1.00  0.00    -0.356 N 
ATOM      3  C   UNL A   1      33.283  35.287  31.672  1.00  0.00     0.222 C 
ATOM      4  O   UNL A   1      32.388  35.478  32.497  1.00  0.00    -0.275 OA
ATOM      5  H   UNL A   1      32.044  34.957  30.203  1.00  0.00     0.163 HD
BRANCH   3   6
ATOM      6  C   UNL A   1      34.647  35.071  32.185  1.00  0.00     0.134 C 
BRANCH   6   7
ATOM      7  C   UNL A   1      34.899  33.619  32.582  1.00  0.00     0.150 C 
BRANCH   7   8
ATOM      8  C   UNL A   1      36.403  33.193  32.924  1.00  0.00     0.145 C 
BRANCH   8   9
ATOM      9  N   UNL A   1      36.973  33.758  34.200  1.00  0.00    -0.312 N 
ATOM     10  C   UNL A   1      38.107  33.611  35.006  1.00  0.00     0.408 C 
ATOM     11  O   UNL A   1      38.151  34.303  36.037  1.00  0.00    -0.225 OA
ATOM     12  H   UNL A   1      36.365  34.434  34.579  1.00  0.00     0.167 HD
BRANCH  10  13
ATOM     13  O   UNL A   1      39.128  32.756  34.660  1.00  0.00    -0.444 OA
BRANCH  13  14
ATOM     14  C   UNL A   1      39.174  31.274  34.930  1.00  0.00     0.106 C 
ATOM     15  C   UNL A   1      38.822  30.462  33.637  1.00  0.00     0.056 C 
ATOM     16  C   UNL A   1      38.178  30.822  35.998  1.00  0.00     0.056 C 
ATOM     17  C   UNL A   1      40.597  30.829  35.283  1.00  0.00     0.056 C 
ENDBRANCH  13  14
ENDBRANCH  10  13
ENDBRANCH   8   9
BRANCH   8  18
ATOM     18  C   UNL A   1      37.359  33.315  31.693  1.00  0.00    -0.023 A 
ATOM     19  C   UNL A   1      37.051  32.610  30.518  1.00  0.00     0.006 A 
ATOM     20  C   UNL A   1      38.346  34.310  31.569  1.00  0.00     0.006 A 
ATOM     21  C   UNL A   1      37.476  33.052  29.258  1.00  0.00     0.000 A 
ATOM     22  C   UNL A   1      38.760  34.773  30.311  1.00  0.00     0.000 A 
ATOM     23  C   UNL A   1      38.284  34.175  29.151  1.00  0.00     0.000 A 
ENDBRANCH   8  18
ENDBRANCH   7   8
BRANCH   7  24
ATOM     24  O   UNL A   1      33.962  33.489  33.678  1.00  0.00    -0.390 OA
ATOM     25  H   UNL A   1      34.445  33.284  34.494  1.00  0.00     0.211 HD
ENDBRANCH   7  24
ENDBRANCH   6   7
ENDBRANCH   3   6
ENDBRANCH   1   2
BRANCH   1  26
ATOM     26  C   UNL A   1      33.965  33.905  28.239  1.00  0.00     0.042 C 
BRANCH  26  27
ATOM     27  C   UNL A   1      34.165  32.458  28.766  1.00  0.00     0.118 C 
BRANCH  27  28
ATOM     28  N   UNL A   1      33.820  31.365  27.889  1.00  0.00    -0.352 N 
ATOM     29  C   UNL A   1      34.463  30.159  27.665  1.00  0.00     0.251 C 
ATOM     30  H   UNL A   1      32.996  31.497  27.366  1.00  0.00     0.163 HD
ATOM     31  O   UNL A   1      33.897  29.330  26.949  1.00  0.00    -0.269 OA
BRANCH  29  32
ATOM     32  C   UNL A   1      35.837  29.831  28.158  1.00  0.00     0.039 A 
ATOM     33  C   UNL A   1      36.870  29.855  27.209  1.00  0.00     0.014 A 
ATOM     34  C   UNL A   1      36.127  29.343  29.437  1.00  0.00     0.014 A 
ATOM     35  C   UNL A   1      38.178  29.455  27.541  1.00  0.00     0.010 A 
ATOM     36  C   UNL A   1      37.451  28.952  29.774  1.00  0.00     0.010 A 
ATOM     37  C   UNL A   1      38.498  29.014  28.835  1.00  0.00    -0.014 A 
BRANCH  37  38
ATOM     38  C   UNL A   1      39.929  28.706  29.181  1.00  0.00     0.031 A 
ATOM     39  C   UNL A   1      40.591  27.392  28.832  1.00  0.00     0.074 A 
ATOM     40  C   UNL A   1      40.676  29.647  29.802  1.00  0.00     0.049 A 
ATOM     41  N   UNL A   1      41.841  27.025  28.996  1.00  0.00    -0.248 NA
ATOM     42  C   UNL A   1      39.742  26.357  28.227  1.00  0.00     0.031 C 
ATOM     43  C   UNL A   1      40.191  30.964  30.214  1.00  0.00     0.029 A 
ATOM     44  N   UNL A   1      42.000  29.649  30.185  1.00  0.00    -0.354 N 
ATOM     45  C   UNL A   1      41.933  25.722  28.516  1.00  0.00     0.074 A 
ATOM     46  C   UNL A   1      40.598  25.352  28.086  1.00  0.00     0.031 C 
ATOM     47  C   UNL A   1      41.202  31.654  30.766  1.00  0.00     0.029 A 
ATOM     48  C   UNL A   1      42.405  30.825  30.775  1.00  0.00     0.049 A 
ATOM     49  H   UNL A   1      42.601  28.881  30.049  1.00  0.00     0.167 HD
ATOM     50  C   UNL A   1      43.019  24.907  28.429  1.00  0.00     0.031 A 
ATOM     51  C   UNL A   1      43.602  31.210  31.268  1.00  0.00     0.031 A 
ATOM     52  C   UNL A   1      44.351  25.254  28.867  1.00  0.00     0.049 A 
ATOM     53  C   UNL A   1      44.785  30.285  31.184  1.00  0.00     0.074 A 
ATOM     54  C   UNL A   1      45.511  24.498  28.780  1.00  0.00     0.029 A 
ATOM     55  N   UNL A   1      44.706  26.445  29.479  1.00  0.00    -0.354 N 
ATOM     56  N   UNL A   1      44.855  29.081  30.670  1.00  0.00    -0.248 NA
ATOM     57  C   UNL A   1      46.057  30.778  31.736  1.00  0.00     0.031 C 
ATOM     58  C   UNL A   1      46.554  25.211  29.384  1.00  0.00     0.029 A 
ATOM     59  C   UNL A   1      46.057  26.436  29.795  1.00  0.00     0.049 A 
ATOM     60  H   UNL A   1      44.090  27.190  29.663  1.00  0.00     0.167 HD
ATOM     61  C   UNL A   1      46.182  28.687  30.808  1.00  0.00     0.074 A 
ATOM     62  C   UNL A   1      46.883  29.781  31.445  1.00  0.00     0.031 C 
ATOM     63  C   UNL A   1      46.762  27.521  30.433  1.00  0.00     0.031 A 
BRANCH  50  64
ATOM     64  C   UNL A   1      42.815  23.529  27.843  1.00  0.00    -0.014 A 
ATOM     65  C   UNL A   1      42.131  22.529  28.558  1.00  0.00     0.010 A 
ATOM     66  C   UNL A   1      43.259  23.247  26.536  1.00  0.00     0.010 A 
ATOM     67  C   UNL A   1      41.944  21.260  28.002  1.00  0.00     0.020 A 
ATOM     68  C   UNL A   1      43.050  21.987  25.965  1.00  0.00     0.020 A 
ATOM     69  C   UNL A   1      42.412  20.993  26.712  1.00  0.00     0.054 A 
BRANCH  69  70
ATOM     70  S   UNL A   1      42.159  19.338  26.013  1.00  0.00     0.124 S 
ATOM     71  O   UNL A   1      42.997  19.387  24.815  1.00  0.00    -0.237 OA
ATOM     72  O   UNL A   1      42.645  18.461  27.079  1.00  0.00    -0.237 OA
ATOM     73  O   UNL A   1      40.725  19.277  25.767  1.00  0.00    -0.744 OA
ENDBRANCH  69  70
ENDBRANCH  50  64
BRANCH  51  74
ATOM     74  C   UNL A   1      43.748  32.564  31.873  1.00  0.00    -0.014 A 
ATOM     75  C   UNL A   1      43.430  32.784  33.225  1.00  0.00     0.010 A 
ATOM     76  C   UNL A   1      44.225  33.639  31.099  1.00  0.00     0.010 A 
ATOM     77  C   UNL A   1      43.581  34.054  33.791  1.00  0.00     0.020 A 
ATOM     78  C   UNL A   1      44.402  34.903  31.669  1.00  0.00     0.020 A 
ATOM     79  C   UNL A   1      44.070  35.104  33.010  1.00  0.00     0.054 A 
BRANCH  79  80
ATOM     80  S   UNL A   1      44.329  36.726  33.783  1.00  0.00     0.124 S 
ATOM     81  O   UNL A   1      44.556  36.365  35.178  1.00  0.00    -0.237 OA
ATOM     82  O   UNL A   1      45.493  37.237  33.063  1.00  0.00    -0.237 OA
ATOM     83  O   UNL A   1      43.081  37.435  33.512  1.00  0.00    -0.744 OA
ENDBRANCH  79  80
ENDBRANCH  51  74
BRANCH  63  84
ATOM     84  C   UNL A   1      48.245  27.370  30.667  1.00  0.00    -0.014 A 
ATOM     85  C   UNL A   1      49.185  27.786  29.708  1.00  0.00     0.010 A 
ATOM     86  C   UNL A   1      48.705  26.841  31.888  1.00  0.00     0.010 A 
ATOM     87  C   UNL A   1      50.556  27.647  29.952  1.00  0.00     0.020 A 
ATOM     88  C   UNL A   1      50.074  26.723  32.145  1.00  0.00     0.020 A 
ATOM     89  C   UNL A   1      50.992  27.115  31.169  1.00  0.00     0.054 A 
BRANCH  89  90
ATOM     90  S   UNL A   1      52.776  26.981  31.479  1.00  0.00     0.124 S 
ATOM     91  O   UNL A   1      52.931  25.556  31.753  1.00  0.00    -0.237 OA
ATOM     92  O   UNL A   1      53.357  27.446  30.221  1.00  0.00    -0.237 OA
ATOM     93  O   UNL A   1      52.996  27.864  32.623  1.00  0.00    -0.744 OA
ENDBRANCH  89  90
ENDBRANCH  63  84
ENDBRANCH  37  38
ENDBRANCH  29  32
ENDBRANCH  27  28
ENDBRANCH  26  27
ENDBRANCH   1  26
TORSDOF 20
ENDMDL
MODEL 3
REMARK VINA RESULT:      -9.0      4.137     11.116
REMARK SMILES CC(C)(C)OC(=O)N[C@H](c1ccccc1)[C@@H](O)CC(=O)NCCCNC(=O)c1ccc(-c2c3nc(c(-c4ccc(S(=O)(=O)[O-])cc4)c4ccc([nH]4)c(-c4ccc(S(=O)(=O)[O-])cc4)c4nc(c(-c5ccc(S(=O)(=O)[O-])cc5)c5ccc2[nH]5)C=C4)C=C3)cc1
REMARK SMILES IDX 22 1 21 2 19 3 20 4 18 6 16 7 9 8 8 9 6 10 7 11 5 13 2 14
REMARK SMILES IDX 1 15 3 16 4 17 10 18 11 19 15 20 12 21 14 22 13 23 17 24
REMARK SMILES IDX 23 26 24 27 25 28 26 29 27 31 28 32 29 33 87 34 30 35 86 36
REMARK SMILES IDX 31 37 32 38 33 39 80 40 34 41 85 42 79 43 81 44 35 45 84 46
REMARK SMILES IDX 78 47 77 48 36 50 66 51 47 52 65 53 48 54 51 55 64 56 82 57
REMARK SMILES IDX 49 58 50 59 63 61 83 62 52 63 37 64 38 65 46 66 39 67 45 68
REMARK SMILES IDX 40 69 41 70 42 71 43 72 44 73 67 74 68 75 76 76 69 77 75 78
REMARK SMILES IDX 70 79 71 80 72 81 73 82 74 83 53 84 54 85 62 86 55 87 61 88
REMARK SMILES IDX 56 89 57 90 58 91 59 92 60 93
REMARK H PARENT 21 5 8 12 17 25 25 30 81 49 51 60
REMARK Flexibility Score: inf
ROOT
ATOM      1  C   UNL A   1      34.828  21.983  24.322  1.00  0.00     0.117 C 
ENDROOT
BRANCH   1   2
ATOM      2  N   UNL A   1      33.658  21.395  24.946  1.00  0.00    -0.356 N 
ATOM      3  C   UNL A   1      32.299  21.479  24.840  1.00  0.00     0.222 C 
ATOM      4  O   UNL A   1      31.567  20.613  25.321  1.00  0.00    -0.275 OA
ATOM      5  H   UNL A   1      33.918  20.752  25.646  1.00  0.00     0.163 HD
BRANCH   3   6
ATOM      6  C   UNL A   1      31.654  22.676  24.273  1.00  0.00     0.134 C 
BRANCH   6   7
ATOM      7  C   UNL A   1      31.426  23.767  25.315  1.00  0.00     0.150 C 
BRANCH   7   8
ATOM      8  C   UNL A   1      31.500  25.289  24.827  1.00  0.00     0.145 C 
BRANCH   8   9
ATOM      9  N   UNL A   1      32.033  25.508  23.435  1.00  0.00    -0.312 N 
ATOM     10  C   UNL A   1      31.776  26.315  22.321  1.00  0.00     0.408 C 
ATOM     11  O   UNL A   1      32.490  26.127  21.321  1.00  0.00    -0.225 OA
ATOM     12  H   UNL A   1      32.788  24.902  23.256  1.00  0.00     0.167 HD
BRANCH  10  13
ATOM     13  O   UNL A   1      30.795  27.278  22.342  1.00  0.00    -0.444 OA
BRANCH  13  14
ATOM     14  C   UNL A   1      30.970  28.715  22.762  1.00  0.00     0.106 C 
ATOM     15  C   UNL A   1      30.237  28.992  24.117  1.00  0.00     0.056 C 
ATOM     16  C   UNL A   1      30.395  29.714  21.757  1.00  0.00     0.056 C 
ATOM     17  C   UNL A   1      32.442  29.021  23.057  1.00  0.00     0.056 C 
ENDBRANCH  13  14
ENDBRANCH  10  13
ENDBRANCH   8   9
BRANCH   8  18
ATOM     18  C   UNL A   1      32.124  26.238  25.902  1.00  0.00    -0.023 A 
ATOM     19  C   UNL A   1      33.472  26.612  25.780  1.00  0.00     0.006 A 
ATOM     20  C   UNL A   1      31.362  26.984  26.819  1.00  0.00     0.006 A 
ATOM     21  C   UNL A   1      33.955  27.816  26.307  1.00  0.00     0.000 A 
ATOM     22  C   UNL A   1      31.830  28.203  27.333  1.00  0.00     0.000 A 
ATOM     23  C   UNL A   1      33.114  28.645  27.036  1.00  0.00     0.000 A 
ENDBRANCH   8  18
ENDBRANCH   7   8
BRANCH   7  24
ATOM     24  O   UNL A   1      30.141  23.354  25.839  1.00  0.00    -0.390 OA
ATOM     25  H   UNL A   1      30.152  22.399  26.006  1.00  0.00     0.211 HD
ENDBRANCH   7  24
ENDBRANCH   6   7
ENDBRANCH   3   6
ENDBRANCH   1   2
BRANCH   1  26
ATOM     26  C   UNL A   1      35.326  23.414  24.733  1.00  0.00     0.042 C 
BRANCH  26  27
ATOM     27  C   UNL A   1      36.782  23.867  25.025  1.00  0.00     0.118 C 
BRANCH  27  28
ATOM     28  N   UNL A   1      37.762  22.847  25.317  1.00  0.00    -0.352 N 
ATOM     29  C   UNL A   1      38.870  22.882  26.147  1.00  0.00     0.251 C 
ATOM     30  H   UNL A   1      37.621  21.992  24.851  1.00  0.00     0.163 HD
ATOM     31  O   UNL A   1      39.488  21.830  26.323  1.00  0.00    -0.269 OA
BRANCH  29  32
ATOM     32  C   UNL A   1      39.418  24.125  26.771  1.00  0.00     0.039 A 
ATOM     33  C   UNL A   1      39.018  24.401  28.088  1.00  0.00     0.014 A 
ATOM     34  C   UNL A   1      40.149  25.103  26.086  1.00  0.00     0.014 A 
ATOM     35  C   UNL A   1      39.384  25.598  28.729  1.00  0.00     0.010 A 
ATOM     36  C   UNL A   1      40.530  26.306  26.740  1.00  0.00     0.010 A 
ATOM     37  C   UNL A   1      40.164  26.566  28.075  1.00  0.00    -0.014 A 
BRANCH  37  38
ATOM     38  C   UNL A   1      40.632  27.778  28.832  1.00  0.00     0.031 A 
ATOM     39  C   UNL A   1      42.027  27.897  29.404  1.00  0.00     0.074 A 
ATOM     40  C   UNL A   1      39.791  28.825  28.989  1.00  0.00     0.049 A 
ATOM     41  N   UNL A   1      42.591  28.920  30.005  1.00  0.00    -0.248 NA
ATOM     42  C   UNL A   1      42.899  26.721  29.289  1.00  0.00     0.031 C 
ATOM     43  C   UNL A   1      38.410  28.870  28.505  1.00  0.00     0.029 A 
ATOM     44  N   UNL A   1      39.971  30.054  29.584  1.00  0.00    -0.354 N 
ATOM     45  C   UNL A   1      43.879  28.515  30.342  1.00  0.00     0.074 A 
ATOM     46  C   UNL A   1      43.999  27.137  29.904  1.00  0.00     0.031 C 
ATOM     47  C   UNL A   1      37.879  30.068  28.797  1.00  0.00     0.029 A 
ATOM     48  C   UNL A   1      38.866  30.873  29.514  1.00  0.00     0.049 A 
ATOM     49  H   UNL A   1      40.812  30.323  30.020  1.00  0.00     0.167 HD
ATOM     50  C   UNL A   1      44.875  29.216  30.947  1.00  0.00     0.031 A 
ATOM     51  C   UNL A   1      38.656  32.128  29.964  1.00  0.00     0.031 A 
ATOM     52  C   UNL A   1      44.767  30.583  31.402  1.00  0.00     0.049 A 
ATOM     53  C   UNL A   1      39.763  32.878  30.653  1.00  0.00     0.074 A 
ATOM     54  C   UNL A   1      45.742  31.375  31.992  1.00  0.00     0.029 A 
ATOM     55  N   UNL A   1      43.623  31.360  31.331  1.00  0.00    -0.354 N 
ATOM     56  N   UNL A   1      40.989  32.490  30.903  1.00  0.00    -0.248 NA
ATOM     57  C   UNL A   1      39.460  34.244  31.109  1.00  0.00     0.031 C 
ATOM     58  C   UNL A   1      45.172  32.610  32.321  1.00  0.00     0.029 A 
ATOM     59  C   UNL A   1      43.859  32.611  31.884  1.00  0.00     0.049 A 
ATOM     60  H   UNL A   1      42.766  31.069  30.944  1.00  0.00     0.167 HD
ATOM     61  C   UNL A   1      41.613  33.573  31.515  1.00  0.00     0.074 A 
ATOM     62  C   UNL A   1      40.632  34.635  31.591  1.00  0.00     0.031 C 
ATOM     63  C   UNL A   1      42.886  33.673  31.967  1.00  0.00     0.031 A 
BRANCH  50  64
ATOM     64  C   UNL A   1      46.191  28.509  31.173  1.00  0.00    -0.014 A 
ATOM     65  C   UNL A   1      46.426  27.769  32.346  1.00  0.00     0.010 A 
ATOM     66  C   UNL A   1      47.185  28.534  30.175  1.00  0.00     0.010 A 
ATOM     67  C   UNL A   1      47.646  27.114  32.540  1.00  0.00     0.020 A 
ATOM     68  C   UNL A   1      48.397  27.857  30.353  1.00  0.00     0.020 A 
ATOM     69  C   UNL A   1      48.628  27.169  31.547  1.00  0.00     0.054 A 
BRANCH  69  70
ATOM     70  S   UNL A   1      50.204  26.313  31.823  1.00  0.00     0.124 S 
ATOM     71  O   UNL A   1      49.770  25.104  32.521  1.00  0.00    -0.237 OA
ATOM     72  O   UNL A   1      50.699  26.103  30.461  1.00  0.00    -0.237 OA
ATOM     73  O   UNL A   1      50.977  27.251  32.624  1.00  0.00    -0.744 OA
ENDBRANCH  69  70
ENDBRANCH  50  64
BRANCH  51  74
ATOM     74  C   UNL A   1      37.329  32.773  29.754  1.00  0.00    -0.014 A 
ATOM     75  C   UNL A   1      36.324  32.684  30.734  1.00  0.00     0.010 A 
ATOM     76  C   UNL A   1      37.071  33.497  28.574  1.00  0.00     0.010 A 
ATOM     77  C   UNL A   1      35.086  33.302  30.537  1.00  0.00     0.020 A 
ATOM     78  C   UNL A   1      35.843  34.137  28.386  1.00  0.00     0.020 A 
ATOM     79  C   UNL A   1      34.855  34.028  29.366  1.00  0.00     0.054 A 
BRANCH  79  80
ATOM     80  S   UNL A   1      33.267  34.885  29.162  1.00  0.00     0.124 S 
ATOM     81  O   UNL A   1      33.686  36.183  28.645  1.00  0.00    -0.237 OA
ATOM     82  O   UNL A   1      32.562  34.023  28.217  1.00  0.00    -0.237 OA
ATOM     83  O   UNL A   1      32.712  34.897  30.514  1.00  0.00    -0.744 OA
ENDBRANCH  79  80
ENDBRANCH  51  74
BRANCH  63  84
ATOM     84  C   UNL A   1      43.317  34.992  32.559  1.00  0.00    -0.014 A 
ATOM     85  C   UNL A   1      43.966  35.968  31.782  1.00  0.00     0.010 A 
ATOM     86  C   UNL A   1      43.030  35.274  33.908  1.00  0.00     0.010 A 
ATOM     87  C   UNL A   1      44.345  37.189  32.350  1.00  0.00     0.020 A 
ATOM     88  C   UNL A   1      43.386  36.503  34.473  1.00  0.00     0.020 A 
ATOM     89  C   UNL A   1      44.054  37.449  33.693  1.00  0.00     0.054 A 
BRANCH  89  90
ATOM     90  S   UNL A   1      44.522  39.055  34.397  1.00  0.00     0.124 S 
ATOM     91  O   UNL A   1      43.343  39.868  34.114  1.00  0.00    -0.237 OA
ATOM     92  O   UNL A   1      44.741  38.736  35.807  1.00  0.00    -0.237 OA
ATOM     93  O   UNL A   1      45.726  39.422  33.655  1.00  0.00    -0.744 OA
ENDBRANCH  89  90
ENDBRANCH  63  84
ENDBRANCH  37  38
ENDBRANCH  29  32
ENDBRANCH  27  28
ENDBRANCH  26  27
ENDBRANCH   1  26
TORSDOF 20
ENDMDL
