MODEL 1
REMARK VINA RESULT:     -13.2      0.000      0.000
REMARK SMILES Cc1nccn1CCC[NH+]1CCC2(CC1)[C@@H](C(=O)NCCCNC(=O)c1ccc(-c3c4nc(c(-c5ccc(S(=O)(=O)[O-])cc5)c5ccc([nH]5)c(-c5ccc(S(=O)(=O)[O-])cc5)c5nc(c(-c6ccc(S(=O)(=O)[O-])cc6)c6ccc3[nH]6)C=C5)C=C4)cc1)CC(=O)N2C
REMARK SMILES IDX 20 1 19 2 17 3 18 4 16 6 10 7 11 8 15 9 12 11 14 12 13 13
REMARK SMILES IDX 89 14 86 15 87 16 90 17 88 18 9 19 8 20 7 21 6 22 1 23 2 24
REMARK SMILES IDX 3 25 4 26 5 27 21 28 22 29 23 30 24 31 25 33 26 34 27 35
REMARK SMILES IDX 85 36 28 37 84 38 29 39 30 40 31 41 78 42 32 43 83 44 77 45
REMARK SMILES IDX 79 46 33 47 82 48 76 49 75 50 34 52 64 53 45 54 63 55 46 56
REMARK SMILES IDX 49 57 62 58 80 59 47 60 48 61 61 63 81 64 50 65 35 66 36 67
REMARK SMILES IDX 44 68 37 69 43 70 38 71 39 72 40 73 41 74 42 75 65 76 66 77
REMARK SMILES IDX 74 78 67 79 73 80 68 81 69 82 70 83 71 84 72 85 51 86 52 87
REMARK SMILES IDX 60 88 53 89 59 90 54 91 55 92 56 93 57 94 58 95
REMARK H PARENT 19 5 10 10 23 32 79 51 49 62
REMARK Flexibility Score: inf
ROOT
ATOM      1  C   UNL A   1      31.429  27.817  26.419  1.00  0.00     0.117 C 
ENDROOT
BRANCH   1   2
ATOM      2  N   UNL A   1      30.912  26.474  26.668  1.00  0.00    -0.356 N 
ATOM      3  C   UNL A   1      31.306  25.185  26.464  1.00  0.00     0.226 C 
ATOM      4  O   UNL A   1      30.606  24.338  27.031  1.00  0.00    -0.275 OA
ATOM      5  H   UNL A   1      30.030  26.509  27.106  1.00  0.00     0.163 HD
BRANCH   3   6
ATOM      6  C   UNL A   1      32.530  24.738  25.661  1.00  0.00     0.114 C 
ATOM      7  N   UNL A   1      31.928  27.228  22.149  1.00  0.00    -0.335 N 
ATOM      8  C   UNL A   1      33.318  27.064  22.616  1.00  0.00     0.264 C 
ATOM      9  C   UNL A   1      31.324  25.901  22.044  1.00  0.00     0.264 C 
ATOM     10  H   UNL A   1      31.889  27.636  21.215  1.00  0.00     0.348 HD
ATOM     11  C   UNL A   1      33.445  26.331  23.955  1.00  0.00     0.091 C 
ATOM     12  C   UNL A   1      31.254  25.135  23.374  1.00  0.00     0.091 C 
ATOM     13  C   UNL A   1      32.608  25.038  24.109  1.00  0.00     0.065 C 
ATOM     14  N   UNL A   1      33.351  23.851  23.604  1.00  0.00    -0.339 N 
ATOM     15  C   UNL A   1      32.619  23.201  25.731  1.00  0.00     0.116 C 
ATOM     16  C   UNL A   1      33.383  22.804  24.513  1.00  0.00     0.223 C 
ATOM     17  C   UNL A   1      33.596  23.550  22.204  1.00  0.00     0.147 C 
ATOM     18  O   UNL A   1      33.875  21.696  24.327  1.00  0.00    -0.275 OA
BRANCH   7  19
ATOM     19  C   UNL A   1      31.200  28.213  22.961  1.00  0.00     0.264 C 
BRANCH  19  20
ATOM     20  C   UNL A   1      29.896  28.872  22.464  1.00  0.00     0.083 C 
BRANCH  20  21
ATOM     21  C   UNL A   1      29.413  30.249  22.965  1.00  0.00     0.129 C 
BRANCH  21  22
ATOM     22  N   UNL A   1      28.706  31.158  22.084  1.00  0.00    -0.335 N 
ATOM     23  C   UNL A   1      29.151  33.304  23.358  1.00  0.00     0.087 C 
ATOM     24  C   UNL A   1      28.651  32.533  22.201  1.00  0.00     0.105 A 
ATOM     25  N   UNL A   1      28.032  33.078  21.173  1.00  0.00    -0.242 NA
ATOM     26  C   UNL A   1      27.686  32.053  20.362  1.00  0.00     0.131 A 
ATOM     27  C   UNL A   1      28.064  30.860  20.925  1.00  0.00     0.107 A 
ENDBRANCH  21  22
ENDBRANCH  20  21
ENDBRANCH  19  20
ENDBRANCH   7  19
ENDBRANCH   3   6
ENDBRANCH   1   2
BRANCH   1  28
ATOM     28  C   UNL A   1      32.851  28.144  26.953  1.00  0.00     0.042 C 
BRANCH  28  29
ATOM     29  C   UNL A   1      33.642  29.324  26.344  1.00  0.00     0.118 C 
BRANCH  29  30
ATOM     30  N   UNL A   1      33.449  30.650  26.922  1.00  0.00    -0.352 N 
ATOM     31  C   UNL A   1      34.250  31.337  27.837  1.00  0.00     0.251 C 
ATOM     32  H   UNL A   1      32.641  31.128  26.624  1.00  0.00     0.163 HD
ATOM     33  O   UNL A   1      33.764  32.301  28.425  1.00  0.00    -0.269 OA
BRANCH  31  34
ATOM     34  C   UNL A   1      35.673  30.963  28.112  1.00  0.00     0.039 A 
ATOM     35  C   UNL A   1      36.596  31.875  28.658  1.00  0.00     0.014 A 
ATOM     36  C   UNL A   1      36.153  29.732  27.702  1.00  0.00     0.014 A 
ATOM     37  C   UNL A   1      37.949  31.509  28.838  1.00  0.00     0.010 A 
ATOM     38  C   UNL A   1      37.464  29.352  27.937  1.00  0.00     0.010 A 
ATOM     39  C   UNL A   1      38.387  30.228  28.477  1.00  0.00    -0.014 A 
BRANCH  39  40
ATOM     40  C   UNL A   1      39.736  29.709  28.772  1.00  0.00     0.031 A 
ATOM     41  C   UNL A   1      40.006  29.508  30.222  1.00  0.00     0.074 A 
ATOM     42  C   UNL A   1      40.602  29.187  27.863  1.00  0.00     0.049 A 
ATOM     43  N   UNL A   1      40.834  30.166  30.961  1.00  0.00    -0.248 NA
ATOM     44  C   UNL A   1      39.181  28.546  30.972  1.00  0.00     0.031 C 
ATOM     45  C   UNL A   1      40.394  28.987  26.422  1.00  0.00     0.029 A 
ATOM     46  N   UNL A   1      41.833  28.612  28.055  1.00  0.00    -0.354 N 
ATOM     47  C   UNL A   1      40.807  29.558  32.211  1.00  0.00     0.074 A 
ATOM     48  C   UNL A   1      39.660  28.685  32.211  1.00  0.00     0.031 C 
ATOM     49  C   UNL A   1      41.344  28.160  25.926  1.00  0.00     0.029 A 
ATOM     50  C   UNL A   1      42.326  27.892  26.960  1.00  0.00     0.049 A 
ATOM     51  H   UNL A   1      42.333  28.700  28.899  1.00  0.00     0.167 HD
ATOM     52  C   UNL A   1      41.865  29.646  33.066  1.00  0.00     0.031 A 
ATOM     53  C   UNL A   1      43.452  27.128  26.898  1.00  0.00     0.031 A 
ATOM     54  C   UNL A   1      42.808  30.651  32.641  1.00  0.00     0.049 A 
ATOM     55  C   UNL A   1      44.341  27.582  27.991  1.00  0.00     0.074 A 
ATOM     56  C   UNL A   1      42.730  32.004  32.377  1.00  0.00     0.029 A 
ATOM     57  N   UNL A   1      43.948  30.207  32.011  1.00  0.00    -0.354 N 
ATOM     58  N   UNL A   1      44.902  28.755  28.012  1.00  0.00    -0.248 NA
ATOM     59  C   UNL A   1      44.264  26.903  29.272  1.00  0.00     0.031 C 
ATOM     60  C   UNL A   1      43.534  32.197  31.214  1.00  0.00     0.029 A 
ATOM     61  C   UNL A   1      44.125  30.975  30.888  1.00  0.00     0.049 A 
ATOM     62  H   UNL A   1      44.531  29.473  32.312  1.00  0.00     0.167 HD
ATOM     63  C   UNL A   1      44.811  29.159  29.334  1.00  0.00     0.074 A 
ATOM     64  C   UNL A   1      44.515  27.937  30.080  1.00  0.00     0.031 C 
ATOM     65  C   UNL A   1      44.702  30.483  29.655  1.00  0.00     0.031 A 
BRANCH  52  66
ATOM     66  C   UNL A   1      42.240  28.573  34.055  1.00  0.00    -0.014 A 
ATOM     67  C   UNL A   1      42.894  27.413  33.589  1.00  0.00     0.010 A 
ATOM     68  C   UNL A   1      41.738  28.538  35.372  1.00  0.00     0.010 A 
ATOM     69  C   UNL A   1      42.986  26.261  34.380  1.00  0.00     0.020 A 
ATOM     70  C   UNL A   1      41.863  27.409  36.185  1.00  0.00     0.020 A 
ATOM     71  C   UNL A   1      42.460  26.265  35.672  1.00  0.00     0.054 A 
BRANCH  71  72
ATOM     72  S   UNL A   1      42.510  24.747  36.655  1.00  0.00     0.124 S 
ATOM     73  O   UNL A   1      41.192  24.750  37.282  1.00  0.00    -0.237 OA
ATOM     74  O   UNL A   1      42.725  23.726  35.632  1.00  0.00    -0.237 OA
ATOM     75  O   UNL A   1      43.637  24.964  37.559  1.00  0.00    -0.744 OA
ENDBRANCH  71  72
ENDBRANCH  52  66
BRANCH  53  76
ATOM     76  C   UNL A   1      43.753  25.893  26.121  1.00  0.00    -0.014 A 
ATOM     77  C   UNL A   1      45.082  25.482  25.880  1.00  0.00     0.010 A 
ATOM     78  C   UNL A   1      42.734  24.948  25.891  1.00  0.00     0.010 A 
ATOM     79  C   UNL A   1      45.386  24.156  25.509  1.00  0.00     0.020 A 
ATOM     80  C   UNL A   1      43.028  23.626  25.520  1.00  0.00     0.020 A 
ATOM     81  C   UNL A   1      44.354  23.227  25.359  1.00  0.00     0.054 A 
BRANCH  81  82
ATOM     82  S   UNL A   1      44.757  21.469  25.098  1.00  0.00     0.124 S 
ATOM     83  O   UNL A   1      46.094  21.363  25.674  1.00  0.00    -0.237 OA
ATOM     84  O   UNL A   1      43.697  20.785  25.834  1.00  0.00    -0.237 OA
ATOM     85  O   UNL A   1      44.692  21.313  23.646  1.00  0.00    -0.744 OA
ENDBRANCH  81  82
ENDBRANCH  53  76
BRANCH  65  86
ATOM     86  C   UNL A   1      45.000  31.507  28.579  1.00  0.00    -0.014 A 
ATOM     87  C   UNL A   1      44.049  31.999  27.660  1.00  0.00     0.010 A 
ATOM     88  C   UNL A   1      46.290  32.065  28.561  1.00  0.00     0.010 A 
ATOM     89  C   UNL A   1      44.400  32.978  26.716  1.00  0.00     0.020 A 
ATOM     90  C   UNL A   1      46.639  33.055  27.640  1.00  0.00     0.020 A 
ATOM     91  C   UNL A   1      45.700  33.492  26.707  1.00  0.00     0.054 A 
BRANCH  91  92
ATOM     92  S   UNL A   1      46.160  34.745  25.478  1.00  0.00     0.124 S 
ATOM     93  O   UNL A   1      45.805  35.993  26.147  1.00  0.00    -0.237 OA
ATOM     94  O   UNL A   1      47.592  34.513  25.295  1.00  0.00    -0.237 OA
ATOM     95  O   UNL A   1      45.335  34.412  24.316  1.00  0.00    -0.744 OA
ENDBRANCH  91  92
ENDBRANCH  65  86
ENDBRANCH  39  40
ENDBRANCH  31  34
ENDBRANCH  29  30
ENDBRANCH  28  29
ENDBRANCH   1  28
TORSDOF 17
ENDMDL
MODEL 2
REMARK VINA RESULT:     -12.8      1.995      4.836
REMARK SMILES Cc1nccn1CCC[NH+]1CCC2(CC1)[C@@H](C(=O)NCCCNC(=O)c1ccc(-c3c4nc(c(-c5ccc(S(=O)(=O)[O-])cc5)c5ccc([nH]5)c(-c5ccc(S(=O)(=O)[O-])cc5)c5nc(c(-c6ccc(S(=O)(=O)[O-])cc6)c6ccc3[nH]6)C=C5)C=C4)cc1)CC(=O)N2C
REMARK SMILES IDX 20 1 19 2 17 3 18 4 16 6 10 7 11 8 15 9 12 11 14 12 13 13
REMARK SMILES IDX 89 14 86 15 87 16 90 17 88 18 9 19 8 20 7 21 6 22 1 23 2 24
REMARK SMILES IDX 3 25 4 26 5 27 21 28 22 29 23 30 24 31 25 33 26 34 27 35
REMARK SMILES IDX 85 36 28 37 84 38 29 39 30 40 31 41 78 42 32 43 83 44 77 45
REMARK SMILES IDX 79 46 33 47 82 48 76 49 75 50 34 52 64 53 45 54 63 55 46 56
REMARK SMILES IDX 49 57 62 58 80 59 47 60 48 61 61 63 81 64 50 65 35 66 36 67
REMARK SMILES IDX 44 68 37 69 43 70 38 71 39 72 40 73 41 74 42 75 65 76 66 77
REMARK SMILES IDX 74 78 67 79 73 80 68 81 69 82 70 83 71 84 72 85 51 86 52 87
REMARK SMILES IDX 60 88 53 89 59 90 54 91 55 92 56 93 57 94 58 95
REMARK H PARENT 19 5 10 10 23 32 79 51 49 62
REMARK Flexibility Score: inf
ROOT
ATOM      1  C   UNL A   1      31.255  27.808  26.679  1.00  0.00     0.117 C 
ENDROOT
BRANCH   1   2
ATOM      2  N   UNL A   1      30.814  26.426  26.857  1.00  0.00    -0.356 N 
ATOM      3  C   UNL A   1      30.504  25.354  26.073  1.00  0.00     0.226 C 
ATOM      4  O   UNL A   1      30.360  24.292  26.689  1.00  0.00    -0.275 OA
ATOM      5  H   UNL A   1      30.713  26.206  27.812  1.00  0.00     0.163 HD
BRANCH   3   6
ATOM      6  C   UNL A   1      30.380  25.366  24.547  1.00  0.00     0.114 C 
ATOM      7  N   UNL A   1      33.615  22.613  23.626  1.00  0.00    -0.335 N 
ATOM      8  C   UNL A   1      32.393  22.499  22.808  1.00  0.00     0.264 C 
ATOM      9  C   UNL A   1      34.021  24.017  23.645  1.00  0.00     0.264 C 
ATOM     10  H   UNL A   1      34.393  22.095  23.218  1.00  0.00     0.348 HD
ATOM     11  C   UNL A   1      31.229  23.366  23.297  1.00  0.00     0.091 C 
ATOM     12  C   UNL A   1      32.983  24.963  24.269  1.00  0.00     0.091 C 
ATOM     13  C   UNL A   1      31.572  24.833  23.654  1.00  0.00     0.065 C 
ATOM     14  N   UNL A   1      31.480  25.715  22.460  1.00  0.00    -0.339 N 
ATOM     15  C   UNL A   1      30.218  26.828  24.088  1.00  0.00     0.116 C 
ATOM     16  C   UNL A   1      30.704  26.844  22.677  1.00  0.00     0.223 C 
ATOM     17  C   UNL A   1      32.430  25.739  21.360  1.00  0.00     0.147 C 
ATOM     18  O   UNL A   1      30.514  27.759  21.883  1.00  0.00    -0.275 OA
BRANCH   7  19
ATOM     19  C   UNL A   1      33.448  21.966  24.935  1.00  0.00     0.264 C 
BRANCH  19  20
ATOM     20  C   UNL A   1      33.920  20.518  25.192  1.00  0.00     0.083 C 
BRANCH  20  21
ATOM     21  C   UNL A   1      32.957  19.313  25.182  1.00  0.00     0.129 C 
BRANCH  21  22
ATOM     22  N   UNL A   1      33.320  18.073  24.524  1.00  0.00    -0.335 N 
ATOM     23  C   UNL A   1      32.288  18.558  22.259  1.00  0.00     0.087 C 
ATOM     24  C   UNL A   1      33.102  17.757  23.197  1.00  0.00     0.105 A 
ATOM     25  N   UNL A   1      33.660  16.605  22.880  1.00  0.00    -0.242 NA
ATOM     26  C   UNL A   1      34.264  16.163  24.006  1.00  0.00     0.131 A 
ATOM     27  C   UNL A   1      34.036  17.039  25.037  1.00  0.00     0.107 A 
ENDBRANCH  21  22
ENDBRANCH  20  21
ENDBRANCH  19  20
ENDBRANCH   7  19
ENDBRANCH   3   6
ENDBRANCH   1   2
BRANCH   1  28
ATOM     28  C   UNL A   1      32.782  28.057  26.545  1.00  0.00     0.042 C 
BRANCH  28  29
ATOM     29  C   UNL A   1      33.535  28.801  27.671  1.00  0.00     0.118 C 
BRANCH  29  30
ATOM     30  N   UNL A   1      33.503  30.260  27.670  1.00  0.00    -0.352 N 
ATOM     31  C   UNL A   1      34.469  31.162  28.121  1.00  0.00     0.251 C 
ATOM     32  H   UNL A   1      32.685  30.665  27.300  1.00  0.00     0.163 HD
ATOM     33  O   UNL A   1      34.130  32.329  28.313  1.00  0.00    -0.269 OA
BRANCH  31  34
ATOM     34  C   UNL A   1      35.896  30.775  28.355  1.00  0.00     0.039 A 
ATOM     35  C   UNL A   1      36.798  31.612  29.039  1.00  0.00     0.014 A 
ATOM     36  C   UNL A   1      36.401  29.624  27.776  1.00  0.00     0.014 A 
ATOM     37  C   UNL A   1      38.155  31.244  29.180  1.00  0.00     0.010 A 
ATOM     38  C   UNL A   1      37.716  29.235  27.969  1.00  0.00     0.010 A 
ATOM     39  C   UNL A   1      38.618  30.036  28.641  1.00  0.00    -0.014 A 
BRANCH  39  40
ATOM     40  C   UNL A   1      39.973  29.502  28.873  1.00  0.00     0.031 A 
ATOM     41  C   UNL A   1      40.284  29.237  30.305  1.00  0.00     0.074 A 
ATOM     42  C   UNL A   1      40.810  29.017  27.918  1.00  0.00     0.049 A 
ATOM     43  N   UNL A   1      41.137  29.859  31.047  1.00  0.00    -0.248 NA
ATOM     44  C   UNL A   1      39.477  28.245  31.036  1.00  0.00     0.031 C 
ATOM     45  C   UNL A   1      40.559  28.881  26.476  1.00  0.00     0.029 A 
ATOM     46  N   UNL A   1      42.043  28.430  28.048  1.00  0.00    -0.354 N 
ATOM     47  C   UNL A   1      41.144  29.197  32.270  1.00  0.00     0.074 A 
ATOM     48  C   UNL A   1      39.993  28.328  32.265  1.00  0.00     0.031 C 
ATOM     49  C   UNL A   1      41.491  28.073  25.916  1.00  0.00     0.029 A 
ATOM     50  C   UNL A   1      42.501  27.757  26.909  1.00  0.00     0.049 A 
ATOM     51  H   UNL A   1      42.568  28.480  28.880  1.00  0.00     0.167 HD
ATOM     52  C   UNL A   1      42.226  29.244  33.096  1.00  0.00     0.031 A 
ATOM     53  C   UNL A   1      43.622  26.994  26.780  1.00  0.00     0.031 A 
ATOM     54  C   UNL A   1      43.161  30.264  32.688  1.00  0.00     0.049 A 
ATOM     55  C   UNL A   1      44.544  27.397  27.865  1.00  0.00     0.074 A 
ATOM     56  C   UNL A   1      43.082  31.628  32.486  1.00  0.00     0.029 A 
ATOM     57  N   UNL A   1      44.281  29.845  32.006  1.00  0.00    -0.354 N 
ATOM     58  N   UNL A   1      45.111  28.566  27.921  1.00  0.00    -0.248 NA
ATOM     59  C   UNL A   1      44.502  26.663  29.117  1.00  0.00     0.031 C 
ATOM     60  C   UNL A   1      43.851  31.868  31.309  1.00  0.00     0.029 A 
ATOM     61  C   UNL A   1      44.428  30.661  30.913  1.00  0.00     0.049 A 
ATOM     62  H   UNL A   1      44.869  29.096  32.258  1.00  0.00     0.167 HD
ATOM     63  C   UNL A   1      45.060  28.912  29.261  1.00  0.00     0.074 A 
ATOM     64  C   UNL A   1      44.781  27.659  29.962  1.00  0.00     0.031 C 
ATOM     65  C   UNL A   1      44.966  30.221  29.643  1.00  0.00     0.031 A 
BRANCH  52  66
ATOM     66  C   UNL A   1      42.626  28.128  34.026  1.00  0.00    -0.014 A 
ATOM     67  C   UNL A   1      42.786  28.407  35.399  1.00  0.00     0.010 A 
ATOM     68  C   UNL A   1      43.110  26.886  33.566  1.00  0.00     0.010 A 
ATOM     69  C   UNL A   1      43.450  27.516  36.252  1.00  0.00     0.020 A 
ATOM     70  C   UNL A   1      43.733  25.970  34.417  1.00  0.00     0.020 A 
ATOM     71  C   UNL A   1      43.927  26.305  35.750  1.00  0.00     0.054 A 
BRANCH  71  72
ATOM     72  S   UNL A   1      44.854  25.198  36.841  1.00  0.00     0.124 S 
ATOM     73  O   UNL A   1      44.706  23.914  36.162  1.00  0.00    -0.237 OA
ATOM     74  O   UNL A   1      46.192  25.783  36.807  1.00  0.00    -0.237 OA
ATOM     75  O   UNL A   1      44.158  25.317  38.119  1.00  0.00    -0.744 OA
ENDBRANCH  71  72
ENDBRANCH  52  66
BRANCH  53  76
ATOM     76  C   UNL A   1      43.894  25.793  25.942  1.00  0.00    -0.014 A 
ATOM     77  C   UNL A   1      45.214  25.406  25.619  1.00  0.00     0.010 A 
ATOM     78  C   UNL A   1      42.874  24.846  25.726  1.00  0.00     0.010 A 
ATOM     79  C   UNL A   1      45.510  24.099  25.182  1.00  0.00     0.020 A 
ATOM     80  C   UNL A   1      43.160  23.543  25.289  1.00  0.00     0.020 A 
ATOM     81  C   UNL A   1      44.481  23.165  25.047  1.00  0.00     0.054 A 
BRANCH  81  82
ATOM     82  S   UNL A   1      44.886  21.423  24.698  1.00  0.00     0.124 S 
ATOM     83  O   UNL A   1      46.289  21.341  25.090  1.00  0.00    -0.237 OA
ATOM     84  O   UNL A   1      43.948  20.698  25.553  1.00  0.00    -0.237 OA
ATOM     85  O   UNL A   1      44.632  21.291  23.264  1.00  0.00    -0.744 OA
ENDBRANCH  81  82
ENDBRANCH  53  76
BRANCH  65  86
ATOM     86  C   UNL A   1      45.237  31.290  28.604  1.00  0.00    -0.014 A 
ATOM     87  C   UNL A   1      44.281  31.770  27.684  1.00  0.00     0.010 A 
ATOM     88  C   UNL A   1      46.501  31.904  28.627  1.00  0.00     0.010 A 
ATOM     89  C   UNL A   1      44.604  32.791  26.776  1.00  0.00     0.020 A 
ATOM     90  C   UNL A   1      46.822  32.936  27.743  1.00  0.00     0.020 A 
ATOM     91  C   UNL A   1      45.880  33.361  26.807  1.00  0.00     0.054 A 
BRANCH  91  92
ATOM     92  S   UNL A   1      46.305  34.671  25.625  1.00  0.00     0.124 S 
ATOM     93  O   UNL A   1      47.719  34.417  25.362  1.00  0.00    -0.237 OA
ATOM     94  O   UNL A   1      45.400  34.408  24.507  1.00  0.00    -0.237 OA
ATOM     95  O   UNL A   1      46.026  35.906  26.358  1.00  0.00    -0.744 OA
ENDBRANCH  91  92
ENDBRANCH  65  86
ENDBRANCH  39  40
ENDBRANCH  31  34
ENDBRANCH  29  30
ENDBRANCH  28  29
ENDBRANCH   1  28
TORSDOF 17
ENDMDL
MODEL 3
REMARK VINA RESULT:     -12.4      3.038      9.280
REMARK SMILES Cc1nccn1CCC[NH+]1CCC2(CC1)[C@@H](C(=O)NCCCNC(=O)c1ccc(-c3c4nc(c(-c5ccc(S(=O)(=O)[O-])cc5)c5ccc([nH]5)c(-c5ccc(S(=O)(=O)[O-])cc5)c5nc(c(-c6ccc(S(=O)(=O)[O-])cc6)c6ccc3[nH]6)C=C5)C=C4)cc1)CC(=O)N2C
REMARK SMILES IDX 20 1 19 2 17 3 18 4 16 6 10 7 11 8 15 9 12 11 14 12 13 13
REMARK SMILES IDX 89 14 86 15 87 16 90 17 88 18 9 19 8 20 7 21 6 22 1 23 2 24
REMARK SMILES IDX 3 25 4 26 5 27 21 28 22 29 23 30 24 31 25 33 26 34 27 35
REMARK SMILES IDX 85 36 28 37 84 38 29 39 30 40 31 41 78 42 32 43 83 44 77 45
REMARK SMILES IDX 79 46 33 47 82 48 76 49 75 50 34 52 64 53 45 54 63 55 46 56
REMARK SMILES IDX 49 57 62 58 80 59 47 60 48 61 61 63 81 64 50 65 35 66 36 67
REMARK SMILES IDX 44 68 37 69 43 70 38 71 39 72 40 73 41 74 42 75 65 76 66 77
REMARK SMILES IDX 74 78 67 79 73 80 68 81 69 82 70 83 71 84 72 85 51 86 52 87
REMARK SMILES IDX 60 88 53 89 59 90 54 91 55 92 56 93 57 94 58 95
REMARK H PARENT 19 5 10 10 23 32 79 51 49 62
REMARK Flexibility Score: inf
ROOT
ATOM      1  C   UNL A   1      36.186  21.995  25.137  1.00  0.00     0.117 C 
ENDROOT
BRANCH   1   2
ATOM      2  N   UNL A   1      35.819  22.778  23.959  1.00  0.00    -0.356 N 
ATOM      3  C   UNL A   1      34.687  23.096  23.269  1.00  0.00     0.226 C 
ATOM      4  O   UNL A   1      34.837  23.976  22.414  1.00  0.00    -0.275 OA
ATOM      5  H   UNL A   1      36.612  23.192  23.547  1.00  0.00     0.163 HD
BRANCH   3   6
ATOM      6  C   UNL A   1      33.296  22.502  23.506  1.00  0.00     0.114 C 
ATOM      7  N   UNL A   1      31.396  26.009  25.236  1.00  0.00    -0.335 N 
ATOM      8  C   UNL A   1      30.579  25.198  24.313  1.00  0.00     0.264 C 
ATOM      9  C   UNL A   1      31.993  25.112  26.224  1.00  0.00     0.264 C 
ATOM     10  H   UNL A   1      30.828  26.675  25.759  1.00  0.00     0.348 HD
ATOM     11  C   UNL A   1      31.357  24.088  23.600  1.00  0.00     0.091 C 
ATOM     12  C   UNL A   1      32.928  24.049  25.625  1.00  0.00     0.091 C 
ATOM     13  C   UNL A   1      32.287  23.225  24.487  1.00  0.00     0.065 C 
ATOM     14  N   UNL A   1      31.553  22.073  25.077  1.00  0.00    -0.339 N 
ATOM     15  C   UNL A   1      33.468  21.107  24.138  1.00  0.00     0.116 C 
ATOM     16  C   UNL A   1      32.196  20.860  24.878  1.00  0.00     0.223 C 
ATOM     17  C   UNL A   1      30.577  22.161  26.150  1.00  0.00     0.147 C 
ATOM     18  O   UNL A   1      31.840  19.769  25.309  1.00  0.00    -0.275 OA
BRANCH   7  19
ATOM     19  C   UNL A   1      32.325  26.883  24.505  1.00  0.00     0.264 C 
BRANCH  19  20
ATOM     20  C   UNL A   1      33.373  27.748  25.237  1.00  0.00     0.083 C 
BRANCH  20  21
ATOM     21  C   UNL A   1      33.134  28.338  26.643  1.00  0.00     0.129 C 
BRANCH  21  22
ATOM     22  N   UNL A   1      33.796  29.557  27.063  1.00  0.00    -0.335 N 
ATOM     23  C   UNL A   1      31.837  31.141  26.774  1.00  0.00     0.087 C 
ATOM     24  C   UNL A   1      33.208  30.799  27.206  1.00  0.00     0.105 A 
ATOM     25  N   UNL A   1      34.051  31.672  27.721  1.00  0.00    -0.242 NA
ATOM     26  C   UNL A   1      35.203  30.996  27.932  1.00  0.00     0.131 A 
ATOM     27  C   UNL A   1      35.073  29.700  27.501  1.00  0.00     0.107 A 
ENDBRANCH  21  22
ENDBRANCH  20  21
ENDBRANCH  19  20
ENDBRANCH   7  19
ENDBRANCH   3   6
ENDBRANCH   1   2
BRANCH   1  28
ATOM     28  C   UNL A   1      37.643  21.461  25.212  1.00  0.00     0.042 C 
BRANCH  28  29
ATOM     29  C   UNL A   1      38.667  22.163  26.132  1.00  0.00     0.118 C 
BRANCH  29  30
ATOM     30  N   UNL A   1      40.061  21.739  26.058  1.00  0.00    -0.352 N 
ATOM     31  C   UNL A   1      41.222  22.505  26.183  1.00  0.00     0.251 C 
ATOM     32  H   UNL A   1      40.203  20.777  25.896  1.00  0.00     0.163 HD
ATOM     33  O   UNL A   1      42.282  22.021  25.789  1.00  0.00    -0.269 OA
BRANCH  31  34
ATOM     34  C   UNL A   1      41.233  23.871  26.794  1.00  0.00     0.039 A 
ATOM     35  C   UNL A   1      40.511  24.945  26.241  1.00  0.00     0.014 A 
ATOM     36  C   UNL A   1      42.075  24.143  27.858  1.00  0.00     0.014 A 
ATOM     37  C   UNL A   1      40.600  26.238  26.805  1.00  0.00     0.010 A 
ATOM     38  C   UNL A   1      42.113  25.395  28.448  1.00  0.00     0.010 A 
ATOM     39  C   UNL A   1      41.409  26.464  27.927  1.00  0.00    -0.014 A 
BRANCH  39  40
ATOM     40  C   UNL A   1      41.442  27.737  28.672  1.00  0.00     0.031 A 
ATOM     41  C   UNL A   1      42.513  28.671  28.230  1.00  0.00     0.074 A 
ATOM     42  C   UNL A   1      40.466  28.198  29.498  1.00  0.00     0.049 A 
ATOM     43  N   UNL A   1      43.555  29.036  28.898  1.00  0.00    -0.248 NA
ATOM     44  C   UNL A   1      42.493  29.173  26.845  1.00  0.00     0.031 C 
ATOM     45  C   UNL A   1      39.171  27.576  29.809  1.00  0.00     0.029 A 
ATOM     46  N   UNL A   1      40.372  29.395  30.162  1.00  0.00    -0.354 N 
ATOM     47  C   UNL A   1      44.205  29.985  28.117  1.00  0.00     0.074 A 
ATOM     48  C   UNL A   1      43.609  29.906  26.806  1.00  0.00     0.031 C 
ATOM     49  C   UNL A   1      38.354  28.477  30.406  1.00  0.00     0.029 A 
ATOM     50  C   UNL A   1      39.103  29.690  30.673  1.00  0.00     0.049 A 
ATOM     51  H   UNL A   1      41.141  30.000  30.273  1.00  0.00     0.167 HD
ATOM     52  C   UNL A   1      45.023  30.922  28.672  1.00  0.00     0.031 A 
ATOM     53  C   UNL A   1      38.687  30.842  31.270  1.00  0.00     0.031 A 
ATOM     54  C   UNL A   1      45.338  30.605  30.043  1.00  0.00     0.049 A 
ATOM     55  C   UNL A   1      39.899  31.537  31.757  1.00  0.00     0.074 A 
ATOM     56  C   UNL A   1      45.914  29.523  30.681  1.00  0.00     0.029 A 
ATOM     57  N   UNL A   1      44.653  31.297  31.016  1.00  0.00    -0.354 N 
ATOM     58  N   UNL A   1      40.646  31.078  32.719  1.00  0.00    -0.248 NA
ATOM     59  C   UNL A   1      40.529  32.518  30.892  1.00  0.00     0.031 C 
ATOM     60  C   UNL A   1      45.147  29.350  31.871  1.00  0.00     0.029 A 
ATOM     61  C   UNL A   1      44.211  30.383  31.939  1.00  0.00     0.049 A 
ATOM     62  H   UNL A   1      44.508  32.270  31.044  1.00  0.00     0.167 HD
ATOM     63  C   UNL A   1      41.942  31.333  32.303  1.00  0.00     0.074 A 
ATOM     64  C   UNL A   1      41.805  32.320  31.232  1.00  0.00     0.031 C 
ATOM     65  C   UNL A   1      42.970  30.512  32.672  1.00  0.00     0.031 A 
BRANCH  52  66
ATOM     66  C   UNL A   1      45.219  32.308  28.113  1.00  0.00    -0.014 A 
ATOM     67  C   UNL A   1      46.527  32.824  28.011  1.00  0.00     0.010 A 
ATOM     68  C   UNL A   1      44.157  33.219  27.939  1.00  0.00     0.010 A 
ATOM     69  C   UNL A   1      46.758  34.190  27.805  1.00  0.00     0.020 A 
ATOM     70  C   UNL A   1      44.376  34.576  27.688  1.00  0.00     0.020 A 
ATOM     71  C   UNL A   1      45.676  35.059  27.654  1.00  0.00     0.054 A 
BRANCH  71  72
ATOM     72  S   UNL A   1      45.983  36.833  27.470  1.00  0.00     0.124 S 
ATOM     73  O   UNL A   1      46.493  37.188  28.790  1.00  0.00    -0.237 OA
ATOM     74  O   UNL A   1      46.957  36.865  26.383  1.00  0.00    -0.237 OA
ATOM     75  O   UNL A   1      44.667  37.373  27.138  1.00  0.00    -0.744 OA
ENDBRANCH  71  72
ENDBRANCH  52  66
BRANCH  53  76
ATOM     76  C   UNL A   1      37.358  31.515  31.274  1.00  0.00    -0.014 A 
ATOM     77  C   UNL A   1      36.429  31.301  32.317  1.00  0.00     0.010 A 
ATOM     78  C   UNL A   1      37.128  32.612  30.421  1.00  0.00     0.010 A 
ATOM     79  C   UNL A   1      35.366  32.197  32.548  1.00  0.00     0.020 A 
ATOM     80  C   UNL A   1      36.070  33.508  30.644  1.00  0.00     0.020 A 
ATOM     81  C   UNL A   1      35.211  33.313  31.724  1.00  0.00     0.054 A 
BRANCH  81  82
ATOM     82  S   UNL A   1      33.978  34.586  32.154  1.00  0.00     0.124 S 
ATOM     83  O   UNL A   1      33.174  33.915  33.171  1.00  0.00    -0.237 OA
ATOM     84  O   UNL A   1      34.809  35.688  32.632  1.00  0.00    -0.237 OA
ATOM     85  O   UNL A   1      33.292  34.841  30.888  1.00  0.00    -0.744 OA
ENDBRANCH  81  82
ENDBRANCH  53  76
BRANCH  65  86
ATOM     86  C   UNL A   1      42.725  29.516  33.787  1.00  0.00    -0.014 A 
ATOM     87  C   UNL A   1      42.926  29.785  35.157  1.00  0.00     0.010 A 
ATOM     88  C   UNL A   1      42.173  28.273  33.430  1.00  0.00     0.010 A 
ATOM     89  C   UNL A   1      42.638  28.816  36.132  1.00  0.00     0.020 A 
ATOM     90  C   UNL A   1      41.863  27.313  34.395  1.00  0.00     0.020 A 
ATOM     91  C   UNL A   1      42.117  27.579  35.740  1.00  0.00     0.054 A 
BRANCH  91  92
ATOM     92  S   UNL A   1      41.759  26.320  36.996  1.00  0.00     0.124 S 
ATOM     93  O   UNL A   1      40.489  26.778  37.554  1.00  0.00    -0.237 OA
ATOM     94  O   UNL A   1      41.694  25.087  36.213  1.00  0.00    -0.237 OA
ATOM     95  O   UNL A   1      42.900  26.403  37.909  1.00  0.00    -0.744 OA
ENDBRANCH  91  92
ENDBRANCH  65  86
ENDBRANCH  39  40
ENDBRANCH  31  34
ENDBRANCH  29  30
ENDBRANCH  28  29
ENDBRANCH   1  28
TORSDOF 17
ENDMDL
