MODEL 1
REMARK VINA RESULT:     -11.7      0.000      0.000
REMARK SMILES CC(C)N(c1cc2c(cc1Cl)C=C(C(=O)NCCCNC(=O)c1ccc(-c3c4nc(c(-c5ccc(S(=O)(=O)[O-])cc5)c5ccc([nH]5)c(-c5ccc(S(=O)(=O)[O-])cc5)c5nc(c(-c6ccc(S(=O)(=O)[O-])cc6)c6ccc3[nH]6)C=C5)C=C4)cc1)[C@@H](C(F)(F)F)O2)C(C)C
REMARK SMILES IDX 18 1 17 2 16 3 14 4 15 5 13 7 5 8 6 9 10 10 7 11 9 12 11 13
REMARK SMILES IDX 8 14 88 15 12 16 83 17 4 18 2 19 1 20 3 21 89 22 90 23 91 24
REMARK SMILES IDX 84 25 85 26 86 27 87 28 19 29 20 30 21 31 22 33 23 34 24 35
REMARK SMILES IDX 82 36 25 37 81 38 26 39 27 40 28 41 75 42 29 43 80 44 74 45
REMARK SMILES IDX 76 46 30 47 79 48 73 49 72 50 31 52 61 53 42 54 60 55 43 56
REMARK SMILES IDX 46 57 59 58 77 59 44 60 45 61 58 63 78 64 47 65 32 66 33 67
REMARK SMILES IDX 41 68 34 69 40 70 35 71 36 72 37 73 38 74 39 75 62 76 63 77
REMARK SMILES IDX 71 78 64 79 70 80 65 81 66 82 67 83 68 84 69 85 48 86 49 87
REMARK SMILES IDX 57 88 50 89 56 90 51 91 52 92 53 93 54 94 55 95
REMARK H PARENT 16 6 20 32 76 51 46 62
REMARK Flexibility Score: inf
ROOT
ATOM      1  C   UNL A   1      38.355  20.108  24.851  1.00  0.00     0.042 C 
ENDROOT
BRANCH   1   2
ATOM      2  C   UNL A   1      37.057  20.794  25.250  1.00  0.00     0.118 C 
BRANCH   2   3
ATOM      3  N   UNL A   1      35.895  19.955  25.006  1.00  0.00    -0.352 N 
ATOM      4  C   UNL A   1      34.559  20.124  24.875  1.00  0.00     0.251 C 
ATOM      5  O   UNL A   1      33.922  19.091  24.640  1.00  0.00    -0.270 OA
ATOM      6  H   UNL A   1      36.148  19.008  24.911  1.00  0.00     0.163 HD
BRANCH   4   7
ATOM      7  C   UNL A   1      33.839  21.425  24.981  1.00  0.00     0.067 C 
ATOM      8  C   UNL A   1      32.056  26.101  24.175  1.00  0.00     0.060 A 
ATOM      9  C   UNL A   1      31.706  25.027  25.019  1.00  0.00     0.074 A 
ATOM     10  C   UNL A   1      33.071  25.849  23.220  1.00  0.00     0.065 A 
ATOM     11  C   UNL A   1      32.362  23.798  24.951  1.00  0.00     0.130 A 
ATOM     12  C   UNL A   1      33.683  24.588  23.114  1.00  0.00     0.034 A 
ATOM     13  Cl  UNL A   1      33.722  27.078  22.185  1.00  0.00    -0.082 Cl
ATOM     14  C   UNL A   1      33.339  23.564  23.990  1.00  0.00     0.019 A 
ATOM     15  O   UNL A   1      31.995  22.843  25.859  1.00  0.00    -0.475 OA
ATOM     16  C   UNL A   1      33.977  22.255  23.930  1.00  0.00     0.025 C 
ATOM     17  C   UNL A   1      33.027  21.861  26.169  1.00  0.00     0.314 C 
BRANCH   8  18
ATOM     18  N   UNL A   1      31.410  27.344  24.348  1.00  0.00    -0.365 N 
BRANCH  18  19
ATOM     19  C   UNL A   1      30.250  27.629  23.473  1.00  0.00     0.076 C 
ATOM     20  C   UNL A   1      28.999  26.842  23.861  1.00  0.00     0.030 C 
ATOM     21  C   UNL A   1      29.939  29.119  23.359  1.00  0.00     0.030 C 
ENDBRANCH  18  19
BRANCH  18  22
ATOM     22  C   UNL A   1      31.877  28.175  25.482  1.00  0.00     0.076 C 
ATOM     23  C   UNL A   1      31.308  27.711  26.821  1.00  0.00     0.030 C 
ATOM     24  C   UNL A   1      33.391  28.335  25.546  1.00  0.00     0.030 C 
ENDBRANCH  18  22
ENDBRANCH   8  18
BRANCH  17  25
ATOM     25  C   UNL A   1      33.910  22.380  27.325  1.00  0.00     0.429 C 
ATOM     26  F   UNL A   1      33.159  23.040  28.240  1.00  0.00    -0.167 F 
ATOM     27  F   UNL A   1      34.533  21.378  27.991  1.00  0.00    -0.167 F 
ATOM     28  F   UNL A   1      34.878  23.227  26.909  1.00  0.00    -0.167 F 
ENDBRANCH  17  25
ENDBRANCH   4   7
ENDBRANCH   2   3
ENDBRANCH   1   2
BRANCH   1  29
ATOM     29  C   UNL A   1      39.482  20.344  25.848  1.00  0.00     0.118 C 
BRANCH  29  30
ATOM     30  N   UNL A   1      40.411  19.217  25.925  1.00  0.00    -0.352 N 
ATOM     31  C   UNL A   1      41.776  19.200  26.098  1.00  0.00     0.251 C 
ATOM     32  H   UNL A   1      39.993  18.330  25.838  1.00  0.00     0.163 HD
ATOM     33  O   UNL A   1      42.392  18.146  25.959  1.00  0.00    -0.269 OA
BRANCH  31  34
ATOM     34  C   UNL A   1      42.498  20.448  26.419  1.00  0.00     0.039 A 
ATOM     35  C   UNL A   1      42.643  20.856  27.744  1.00  0.00     0.014 A 
ATOM     36  C   UNL A   1      43.011  21.236  25.384  1.00  0.00     0.014 A 
ATOM     37  C   UNL A   1      43.093  22.139  28.018  1.00  0.00     0.010 A 
ATOM     38  C   UNL A   1      43.573  22.483  25.674  1.00  0.00     0.010 A 
ATOM     39  C   UNL A   1      43.558  22.975  26.988  1.00  0.00    -0.014 A 
BRANCH  39  40
ATOM     40  C   UNL A   1      43.995  24.354  27.330  1.00  0.00     0.031 A 
ATOM     41  C   UNL A   1      45.422  24.789  27.124  1.00  0.00     0.074 A 
ATOM     42  C   UNL A   1      43.065  25.253  27.713  1.00  0.00     0.049 A 
ATOM     43  N   UNL A   1      45.939  25.985  27.248  1.00  0.00    -0.248 NA
ATOM     44  C   UNL A   1      46.395  23.757  26.731  1.00  0.00     0.031 C 
ATOM     45  C   UNL A   1      41.649  24.950  27.928  1.00  0.00     0.029 A 
ATOM     46  N   UNL A   1      43.151  26.607  27.920  1.00  0.00    -0.354 N 
ATOM     47  C   UNL A   1      47.292  25.849  26.958  1.00  0.00     0.074 A 
ATOM     48  C   UNL A   1      47.527  24.447  26.694  1.00  0.00     0.031 C 
ATOM     49  C   UNL A   1      40.982  26.093  28.130  1.00  0.00     0.029 A 
ATOM     50  C   UNL A   1      41.930  27.203  28.135  1.00  0.00     0.049 A 
ATOM     51  H   UNL A   1      44.002  27.102  27.916  1.00  0.00     0.167 HD
ATOM     52  C   UNL A   1      48.249  26.806  26.902  1.00  0.00     0.031 A 
ATOM     53  C   UNL A   1      41.597  28.499  28.302  1.00  0.00     0.031 A 
ATOM     54  C   UNL A   1      48.010  28.200  27.169  1.00  0.00     0.049 A 
ATOM     55  C   UNL A   1      42.671  29.542  28.246  1.00  0.00     0.074 A 
ATOM     56  C   UNL A   1      48.923  29.240  27.184  1.00  0.00     0.029 A 
ATOM     57  N   UNL A   1      46.769  28.752  27.450  1.00  0.00    -0.354 N 
ATOM     58  N   UNL A   1      43.952  29.384  28.015  1.00  0.00    -0.248 NA
ATOM     59  C   UNL A   1      42.263  30.935  28.471  1.00  0.00     0.031 C 
ATOM     60  C   UNL A   1      48.240  30.414  27.515  1.00  0.00     0.029 A 
ATOM     61  C   UNL A   1      46.892  30.118  27.642  1.00  0.00     0.049 A 
ATOM     62  H   UNL A   1      45.925  28.248  27.506  1.00  0.00     0.167 HD
ATOM     63  C   UNL A   1      44.506  30.658  28.062  1.00  0.00     0.074 A 
ATOM     64  C   UNL A   1      43.416  31.577  28.322  1.00  0.00     0.031 C 
ATOM     65  C   UNL A   1      45.801  31.025  27.906  1.00  0.00     0.031 A 
BRANCH  52  66
ATOM     66  C   UNL A   1      49.649  26.376  26.544  1.00  0.00    -0.014 A 
ATOM     67  C   UNL A   1      50.077  26.415  25.204  1.00  0.00     0.010 A 
ATOM     68  C   UNL A   1      50.529  25.883  27.526  1.00  0.00     0.010 A 
ATOM     69  C   UNL A   1      51.353  25.967  24.850  1.00  0.00     0.020 A 
ATOM     70  C   UNL A   1      51.816  25.461  27.181  1.00  0.00     0.020 A 
ATOM     71  C   UNL A   1      52.215  25.491  25.842  1.00  0.00     0.054 A 
BRANCH  71  72
ATOM     72  S   UNL A   1      53.885  24.954  25.378  1.00  0.00     0.124 S 
ATOM     73  O   UNL A   1      54.201  25.851  24.271  1.00  0.00    -0.237 OA
ATOM     74  O   UNL A   1      54.648  25.171  26.605  1.00  0.00    -0.237 OA
ATOM     75  O   UNL A   1      53.699  23.550  25.015  1.00  0.00    -0.744 OA
ENDBRANCH  71  72
ENDBRANCH  52  66
BRANCH  53  76
ATOM     76  C   UNL A   1      40.160  28.843  28.483  1.00  0.00    -0.014 A 
ATOM     77  C   UNL A   1      39.345  29.092  27.362  1.00  0.00     0.010 A 
ATOM     78  C   UNL A   1      39.645  29.080  29.770  1.00  0.00     0.010 A 
ATOM     79  C   UNL A   1      38.075  29.651  27.518  1.00  0.00     0.020 A 
ATOM     80  C   UNL A   1      38.361  29.612  29.931  1.00  0.00     0.020 A 
ATOM     81  C   UNL A   1      37.602  29.932  28.802  1.00  0.00     0.054 A 
BRANCH  81  82
ATOM     82  S   UNL A   1      35.998  30.762  28.978  1.00  0.00     0.124 S 
ATOM     83  O   UNL A   1      36.220  31.997  28.231  1.00  0.00    -0.237 OA
ATOM     84  O   UNL A   1      35.076  29.811  28.363  1.00  0.00    -0.237 OA
ATOM     85  O   UNL A   1      35.853  30.921  30.423  1.00  0.00    -0.744 OA
ENDBRANCH  81  82
ENDBRANCH  53  76
BRANCH  65  86
ATOM     86  C   UNL A   1      46.138  32.488  28.009  1.00  0.00    -0.014 A 
ATOM     87  C   UNL A   1      46.171  33.276  26.843  1.00  0.00     0.010 A 
ATOM     88  C   UNL A   1      46.544  33.053  29.230  1.00  0.00     0.010 A 
ATOM     89  C   UNL A   1      46.630  34.593  26.891  1.00  0.00     0.020 A 
ATOM     90  C   UNL A   1      46.981  34.379  29.286  1.00  0.00     0.020 A 
ATOM     91  C   UNL A   1      47.044  35.133  28.111  1.00  0.00     0.054 A 
BRANCH  91  92
ATOM     92  S   UNL A   1      47.664  36.837  28.151  1.00  0.00     0.124 S 
ATOM     93  O   UNL A   1      46.671  37.507  28.985  1.00  0.00    -0.237 OA
ATOM     94  O   UNL A   1      48.989  36.685  28.749  1.00  0.00    -0.237 OA
ATOM     95  O   UNL A   1      47.667  37.232  26.744  1.00  0.00    -0.744 OA
ENDBRANCH  91  92
ENDBRANCH  65  86
ENDBRANCH  39  40
ENDBRANCH  31  34
ENDBRANCH  29  30
ENDBRANCH   1  29
TORSDOF 17
ENDMDL
MODEL 2
REMARK VINA RESULT:     -11.4      6.552     11.896
REMARK SMILES CC(C)N(c1cc2c(cc1Cl)C=C(C(=O)NCCCNC(=O)c1ccc(-c3c4nc(c(-c5ccc(S(=O)(=O)[O-])cc5)c5ccc([nH]5)c(-c5ccc(S(=O)(=O)[O-])cc5)c5nc(c(-c6ccc(S(=O)(=O)[O-])cc6)c6ccc3[nH]6)C=C5)C=C4)cc1)[C@@H](C(F)(F)F)O2)C(C)C
REMARK SMILES IDX 18 1 17 2 16 3 14 4 15 5 13 7 5 8 6 9 10 10 7 11 9 12 11 13
REMARK SMILES IDX 8 14 88 15 12 16 83 17 4 18 2 19 1 20 3 21 89 22 90 23 91 24
REMARK SMILES IDX 84 25 85 26 86 27 87 28 19 29 20 30 21 31 22 33 23 34 24 35
REMARK SMILES IDX 82 36 25 37 81 38 26 39 27 40 28 41 75 42 29 43 80 44 74 45
REMARK SMILES IDX 76 46 30 47 79 48 73 49 72 50 31 52 61 53 42 54 60 55 43 56
REMARK SMILES IDX 46 57 59 58 77 59 44 60 45 61 58 63 78 64 47 65 32 66 33 67
REMARK SMILES IDX 41 68 34 69 40 70 35 71 36 72 37 73 38 74 39 75 62 76 63 77
REMARK SMILES IDX 71 78 64 79 70 80 65 81 66 82 67 83 68 84 69 85 48 86 49 87
REMARK SMILES IDX 57 88 50 89 56 90 51 91 52 92 53 93 54 94 55 95
REMARK H PARENT 16 6 20 32 76 51 46 62
REMARK Flexibility Score: inf
ROOT
ATOM      1  C   UNL A   1      31.891  31.599  26.940  1.00  0.00     0.042 C 
ENDROOT
BRANCH   1   2
ATOM      2  C   UNL A   1      32.357  30.389  26.145  1.00  0.00     0.118 C 
BRANCH   2   3
ATOM      3  N   UNL A   1      31.578  30.193  24.934  1.00  0.00    -0.352 N 
ATOM      4  C   UNL A   1      31.157  29.150  24.183  1.00  0.00     0.251 C 
ATOM      5  O   UNL A   1      30.465  29.454  23.205  1.00  0.00    -0.270 OA
ATOM      6  H   UNL A   1      31.273  31.051  24.559  1.00  0.00     0.163 HD
BRANCH   4   7
ATOM      7  C   UNL A   1      31.455  27.714  24.455  1.00  0.00     0.067 C 
ATOM      8  C   UNL A   1      33.656  23.161  24.794  1.00  0.00     0.060 A 
ATOM      9  C   UNL A   1      32.521  23.769  25.367  1.00  0.00     0.074 A 
ATOM     10  C   UNL A   1      34.491  23.993  24.009  1.00  0.00     0.065 A 
ATOM     11  C   UNL A   1      32.209  25.108  25.129  1.00  0.00     0.130 A 
ATOM     12  C   UNL A   1      34.206  25.357  23.827  1.00  0.00     0.034 A 
ATOM     13  Cl  UNL A   1      35.857  23.397  23.123  1.00  0.00    -0.082 Cl
ATOM     14  C   UNL A   1      33.055  25.914  24.376  1.00  0.00     0.019 A 
ATOM     15  O   UNL A   1      31.049  25.586  25.675  1.00  0.00    -0.475 OA
ATOM     16  C   UNL A   1      32.712  27.316  24.179  1.00  0.00     0.025 C 
ATOM     17  C   UNL A   1      30.455  26.714  24.967  1.00  0.00     0.314 C 
BRANCH   8  18
ATOM     18  N   UNL A   1      33.872  21.783  25.006  1.00  0.00    -0.365 N 
BRANCH  18  19
ATOM     19  C   UNL A   1      34.718  21.402  26.160  1.00  0.00     0.076 C 
ATOM     20  C   UNL A   1      36.209  21.635  25.915  1.00  0.00     0.030 C 
ATOM     21  C   UNL A   1      34.277  22.055  27.468  1.00  0.00     0.030 C 
ENDBRANCH  18  19
BRANCH  18  22
ATOM     22  C   UNL A   1      33.115  20.856  24.133  1.00  0.00     0.076 C 
ATOM     23  C   UNL A   1      32.224  19.902  24.925  1.00  0.00     0.030 C 
ATOM     24  C   UNL A   1      32.337  21.554  23.023  1.00  0.00     0.030 C 
ENDBRANCH  18  22
ENDBRANCH   8  18
BRANCH  17  25
ATOM     25  C   UNL A   1      29.520  26.196  23.854  1.00  0.00     0.429 C 
ATOM     26  F   UNL A   1      28.232  26.526  24.120  1.00  0.00    -0.167 F 
ATOM     27  F   UNL A   1      29.810  26.731  22.642  1.00  0.00    -0.167 F 
ATOM     28  F   UNL A   1      29.571  24.853  23.703  1.00  0.00    -0.167 F 
ENDBRANCH  17  25
ENDBRANCH   4   7
ENDBRANCH   2   3
ENDBRANCH   1   2
BRANCH   1  29
ATOM     29  C   UNL A   1      33.044  32.414  27.512  1.00  0.00     0.118 C 
BRANCH  29  30
ATOM     30  N   UNL A   1      32.687  33.816  27.733  1.00  0.00    -0.352 N 
ATOM     31  C   UNL A   1      33.195  34.733  28.623  1.00  0.00     0.251 C 
ATOM     32  H   UNL A   1      31.967  34.156  27.154  1.00  0.00     0.163 HD
ATOM     33  O   UNL A   1      32.633  35.816  28.767  1.00  0.00    -0.269 OA
BRANCH  31  34
ATOM     34  C   UNL A   1      34.394  34.405  29.422  1.00  0.00     0.039 A 
ATOM     35  C   UNL A   1      35.668  34.601  28.892  1.00  0.00     0.014 A 
ATOM     36  C   UNL A   1      34.244  33.867  30.704  1.00  0.00     0.014 A 
ATOM     37  C   UNL A   1      36.768  34.060  29.541  1.00  0.00     0.010 A 
ATOM     38  C   UNL A   1      35.370  33.428  31.408  1.00  0.00     0.010 A 
ATOM     39  C   UNL A   1      36.635  33.459  30.805  1.00  0.00    -0.014 A 
BRANCH  39  40
ATOM     40  C   UNL A   1      37.839  32.862  31.440  1.00  0.00     0.031 A 
ATOM     41  C   UNL A   1      38.322  33.336  32.786  1.00  0.00     0.074 A 
ATOM     42  C   UNL A   1      38.425  31.798  30.852  1.00  0.00     0.049 A 
ATOM     43  N   UNL A   1      39.271  32.839  33.537  1.00  0.00    -0.248 NA
ATOM     44  C   UNL A   1      37.661  34.516  33.365  1.00  0.00     0.031 C 
ATOM     45  C   UNL A   1      38.031  31.240  29.557  1.00  0.00     0.029 A 
ATOM     46  N   UNL A   1      39.418  30.959  31.288  1.00  0.00    -0.354 N 
ATOM     47  C   UNL A   1      39.328  33.646  34.667  1.00  0.00     0.074 A 
ATOM     48  C   UNL A   1      38.346  34.692  34.487  1.00  0.00     0.031 C 
ATOM     49  C   UNL A   1      38.696  30.096  29.352  1.00  0.00     0.029 A 
ATOM     50  C   UNL A   1      39.618  29.876  30.463  1.00  0.00     0.049 A 
ATOM     51  H   UNL A   1      39.937  31.116  32.109  1.00  0.00     0.167 HD
ATOM     52  C   UNL A   1      40.113  33.519  35.764  1.00  0.00     0.031 A 
ATOM     53  C   UNL A   1      40.436  28.812  30.585  1.00  0.00     0.031 A 
ATOM     54  C   UNL A   1      41.092  32.477  35.937  1.00  0.00     0.049 A 
ATOM     55  C   UNL A   1      41.306  28.694  31.800  1.00  0.00     0.074 A 
ATOM     56  C   UNL A   1      41.970  32.290  36.990  1.00  0.00     0.029 A 
ATOM     57  N   UNL A   1      41.309  31.438  35.044  1.00  0.00    -0.354 N 
ATOM     58  N   UNL A   1      41.374  29.495  32.836  1.00  0.00    -0.248 NA
ATOM     59  C   UNL A   1      42.207  27.536  31.868  1.00  0.00     0.031 C 
ATOM     60  C   UNL A   1      42.747  31.161  36.714  1.00  0.00     0.029 A 
ATOM     61  C   UNL A   1      42.308  30.607  35.521  1.00  0.00     0.049 A 
ATOM     62  H   UNL A   1      40.825  31.310  34.197  1.00  0.00     0.167 HD
ATOM     63  C   UNL A   1      42.322  28.936  33.685  1.00  0.00     0.074 A 
ATOM     64  C   UNL A   1      42.785  27.718  33.050  1.00  0.00     0.031 C 
ATOM     65  C   UNL A   1      42.767  29.399  34.879  1.00  0.00     0.031 A 
BRANCH  52  66
ATOM     66  C   UNL A   1      39.953  34.539  36.862  1.00  0.00    -0.014 A 
ATOM     67  C   UNL A   1      39.040  34.311  37.907  1.00  0.00     0.010 A 
ATOM     68  C   UNL A   1      40.670  35.751  36.835  1.00  0.00     0.010 A 
ATOM     69  C   UNL A   1      38.841  35.273  38.902  1.00  0.00     0.020 A 
ATOM     70  C   UNL A   1      40.495  36.704  37.843  1.00  0.00     0.020 A 
ATOM     71  C   UNL A   1      39.570  36.465  38.863  1.00  0.00     0.054 A 
BRANCH  71  72
ATOM     72  S   UNL A   1      39.336  37.688  40.183  1.00  0.00     0.124 S 
ATOM     73  O   UNL A   1      40.641  38.339  40.236  1.00  0.00    -0.237 OA
ATOM     74  O   UNL A   1      38.241  38.510  39.672  1.00  0.00    -0.237 OA
ATOM     75  O   UNL A   1      38.994  36.869  41.345  1.00  0.00    -0.744 OA
ENDBRANCH  71  72
ENDBRANCH  52  66
BRANCH  53  76
ATOM     76  C   UNL A   1      40.402  27.767  29.525  1.00  0.00    -0.014 A 
ATOM     77  C   UNL A   1      39.399  26.778  29.539  1.00  0.00     0.010 A 
ATOM     78  C   UNL A   1      41.455  27.661  28.600  1.00  0.00     0.010 A 
ATOM     79  C   UNL A   1      39.495  25.660  28.708  1.00  0.00     0.020 A 
ATOM     80  C   UNL A   1      41.538  26.556  27.746  1.00  0.00     0.020 A 
ATOM     81  C   UNL A   1      40.579  25.544  27.835  1.00  0.00     0.054 A 
BRANCH  81  82
ATOM     82  S   UNL A   1      40.744  24.031  26.847  1.00  0.00     0.124 S 
ATOM     83  O   UNL A   1      39.422  23.933  26.233  1.00  0.00    -0.237 OA
ATOM     84  O   UNL A   1      41.837  24.360  25.937  1.00  0.00    -0.237 OA
ATOM     85  O   UNL A   1      41.050  23.006  27.841  1.00  0.00    -0.744 OA
ENDBRANCH  81  82
ENDBRANCH  53  76
BRANCH  65  86
ATOM     86  C   UNL A   1      43.814  28.594  35.602  1.00  0.00    -0.014 A 
ATOM     87  C   UNL A   1      45.172  28.777  35.282  1.00  0.00     0.010 A 
ATOM     88  C   UNL A   1      43.451  27.575  36.498  1.00  0.00     0.010 A 
ATOM     89  C   UNL A   1      46.147  27.937  35.824  1.00  0.00     0.020 A 
ATOM     90  C   UNL A   1      44.427  26.748  37.061  1.00  0.00     0.020 A 
ATOM     91  C   UNL A   1      45.766  26.919  36.701  1.00  0.00     0.054 A 
BRANCH  91  92
ATOM     92  S   UNL A   1      47.042  25.818  37.374  1.00  0.00     0.124 S 
ATOM     93  O   UNL A   1      46.273  24.621  37.700  1.00  0.00    -0.237 OA
ATOM     94  O   UNL A   1      47.974  25.684  36.257  1.00  0.00    -0.237 OA
ATOM     95  O   UNL A   1      47.561  26.560  38.522  1.00  0.00    -0.744 OA
ENDBRANCH  91  92
ENDBRANCH  65  86
ENDBRANCH  39  40
ENDBRANCH  31  34
ENDBRANCH  29  30
ENDBRANCH   1  29
TORSDOF 17
ENDMDL
MODEL 3
REMARK VINA RESULT:     -11.3      6.628     11.962
REMARK SMILES CC(C)N(c1cc2c(cc1Cl)C=C(C(=O)NCCCNC(=O)c1ccc(-c3c4nc(c(-c5ccc(S(=O)(=O)[O-])cc5)c5ccc([nH]5)c(-c5ccc(S(=O)(=O)[O-])cc5)c5nc(c(-c6ccc(S(=O)(=O)[O-])cc6)c6ccc3[nH]6)C=C5)C=C4)cc1)[C@@H](C(F)(F)F)O2)C(C)C
REMARK SMILES IDX 18 1 17 2 16 3 14 4 15 5 13 7 5 8 6 9 10 10 7 11 9 12 11 13
REMARK SMILES IDX 8 14 88 15 12 16 83 17 4 18 2 19 1 20 3 21 89 22 90 23 91 24
REMARK SMILES IDX 84 25 85 26 86 27 87 28 19 29 20 30 21 31 22 33 23 34 24 35
REMARK SMILES IDX 82 36 25 37 81 38 26 39 27 40 28 41 75 42 29 43 80 44 74 45
REMARK SMILES IDX 76 46 30 47 79 48 73 49 72 50 31 52 61 53 42 54 60 55 43 56
REMARK SMILES IDX 46 57 59 58 77 59 44 60 45 61 58 63 78 64 47 65 32 66 33 67
REMARK SMILES IDX 41 68 34 69 40 70 35 71 36 72 37 73 38 74 39 75 62 76 63 77
REMARK SMILES IDX 71 78 64 79 70 80 65 81 66 82 67 83 68 84 69 85 48 86 49 87
REMARK SMILES IDX 57 88 50 89 56 90 51 91 52 92 53 93 54 94 55 95
REMARK H PARENT 16 6 20 32 76 51 46 62
REMARK Flexibility Score: inf
ROOT
ATOM      1  C   UNL A   1      31.774  31.808  27.210  1.00  0.00     0.042 C 
ENDROOT
BRANCH   1   2
ATOM      2  C   UNL A   1      32.133  30.489  26.542  1.00  0.00     0.118 C 
BRANCH   2   3
ATOM      3  N   UNL A   1      31.415  30.291  25.294  1.00  0.00    -0.352 N 
ATOM      4  C   UNL A   1      31.162  29.268  24.446  1.00  0.00     0.251 C 
ATOM      5  O   UNL A   1      30.454  29.556  23.475  1.00  0.00    -0.270 OA
ATOM      6  H   UNL A   1      31.000  31.128  24.981  1.00  0.00     0.163 HD
BRANCH   4   7
ATOM      7  C   UNL A   1      31.653  27.870  24.610  1.00  0.00     0.067 C 
ATOM      8  C   UNL A   1      32.031  22.903  25.549  1.00  0.00     0.060 A 
ATOM      9  C   UNL A   1      32.827  23.860  24.887  1.00  0.00     0.074 A 
ATOM     10  C   UNL A   1      30.756  23.335  25.988  1.00  0.00     0.065 A 
ATOM     11  C   UNL A   1      32.401  25.179  24.722  1.00  0.00     0.130 A 
ATOM     12  C   UNL A   1      30.307  24.648  25.760  1.00  0.00     0.034 A 
ATOM     13  Cl  UNL A   1      29.691  22.341  26.928  1.00  0.00    -0.082 Cl
ATOM     14  C   UNL A   1      31.136  25.576  25.139  1.00  0.00     0.019 A 
ATOM     15  O   UNL A   1      33.275  26.048  24.128  1.00  0.00    -0.475 OA
ATOM     16  C   UNL A   1      30.715  26.954  24.916  1.00  0.00     0.025 C 
ATOM     17  C   UNL A   1      33.092  27.447  24.491  1.00  0.00     0.314 C 
BRANCH   8  18
ATOM     18  N   UNL A   1      32.551  21.608  25.756  1.00  0.00    -0.365 N 
BRANCH  18  19
ATOM     19  C   UNL A   1      32.122  20.549  24.815  1.00  0.00     0.076 C 
ATOM     20  C   UNL A   1      32.474  20.859  23.360  1.00  0.00     0.030 C 
ATOM     21  C   UNL A   1      32.620  19.160  25.208  1.00  0.00     0.030 C 
ENDBRANCH  18  19
BRANCH  18  22
ATOM     22  C   UNL A   1      33.583  21.475  26.811  1.00  0.00     0.076 C 
ATOM     23  C   UNL A   1      34.996  21.702  26.280  1.00  0.00     0.030 C 
ATOM     24  C   UNL A   1      33.310  22.323  28.048  1.00  0.00     0.030 C 
ENDBRANCH  18  22
ENDBRANCH   8  18
BRANCH  17  25
ATOM     25  C   UNL A   1      33.903  27.766  25.765  1.00  0.00     0.429 C 
ATOM     26  F   UNL A   1      34.575  28.935  25.624  1.00  0.00    -0.167 F 
ATOM     27  F   UNL A   1      33.117  27.906  26.860  1.00  0.00    -0.167 F 
ATOM     28  F   UNL A   1      34.812  26.811  26.065  1.00  0.00    -0.167 F 
ENDBRANCH  17  25
ENDBRANCH   4   7
ENDBRANCH   2   3
ENDBRANCH   1   2
BRANCH   1  29
ATOM     29  C   UNL A   1      32.984  32.702  27.448  1.00  0.00     0.118 C 
BRANCH  29  30
ATOM     30  N   UNL A   1      32.613  34.087  27.738  1.00  0.00    -0.352 N 
ATOM     31  C   UNL A   1      33.105  34.961  28.679  1.00  0.00     0.251 C 
ATOM     32  H   UNL A   1      31.895  34.450  27.171  1.00  0.00     0.163 HD
ATOM     33  O   UNL A   1      32.531  36.030  28.874  1.00  0.00    -0.269 OA
BRANCH  31  34
ATOM     34  C   UNL A   1      34.299  34.602  29.471  1.00  0.00     0.039 A 
ATOM     35  C   UNL A   1      35.575  34.775  28.938  1.00  0.00     0.014 A 
ATOM     36  C   UNL A   1      34.143  34.058  30.751  1.00  0.00     0.014 A 
ATOM     37  C   UNL A   1      36.666  34.206  29.578  1.00  0.00     0.010 A 
ATOM     38  C   UNL A   1      35.262  33.591  31.447  1.00  0.00     0.010 A 
ATOM     39  C   UNL A   1      36.526  33.600  30.839  1.00  0.00    -0.014 A 
BRANCH  39  40
ATOM     40  C   UNL A   1      37.719  32.972  31.465  1.00  0.00     0.031 A 
ATOM     41  C   UNL A   1      38.213  33.423  32.815  1.00  0.00     0.074 A 
ATOM     42  C   UNL A   1      38.283  31.904  30.864  1.00  0.00     0.049 A 
ATOM     43  N   UNL A   1      39.154  32.900  33.558  1.00  0.00    -0.248 NA
ATOM     44  C   UNL A   1      37.576  34.609  33.408  1.00  0.00     0.031 C 
ATOM     45  C   UNL A   1      37.876  31.368  29.564  1.00  0.00     0.029 A 
ATOM     46  N   UNL A   1      39.261  31.042  31.289  1.00  0.00    -0.354 N 
ATOM     47  C   UNL A   1      39.228  33.693  34.697  1.00  0.00     0.074 A 
ATOM     48  C   UNL A   1      38.266  34.760  34.530  1.00  0.00     0.031 C 
ATOM     49  C   UNL A   1      38.520  30.214  29.346  1.00  0.00     0.029 A 
ATOM     50  C   UNL A   1      39.439  29.965  30.452  1.00  0.00     0.049 A 
ATOM     51  H   UNL A   1      39.785  31.181  32.111  1.00  0.00     0.167 HD
ATOM     52  C   UNL A   1      40.013  33.540  35.790  1.00  0.00     0.031 A 
ATOM     53  C   UNL A   1      40.237  28.884  30.560  1.00  0.00     0.031 A 
ATOM     54  C   UNL A   1      40.972  32.477  35.950  1.00  0.00     0.049 A 
ATOM     55  C   UNL A   1      41.107  28.736  31.772  1.00  0.00     0.074 A 
ATOM     56  C   UNL A   1      41.848  32.263  36.999  1.00  0.00     0.029 A 
ATOM     57  N   UNL A   1      41.168  31.444  35.046  1.00  0.00    -0.354 N 
ATOM     58  N   UNL A   1      41.192  29.524  32.817  1.00  0.00    -0.248 NA
ATOM     59  C   UNL A   1      41.985  27.561  31.826  1.00  0.00     0.031 C 
ATOM     60  C   UNL A   1      42.603  31.122  36.710  1.00  0.00     0.029 A 
ATOM     61  C   UNL A   1      42.152  30.589  35.512  1.00  0.00     0.049 A 
ATOM     62  H   UNL A   1      40.680  31.335  34.198  1.00  0.00     0.167 HD
ATOM     63  C   UNL A   1      42.131  28.939  33.658  1.00  0.00     0.074 A 
ATOM     64  C   UNL A   1      42.569  27.719  33.009  1.00  0.00     0.031 C 
ATOM     65  C   UNL A   1      42.587  29.380  34.856  1.00  0.00     0.031 A 
BRANCH  52  66
ATOM     66  C   UNL A   1      39.875  34.551  36.900  1.00  0.00    -0.014 A 
ATOM     67  C   UNL A   1      38.976  34.318  37.957  1.00  0.00     0.010 A 
ATOM     68  C   UNL A   1      40.596  35.759  36.873  1.00  0.00     0.010 A 
ATOM     69  C   UNL A   1      38.796  35.272  38.963  1.00  0.00     0.020 A 
ATOM     70  C   UNL A   1      40.442  36.704  37.892  1.00  0.00     0.020 A 
ATOM     71  C   UNL A   1      39.531  36.460  38.923  1.00  0.00     0.054 A 
BRANCH  71  72
ATOM     72  S   UNL A   1      39.322  37.673  40.258  1.00  0.00     0.124 S 
ATOM     73  O   UNL A   1      39.221  36.819  41.437  1.00  0.00    -0.237 OA
ATOM     74  O   UNL A   1      40.541  38.473  40.161  1.00  0.00    -0.237 OA
ATOM     75  O   UNL A   1      38.097  38.378  39.885  1.00  0.00    -0.744 OA
ENDBRANCH  71  72
ENDBRANCH  52  66
BRANCH  53  76
ATOM     76  C   UNL A   1      40.181  27.851  29.490  1.00  0.00    -0.014 A 
ATOM     77  C   UNL A   1      39.251  26.796  29.572  1.00  0.00     0.010 A 
ATOM     78  C   UNL A   1      41.155  27.828  28.476  1.00  0.00     0.010 A 
ATOM     79  C   UNL A   1      39.349  25.697  28.717  1.00  0.00     0.020 A 
ATOM     80  C   UNL A   1      41.237  26.741  27.599  1.00  0.00     0.020 A 
ATOM     81  C   UNL A   1      40.359  25.665  27.752  1.00  0.00     0.054 A 
BRANCH  81  82
ATOM     82  S   UNL A   1      40.538  24.179  26.727  1.00  0.00     0.124 S 
ATOM     83  O   UNL A   1      39.218  24.084  26.108  1.00  0.00    -0.237 OA
ATOM     84  O   UNL A   1      41.631  24.539  25.828  1.00  0.00    -0.237 OA
ATOM     85  O   UNL A   1      40.851  23.132  27.697  1.00  0.00    -0.744 OA
ENDBRANCH  81  82
ENDBRANCH  53  76
BRANCH  65  86
ATOM     86  C   UNL A   1      43.620  28.548  35.568  1.00  0.00    -0.014 A 
ATOM     87  C   UNL A   1      43.207  27.572  36.494  1.00  0.00     0.010 A 
ATOM     88  C   UNL A   1      44.991  28.816  35.418  1.00  0.00     0.010 A 
ATOM     89  C   UNL A   1      44.144  26.899  37.278  1.00  0.00     0.020 A 
ATOM     90  C   UNL A   1      45.934  28.125  36.184  1.00  0.00     0.020 A 
ATOM     91  C   UNL A   1      45.503  27.188  37.126  1.00  0.00     0.054 A 
BRANCH  91  92
ATOM     92  S   UNL A   1      46.706  26.324  38.174  1.00  0.00     0.124 S 
ATOM     93  O   UNL A   1      47.753  25.977  37.217  1.00  0.00    -0.237 OA
ATOM     94  O   UNL A   1      47.066  27.342  39.159  1.00  0.00    -0.237 OA
ATOM     95  O   UNL A   1      45.946  25.195  38.706  1.00  0.00    -0.744 OA
ENDBRANCH  91  92
ENDBRANCH  65  86
ENDBRANCH  39  40
ENDBRANCH  31  34
ENDBRANCH  29  30
ENDBRANCH   1  29
TORSDOF 17
ENDMDL
