MODEL 1
REMARK VINA RESULT:     -11.5      0.000      0.000
REMARK SMILES C[C@@H]1CN(C(=O)NC[C@@H]2CCC[C@@H]2C(=O)NCCCNC(=O)c2ccc(-c3c4nc(c(-c5ccc(S(=O)(=O)[O-])cc5)c5ccc([nH]5)c(-c5ccc(S(=O)(=O)[O-])cc5)c5nc(c(-c6ccc(S(=O)(=O)[O-])cc6)c6ccc3[nH]6)C=C5)C=C4)cc2)C[C@@H]1C
REMARK SMILES IDX 18 1 17 2 16 3 14 4 15 5 13 7 9 8 10 9 11 10 12 11 8 12 7 13
REMARK SMILES IDX 5 14 6 15 4 17 1 18 2 19 3 20 84 21 83 22 85 23 19 24 20 25
REMARK SMILES IDX 21 26 22 28 23 29 24 30 82 31 25 32 81 33 26 34 27 35 28 36
REMARK SMILES IDX 75 37 29 38 80 39 74 40 76 41 30 42 79 43 73 44 72 45 31 47
REMARK SMILES IDX 61 48 42 49 60 50 43 51 46 52 59 53 77 54 44 55 45 56 58 58
REMARK SMILES IDX 78 59 47 60 32 61 33 62 41 63 34 64 40 65 35 66 36 67 37 68
REMARK SMILES IDX 38 69 39 70 62 71 63 72 71 73 64 74 70 75 65 76 66 77 67 78
REMARK SMILES IDX 68 79 69 80 48 81 49 82 57 83 50 84 56 85 51 86 52 87 53 88
REMARK SMILES IDX 54 89 55 90
REMARK H PARENT 16 6 7 16 20 27 76 46 46 57
REMARK Flexibility Score: inf
ROOT
ATOM      1  C   UNL A   1      33.365  28.629  25.801  1.00  0.00     0.042 C 
ENDROOT
BRANCH   1   2
ATOM      2  C   UNL A   1      32.907  29.618  24.707  1.00  0.00     0.117 C 
BRANCH   2   3
ATOM      3  N   UNL A   1      32.411  29.108  23.450  1.00  0.00    -0.356 N 
ATOM      4  C   UNL A   1      31.127  28.917  22.967  1.00  0.00     0.223 C 
ATOM      5  O   UNL A   1      30.749  29.235  21.841  1.00  0.00    -0.275 OA
ATOM      6  H   UNL A   1      33.119  28.847  22.817  1.00  0.00     0.163 HD
BRANCH   4   7
ATOM      7  C   UNL A   1      30.241  28.096  23.826  1.00  0.00     0.083 C 
ATOM      8  C   UNL A   1      30.841  26.704  23.881  1.00  0.00     0.021 C 
ATOM      9  C   UNL A   1      29.676  25.966  24.575  1.00  0.00     0.006 C 
ATOM     10  C   UNL A   1      28.410  26.497  23.905  1.00  0.00     0.001 C 
ATOM     11  C   UNL A   1      28.826  27.831  23.279  1.00  0.00     0.014 C 
BRANCH   8  12
ATOM     12  C   UNL A   1      31.267  26.035  22.520  1.00  0.00     0.122 C 
BRANCH  12  13
ATOM     13  N   UNL A   1      32.301  24.971  22.147  1.00  0.00    -0.338 N 
ATOM     14  C   UNL A   1      33.214  23.988  22.261  1.00  0.00     0.317 C 
ATOM     15  O   UNL A   1      33.353  23.375  21.189  1.00  0.00    -0.249 OA
ATOM     16  H   UNL A   1      32.293  25.072  21.168  1.00  0.00     0.165 HD
BRANCH  14  17
ATOM     17  N   UNL A   1      33.893  23.536  23.383  1.00  0.00    -0.324 N 
ATOM     18  C   UNL A   1      34.885  21.427  25.913  1.00  0.00     0.010 C 
ATOM     19  C   UNL A   1      34.043  22.686  25.672  1.00  0.00     0.010 C 
ATOM     20  C   UNL A   1      33.228  22.637  24.364  1.00  0.00     0.125 C 
ATOM     21  C   UNL A   1      34.833  24.000  25.585  1.00  0.00     0.010 C 
ATOM     22  C   UNL A   1      34.354  24.631  24.269  1.00  0.00     0.125 C 
ATOM     23  C   UNL A   1      36.350  23.882  25.689  1.00  0.00     0.010 C 
ENDBRANCH  14  17
ENDBRANCH  12  13
ENDBRANCH   8  12
ENDBRANCH   4   7
ENDBRANCH   2   3
ENDBRANCH   1   2
BRANCH   1  24
ATOM     24  C   UNL A   1      33.236  28.872  27.311  1.00  0.00     0.118 C 
BRANCH  24  25
ATOM     25  N   UNL A   1      33.407  30.221  27.807  1.00  0.00    -0.352 N 
ATOM     26  C   UNL A   1      34.556  30.894  28.174  1.00  0.00     0.251 C 
ATOM     27  H   UNL A   1      32.575  30.739  27.896  1.00  0.00     0.163 HD
ATOM     28  O   UNL A   1      34.542  32.105  28.389  1.00  0.00    -0.269 OA
BRANCH  26  29
ATOM     29  C   UNL A   1      35.816  30.164  28.394  1.00  0.00     0.039 A 
ATOM     30  C   UNL A   1      36.710  30.064  27.324  1.00  0.00     0.014 A 
ATOM     31  C   UNL A   1      36.127  29.604  29.633  1.00  0.00     0.014 A 
ATOM     32  C   UNL A   1      37.979  29.524  27.535  1.00  0.00     0.010 A 
ATOM     33  C   UNL A   1      37.413  29.106  29.854  1.00  0.00     0.010 A 
ATOM     34  C   UNL A   1      38.364  29.109  28.819  1.00  0.00    -0.014 A 
BRANCH  34  35
ATOM     35  C   UNL A   1      39.788  28.810  29.123  1.00  0.00     0.031 A 
ATOM     36  C   UNL A   1      40.698  29.852  29.707  1.00  0.00     0.074 A 
ATOM     37  C   UNL A   1      40.278  27.600  28.785  1.00  0.00     0.049 A 
ATOM     38  N   UNL A   1      41.979  29.770  29.963  1.00  0.00    -0.248 NA
ATOM     39  C   UNL A   1      40.098  31.154  30.028  1.00  0.00     0.031 C 
ATOM     40  C   UNL A   1      39.503  26.513  28.177  1.00  0.00     0.029 A 
ATOM     41  N   UNL A   1      41.544  27.079  28.894  1.00  0.00    -0.354 N 
ATOM     42  C   UNL A   1      42.344  31.011  30.469  1.00  0.00     0.074 A 
ATOM     43  C   UNL A   1      41.154  31.839  30.449  1.00  0.00     0.031 C 
ATOM     44  C   UNL A   1      40.303  25.453  27.986  1.00  0.00     0.029 A 
ATOM     45  C   UNL A   1      41.655  25.794  28.415  1.00  0.00     0.049 A 
ATOM     46  H   UNL A   1      42.300  27.578  29.277  1.00  0.00     0.167 HD
ATOM     47  C   UNL A   1      43.556  31.421  30.916  1.00  0.00     0.031 A 
ATOM     48  C   UNL A   1      42.725  24.980  28.318  1.00  0.00     0.031 A 
ATOM     49  C   UNL A   1      44.738  30.597  30.930  1.00  0.00     0.049 A 
ATOM     50  C   UNL A   1      44.062  25.468  28.798  1.00  0.00     0.074 A 
ATOM     51  C   UNL A   1      45.999  30.911  31.406  1.00  0.00     0.029 A 
ATOM     52  N   UNL A   1      44.809  29.303  30.437  1.00  0.00    -0.354 N 
ATOM     53  N   UNL A   1      44.374  26.626  29.328  1.00  0.00    -0.248 NA
ATOM     54  C   UNL A   1      45.192  24.537  28.672  1.00  0.00     0.031 C 
ATOM     55  C   UNL A   1      46.845  29.824  31.159  1.00  0.00     0.029 A 
ATOM     56  C   UNL A   1      46.097  28.813  30.575  1.00  0.00     0.049 A 
ATOM     57  H   UNL A   1      44.055  28.805  30.046  1.00  0.00     0.167 HD
ATOM     58  C   UNL A   1      45.731  26.557  29.618  1.00  0.00     0.074 A 
ATOM     59  C   UNL A   1      46.179  25.238  29.217  1.00  0.00     0.031 C 
ATOM     60  C   UNL A   1      46.532  27.501  30.168  1.00  0.00     0.031 A 
BRANCH  47  61
ATOM     61  C   UNL A   1      43.667  32.834  31.424  1.00  0.00    -0.014 A 
ATOM     62  C   UNL A   1      44.097  33.875  30.580  1.00  0.00     0.010 A 
ATOM     63  C   UNL A   1      43.301  33.135  32.749  1.00  0.00     0.010 A 
ATOM     64  C   UNL A   1      44.200  35.182  31.065  1.00  0.00     0.020 A 
ATOM     65  C   UNL A   1      43.379  34.445  33.230  1.00  0.00     0.020 A 
ATOM     66  C   UNL A   1      43.846  35.457  32.389  1.00  0.00     0.054 A 
BRANCH  66  67
ATOM     67  S   UNL A   1      43.980  37.165  32.989  1.00  0.00     0.124 S 
ATOM     68  O   UNL A   1      45.308  37.164  33.597  1.00  0.00    -0.237 OA
ATOM     69  O   UNL A   1      43.853  37.947  31.762  1.00  0.00    -0.237 OA
ATOM     70  O   UNL A   1      42.867  37.292  33.924  1.00  0.00    -0.744 OA
ENDBRANCH  66  67
ENDBRANCH  47  61
BRANCH  48  71
ATOM     71  C   UNL A   1      42.569  23.617  27.745  1.00  0.00    -0.014 A 
ATOM     72  C   UNL A   1      42.734  23.401  26.366  1.00  0.00     0.010 A 
ATOM     73  C   UNL A   1      42.276  22.522  28.579  1.00  0.00     0.010 A 
ATOM     74  C   UNL A   1      42.597  22.118  25.829  1.00  0.00     0.020 A 
ATOM     75  C   UNL A   1      42.163  21.234  28.050  1.00  0.00     0.020 A 
ATOM     76  C   UNL A   1      42.315  21.042  26.674  1.00  0.00     0.054 A 
BRANCH  76  77
ATOM     77  S   UNL A   1      42.203  19.371  25.973  1.00  0.00     0.124 S 
ATOM     78  O   UNL A   1      42.720  18.550  27.070  1.00  0.00    -0.237 OA
ATOM     79  O   UNL A   1      40.766  19.236  25.714  1.00  0.00    -0.237 OA
ATOM     80  O   UNL A   1      43.037  19.438  24.789  1.00  0.00    -0.744 OA
ENDBRANCH  76  77
ENDBRANCH  48  71
BRANCH  60  81
ATOM     81  C   UNL A   1      47.975  27.139  30.391  1.00  0.00    -0.014 A 
ATOM     82  C   UNL A   1      48.974  27.547  29.489  1.00  0.00     0.010 A 
ATOM     83  C   UNL A   1      48.345  26.433  31.551  1.00  0.00     0.010 A 
ATOM     84  C   UNL A   1      50.315  27.239  29.734  1.00  0.00     0.020 A 
ATOM     85  C   UNL A   1      49.686  26.144  31.811  1.00  0.00     0.020 A 
ATOM     86  C   UNL A   1      50.663  26.540  30.894  1.00  0.00     0.054 A 
BRANCH  86  87
ATOM     87  S   UNL A   1      52.415  26.205  31.220  1.00  0.00     0.124 S 
ATOM     88  O   UNL A   1      52.806  27.370  32.009  1.00  0.00    -0.237 OA
ATOM     89  O   UNL A   1      52.371  24.939  31.947  1.00  0.00    -0.237 OA
ATOM     90  O   UNL A   1      53.008  26.129  29.886  1.00  0.00    -0.744 OA
ENDBRANCH  86  87
ENDBRANCH  60  81
ENDBRANCH  34  35
ENDBRANCH  26  29
ENDBRANCH  24  25
ENDBRANCH   1  24
TORSDOF 16
ENDMDL
MODEL 2
REMARK VINA RESULT:     -10.7      2.942      3.751
REMARK SMILES C[C@@H]1CN(C(=O)NC[C@@H]2CCC[C@@H]2C(=O)NCCCNC(=O)c2ccc(-c3c4nc(c(-c5ccc(S(=O)(=O)[O-])cc5)c5ccc([nH]5)c(-c5ccc(S(=O)(=O)[O-])cc5)c5nc(c(-c6ccc(S(=O)(=O)[O-])cc6)c6ccc3[nH]6)C=C5)C=C4)cc2)C[C@@H]1C
REMARK SMILES IDX 18 1 17 2 16 3 14 4 15 5 13 7 9 8 10 9 11 10 12 11 8 12 7 13
REMARK SMILES IDX 5 14 6 15 4 17 1 18 2 19 3 20 84 21 83 22 85 23 19 24 20 25
REMARK SMILES IDX 21 26 22 28 23 29 24 30 82 31 25 32 81 33 26 34 27 35 28 36
REMARK SMILES IDX 75 37 29 38 80 39 74 40 76 41 30 42 79 43 73 44 72 45 31 47
REMARK SMILES IDX 61 48 42 49 60 50 43 51 46 52 59 53 77 54 44 55 45 56 58 58
REMARK SMILES IDX 78 59 47 60 32 61 33 62 41 63 34 64 40 65 35 66 36 67 37 68
REMARK SMILES IDX 38 69 39 70 62 71 63 72 71 73 64 74 70 75 65 76 66 77 67 78
REMARK SMILES IDX 68 79 69 80 48 81 49 82 57 83 50 84 56 85 51 86 52 87 53 88
REMARK SMILES IDX 54 89 55 90
REMARK H PARENT 16 6 7 16 20 27 76 46 46 57
REMARK Flexibility Score: inf
ROOT
ATOM      1  C   UNL A   1      34.545  30.849  27.574  1.00  0.00     0.042 C 
ENDROOT
BRANCH   1   2
ATOM      2  C   UNL A   1      34.114  29.421  27.170  1.00  0.00     0.117 C 
BRANCH   2   3
ATOM      3  N   UNL A   1      33.759  29.147  25.796  1.00  0.00    -0.356 N 
ATOM      4  C   UNL A   1      32.581  28.712  25.211  1.00  0.00     0.223 C 
ATOM      5  O   UNL A   1      32.087  29.193  24.194  1.00  0.00    -0.275 OA
ATOM      6  H   UNL A   1      34.492  29.298  25.156  1.00  0.00     0.163 HD
BRANCH   4   7
ATOM      7  C   UNL A   1      32.022  27.457  25.768  1.00  0.00     0.083 C 
ATOM      8  C   UNL A   1      33.025  26.357  25.481  1.00  0.00     0.021 C 
ATOM      9  C   UNL A   1      32.169  25.137  25.886  1.00  0.00     0.006 C 
ATOM     10  C   UNL A   1      30.780  25.415  25.312  1.00  0.00     0.001 C 
ATOM     11  C   UNL A   1      30.742  26.930  25.092  1.00  0.00     0.014 C 
BRANCH   8  12
ATOM     12  C   UNL A   1      33.595  26.248  24.017  1.00  0.00     0.122 C 
BRANCH  12  13
ATOM     13  N   UNL A   1      33.649  25.117  22.988  1.00  0.00    -0.338 N 
ATOM     14  C   UNL A   1      33.590  23.886  22.445  1.00  0.00     0.317 C 
ATOM     15  O   UNL A   1      33.451  23.944  21.211  1.00  0.00    -0.249 OA
ATOM     16  H   UNL A   1      33.885  25.637  22.186  1.00  0.00     0.165 HD
BRANCH  14  17
ATOM     17  N   UNL A   1      33.558  22.645  23.064  1.00  0.00    -0.324 N 
ATOM     18  C   UNL A   1      32.435  19.517  23.948  1.00  0.00     0.010 C 
ATOM     19  C   UNL A   1      32.586  20.934  24.516  1.00  0.00     0.010 C 
ATOM     20  C   UNL A   1      32.268  22.042  23.491  1.00  0.00     0.125 C 
ATOM     21  C   UNL A   1      33.983  21.287  25.045  1.00  0.00     0.010 C 
ATOM     22  C   UNL A   1      34.324  22.605  24.333  1.00  0.00     0.125 C 
ATOM     23  C   UNL A   1      35.054  20.213  24.885  1.00  0.00     0.010 C 
ENDBRANCH  14  17
ENDBRANCH  12  13
ENDBRANCH   8  12
ENDBRANCH   4   7
ENDBRANCH   2   3
ENDBRANCH   1   2
BRANCH   1  24
ATOM     24  C   UNL A   1      35.627  31.176  28.611  1.00  0.00     0.118 C 
BRANCH  24  25
ATOM     25  N   UNL A   1      35.594  30.484  29.881  1.00  0.00    -0.352 N 
ATOM     26  C   UNL A   1      36.628  30.119  30.721  1.00  0.00     0.251 C 
ATOM     27  H   UNL A   1      34.695  30.234  30.195  1.00  0.00     0.163 HD
ATOM     28  O   UNL A   1      36.407  29.709  31.859  1.00  0.00    -0.269 OA
BRANCH  26  29
ATOM     29  C   UNL A   1      38.022  30.139  30.249  1.00  0.00     0.039 A 
ATOM     30  C   UNL A   1      39.040  30.076  31.205  1.00  0.00     0.014 A 
ATOM     31  C   UNL A   1      38.330  30.200  28.890  1.00  0.00     0.014 A 
ATOM     32  C   UNL A   1      40.365  29.930  30.793  1.00  0.00     0.010 A 
ATOM     33  C   UNL A   1      39.651  30.007  28.479  1.00  0.00     0.010 A 
ATOM     34  C   UNL A   1      40.670  29.821  29.428  1.00  0.00    -0.014 A 
BRANCH  34  35
ATOM     35  C   UNL A   1      42.019  29.376  28.987  1.00  0.00     0.031 A 
ATOM     36  C   UNL A   1      43.162  30.342  28.877  1.00  0.00     0.074 A 
ATOM     37  C   UNL A   1      42.181  28.093  28.604  1.00  0.00     0.049 A 
ATOM     38  N   UNL A   1      44.378  30.127  28.442  1.00  0.00    -0.248 NA
ATOM     39  C   UNL A   1      42.904  31.729  29.291  1.00  0.00     0.031 C 
ATOM     40  C   UNL A   1      41.136  27.064  28.631  1.00  0.00     0.029 A 
ATOM     41  N   UNL A   1      43.278  27.433  28.109  1.00  0.00    -0.354 N 
ATOM     42  C   UNL A   1      45.031  31.350  28.521  1.00  0.00     0.074 A 
ATOM     43  C   UNL A   1      44.063  32.311  29.013  1.00  0.00     0.031 C 
ATOM     44  C   UNL A   1      41.647  25.904  28.192  1.00  0.00     0.029 A 
ATOM     45  C   UNL A   1      43.040  26.112  27.812  1.00  0.00     0.049 A 
ATOM     46  H   UNL A   1      44.152  27.865  27.978  1.00  0.00     0.167 HD
ATOM     47  C   UNL A   1      46.319  31.644  28.221  1.00  0.00     0.031 A 
ATOM     48  C   UNL A   1      43.845  25.170  27.281  1.00  0.00     0.031 A 
ATOM     49  C   UNL A   1      47.277  30.687  27.727  1.00  0.00     0.049 A 
ATOM     50  C   UNL A   1      45.262  25.528  26.934  1.00  0.00     0.074 A 
ATOM     51  C   UNL A   1      48.617  30.883  27.438  1.00  0.00     0.029 A 
ATOM     52  N   UNL A   1      46.997  29.360  27.440  1.00  0.00    -0.354 N 
ATOM     53  N   UNL A   1      45.877  26.678  27.072  1.00  0.00    -0.248 NA
ATOM     54  C   UNL A   1      46.095  24.460  26.363  1.00  0.00     0.031 C 
ATOM     55  C   UNL A   1      49.135  29.686  26.932  1.00  0.00     0.029 A 
ATOM     56  C   UNL A   1      48.131  28.730  26.954  1.00  0.00     0.049 A 
ATOM     57  H   UNL A   1      46.121  28.928  27.564  1.00  0.00     0.167 HD
ATOM     58  C   UNL A   1      47.176  26.467  26.625  1.00  0.00     0.074 A 
ATOM     59  C   UNL A   1      47.262  25.078  26.225  1.00  0.00     0.031 C 
ATOM     60  C   UNL A   1      48.204  27.348  26.554  1.00  0.00     0.031 A 
BRANCH  47  61
ATOM     61  C   UNL A   1      46.769  33.069  28.411  1.00  0.00    -0.014 A 
ATOM     62  C   UNL A   1      46.646  34.011  27.373  1.00  0.00     0.010 A 
ATOM     63  C   UNL A   1      47.285  33.482  29.653  1.00  0.00     0.010 A 
ATOM     64  C   UNL A   1      47.071  35.329  27.561  1.00  0.00     0.020 A 
ATOM     65  C   UNL A   1      47.688  34.806  29.852  1.00  0.00     0.020 A 
ATOM     66  C   UNL A   1      47.595  35.717  28.797  1.00  0.00     0.054 A 
BRANCH  66  67
ATOM     67  S   UNL A   1      48.131  37.436  29.016  1.00  0.00     0.124 S 
ATOM     68  O   UNL A   1      47.014  38.174  28.430  1.00  0.00    -0.237 OA
ATOM     69  O   UNL A   1      48.265  37.550  30.466  1.00  0.00    -0.237 OA
ATOM     70  O   UNL A   1      49.383  37.507  28.270  1.00  0.00    -0.744 OA
ENDBRANCH  66  67
ENDBRANCH  47  61
BRANCH  48  71
ATOM     71  C   UNL A   1      43.326  23.795  27.054  1.00  0.00    -0.014 A 
ATOM     72  C   UNL A   1      43.024  23.355  25.753  1.00  0.00     0.010 A 
ATOM     73  C   UNL A   1      43.152  22.910  28.133  1.00  0.00     0.010 A 
ATOM     74  C   UNL A   1      42.546  22.059  25.538  1.00  0.00     0.020 A 
ATOM     75  C   UNL A   1      42.698  21.606  27.920  1.00  0.00     0.020 A 
ATOM     76  C   UNL A   1      42.388  21.192  26.621  1.00  0.00     0.054 A 
BRANCH  76  77
ATOM     77  S   UNL A   1      41.827  19.492  26.321  1.00  0.00     0.124 S 
ATOM     78  O   UNL A   1      40.378  19.671  26.203  1.00  0.00    -0.237 OA
ATOM     79  O   UNL A   1      42.519  19.149  25.074  1.00  0.00    -0.237 OA
ATOM     80  O   UNL A   1      42.279  18.768  27.493  1.00  0.00    -0.744 OA
ENDBRANCH  76  77
ENDBRANCH  48  71
BRANCH  60  81
ATOM     81  C   UNL A   1      49.522  26.833  26.044  1.00  0.00    -0.014 A 
ATOM     82  C   UNL A   1      49.914  27.039  24.709  1.00  0.00     0.010 A 
ATOM     83  C   UNL A   1      50.406  26.187  26.927  1.00  0.00     0.010 A 
ATOM     84  C   UNL A   1      51.161  26.591  24.263  1.00  0.00     0.020 A 
ATOM     85  C   UNL A   1      51.663  25.759  26.491  1.00  0.00     0.020 A 
ATOM     86  C   UNL A   1      52.027  25.955  25.157  1.00  0.00     0.054 A 
BRANCH  86  87
ATOM     87  S   UNL A   1      53.663  25.437  24.569  1.00  0.00     0.124 S 
ATOM     88  O   UNL A   1      53.629  23.996  24.805  1.00  0.00    -0.237 OA
ATOM     89  O   UNL A   1      53.645  25.845  23.167  1.00  0.00    -0.237 OA
ATOM     90  O   UNL A   1      54.589  26.185  25.417  1.00  0.00    -0.744 OA
ENDBRANCH  86  87
ENDBRANCH  60  81
ENDBRANCH  34  35
ENDBRANCH  26  29
ENDBRANCH  24  25
ENDBRANCH   1  24
TORSDOF 16
ENDMDL
MODEL 3
REMARK VINA RESULT:     -10.7      3.070      4.082
REMARK SMILES C[C@@H]1CN(C(=O)NC[C@@H]2CCC[C@@H]2C(=O)NCCCNC(=O)c2ccc(-c3c4nc(c(-c5ccc(S(=O)(=O)[O-])cc5)c5ccc([nH]5)c(-c5ccc(S(=O)(=O)[O-])cc5)c5nc(c(-c6ccc(S(=O)(=O)[O-])cc6)c6ccc3[nH]6)C=C5)C=C4)cc2)C[C@@H]1C
REMARK SMILES IDX 18 1 17 2 16 3 14 4 15 5 13 7 9 8 10 9 11 10 12 11 8 12 7 13
REMARK SMILES IDX 5 14 6 15 4 17 1 18 2 19 3 20 84 21 83 22 85 23 19 24 20 25
REMARK SMILES IDX 21 26 22 28 23 29 24 30 82 31 25 32 81 33 26 34 27 35 28 36
REMARK SMILES IDX 75 37 29 38 80 39 74 40 76 41 30 42 79 43 73 44 72 45 31 47
REMARK SMILES IDX 61 48 42 49 60 50 43 51 46 52 59 53 77 54 44 55 45 56 58 58
REMARK SMILES IDX 78 59 47 60 32 61 33 62 41 63 34 64 40 65 35 66 36 67 37 68
REMARK SMILES IDX 38 69 39 70 62 71 63 72 71 73 64 74 70 75 65 76 66 77 67 78
REMARK SMILES IDX 68 79 69 80 48 81 49 82 57 83 50 84 56 85 51 86 52 87 53 88
REMARK SMILES IDX 54 89 55 90
REMARK H PARENT 16 6 7 16 20 27 76 46 46 57
REMARK Flexibility Score: inf
ROOT
ATOM      1  C   UNL A   1      35.235  32.527  28.253  1.00  0.00     0.042 C 
ENDROOT
BRANCH   1   2
ATOM      2  C   UNL A   1      33.948  31.816  27.779  1.00  0.00     0.117 C 
BRANCH   2   3
ATOM      3  N   UNL A   1      33.878  30.374  27.816  1.00  0.00    -0.356 N 
ATOM      4  C   UNL A   1      34.067  29.410  26.839  1.00  0.00     0.223 C 
ATOM      5  O   UNL A   1      34.725  28.383  26.990  1.00  0.00    -0.275 OA
ATOM      6  H   UNL A   1      33.652  30.007  28.701  1.00  0.00     0.163 HD
BRANCH   4   7
ATOM      7  C   UNL A   1      33.244  29.574  25.618  1.00  0.00     0.083 C 
ATOM      8  C   UNL A   1      31.801  29.334  26.018  1.00  0.00     0.021 C 
ATOM      9  C   UNL A   1      31.164  29.288  24.612  1.00  0.00     0.006 C 
ATOM     10  C   UNL A   1      32.129  28.462  23.763  1.00  0.00     0.001 C 
ATOM     11  C   UNL A   1      33.464  28.526  24.510  1.00  0.00     0.014 C 
BRANCH   8  12
ATOM     12  C   UNL A   1      31.482  28.053  26.879  1.00  0.00     0.122 C 
BRANCH  12  13
ATOM     13  N   UNL A   1      30.959  26.657  26.537  1.00  0.00    -0.338 N 
ATOM     14  C   UNL A   1      30.935  25.350  26.213  1.00  0.00     0.317 C 
ATOM     15  O   UNL A   1      29.840  24.835  26.496  1.00  0.00    -0.249 OA
ATOM     16  H   UNL A   1      29.991  26.829  26.591  1.00  0.00     0.165 HD
BRANCH  14  17
ATOM     17  N   UNL A   1      31.953  24.538  25.735  1.00  0.00    -0.324 N 
ATOM     18  C   UNL A   1      33.555  21.710  24.611  1.00  0.00     0.010 C 
ATOM     19  C   UNL A   1      33.478  22.629  25.836  1.00  0.00     0.010 C 
ATOM     20  C   UNL A   1      32.048  23.114  26.150  1.00  0.00     0.125 C 
ATOM     21  C   UNL A   1      34.311  23.916  25.749  1.00  0.00     0.010 C 
ATOM     22  C   UNL A   1      33.306  25.028  26.088  1.00  0.00     0.125 C 
ATOM     23  C   UNL A   1      35.058  24.147  24.439  1.00  0.00     0.010 C 
ENDBRANCH  14  17
ENDBRANCH  12  13
ENDBRANCH   8  12
ENDBRANCH   4   7
ENDBRANCH   2   3
ENDBRANCH   1   2
BRANCH   1  24
ATOM     24  C   UNL A   1      35.807  32.447  29.674  1.00  0.00     0.118 C 
BRANCH  24  25
ATOM     25  N   UNL A   1      35.627  31.221  30.420  1.00  0.00    -0.352 N 
ATOM     26  C   UNL A   1      36.558  30.288  30.835  1.00  0.00     0.251 C 
ATOM     27  H   UNL A   1      34.697  31.019  30.670  1.00  0.00     0.163 HD
ATOM     28  O   UNL A   1      36.257  29.400  31.631  1.00  0.00    -0.269 OA
BRANCH  26  29
ATOM     29  C   UNL A   1      37.920  30.286  30.276  1.00  0.00     0.039 A 
ATOM     30  C   UNL A   1      38.990  30.485  31.153  1.00  0.00     0.014 A 
ATOM     31  C   UNL A   1      38.149  30.074  28.916  1.00  0.00     0.014 A 
ATOM     32  C   UNL A   1      40.298  30.330  30.692  1.00  0.00     0.010 A 
ATOM     33  C   UNL A   1      39.456  29.873  28.466  1.00  0.00     0.010 A 
ATOM     34  C   UNL A   1      40.536  29.951  29.362  1.00  0.00    -0.014 A 
BRANCH  34  35
ATOM     35  C   UNL A   1      41.886  29.499  28.934  1.00  0.00     0.031 A 
ATOM     36  C   UNL A   1      43.031  30.462  28.820  1.00  0.00     0.074 A 
ATOM     37  C   UNL A   1      42.048  28.212  28.565  1.00  0.00     0.049 A 
ATOM     38  N   UNL A   1      44.249  30.241  28.395  1.00  0.00    -0.248 NA
ATOM     39  C   UNL A   1      42.774  31.853  29.219  1.00  0.00     0.031 C 
ATOM     40  C   UNL A   1      41.001  27.185  28.595  1.00  0.00     0.029 A 
ATOM     41  N   UNL A   1      43.147  27.546  28.082  1.00  0.00    -0.354 N 
ATOM     42  C   UNL A   1      44.904  31.464  28.465  1.00  0.00     0.074 A 
ATOM     43  C   UNL A   1      43.935  32.431  28.942  1.00  0.00     0.031 C 
ATOM     44  C   UNL A   1      41.513  26.020  28.171  1.00  0.00     0.029 A 
ATOM     45  C   UNL A   1      42.909  26.221  27.797  1.00  0.00     0.049 A 
ATOM     46  H   UNL A   1      44.023  27.975  27.952  1.00  0.00     0.167 HD
ATOM     47  C   UNL A   1      46.194  31.752  28.169  1.00  0.00     0.031 A 
ATOM     48  C   UNL A   1      43.715  25.273  27.281  1.00  0.00     0.031 A 
ATOM     49  C   UNL A   1      47.153  30.790  27.691  1.00  0.00     0.049 A 
ATOM     50  C   UNL A   1      45.134  25.625  26.938  1.00  0.00     0.074 A 
ATOM     51  C   UNL A   1      48.495  30.980  27.408  1.00  0.00     0.029 A 
ATOM     52  N   UNL A   1      46.873  29.459  27.416  1.00  0.00    -0.354 N 
ATOM     53  N   UNL A   1      45.751  26.776  27.068  1.00  0.00    -0.248 NA
ATOM     54  C   UNL A   1      45.969  24.551  26.382  1.00  0.00     0.031 C 
ATOM     55  C   UNL A   1      49.014  29.777  26.916  1.00  0.00     0.029 A 
ATOM     56  C   UNL A   1      48.009  28.823  26.943  1.00  0.00     0.049 A 
ATOM     57  H   UNL A   1      45.995  29.030  27.539  1.00  0.00     0.167 HD
ATOM     58  C   UNL A   1      47.052  26.559  26.630  1.00  0.00     0.074 A 
ATOM     59  C   UNL A   1      47.138  25.165  26.245  1.00  0.00     0.031 C 
ATOM     60  C   UNL A   1      48.081  27.437  26.557  1.00  0.00     0.031 A 
BRANCH  47  61
ATOM     61  C   UNL A   1      46.646  33.179  28.347  1.00  0.00    -0.014 A 
ATOM     62  C   UNL A   1      47.150  33.630  29.581  1.00  0.00     0.010 A 
ATOM     63  C   UNL A   1      46.603  34.069  27.259  1.00  0.00     0.010 A 
ATOM     64  C   UNL A   1      47.561  34.956  29.734  1.00  0.00     0.020 A 
ATOM     65  C   UNL A   1      47.037  35.390  27.402  1.00  0.00     0.020 A 
ATOM     66  C   UNL A   1      47.496  35.830  28.645  1.00  0.00     0.054 A 
BRANCH  66  67
ATOM     67  S   UNL A   1      48.046  37.544  28.870  1.00  0.00     0.124 S 
ATOM     68  O   UNL A   1      47.298  37.945  30.059  1.00  0.00    -0.237 OA
ATOM     69  O   UNL A   1      49.487  37.398  29.056  1.00  0.00    -0.237 OA
ATOM     70  O   UNL A   1      47.644  38.202  27.630  1.00  0.00    -0.744 OA
ENDBRANCH  66  67
ENDBRANCH  47  61
BRANCH  48  71
ATOM     71  C   UNL A   1      43.195  23.897  27.064  1.00  0.00    -0.014 A 
ATOM     72  C   UNL A   1      43.363  22.909  28.050  1.00  0.00     0.010 A 
ATOM     73  C   UNL A   1      42.510  23.571  25.879  1.00  0.00     0.010 A 
ATOM     74  C   UNL A   1      42.867  21.618  27.851  1.00  0.00     0.020 A 
ATOM     75  C   UNL A   1      41.989  22.289  25.686  1.00  0.00     0.020 A 
ATOM     76  C   UNL A   1      42.180  21.316  26.672  1.00  0.00     0.054 A 
BRANCH  76  77
ATOM     77  S   UNL A   1      41.485  19.654  26.453  1.00  0.00     0.124 S 
ATOM     78  O   UNL A   1      41.471  19.151  27.828  1.00  0.00    -0.237 OA
ATOM     79  O   UNL A   1      40.167  19.939  25.876  1.00  0.00    -0.237 OA
ATOM     80  O   UNL A   1      42.421  19.005  25.555  1.00  0.00    -0.744 OA
ENDBRANCH  76  77
ENDBRANCH  48  71
BRANCH  60  81
ATOM     81  C   UNL A   1      49.401  26.914  26.059  1.00  0.00    -0.014 A 
ATOM     82  C   UNL A   1      49.809  27.121  24.729  1.00  0.00     0.010 A 
ATOM     83  C   UNL A   1      50.273  26.261  26.951  1.00  0.00     0.010 A 
ATOM     84  C   UNL A   1      51.058  26.666  24.295  1.00  0.00     0.020 A 
ATOM     85  C   UNL A   1      51.531  25.827  26.526  1.00  0.00     0.020 A 
ATOM     86  C   UNL A   1      51.910  26.023  25.197  1.00  0.00     0.054 A 
BRANCH  86  87
ATOM     87  S   UNL A   1      53.549  25.496  24.625  1.00  0.00     0.124 S 
ATOM     88  O   UNL A   1      53.548  25.952  23.237  1.00  0.00    -0.237 OA
ATOM     89  O   UNL A   1      54.450  26.216  25.522  1.00  0.00    -0.237 OA
ATOM     90  O   UNL A   1      53.530  24.046  24.804  1.00  0.00    -0.744 OA
ENDBRANCH  86  87
ENDBRANCH  60  81
ENDBRANCH  34  35
ENDBRANCH  26  29
ENDBRANCH  24  25
ENDBRANCH   1  24
TORSDOF 16
ENDMDL
