MODEL 1
REMARK VINA RESULT:     -14.3      0.000      0.000
REMARK SMILES C[C@]1(C(=O)NCCCNC(=O)c2ccc(-c3c4nc(c(-c5ccc(S(=O)(=O)[O-])cc5)c5ccc([nH]5)c(-c5ccc(S(=O)(=O)[O-])cc5)c5nc(c(-c6ccc(S(=O)(=O)[O-])cc6)c6ccc3[nH]6)C=C5)C=C4)cc2)[NH2+]C2(C(=O)c3ccccc3C2=O)[C@@H]2C(=O)N(c3ccccc3)C(=O)[C@H]21
REMARK SMILES IDX 8 1 7 2 6 3 5 4 3 5 4 6 2 8 1 9 72 10 96 11 73 12 84 15
REMARK SMILES IDX 94 16 74 17 82 18 85 19 87 20 95 21 75 22 76 23 81 24 83 25
REMARK SMILES IDX 86 26 77 27 80 28 78 29 79 30 88 31 89 32 93 33 90 34 92 35
REMARK SMILES IDX 91 36 9 37 10 38 11 40 12 41 13 42 71 43 14 44 70 45 15 46
REMARK SMILES IDX 16 47 17 48 64 49 18 50 69 51 63 52 65 53 19 54 68 55 62 56
REMARK SMILES IDX 61 57 20 59 50 60 31 61 49 62 32 63 35 64 48 65 66 66 33 67
REMARK SMILES IDX 34 68 47 70 67 71 36 72 21 73 22 74 30 75 23 76 29 77 24 78
REMARK SMILES IDX 25 79 26 80 27 81 28 82 51 83 52 84 60 85 53 86 59 87 54 88
REMARK SMILES IDX 55 89 56 90 57 91 58 92 37 93 38 94 46 95 39 96 45 97 40 98
REMARK SMILES IDX 41 99 42 100 43 101 44 102
REMARK H PARENT 5 7 72 13 72 14 9 39 65 58 35 69
REMARK Flexibility Score: inf
ROOT
ATOM      1  C   UNL A   1      40.564  23.049  26.856  1.00  0.00     0.118 C 
ENDROOT
BRANCH   1   2
ATOM      2  C   UNL A   1      40.071  21.804  26.143  1.00  0.00     0.042 C 
BRANCH   2   3
ATOM      3  C   UNL A   1      38.576  21.824  25.870  1.00  0.00     0.118 C 
BRANCH   3   4
ATOM      4  N   UNL A   1      38.148  22.407  24.626  1.00  0.00    -0.351 N 
ATOM      5  C   UNL A   1      36.982  23.012  24.261  1.00  0.00     0.281 C 
ATOM      6  O   UNL A   1      36.956  23.340  23.063  1.00  0.00    -0.268 OA
ATOM      7  H   UNL A   1      38.821  22.362  23.908  1.00  0.00     0.163 HD
BRANCH   5   8
ATOM      8  C   UNL A   1      35.726  23.311  25.191  1.00  0.00     0.186 C 
ATOM      9  C   UNL A   1      36.323  23.621  26.593  1.00  0.00     0.091 C 
ATOM     10  N   UNL A   1      34.918  24.512  24.746  1.00  0.00    -0.314 N 
ATOM     11  C   UNL A   1      34.651  22.277  25.376  1.00  0.00     0.170 C 
ATOM     12  C   UNL A   1      33.506  24.066  24.377  1.00  0.00     0.236 C 
ATOM     13  H   UNL A   1      35.364  24.938  23.933  1.00  0.00     0.348 HD
ATOM     14  H   UNL A   1      34.874  25.192  25.504  1.00  0.00     0.348 HD
ATOM     15  C   UNL A   1      33.607  22.570  24.320  1.00  0.00     0.177 C 
ATOM     16  C   UNL A   1      34.792  20.807  25.237  1.00  0.00     0.244 C 
ATOM     17  C   UNL A   1      32.434  24.618  25.319  1.00  0.00     0.232 C 
ATOM     18  C   UNL A   1      33.143  24.748  23.044  1.00  0.00     0.232 C 
ATOM     19  C   UNL A   1      32.656  21.458  24.617  1.00  0.00     0.245 C 
ATOM     20  N   UNL A   1      33.498  20.383  24.931  1.00  0.00    -0.250 N 
ATOM     21  O   UNL A   1      35.815  20.168  25.401  1.00  0.00    -0.273 OA
ATOM     22  O   UNL A   1      32.350  24.410  26.517  1.00  0.00    -0.286 OA
ATOM     23  C   UNL A   1      31.536  25.498  24.548  1.00  0.00     0.036 A 
ATOM     24  C   UNL A   1      31.979  25.586  23.238  1.00  0.00     0.036 A 
ATOM     25  O   UNL A   1      33.687  24.677  21.956  1.00  0.00    -0.286 OA
ATOM     26  O   UNL A   1      31.452  21.495  24.440  1.00  0.00    -0.273 OA
ATOM     27  C   UNL A   1      30.413  26.196  24.950  1.00  0.00     0.013 A 
ATOM     28  C   UNL A   1      31.366  26.379  22.283  1.00  0.00     0.013 A 
ATOM     29  C   UNL A   1      29.760  26.992  23.995  1.00  0.00     0.001 A 
ATOM     30  C   UNL A   1      30.237  27.090  22.674  1.00  0.00     0.001 A 
BRANCH  20  31
ATOM     31  C   UNL A   1      33.194  19.023  24.742  1.00  0.00     0.052 A 
ATOM     32  C   UNL A   1      32.721  18.252  25.812  1.00  0.00     0.027 A 
ATOM     33  C   UNL A   1      33.511  18.398  23.531  1.00  0.00     0.027 A 
ATOM     34  C   UNL A   1      32.561  16.873  25.672  1.00  0.00     0.002 A 
ATOM     35  C   UNL A   1      33.404  17.010  23.414  1.00  0.00     0.002 A 
ATOM     36  C   UNL A   1      32.923  16.250  24.480  1.00  0.00     0.000 A 
ENDBRANCH  20  31
ENDBRANCH   5   8
ENDBRANCH   3   4
ENDBRANCH   2   3
ENDBRANCH   1   2
BRANCH   1  37
ATOM     37  N   UNL A   1      41.025  24.095  25.942  1.00  0.00    -0.352 N 
ATOM     38  C   UNL A   1      41.246  25.451  26.065  1.00  0.00     0.251 C 
ATOM     39  H   UNL A   1      41.221  23.755  25.038  1.00  0.00     0.163 HD
ATOM     40  O   UNL A   1      41.534  26.074  25.040  1.00  0.00    -0.269 OA
BRANCH  38  41
ATOM     41  C   UNL A   1      41.104  26.200  27.345  1.00  0.00     0.039 A 
ATOM     42  C   UNL A   1      40.192  25.845  28.328  1.00  0.00     0.014 A 
ATOM     43  C   UNL A   1      41.955  27.288  27.603  1.00  0.00     0.014 A 
ATOM     44  C   UNL A   1      39.961  26.680  29.417  1.00  0.00     0.010 A 
ATOM     45  C   UNL A   1      41.824  28.047  28.781  1.00  0.00     0.010 A 
ATOM     46  C   UNL A   1      40.778  27.790  29.676  1.00  0.00    -0.014 A 
BRANCH  46  47
ATOM     47  C   UNL A   1      40.489  28.636  30.877  1.00  0.00     0.031 A 
ATOM     48  C   UNL A   1      41.418  28.644  32.068  1.00  0.00     0.074 A 
ATOM     49  C   UNL A   1      39.446  29.495  30.850  1.00  0.00     0.049 A 
ATOM     50  N   UNL A   1      41.355  29.379  33.151  1.00  0.00    -0.248 NA
ATOM     51  C   UNL A   1      42.555  27.708  32.055  1.00  0.00     0.031 C 
ATOM     52  C   UNL A   1      38.470  29.598  29.760  1.00  0.00     0.029 A 
ATOM     53  N   UNL A   1      39.067  30.491  31.719  1.00  0.00    -0.354 N 
ATOM     54  C   UNL A   1      42.416  28.975  33.954  1.00  0.00     0.074 A 
ATOM     55  C   UNL A   1      43.093  27.909  33.251  1.00  0.00     0.031 C 
ATOM     56  C   UNL A   1      37.695  30.673  29.961  1.00  0.00     0.029 A 
ATOM     57  C   UNL A   1      38.042  31.280  31.241  1.00  0.00     0.049 A 
ATOM     58  H   UNL A   1      39.487  30.628  32.599  1.00  0.00     0.167 HD
ATOM     59  C   UNL A   1      42.804  29.456  35.159  1.00  0.00     0.031 A 
ATOM     60  C   UNL A   1      37.441  32.371  31.760  1.00  0.00     0.031 A 
ATOM     61  C   UNL A   1      42.157  30.546  35.842  1.00  0.00     0.049 A 
ATOM     62  C   UNL A   1      37.888  32.887  33.097  1.00  0.00     0.074 A 
ATOM     63  C   UNL A   1      42.478  31.094  37.073  1.00  0.00     0.029 A 
ATOM     64  N   UNL A   1      41.082  31.269  35.352  1.00  0.00    -0.354 N 
ATOM     65  N   UNL A   1      38.869  32.457  33.852  1.00  0.00    -0.248 NA
ATOM     66  C   UNL A   1      37.142  34.021  33.660  1.00  0.00     0.031 C 
ATOM     67  C   UNL A   1      41.571  32.119  37.345  1.00  0.00     0.029 A 
ATOM     68  C   UNL A   1      40.723  32.252  36.258  1.00  0.00     0.049 A 
ATOM     69  H   UNL A   1      40.639  31.107  34.487  1.00  0.00     0.167 HD
ATOM     70  C   UNL A   1      38.862  33.269  34.979  1.00  0.00     0.074 A 
ATOM     71  C   UNL A   1      37.794  34.232  34.797  1.00  0.00     0.031 C 
ATOM     72  C   UNL A   1      39.663  33.210  36.069  1.00  0.00     0.031 A 
BRANCH  59  73
ATOM     73  C   UNL A   1      43.991  28.818  35.835  1.00  0.00    -0.014 A 
ATOM     74  C   UNL A   1      43.795  27.739  36.718  1.00  0.00     0.010 A 
ATOM     75  C   UNL A   1      45.283  29.352  35.685  1.00  0.00     0.010 A 
ATOM     76  C   UNL A   1      44.862  27.220  37.455  1.00  0.00     0.020 A 
ATOM     77  C   UNL A   1      46.358  28.818  36.402  1.00  0.00     0.020 A 
ATOM     78  C   UNL A   1      46.137  27.768  37.297  1.00  0.00     0.054 A 
BRANCH  78  79
ATOM     79  S   UNL A   1      47.516  27.088  38.260  1.00  0.00     0.124 S 
ATOM     80  O   UNL A   1      48.484  28.179  38.229  1.00  0.00    -0.237 OA
ATOM     81  O   UNL A   1      46.902  26.822  39.559  1.00  0.00    -0.237 OA
ATOM     82  O   UNL A   1      47.894  25.891  37.509  1.00  0.00    -0.744 OA
ENDBRANCH  78  79
ENDBRANCH  59  73
BRANCH  60  83
ATOM     83  C   UNL A   1      36.360  33.045  30.985  1.00  0.00    -0.014 A 
ATOM     84  C   UNL A   1      36.674  33.815  29.849  1.00  0.00     0.010 A 
ATOM     85  C   UNL A   1      35.027  32.999  31.431  1.00  0.00     0.010 A 
ATOM     86  C   UNL A   1      35.692  34.583  29.218  1.00  0.00     0.020 A 
ATOM     87  C   UNL A   1      34.034  33.740  30.780  1.00  0.00     0.020 A 
ATOM     88  C   UNL A   1      34.382  34.554  29.699  1.00  0.00     0.054 A 
BRANCH  88  89
ATOM     89  S   UNL A   1      33.136  35.606  28.902  1.00  0.00     0.124 S 
ATOM     90  O   UNL A   1      33.971  36.534  28.145  1.00  0.00    -0.237 OA
ATOM     91  O   UNL A   1      32.373  34.652  28.103  1.00  0.00    -0.237 OA
ATOM     92  O   UNL A   1      32.413  36.190  30.028  1.00  0.00    -0.744 OA
ENDBRANCH  88  89
ENDBRANCH  60  83
BRANCH  72  93
ATOM     93  C   UNL A   1      39.444  34.211  37.170  1.00  0.00    -0.014 A 
ATOM     94  C   UNL A   1      40.042  35.483  37.083  1.00  0.00     0.010 A 
ATOM     95  C   UNL A   1      38.774  33.847  38.351  1.00  0.00     0.010 A 
ATOM     96  C   UNL A   1      40.006  36.359  38.169  1.00  0.00     0.020 A 
ATOM     97  C   UNL A   1      38.715  34.731  39.431  1.00  0.00     0.020 A 
ATOM     98  C   UNL A   1      39.354  35.970  39.344  1.00  0.00     0.054 A 
BRANCH  98  99
ATOM     99  S   UNL A   1      39.356  37.102  40.762  1.00  0.00     0.124 S 
ATOM    100  O   UNL A   1      40.774  37.422  40.896  1.00  0.00    -0.237 OA
ATOM    101  O   UNL A   1      38.504  38.196  40.303  1.00  0.00    -0.237 OA
ATOM    102  O   UNL A   1      38.792  36.295  41.842  1.00  0.00    -0.744 OA
ENDBRANCH  98  99
ENDBRANCH  72  93
ENDBRANCH  46  47
ENDBRANCH  38  41
ENDBRANCH   1  37
TORSDOF 14
ENDMDL
MODEL 2
REMARK VINA RESULT:     -14.2      6.205     12.087
REMARK SMILES C[C@]1(C(=O)NCCCNC(=O)c2ccc(-c3c4nc(c(-c5ccc(S(=O)(=O)[O-])cc5)c5ccc([nH]5)c(-c5ccc(S(=O)(=O)[O-])cc5)c5nc(c(-c6ccc(S(=O)(=O)[O-])cc6)c6ccc3[nH]6)C=C5)C=C4)cc2)[NH2+]C2(C(=O)c3ccccc3C2=O)[C@@H]2C(=O)N(c3ccccc3)C(=O)[C@H]21
REMARK SMILES IDX 8 1 7 2 6 3 5 4 3 5 4 6 2 8 1 9 72 10 96 11 73 12 84 15
REMARK SMILES IDX 94 16 74 17 82 18 85 19 87 20 95 21 75 22 76 23 81 24 83 25
REMARK SMILES IDX 86 26 77 27 80 28 78 29 79 30 88 31 89 32 93 33 90 34 92 35
REMARK SMILES IDX 91 36 9 37 10 38 11 40 12 41 13 42 71 43 14 44 70 45 15 46
REMARK SMILES IDX 16 47 17 48 64 49 18 50 69 51 63 52 65 53 19 54 68 55 62 56
REMARK SMILES IDX 61 57 20 59 50 60 31 61 49 62 32 63 35 64 48 65 66 66 33 67
REMARK SMILES IDX 34 68 47 70 67 71 36 72 21 73 22 74 30 75 23 76 29 77 24 78
REMARK SMILES IDX 25 79 26 80 27 81 28 82 51 83 52 84 60 85 53 86 59 87 54 88
REMARK SMILES IDX 55 89 56 90 57 91 58 92 37 93 38 94 46 95 39 96 45 97 40 98
REMARK SMILES IDX 41 99 42 100 43 101 44 102
REMARK H PARENT 5 7 72 13 72 14 9 39 65 58 35 69
REMARK Flexibility Score: inf
ROOT
ATOM      1  C   UNL A   1      35.433  31.350  28.449  1.00  0.00     0.118 C 
ENDROOT
BRANCH   1   2
ATOM      2  C   UNL A   1      34.035  31.840  28.121  1.00  0.00     0.042 C 
BRANCH   2   3
ATOM      3  C   UNL A   1      33.267  30.891  27.214  1.00  0.00     0.118 C 
BRANCH   3   4
ATOM      4  N   UNL A   1      32.622  29.768  27.842  1.00  0.00    -0.351 N 
ATOM      5  C   UNL A   1      32.491  28.467  27.460  1.00  0.00     0.281 C 
ATOM      6  O   UNL A   1      31.803  27.793  28.244  1.00  0.00    -0.268 OA
ATOM      7  H   UNL A   1      32.198  29.979  28.707  1.00  0.00     0.163 HD
BRANCH   5   8
ATOM      8  C   UNL A   1      33.113  27.781  26.165  1.00  0.00     0.186 C 
ATOM      9  C   UNL A   1      34.520  28.423  26.001  1.00  0.00     0.091 C 
ATOM     10  N   UNL A   1      33.290  26.284  26.301  1.00  0.00    -0.314 N 
ATOM     11  C   UNL A   1      32.413  27.883  24.839  1.00  0.00     0.170 C 
ATOM     12  C   UNL A   1      32.428  25.574  25.261  1.00  0.00     0.236 C 
ATOM     13  H   UNL A   1      33.005  25.992  27.236  1.00  0.00     0.348 HD
ATOM     14  H   UNL A   1      34.270  26.043  26.154  1.00  0.00     0.348 HD
ATOM     15  C   UNL A   1      31.530  26.658  24.741  1.00  0.00     0.177 C 
ATOM     16  C   UNL A   1      31.474  28.945  24.403  1.00  0.00     0.244 C 
ATOM     17  C   UNL A   1      33.248  24.834  24.202  1.00  0.00     0.232 C 
ATOM     18  C   UNL A   1      31.708  24.415  25.976  1.00  0.00     0.232 C 
ATOM     19  C   UNL A   1      30.898  26.930  23.415  1.00  0.00     0.245 C 
ATOM     20  N   UNL A   1      30.700  28.317  23.427  1.00  0.00    -0.250 N 
ATOM     21  O   UNL A   1      31.455  30.093  24.809  1.00  0.00    -0.273 OA
ATOM     22  O   UNL A   1      34.041  25.335  23.423  1.00  0.00    -0.286 OA
ATOM     23  C   UNL A   1      32.963  23.391  24.307  1.00  0.00     0.036 A 
ATOM     24  C   UNL A   1      32.092  23.162  25.361  1.00  0.00     0.036 A 
ATOM     25  O   UNL A   1      30.939  24.437  26.921  1.00  0.00    -0.286 OA
ATOM     26  O   UNL A   1      30.514  26.081  22.631  1.00  0.00    -0.273 OA
ATOM     27  C   UNL A   1      33.436  22.333  23.555  1.00  0.00     0.013 A 
ATOM     28  C   UNL A   1      31.676  21.897  25.739  1.00  0.00     0.013 A 
ATOM     29  C   UNL A   1      33.013  21.040  23.904  1.00  0.00     0.001 A 
ATOM     30  C   UNL A   1      32.147  20.822  24.992  1.00  0.00     0.001 A 
BRANCH  20  31
ATOM     31  C   UNL A   1      29.688  29.005  22.733  1.00  0.00     0.052 A 
ATOM     32  C   UNL A   1      30.023  29.980  21.785  1.00  0.00     0.027 A 
ATOM     33  C   UNL A   1      28.349  28.832  23.098  1.00  0.00     0.027 A 
ATOM     34  C   UNL A   1      29.031  30.770  21.203  1.00  0.00     0.002 A 
ATOM     35  C   UNL A   1      27.366  29.663  22.557  1.00  0.00     0.002 A 
ATOM     36  C   UNL A   1      27.705  30.625  21.606  1.00  0.00     0.000 A 
ENDBRANCH  20  31
ENDBRANCH   5   8
ENDBRANCH   3   4
ENDBRANCH   2   3
ENDBRANCH   1   2
BRANCH   1  37
ATOM     37  N   UNL A   1      35.535  30.733  29.771  1.00  0.00    -0.352 N 
ATOM     38  C   UNL A   1      36.535  30.063  30.446  1.00  0.00     0.251 C 
ATOM     39  H   UNL A   1      34.705  30.812  30.296  1.00  0.00     0.163 HD
ATOM     40  O   UNL A   1      36.246  29.559  31.533  1.00  0.00    -0.269 OA
BRANCH  38  41
ATOM     41  C   UNL A   1      37.913  29.877  29.910  1.00  0.00     0.039 A 
ATOM     42  C   UNL A   1      38.225  30.028  28.567  1.00  0.00     0.014 A 
ATOM     43  C   UNL A   1      38.960  29.578  30.797  1.00  0.00     0.014 A 
ATOM     44  C   UNL A   1      39.477  29.659  28.084  1.00  0.00     0.010 A 
ATOM     45  C   UNL A   1      40.267  29.352  30.326  1.00  0.00     0.010 A 
ATOM     46  C   UNL A   1      40.529  29.326  28.949  1.00  0.00    -0.014 A 
BRANCH  46  47
ATOM     47  C   UNL A   1      41.857  28.958  28.366  1.00  0.00     0.031 A 
ATOM     48  C   UNL A   1      43.030  29.907  28.437  1.00  0.00     0.074 A 
ATOM     49  C   UNL A   1      42.045  27.714  27.872  1.00  0.00     0.049 A 
ATOM     50  N   UNL A   1      44.268  29.709  28.052  1.00  0.00    -0.248 NA
ATOM     51  C   UNL A   1      42.793  31.247  28.998  1.00  0.00     0.031 C 
ATOM     52  C   UNL A   1      41.001  26.692  27.748  1.00  0.00     0.029 A 
ATOM     53  N   UNL A   1      43.183  27.067  27.450  1.00  0.00    -0.354 N 
ATOM     54  C   UNL A   1      44.942  30.902  28.295  1.00  0.00     0.074 A 
ATOM     55  C   UNL A   1      43.973  31.831  28.832  1.00  0.00     0.031 C 
ATOM     56  C   UNL A   1      41.563  25.524  27.411  1.00  0.00     0.029 A 
ATOM     57  C   UNL A   1      42.991  25.726  27.191  1.00  0.00     0.049 A 
ATOM     58  H   UNL A   1      44.052  27.518  27.343  1.00  0.00     0.167 HD
ATOM     59  C   UNL A   1      46.250  31.194  28.105  1.00  0.00     0.031 A 
ATOM     60  C   UNL A   1      43.855  24.758  26.820  1.00  0.00     0.031 A 
ATOM     61  C   UNL A   1      47.226  30.258  27.609  1.00  0.00     0.049 A 
ATOM     62  C   UNL A   1      45.300  25.105  26.615  1.00  0.00     0.074 A 
ATOM     63  C   UNL A   1      48.574  30.472  27.376  1.00  0.00     0.029 A 
ATOM     64  N   UNL A   1      46.972  28.933  27.296  1.00  0.00    -0.354 N 
ATOM     65  N   UNL A   1      45.901  26.253  26.814  1.00  0.00    -0.248 NA
ATOM     66  C   UNL A   1      46.182  24.037  26.124  1.00  0.00     0.031 C 
ATOM     67  C   UNL A   1      49.125  29.289  26.881  1.00  0.00     0.029 A 
ATOM     68  C   UNL A   1      48.136  28.320  26.864  1.00  0.00     0.049 A 
ATOM     69  H   UNL A   1      46.094  28.493  27.368  1.00  0.00     0.167 HD
ATOM     70  C   UNL A   1      47.232  26.047  26.474  1.00  0.00     0.074 A 
ATOM     71  C   UNL A   1      47.356  24.657  26.081  1.00  0.00     0.031 C 
ATOM     72  C   UNL A   1      48.253  26.936  26.479  1.00  0.00     0.031 A 
BRANCH  59  73
ATOM     73  C   UNL A   1      46.726  32.586  28.432  1.00  0.00    -0.014 A 
ATOM     74  C   UNL A   1      46.756  33.570  27.425  1.00  0.00     0.010 A 
ATOM     75  C   UNL A   1      47.246  32.893  29.703  1.00  0.00     0.010 A 
ATOM     76  C   UNL A   1      47.317  34.825  27.673  1.00  0.00     0.020 A 
ATOM     77  C   UNL A   1      47.784  34.158  29.961  1.00  0.00     0.020 A 
ATOM     78  C   UNL A   1      47.834  35.109  28.939  1.00  0.00     0.054 A 
BRANCH  78  79
ATOM     79  S   UNL A   1      48.561  36.742  29.249  1.00  0.00     0.124 S 
ATOM     80  O   UNL A   1      47.473  37.641  28.875  1.00  0.00    -0.237 OA
ATOM     81  O   UNL A   1      48.876  36.688  30.675  1.00  0.00    -0.237 OA
ATOM     82  O   UNL A   1      49.727  36.766  28.367  1.00  0.00    -0.744 OA
ENDBRANCH  78  79
ENDBRANCH  59  73
BRANCH  60  83
ATOM     83  C   UNL A   1      43.353  23.366  26.640  1.00  0.00    -0.014 A 
ATOM     84  C   UNL A   1      42.966  22.598  27.755  1.00  0.00     0.010 A 
ATOM     85  C   UNL A   1      43.350  22.767  25.367  1.00  0.00     0.010 A 
ATOM     86  C   UNL A   1      42.656  21.244  27.613  1.00  0.00     0.020 A 
ATOM     87  C   UNL A   1      43.006  21.419  25.216  1.00  0.00     0.020 A 
ATOM     88  C   UNL A   1      42.695  20.659  26.346  1.00  0.00     0.054 A 
BRANCH  88  89
ATOM     89  S   UNL A   1      42.348  18.884  26.193  1.00  0.00     0.124 S 
ATOM     90  O   UNL A   1      40.972  18.892  25.705  1.00  0.00    -0.237 OA
ATOM     91  O   UNL A   1      43.354  18.440  25.233  1.00  0.00    -0.237 OA
ATOM     92  O   UNL A   1      42.526  18.385  27.554  1.00  0.00    -0.744 OA
ENDBRANCH  88  89
ENDBRANCH  60  83
BRANCH  72  93
ATOM     93  C   UNL A   1      49.616  26.459  26.057  1.00  0.00    -0.014 A 
ATOM     94  C   UNL A   1      50.468  25.860  27.003  1.00  0.00     0.010 A 
ATOM     95  C   UNL A   1      50.105  26.733  24.768  1.00  0.00     0.010 A 
ATOM     96  C   UNL A   1      51.797  25.578  26.682  1.00  0.00     0.020 A 
ATOM     97  C   UNL A   1      51.428  26.428  24.435  1.00  0.00     0.020 A 
ATOM     98  C   UNL A   1      52.273  25.878  25.403  1.00  0.00     0.054 A 
BRANCH  98  99
ATOM     99  S   UNL A   1      54.014  25.547  25.016  1.00  0.00     0.124 S 
ATOM    100  O   UNL A   1      54.088  24.096  25.157  1.00  0.00    -0.237 OA
ATOM    101  O   UNL A   1      54.145  26.055  23.652  1.00  0.00    -0.237 OA
ATOM    102  O   UNL A   1      54.739  26.312  26.029  1.00  0.00    -0.744 OA
ENDBRANCH  98  99
ENDBRANCH  72  93
ENDBRANCH  46  47
ENDBRANCH  38  41
ENDBRANCH   1  37
TORSDOF 14
ENDMDL
MODEL 3
REMARK VINA RESULT:     -13.6      6.214     11.666
REMARK SMILES C[C@]1(C(=O)NCCCNC(=O)c2ccc(-c3c4nc(c(-c5ccc(S(=O)(=O)[O-])cc5)c5ccc([nH]5)c(-c5ccc(S(=O)(=O)[O-])cc5)c5nc(c(-c6ccc(S(=O)(=O)[O-])cc6)c6ccc3[nH]6)C=C5)C=C4)cc2)[NH2+]C2(C(=O)c3ccccc3C2=O)[C@@H]2C(=O)N(c3ccccc3)C(=O)[C@H]21
REMARK SMILES IDX 8 1 7 2 6 3 5 4 3 5 4 6 2 8 1 9 72 10 96 11 73 12 84 15
REMARK SMILES IDX 94 16 74 17 82 18 85 19 87 20 95 21 75 22 76 23 81 24 83 25
REMARK SMILES IDX 86 26 77 27 80 28 78 29 79 30 88 31 89 32 93 33 90 34 92 35
REMARK SMILES IDX 91 36 9 37 10 38 11 40 12 41 13 42 71 43 14 44 70 45 15 46
REMARK SMILES IDX 16 47 17 48 64 49 18 50 69 51 63 52 65 53 19 54 68 55 62 56
REMARK SMILES IDX 61 57 20 59 50 60 31 61 49 62 32 63 35 64 48 65 66 66 33 67
REMARK SMILES IDX 34 68 47 70 67 71 36 72 21 73 22 74 30 75 23 76 29 77 24 78
REMARK SMILES IDX 25 79 26 80 27 81 28 82 51 83 52 84 60 85 53 86 59 87 54 88
REMARK SMILES IDX 55 89 56 90 57 91 58 92 37 93 38 94 46 95 39 96 45 97 40 98
REMARK SMILES IDX 41 99 42 100 43 101 44 102
REMARK H PARENT 5 7 72 13 72 14 9 39 65 58 35 69
REMARK Flexibility Score: inf
ROOT
ATOM      1  C   UNL A   1      35.627  31.779  28.791  1.00  0.00     0.118 C 
ENDROOT
BRANCH   1   2
ATOM      2  C   UNL A   1      34.264  31.894  28.133  1.00  0.00     0.042 C 
BRANCH   2   3
ATOM      3  C   UNL A   1      33.926  30.707  27.246  1.00  0.00     0.118 C 
BRANCH   3   4
ATOM      4  N   UNL A   1      33.089  29.684  27.815  1.00  0.00    -0.351 N 
ATOM      5  C   UNL A   1      32.757  28.436  27.380  1.00  0.00     0.281 C 
ATOM      6  O   UNL A   1      31.945  27.859  28.122  1.00  0.00    -0.268 OA
ATOM      7  H   UNL A   1      32.682  29.932  28.678  1.00  0.00     0.163 HD
BRANCH   5   8
ATOM      8  C   UNL A   1      33.293  27.703  26.073  1.00  0.00     0.186 C 
ATOM      9  C   UNL A   1      34.703  28.307  25.818  1.00  0.00     0.091 C 
ATOM     10  N   UNL A   1      33.443  26.207  26.239  1.00  0.00    -0.314 N 
ATOM     11  C   UNL A   1      32.526  27.789  24.783  1.00  0.00     0.170 C 
ATOM     12  C   UNL A   1      32.511  25.491  25.265  1.00  0.00     0.236 C 
ATOM     13  H   UNL A   1      33.202  25.945  27.196  1.00  0.00     0.348 HD
ATOM     14  H   UNL A   1      34.408  25.938  26.048  1.00  0.00     0.348 HD
ATOM     15  C   UNL A   1      31.612  26.582  24.764  1.00  0.00     0.177 C 
ATOM     16  C   UNL A   1      31.591  28.862  24.368  1.00  0.00     0.244 C 
ATOM     17  C   UNL A   1      33.257  24.705  24.184  1.00  0.00     0.232 C 
ATOM     18  C   UNL A   1      31.804  24.368  26.048  1.00  0.00     0.232 C 
ATOM     19  C   UNL A   1      30.917  26.836  23.466  1.00  0.00     0.245 C 
ATOM     20  N   UNL A   1      30.752  28.227  23.451  1.00  0.00    -0.250 N 
ATOM     21  O   UNL A   1      31.619  30.019  24.744  1.00  0.00    -0.273 OA
ATOM     22  O   UNL A   1      34.019  25.167  23.353  1.00  0.00    -0.286 OA
ATOM     23  C   UNL A   1      32.945  23.272  24.343  1.00  0.00     0.036 A 
ATOM     24  C   UNL A   1      32.126  23.091  25.447  1.00  0.00     0.036 A 
ATOM     25  O   UNL A   1      31.087  24.432  27.030  1.00  0.00    -0.286 OA
ATOM     26  O   UNL A   1      30.473  25.977  22.726  1.00  0.00    -0.273 OA
ATOM     27  C   UNL A   1      33.354  22.184  23.596  1.00  0.00     0.013 A 
ATOM     28  C   UNL A   1      31.702  21.846  25.879  1.00  0.00     0.013 A 
ATOM     29  C   UNL A   1      32.920  20.911  24.001  1.00  0.00     0.001 A 
ATOM     30  C   UNL A   1      32.108  20.742  25.138  1.00  0.00     0.001 A 
BRANCH  20  31
ATOM     31  C   UNL A   1      29.721  28.921  22.793  1.00  0.00     0.052 A 
ATOM     32  C   UNL A   1      30.028  29.913  21.853  1.00  0.00     0.027 A 
ATOM     33  C   UNL A   1      28.391  28.736  23.187  1.00  0.00     0.027 A 
ATOM     34  C   UNL A   1      29.019  30.708  21.308  1.00  0.00     0.002 A 
ATOM     35  C   UNL A   1      27.392  29.572  22.683  1.00  0.00     0.002 A 
ATOM     36  C   UNL A   1      27.704  30.551  21.740  1.00  0.00     0.000 A 
ENDBRANCH  20  31
ENDBRANCH   5   8
ENDBRANCH   3   4
ENDBRANCH   2   3
ENDBRANCH   1   2
BRANCH   1  37
ATOM     37  N   UNL A   1      35.594  31.069  30.070  1.00  0.00    -0.352 N 
ATOM     38  C   UNL A   1      36.517  30.335  30.786  1.00  0.00     0.251 C 
ATOM     39  H   UNL A   1      34.719  31.127  30.519  1.00  0.00     0.163 HD
ATOM     40  O   UNL A   1      36.119  29.762  31.802  1.00  0.00    -0.269 OA
BRANCH  38  41
ATOM     41  C   UNL A   1      37.937  30.160  30.371  1.00  0.00     0.039 A 
ATOM     42  C   UNL A   1      38.331  30.099  29.042  1.00  0.00     0.014 A 
ATOM     43  C   UNL A   1      38.938  30.096  31.355  1.00  0.00     0.014 A 
ATOM     44  C   UNL A   1      39.634  29.744  28.704  1.00  0.00     0.010 A 
ATOM     45  C   UNL A   1      40.285  29.887  31.006  1.00  0.00     0.010 A 
ATOM     46  C   UNL A   1      40.642  29.643  29.673  1.00  0.00    -0.014 A 
BRANCH  46  47
ATOM     47  C   UNL A   1      42.027  29.278  29.240  1.00  0.00     0.031 A 
ATOM     48  C   UNL A   1      42.338  27.903  28.696  1.00  0.00     0.074 A 
ATOM     49  C   UNL A   1      42.991  30.226  29.224  1.00  0.00     0.049 A 
ATOM     50  N   UNL A   1      43.466  27.453  28.204  1.00  0.00    -0.248 NA
ATOM     51  C   UNL A   1      41.259  26.902  28.711  1.00  0.00     0.031 C 
ATOM     52  C   UNL A   1      42.829  31.597  29.715  1.00  0.00     0.029 A 
ATOM     53  N   UNL A   1      44.270  30.212  28.719  1.00  0.00    -0.354 N 
ATOM     54  C   UNL A   1      43.241  26.118  27.883  1.00  0.00     0.074 A 
ATOM     55  C   UNL A   1      41.879  25.818  28.262  1.00  0.00     0.031 C 
ATOM     56  C   UNL A   1      43.903  32.320  29.372  1.00  0.00     0.029 A 
ATOM     57  C   UNL A   1      44.881  31.448  28.729  1.00  0.00     0.049 A 
ATOM     58  H   UNL A   1      44.708  29.397  28.382  1.00  0.00     0.167 HD
ATOM     59  C   UNL A   1      44.084  25.227  27.309  1.00  0.00     0.031 A 
ATOM     60  C   UNL A   1      46.087  31.849  28.276  1.00  0.00     0.031 A 
ATOM     61  C   UNL A   1      45.427  25.534  26.893  1.00  0.00     0.049 A 
ATOM     62  C   UNL A   1      47.004  30.844  27.645  1.00  0.00     0.074 A 
ATOM     63  C   UNL A   1      46.356  24.688  26.310  1.00  0.00     0.029 A 
ATOM     64  N   UNL A   1      46.025  26.780  26.986  1.00  0.00    -0.354 N 
ATOM     65  N   UNL A   1      46.778  29.578  27.392  1.00  0.00    -0.248 NA
ATOM     66  C   UNL A   1      48.341  31.311  27.251  1.00  0.00     0.031 C 
ATOM     67  C   UNL A   1      47.529  25.411  26.092  1.00  0.00     0.029 A 
ATOM     68  C   UNL A   1      47.313  26.723  26.480  1.00  0.00     0.049 A 
ATOM     69  H   UNL A   1      45.599  27.586  27.357  1.00  0.00     0.167 HD
ATOM     70  C   UNL A   1      47.942  29.096  26.807  1.00  0.00     0.074 A 
ATOM     71  C   UNL A   1      48.863  30.212  26.720  1.00  0.00     0.031 C 
ATOM     72  C   UNL A   1      48.222  27.838  26.391  1.00  0.00     0.031 A 
BRANCH  59  73
ATOM     73  C   UNL A   1      43.592  23.820  27.087  1.00  0.00    -0.014 A 
ATOM     74  C   UNL A   1      43.208  23.409  25.796  1.00  0.00     0.010 A 
ATOM     75  C   UNL A   1      43.405  22.939  28.168  1.00  0.00     0.010 A 
ATOM     76  C   UNL A   1      42.625  22.156  25.592  1.00  0.00     0.020 A 
ATOM     77  C   UNL A   1      42.846  21.673  27.962  1.00  0.00     0.020 A 
ATOM     78  C   UNL A   1      42.442  21.298  26.679  1.00  0.00     0.054 A 
BRANCH  78  79
ATOM     79  S   UNL A   1      41.683  19.673  26.403  1.00  0.00     0.124 S 
ATOM     80  O   UNL A   1      40.274  20.013  26.238  1.00  0.00    -0.237 OA
ATOM     81  O   UNL A   1      42.366  19.199  25.201  1.00  0.00    -0.237 OA
ATOM     82  O   UNL A   1      42.013  18.935  27.622  1.00  0.00    -0.744 OA
ENDBRANCH  78  79
ENDBRANCH  59  73
BRANCH  60  83
ATOM     83  C   UNL A   1      46.469  33.285  28.401  1.00  0.00    -0.014 A 
ATOM     84  C   UNL A   1      47.065  33.762  29.584  1.00  0.00     0.010 A 
ATOM     85  C   UNL A   1      46.154  34.200  27.380  1.00  0.00     0.010 A 
ATOM     86  C   UNL A   1      47.273  35.131  29.774  1.00  0.00     0.020 A 
ATOM     87  C   UNL A   1      46.392  35.568  27.553  1.00  0.00     0.020 A 
ATOM     88  C   UNL A   1      46.918  36.026  28.764  1.00  0.00     0.054 A 
BRANCH  88  89
ATOM     89  S   UNL A   1      47.139  37.804  29.056  1.00  0.00     0.124 S 
ATOM     90  O   UNL A   1      47.288  37.850  30.508  1.00  0.00    -0.237 OA
ATOM     91  O   UNL A   1      48.344  38.108  28.290  1.00  0.00    -0.237 OA
ATOM     92  O   UNL A   1      45.908  38.390  28.534  1.00  0.00    -0.744 OA
ENDBRANCH  88  89
ENDBRANCH  60  83
BRANCH  72  93
ATOM     93  C   UNL A   1      49.574  27.570  25.789  1.00  0.00    -0.014 A 
ATOM     94  C   UNL A   1      49.706  27.471  24.392  1.00  0.00     0.010 A 
ATOM     95  C   UNL A   1      50.678  27.272  26.607  1.00  0.00     0.010 A 
ATOM     96  C   UNL A   1      50.908  27.044  23.822  1.00  0.00     0.020 A 
ATOM     97  C   UNL A   1      51.889  26.868  26.039  1.00  0.00     0.020 A 
ATOM     98  C   UNL A   1      51.988  26.730  24.652  1.00  0.00     0.054 A 
BRANCH  98  99
ATOM     99  S   UNL A   1      53.526  26.132  23.899  1.00  0.00     0.124 S 
ATOM    100  O   UNL A   1      54.477  27.173  24.276  1.00  0.00    -0.237 OA
ATOM    101  O   UNL A   1      53.721  24.836  24.546  1.00  0.00    -0.237 OA
ATOM    102  O   UNL A   1      53.204  26.065  22.474  1.00  0.00    -0.744 OA
ENDBRANCH  98  99
ENDBRANCH  72  93
ENDBRANCH  46  47
ENDBRANCH  38  41
ENDBRANCH   1  37
TORSDOF 14
ENDMDL
