MODEL 1
REMARK VINA RESULT:     -10.9      0.000      0.000
REMARK SMILES CC1(C)CCCC[C@@]1(C(=O)NCCCNC(=O)c1ccc(-c2c3nc(c(-c4ccc(S(=O)(=O)[O-])cc4)c4ccc([nH]4)c(-c4ccc(S(=O)(=O)[O-])cc4)c4nc(c(-c5ccc(S(=O)(=O)[O-])cc5)c5ccc2[nH]5)C=C4)C=C3)cc1)[NH+]1CC[NH2+]CC1
REMARK SMILES IDX 14 1 13 2 12 3 11 4 9 5 10 6 8 8 1 9 2 10 3 11 4 12 5 13
REMARK SMILES IDX 7 14 6 15 78 16 79 17 83 18 80 20 82 21 81 22 15 25 16 26
REMARK SMILES IDX 17 28 18 29 19 30 77 31 20 32 76 33 21 34 22 35 23 36 70 37
REMARK SMILES IDX 24 38 75 39 69 40 71 41 25 42 74 43 68 44 67 45 26 47 56 48
REMARK SMILES IDX 37 49 55 50 38 51 41 52 54 53 72 54 39 55 40 56 53 58 73 59
REMARK SMILES IDX 42 60 27 61 28 62 36 63 29 64 35 65 30 66 31 67 32 68 33 69
REMARK SMILES IDX 34 70 57 71 58 72 66 73 59 74 65 75 60 76 61 77 62 78 63 79
REMARK SMILES IDX 64 80 43 81 44 82 52 83 45 84 51 85 46 86 47 87 48 88 49 89
REMARK SMILES IDX 50 90
REMARK H PARENT 11 7 78 19 81 23 81 24 15 27 71 46 41 57
REMARK Flexibility Score: inf
ROOT
ATOM      1  C   UNL A   1      34.031  28.010  26.343  1.00  0.00     0.118 C 
ENDROOT
BRANCH   1   2
ATOM      2  C   UNL A   1      33.879  27.810  24.837  1.00  0.00     0.042 C 
BRANCH   2   3
ATOM      3  C   UNL A   1      33.932  26.346  24.379  1.00  0.00     0.118 C 
BRANCH   3   4
ATOM      4  N   UNL A   1      34.678  25.512  25.311  1.00  0.00    -0.351 N 
ATOM      5  C   UNL A   1      34.827  24.191  25.594  1.00  0.00     0.281 C 
ATOM      6  O   UNL A   1      35.461  24.039  26.650  1.00  0.00    -0.268 OA
ATOM      7  H   UNL A   1      35.233  26.063  25.908  1.00  0.00     0.163 HD
BRANCH   5   8
ATOM      8  C   UNL A   1      34.272  22.926  24.728  1.00  0.00     0.182 C 
ATOM      9  C   UNL A   1      34.580  20.202  24.727  1.00  0.00     0.018 C 
ATOM     10  C   UNL A   1      34.784  21.559  25.484  1.00  0.00     0.029 C 
ATOM     11  C   UNL A   1      34.076  21.363  26.850  1.00  0.00     0.018 C 
ATOM     12  C   UNL A   1      36.336  21.637  25.674  1.00  0.00     0.013 C 
ATOM     13  C   UNL A   1      37.101  21.857  24.360  1.00  0.00     0.001 C 
ATOM     14  C   UNL A   1      34.976  22.900  23.344  1.00  0.00     0.080 C 
ATOM     15  C   UNL A   1      36.510  22.936  23.455  1.00  0.00     0.007 C 
BRANCH   8  16
ATOM     16  N   UNL A   1      32.750  23.015  24.679  1.00  0.00    -0.313 N 
ATOM     17  C   UNL A   1      32.134  23.516  23.439  1.00  0.00     0.325 C 
ATOM     18  C   UNL A   1      32.127  23.674  25.839  1.00  0.00     0.325 C 
ATOM     19  H   UNL A   1      32.539  22.018  24.709  1.00  0.00     0.349 HD
ATOM     20  C   UNL A   1      30.593  23.689  23.465  1.00  0.00     0.322 C 
ATOM     21  C   UNL A   1      30.589  23.821  25.817  1.00  0.00     0.322 C 
ATOM     22  N   UNL A   1      30.109  24.475  24.599  1.00  0.00    -0.337 N 
ATOM     23  H   UNL A   1      29.089  24.502  24.594  1.00  0.00     0.346 HD
ATOM     24  H   UNL A   1      30.451  25.435  24.545  1.00  0.00     0.346 HD
ENDBRANCH   8  16
ENDBRANCH   5   8
ENDBRANCH   3   4
ENDBRANCH   2   3
ENDBRANCH   1   2
BRANCH   1  25
ATOM     25  N   UNL A   1      33.699  29.367  26.746  1.00  0.00    -0.352 N 
ATOM     26  C   UNL A   1      34.373  30.215  27.589  1.00  0.00     0.251 C 
ATOM     27  H   UNL A   1      32.869  29.730  26.359  1.00  0.00     0.163 HD
ATOM     28  O   UNL A   1      33.800  31.222  28.015  1.00  0.00    -0.269 OA
BRANCH  26  29
ATOM     29  C   UNL A   1      35.765  29.930  28.005  1.00  0.00     0.039 A 
ATOM     30  C   UNL A   1      36.004  29.457  29.299  1.00  0.00     0.014 A 
ATOM     31  C   UNL A   1      36.842  30.166  27.145  1.00  0.00     0.014 A 
ATOM     32  C   UNL A   1      37.310  29.165  29.707  1.00  0.00     0.010 A 
ATOM     33  C   UNL A   1      38.136  29.811  27.530  1.00  0.00     0.010 A 
ATOM     34  C   UNL A   1      38.385  29.307  28.816  1.00  0.00    -0.014 A 
BRANCH  34  35
ATOM     35  C   UNL A   1      39.770  28.926  29.203  1.00  0.00     0.031 A 
ATOM     36  C   UNL A   1      40.682  29.928  29.860  1.00  0.00     0.074 A 
ATOM     37  C   UNL A   1      40.234  27.697  28.896  1.00  0.00     0.049 A 
ATOM     38  N   UNL A   1      41.945  29.807  30.184  1.00  0.00    -0.248 NA
ATOM     39  C   UNL A   1      40.110  31.248  30.173  1.00  0.00     0.031 C 
ATOM     40  C   UNL A   1      39.467  26.644  28.225  1.00  0.00     0.029 A 
ATOM     41  N   UNL A   1      41.469  27.129  29.092  1.00  0.00    -0.354 N 
ATOM     42  C   UNL A   1      42.323  31.034  30.716  1.00  0.00     0.074 A 
ATOM     43  C   UNL A   1      41.166  31.899  30.640  1.00  0.00     0.031 C 
ATOM     44  C   UNL A   1      40.243  25.559  28.076  1.00  0.00     0.029 A 
ATOM     45  C   UNL A   1      41.574  25.848  28.599  1.00  0.00     0.049 A 
ATOM     46  H   UNL A   1      42.211  27.595  29.542  1.00  0.00     0.167 HD
ATOM     47  C   UNL A   1      43.520  31.404  31.231  1.00  0.00     0.031 A 
ATOM     48  C   UNL A   1      42.625  25.006  28.555  1.00  0.00     0.031 A 
ATOM     49  C   UNL A   1      44.664  30.536  31.325  1.00  0.00     0.049 A 
ATOM     50  C   UNL A   1      43.944  25.444  29.132  1.00  0.00     0.074 A 
ATOM     51  C   UNL A   1      45.898  30.801  31.895  1.00  0.00     0.029 A 
ATOM     52  N   UNL A   1      44.721  29.242  30.835  1.00  0.00    -0.354 N 
ATOM     53  N   UNL A   1      44.257  26.587  29.695  1.00  0.00    -0.248 NA
ATOM     54  C   UNL A   1      45.048  24.476  29.075  1.00  0.00     0.031 C 
ATOM     55  C   UNL A   1      46.718  29.684  31.704  1.00  0.00     0.029 A 
ATOM     56  C   UNL A   1      45.976  28.703  31.065  1.00  0.00     0.049 A 
ATOM     57  H   UNL A   1      43.978  28.773  30.391  1.00  0.00     0.167 HD
ATOM     58  C   UNL A   1      45.589  26.465  30.078  1.00  0.00     0.074 A 
ATOM     59  C   UNL A   1      46.014  25.133  29.701  1.00  0.00     0.031 C 
ATOM     60  C   UNL A   1      46.387  27.377  30.686  1.00  0.00     0.031 A 
BRANCH  47  61
ATOM     61  C   UNL A   1      43.663  32.818  31.735  1.00  0.00    -0.014 A 
ATOM     62  C   UNL A   1      44.131  33.844  30.896  1.00  0.00     0.010 A 
ATOM     63  C   UNL A   1      43.255  33.135  33.043  1.00  0.00     0.010 A 
ATOM     64  C   UNL A   1      44.215  35.158  31.365  1.00  0.00     0.020 A 
ATOM     65  C   UNL A   1      43.313  34.453  33.508  1.00  0.00     0.020 A 
ATOM     66  C   UNL A   1      43.805  35.454  32.668  1.00  0.00     0.054 A 
BRANCH  66  67
ATOM     67  S   UNL A   1      43.881  37.177  33.234  1.00  0.00     0.124 S 
ATOM     68  O   UNL A   1      45.172  37.212  33.915  1.00  0.00    -0.237 OA
ATOM     69  O   UNL A   1      43.810  37.928  31.982  1.00  0.00    -0.237 OA
ATOM     70  O   UNL A   1      42.715  37.309  34.103  1.00  0.00    -0.744 OA
ENDBRANCH  66  67
ENDBRANCH  47  61
BRANCH  48  71
ATOM     71  C   UNL A   1      42.479  23.662  27.931  1.00  0.00    -0.014 A 
ATOM     72  C   UNL A   1      42.135  22.543  28.709  1.00  0.00     0.010 A 
ATOM     73  C   UNL A   1      42.692  23.494  26.549  1.00  0.00     0.010 A 
ATOM     74  C   UNL A   1      42.033  21.278  28.125  1.00  0.00     0.020 A 
ATOM     75  C   UNL A   1      42.562  22.236  25.956  1.00  0.00     0.020 A 
ATOM     76  C   UNL A   1      42.248  21.132  26.751  1.00  0.00     0.054 A 
BRANCH  76  77
ATOM     77  S   UNL A   1      42.074  19.486  26.007  1.00  0.00     0.124 S 
ATOM     78  O   UNL A   1      40.644  19.432  25.722  1.00  0.00    -0.237 OA
ATOM     79  O   UNL A   1      42.951  19.570  24.842  1.00  0.00    -0.237 OA
ATOM     80  O   UNL A   1      42.538  18.585  27.061  1.00  0.00    -0.744 OA
ENDBRANCH  76  77
ENDBRANCH  48  71
BRANCH  60  81
ATOM     81  C   UNL A   1      47.796  26.956  31.011  1.00  0.00    -0.014 A 
ATOM     82  C   UNL A   1      48.110  26.356  32.243  1.00  0.00     0.010 A 
ATOM     83  C   UNL A   1      48.808  27.116  30.047  1.00  0.00     0.010 A 
ATOM     84  C   UNL A   1      49.420  25.953  32.519  1.00  0.00     0.020 A 
ATOM     85  C   UNL A   1      50.113  26.689  30.308  1.00  0.00     0.020 A 
ATOM     86  C   UNL A   1      50.413  26.122  31.549  1.00  0.00     0.054 A 
BRANCH  86  87
ATOM     87  S   UNL A   1      52.096  25.553  31.913  1.00  0.00     0.124 S 
ATOM     88  O   UNL A   1      52.809  25.913  30.691  1.00  0.00    -0.237 OA
ATOM     89  O   UNL A   1      52.449  26.329  33.099  1.00  0.00    -0.237 OA
ATOM     90  O   UNL A   1      51.935  24.119  32.142  1.00  0.00    -0.744 OA
ENDBRANCH  86  87
ENDBRANCH  60  81
ENDBRANCH  34  35
ENDBRANCH  26  29
ENDBRANCH   1  25
TORSDOF 14
ENDMDL
MODEL 2
REMARK VINA RESULT:     -10.8      4.493     10.205
REMARK SMILES CC1(C)CCCC[C@@]1(C(=O)NCCCNC(=O)c1ccc(-c2c3nc(c(-c4ccc(S(=O)(=O)[O-])cc4)c4ccc([nH]4)c(-c4ccc(S(=O)(=O)[O-])cc4)c4nc(c(-c5ccc(S(=O)(=O)[O-])cc5)c5ccc2[nH]5)C=C4)C=C3)cc1)[NH+]1CC[NH2+]CC1
REMARK SMILES IDX 14 1 13 2 12 3 11 4 9 5 10 6 8 8 1 9 2 10 3 11 4 12 5 13
REMARK SMILES IDX 7 14 6 15 78 16 79 17 83 18 80 20 82 21 81 22 15 25 16 26
REMARK SMILES IDX 17 28 18 29 19 30 77 31 20 32 76 33 21 34 22 35 23 36 70 37
REMARK SMILES IDX 24 38 75 39 69 40 71 41 25 42 74 43 68 44 67 45 26 47 56 48
REMARK SMILES IDX 37 49 55 50 38 51 41 52 54 53 72 54 39 55 40 56 53 58 73 59
REMARK SMILES IDX 42 60 27 61 28 62 36 63 29 64 35 65 30 66 31 67 32 68 33 69
REMARK SMILES IDX 34 70 57 71 58 72 66 73 59 74 65 75 60 76 61 77 62 78 63 79
REMARK SMILES IDX 64 80 43 81 44 82 52 83 45 84 51 85 46 86 47 87 48 88 49 89
REMARK SMILES IDX 50 90
REMARK H PARENT 11 7 78 19 81 23 81 24 15 27 71 46 41 57
REMARK Flexibility Score: inf
ROOT
ATOM      1  C   UNL A   1      38.387  24.066  26.621  1.00  0.00     0.118 C 
ENDROOT
BRANCH   1   2
ATOM      2  C   UNL A   1      37.479  23.271  25.685  1.00  0.00     0.042 C 
BRANCH   2   3
ATOM      3  C   UNL A   1      36.266  24.051  25.159  1.00  0.00     0.118 C 
BRANCH   3   4
ATOM      4  N   UNL A   1      35.052  23.729  25.896  1.00  0.00    -0.351 N 
ATOM      5  C   UNL A   1      33.723  24.008  25.831  1.00  0.00     0.281 C 
ATOM      6  O   UNL A   1      33.145  23.619  26.858  1.00  0.00    -0.268 OA
ATOM      7  H   UNL A   1      35.251  23.143  26.660  1.00  0.00     0.163 HD
BRANCH   5   8
ATOM      8  C   UNL A   1      32.927  24.752  24.619  1.00  0.00     0.182 C 
ATOM      9  C   UNL A   1      30.518  24.490  23.338  1.00  0.00     0.018 C 
ATOM     10  C   UNL A   1      31.415  24.110  24.565  1.00  0.00     0.029 C 
ATOM     11  C   UNL A   1      30.580  24.512  25.809  1.00  0.00     0.018 C 
ATOM     12  C   UNL A   1      31.530  22.552  24.460  1.00  0.00     0.013 C 
ATOM     13  C   UNL A   1      32.369  22.083  23.261  1.00  0.00     0.001 C 
ATOM     14  C   UNL A   1      33.571  24.362  23.261  1.00  0.00     0.080 C 
ATOM     15  C   UNL A   1      33.683  22.839  23.072  1.00  0.00     0.007 C 
BRANCH   8  16
ATOM     16  N   UNL A   1      32.901  26.248  24.916  1.00  0.00    -0.313 N 
ATOM     17  C   UNL A   1      33.007  27.174  23.777  1.00  0.00     0.325 C 
ATOM     18  C   UNL A   1      33.807  26.685  25.991  1.00  0.00     0.325 C 
ATOM     19  H   UNL A   1      31.937  26.322  25.242  1.00  0.00     0.349 HD
ATOM     20  C   UNL A   1      33.081  28.683  24.128  1.00  0.00     0.322 C 
ATOM     21  C   UNL A   1      33.843  28.199  26.304  1.00  0.00     0.322 C 
ATOM     22  N   UNL A   1      34.112  29.007  25.113  1.00  0.00    -0.337 N 
ATOM     23  H   UNL A   1      34.071  29.999  25.347  1.00  0.00     0.346 HD
ATOM     24  H   UNL A   1      35.041  28.808  24.743  1.00  0.00     0.346 HD
ENDBRANCH   8  16
ENDBRANCH   5   8
ENDBRANCH   3   4
ENDBRANCH   2   3
ENDBRANCH   1   2
BRANCH   1  25
ATOM     25  N   UNL A   1      39.791  23.909  26.278  1.00  0.00    -0.352 N 
ATOM     26  C   UNL A   1      40.858  24.719  26.578  1.00  0.00     0.251 C 
ATOM     27  H   UNL A   1      40.009  23.105  25.752  1.00  0.00     0.163 HD
ATOM     28  O   UNL A   1      41.923  24.560  25.977  1.00  0.00    -0.269 OA
BRANCH  26  29
ATOM     29  C   UNL A   1      40.741  25.787  27.598  1.00  0.00     0.039 A 
ATOM     30  C   UNL A   1      39.710  25.716  28.540  1.00  0.00     0.014 A 
ATOM     31  C   UNL A   1      41.613  26.880  27.607  1.00  0.00     0.014 A 
ATOM     32  C   UNL A   1      39.591  26.705  29.522  1.00  0.00     0.010 A 
ATOM     33  C   UNL A   1      41.534  27.829  28.627  1.00  0.00     0.010 A 
ATOM     34  C   UNL A   1      40.522  27.753  29.596  1.00  0.00    -0.014 A 
BRANCH  34  35
ATOM     35  C   UNL A   1      40.461  28.769  30.681  1.00  0.00     0.031 A 
ATOM     36  C   UNL A   1      41.336  28.638  31.900  1.00  0.00     0.074 A 
ATOM     37  C   UNL A   1      39.564  29.773  30.605  1.00  0.00     0.049 A 
ATOM     38  N   UNL A   1      41.358  29.372  32.984  1.00  0.00    -0.248 NA
ATOM     39  C   UNL A   1      42.298  27.523  31.914  1.00  0.00     0.031 C 
ATOM     40  C   UNL A   1      38.630  29.994  29.498  1.00  0.00     0.029 A 
ATOM     41  N   UNL A   1      39.276  30.789  31.484  1.00  0.00    -0.354 N 
ATOM     42  C   UNL A   1      42.312  28.798  33.815  1.00  0.00     0.074 A 
ATOM     43  C   UNL A   1      42.826  27.634  33.126  1.00  0.00     0.031 C 
ATOM     44  C   UNL A   1      37.884  31.079  29.759  1.00  0.00     0.029 A 
ATOM     45  C   UNL A   1      38.252  31.608  31.068  1.00  0.00     0.049 A 
ATOM     46  H   UNL A   1      39.758  30.918  32.334  1.00  0.00     0.167 HD
ATOM     47  C   UNL A   1      42.733  29.208  35.036  1.00  0.00     0.031 A 
ATOM     48  C   UNL A   1      37.661  32.656  31.676  1.00  0.00     0.031 A 
ATOM     49  C   UNL A   1      42.236  30.377  35.713  1.00  0.00     0.049 A 
ATOM     50  C   UNL A   1      38.146  33.088  33.033  1.00  0.00     0.074 A 
ATOM     51  C   UNL A   1      42.652  30.911  36.921  1.00  0.00     0.029 A 
ATOM     52  N   UNL A   1      41.216  31.191  35.246  1.00  0.00    -0.354 N 
ATOM     53  N   UNL A   1      39.101  32.572  33.769  1.00  0.00    -0.248 NA
ATOM     54  C   UNL A   1      37.479  34.250  33.638  1.00  0.00     0.031 C 
ATOM     55  C   UNL A   1      41.847  32.018  37.210  1.00  0.00     0.029 A 
ATOM     56  C   UNL A   1      40.969  32.207  36.155  1.00  0.00     0.049 A 
ATOM     57  H   UNL A   1      40.738  31.066  34.395  1.00  0.00     0.167 HD
ATOM     58  C   UNL A   1      39.162  33.361  34.914  1.00  0.00     0.074 A 
ATOM     59  C   UNL A   1      38.163  34.398  34.763  1.00  0.00     0.031 C 
ATOM     60  C   UNL A   1      39.973  33.234  35.993  1.00  0.00     0.031 A 
BRANCH  47  61
ATOM     61  C   UNL A   1      43.785  28.383  35.733  1.00  0.00    -0.014 A 
ATOM     62  C   UNL A   1      45.153  28.662  35.570  1.00  0.00     0.010 A 
ATOM     63  C   UNL A   1      43.395  27.364  36.620  1.00  0.00     0.010 A 
ATOM     64  C   UNL A   1      46.114  27.917  36.259  1.00  0.00     0.020 A 
ATOM     65  C   UNL A   1      44.352  26.633  37.332  1.00  0.00     0.020 A 
ATOM     66  C   UNL A   1      45.707  26.907  37.136  1.00  0.00     0.054 A 
BRANCH  66  67
ATOM     67  S   UNL A   1      46.975  25.989  38.052  1.00  0.00     0.124 S 
ATOM     68  O   UNL A   1      46.177  24.975  38.736  1.00  0.00    -0.237 OA
ATOM     69  O   UNL A   1      47.843  25.491  36.987  1.00  0.00    -0.237 OA
ATOM     70  O   UNL A   1      47.577  26.998  38.921  1.00  0.00    -0.744 OA
ENDBRANCH  66  67
ENDBRANCH  47  61
BRANCH  48  71
ATOM     71  C   UNL A   1      36.535  33.367  31.011  1.00  0.00    -0.014 A 
ATOM     72  C   UNL A   1      35.287  33.487  31.647  1.00  0.00     0.010 A 
ATOM     73  C   UNL A   1      36.704  33.922  29.728  1.00  0.00     0.010 A 
ATOM     74  C   UNL A   1      34.222  34.125  31.004  1.00  0.00     0.020 A 
ATOM     75  C   UNL A   1      35.651  34.587  29.095  1.00  0.00     0.020 A 
ATOM     76  C   UNL A   1      34.411  34.671  29.731  1.00  0.00     0.054 A 
BRANCH  76  77
ATOM     77  S   UNL A   1      33.026  35.527  28.931  1.00  0.00     0.124 S 
ATOM     78  O   UNL A   1      32.437  34.462  28.125  1.00  0.00    -0.237 OA
ATOM     79  O   UNL A   1      32.229  35.975  30.070  1.00  0.00    -0.237 OA
ATOM     80  O   UNL A   1      33.677  36.597  28.177  1.00  0.00    -0.744 OA
ENDBRANCH  76  77
ENDBRANCH  48  71
BRANCH  60  81
ATOM     81  C   UNL A   1      39.836  34.260  37.086  1.00  0.00    -0.014 A 
ATOM     82  C   UNL A   1      40.473  35.510  36.994  1.00  0.00     0.010 A 
ATOM     83  C   UNL A   1      39.015  33.989  38.196  1.00  0.00     0.010 A 
ATOM     84  C   UNL A   1      40.318  36.459  38.009  1.00  0.00     0.020 A 
ATOM     85  C   UNL A   1      38.834  34.945  39.198  1.00  0.00     0.020 A 
ATOM     86  C   UNL A   1      39.499  36.170  39.105  1.00  0.00     0.054 A 
BRANCH  86  87
ATOM     87  S   UNL A   1      39.278  37.432  40.388  1.00  0.00     0.124 S 
ATOM     88  O   UNL A   1      38.859  36.630  41.534  1.00  0.00    -0.237 OA
ATOM     89  O   UNL A   1      40.610  38.025  40.488  1.00  0.00    -0.237 OA
ATOM     90  O   UNL A   1      38.252  38.313  39.835  1.00  0.00    -0.744 OA
ENDBRANCH  86  87
ENDBRANCH  60  81
ENDBRANCH  34  35
ENDBRANCH  26  29
ENDBRANCH   1  25
TORSDOF 14
ENDMDL
MODEL 3
REMARK VINA RESULT:     -10.6      3.186      4.192
REMARK SMILES CC1(C)CCCC[C@@]1(C(=O)NCCCNC(=O)c1ccc(-c2c3nc(c(-c4ccc(S(=O)(=O)[O-])cc4)c4ccc([nH]4)c(-c4ccc(S(=O)(=O)[O-])cc4)c4nc(c(-c5ccc(S(=O)(=O)[O-])cc5)c5ccc2[nH]5)C=C4)C=C3)cc1)[NH+]1CC[NH2+]CC1
REMARK SMILES IDX 14 1 13 2 12 3 11 4 9 5 10 6 8 8 1 9 2 10 3 11 4 12 5 13
REMARK SMILES IDX 7 14 6 15 78 16 79 17 83 18 80 20 82 21 81 22 15 25 16 26
REMARK SMILES IDX 17 28 18 29 19 30 77 31 20 32 76 33 21 34 22 35 23 36 70 37
REMARK SMILES IDX 24 38 75 39 69 40 71 41 25 42 74 43 68 44 67 45 26 47 56 48
REMARK SMILES IDX 37 49 55 50 38 51 41 52 54 53 72 54 39 55 40 56 53 58 73 59
REMARK SMILES IDX 42 60 27 61 28 62 36 63 29 64 35 65 30 66 31 67 32 68 33 69
REMARK SMILES IDX 34 70 57 71 58 72 66 73 59 74 65 75 60 76 61 77 62 78 63 79
REMARK SMILES IDX 64 80 43 81 44 82 52 83 45 84 51 85 46 86 47 87 48 88 49 89
REMARK SMILES IDX 50 90
REMARK H PARENT 11 7 78 19 81 23 81 24 15 27 71 46 41 57
REMARK Flexibility Score: inf
ROOT
ATOM      1  C   UNL A   1      35.501  30.862  27.937  1.00  0.00     0.118 C 
ENDROOT
BRANCH   1   2
ATOM      2  C   UNL A   1      34.136  30.575  27.315  1.00  0.00     0.042 C 
BRANCH   2   3
ATOM      3  C   UNL A   1      34.014  29.197  26.652  1.00  0.00     0.118 C 
BRANCH   3   4
ATOM      4  N   UNL A   1      32.904  28.428  27.196  1.00  0.00    -0.351 N 
ATOM      5  C   UNL A   1      31.930  27.593  26.744  1.00  0.00     0.281 C 
ATOM      6  O   UNL A   1      31.101  27.364  27.638  1.00  0.00    -0.268 OA
ATOM      7  H   UNL A   1      32.838  28.548  28.170  1.00  0.00     0.163 HD
BRANCH   5   8
ATOM      8  C   UNL A   1      31.794  26.951  25.252  1.00  0.00     0.182 C 
ATOM      9  C   UNL A   1      31.148  24.520  24.162  1.00  0.00     0.018 C 
ATOM     10  C   UNL A   1      31.166  25.443  25.429  1.00  0.00     0.029 C 
ATOM     11  C   UNL A   1      29.691  25.491  25.908  1.00  0.00     0.018 C 
ATOM     12  C   UNL A   1      32.049  24.643  26.446  1.00  0.00     0.013 C 
ATOM     13  C   UNL A   1      33.530  24.577  26.046  1.00  0.00     0.001 C 
ATOM     14  C   UNL A   1      33.210  26.723  24.656  1.00  0.00     0.080 C 
ATOM     15  C   UNL A   1      34.124  25.909  25.589  1.00  0.00     0.007 C 
BRANCH   8  16
ATOM     16  N   UNL A   1      30.883  27.854  24.427  1.00  0.00    -0.313 N 
ATOM     17  C   UNL A   1      30.851  27.647  22.970  1.00  0.00     0.325 C 
ATOM     18  C   UNL A   1      31.005  29.293  24.716  1.00  0.00     0.325 C 
ATOM     19  H   UNL A   1      29.984  27.520  24.773  1.00  0.00     0.349 HD
ATOM     20  C   UNL A   1      29.993  28.651  22.156  1.00  0.00     0.322 C 
ATOM     21  C   UNL A   1      30.128  30.252  23.879  1.00  0.00     0.322 C 
ATOM     22  N   UNL A   1      30.303  30.051  22.439  1.00  0.00    -0.337 N 
ATOM     23  H   UNL A   1      29.668  30.660  21.922  1.00  0.00     0.346 HD
ATOM     24  H   UNL A   1      31.256  30.276  22.156  1.00  0.00     0.346 HD
ENDBRANCH   8  16
ENDBRANCH   5   8
ENDBRANCH   3   4
ENDBRANCH   2   3
ENDBRANCH   1   2
BRANCH   1  25
ATOM     25  N   UNL A   1      35.425  30.973  29.385  1.00  0.00    -0.352 N 
ATOM     26  C   UNL A   1      36.289  30.499  30.341  1.00  0.00     0.251 C 
ATOM     27  H   UNL A   1      34.639  31.456  29.730  1.00  0.00     0.163 HD
ATOM     28  O   UNL A   1      35.920  30.460  31.518  1.00  0.00    -0.269 OA
BRANCH  26  29
ATOM     29  C   UNL A   1      37.643  30.023  29.978  1.00  0.00     0.039 A 
ATOM     30  C   UNL A   1      38.019  30.010  28.631  1.00  0.00     0.014 A 
ATOM     31  C   UNL A   1      38.530  29.548  30.949  1.00  0.00     0.014 A 
ATOM     32  C   UNL A   1      39.299  29.580  28.266  1.00  0.00     0.010 A 
ATOM     33  C   UNL A   1      39.829  29.183  30.591  1.00  0.00     0.010 A 
ATOM     34  C   UNL A   1      40.228  29.194  29.245  1.00  0.00    -0.014 A 
BRANCH  34  35
ATOM     35  C   UNL A   1      41.620  28.810  28.886  1.00  0.00     0.031 A 
ATOM     36  C   UNL A   1      42.709  29.849  28.836  1.00  0.00     0.074 A 
ATOM     37  C   UNL A   1      41.891  27.537  28.531  1.00  0.00     0.049 A 
ATOM     38  N   UNL A   1      43.956  29.721  28.457  1.00  0.00    -0.248 NA
ATOM     39  C   UNL A   1      42.347  31.217  29.242  1.00  0.00     0.031 C 
ATOM     40  C   UNL A   1      40.919  26.441  28.499  1.00  0.00     0.029 A 
ATOM     41  N   UNL A   1      43.060  26.951  28.112  1.00  0.00    -0.354 N 
ATOM     42  C   UNL A   1      44.519  30.988  28.557  1.00  0.00     0.074 A 
ATOM     43  C   UNL A   1      43.469  31.880  29.000  1.00  0.00     0.031 C 
ATOM     44  C   UNL A   1      41.534  25.318  28.095  1.00  0.00     0.029 A 
ATOM     45  C   UNL A   1      42.930  25.618  27.797  1.00  0.00     0.049 A 
ATOM     46  H   UNL A   1      43.913  27.440  28.043  1.00  0.00     0.167 HD
ATOM     47  C   UNL A   1      45.794  31.372  28.314  1.00  0.00     0.031 A 
ATOM     48  C   UNL A   1      43.825  24.739  27.307  1.00  0.00     0.031 A 
ATOM     49  C   UNL A   1      46.843  30.480  27.893  1.00  0.00     0.049 A 
ATOM     50  C   UNL A   1      45.235  25.193  27.043  1.00  0.00     0.074 A 
ATOM     51  C   UNL A   1      48.182  30.765  27.690  1.00  0.00     0.029 A 
ATOM     52  N   UNL A   1      46.673  29.135  27.608  1.00  0.00    -0.354 N 
ATOM     53  N   UNL A   1      45.762  26.382  27.214  1.00  0.00    -0.248 NA
ATOM     54  C   UNL A   1      46.173  24.185  26.529  1.00  0.00     0.031 C 
ATOM     55  C   UNL A   1      48.813  29.604  27.231  1.00  0.00     0.029 A 
ATOM     56  C   UNL A   1      47.877  28.582  27.204  1.00  0.00     0.049 A 
ATOM     57  H   UNL A   1      45.823  28.644  27.682  1.00  0.00     0.167 HD
ATOM     58  C   UNL A   1      47.099  26.258  26.848  1.00  0.00     0.074 A 
ATOM     59  C   UNL A   1      47.303  24.876  26.467  1.00  0.00     0.031 C 
ATOM     60  C   UNL A   1      48.068  27.205  26.828  1.00  0.00     0.031 A 
BRANCH  47  61
ATOM     61  C   UNL A   1      46.137  32.829  28.491  1.00  0.00    -0.014 A 
ATOM     62  C   UNL A   1      46.012  33.740  27.427  1.00  0.00     0.010 A 
ATOM     63  C   UNL A   1      46.520  33.305  29.758  1.00  0.00     0.010 A 
ATOM     64  C   UNL A   1      46.290  35.096  27.621  1.00  0.00     0.020 A 
ATOM     65  C   UNL A   1      46.774  34.665  29.963  1.00  0.00     0.020 A 
ATOM     66  C   UNL A   1      46.669  35.550  28.888  1.00  0.00     0.054 A 
BRANCH  66  67
ATOM     67  S   UNL A   1      46.978  37.323  29.120  1.00  0.00     0.124 S 
ATOM     68  O   UNL A   1      48.340  37.460  28.611  1.00  0.00    -0.237 OA
ATOM     69  O   UNL A   1      45.937  37.940  28.300  1.00  0.00    -0.237 OA
ATOM     70  O   UNL A   1      46.829  37.517  30.560  1.00  0.00    -0.744 OA
ENDBRANCH  66  67
ENDBRANCH  47  61
BRANCH  48  71
ATOM     71  C   UNL A   1      43.414  23.336  27.021  1.00  0.00    -0.014 A 
ATOM     72  C   UNL A   1      42.926  22.508  28.047  1.00  0.00     0.010 A 
ATOM     73  C   UNL A   1      43.519  22.817  25.716  1.00  0.00     0.010 A 
ATOM     74  C   UNL A   1      42.573  21.183  27.781  1.00  0.00     0.020 A 
ATOM     75  C   UNL A   1      43.140  21.501  25.440  1.00  0.00     0.020 A 
ATOM     76  C   UNL A   1      42.684  20.687  26.478  1.00  0.00     0.054 A 
BRANCH  76  77
ATOM     77  S   UNL A   1      42.187  18.973  26.148  1.00  0.00     0.124 S 
ATOM     78  O   UNL A   1      40.777  19.128  25.805  1.00  0.00    -0.237 OA
ATOM     79  O   UNL A   1      43.069  18.593  25.048  1.00  0.00    -0.237 OA
ATOM     80  O   UNL A   1      42.454  18.292  27.413  1.00  0.00    -0.744 OA
ENDBRANCH  76  77
ENDBRANCH  48  71
BRANCH  60  81
ATOM     81  C   UNL A   1      49.449  26.775  26.408  1.00  0.00    -0.014 A 
ATOM     82  C   UNL A   1      50.356  26.236  27.336  1.00  0.00     0.010 A 
ATOM     83  C   UNL A   1      49.822  26.863  25.054  1.00  0.00     0.010 A 
ATOM     84  C   UNL A   1      51.626  25.822  26.925  1.00  0.00     0.020 A 
ATOM     85  C   UNL A   1      51.080  26.424  24.634  1.00  0.00     0.020 A 
ATOM     86  C   UNL A   1      51.980  25.919  25.576  1.00  0.00     0.054 A 
BRANCH  86  87
ATOM     87  S   UNL A   1      53.617  25.336  25.057  1.00  0.00     0.124 S 
ATOM     88  O   UNL A   1      53.704  25.849  23.693  1.00  0.00    -0.237 OA
ATOM     89  O   UNL A   1      54.506  25.972  26.026  1.00  0.00    -0.237 OA
ATOM     90  O   UNL A   1      53.520  23.883  25.172  1.00  0.00    -0.744 OA
ENDBRANCH  86  87
ENDBRANCH  60  81
ENDBRANCH  34  35
ENDBRANCH  26  29
ENDBRANCH   1  25
TORSDOF 14
ENDMDL
