MODEL 1
REMARK VINA RESULT:     -10.5      0.000      0.000
REMARK SMILES O=C(Cc1ccn(C(F)F)c(=O)c1)NCCCNC(=O)c1ccc(-c2c3nc(c(-c4ccc(S(=O)(=O)[O-])cc4)c4ccc([nH]4)c(-c4ccc(S(=O)(=O)[O-])cc4)c4nc(c(-c5ccc(S(=O)(=O)[O-])cc5)c5ccc2[nH]5)C=C4)C=C3)cc1
REMARK SMILES IDX 16 1 15 2 14 3 1 4 2 5 3 7 4 8 5 9 13 10 6 11 11 12 7 13
REMARK SMILES IDX 12 14 8 15 9 16 10 17 17 18 18 19 19 20 20 22 21 23 22 24
REMARK SMILES IDX 80 25 23 26 79 27 24 28 25 29 26 30 73 31 27 32 78 33 72 34
REMARK SMILES IDX 74 35 28 36 77 37 71 38 70 39 29 41 59 42 40 43 58 44 41 45
REMARK SMILES IDX 44 46 57 47 75 48 42 49 43 50 56 52 76 53 45 54 30 55 31 56
REMARK SMILES IDX 39 57 32 58 38 59 33 60 34 61 35 62 36 63 37 64 60 65 61 66
REMARK SMILES IDX 69 67 62 68 68 69 63 70 64 71 65 72 66 73 67 74 46 75 47 76
REMARK SMILES IDX 55 77 48 78 54 79 49 80 50 81 51 82 52 83 53 84
REMARK H PARENT 14 6 18 21 74 40 44 51
REMARK Flexibility Score: inf
ROOT
ATOM      1  C   UNL A   1      31.811  28.107  27.260  1.00  0.00     0.042 C 
ENDROOT
BRANCH   1   2
ATOM      2  C   UNL A   1      31.618  26.932  26.312  1.00  0.00     0.117 C 
BRANCH   2   3
ATOM      3  N   UNL A   1      31.834  25.647  26.948  1.00  0.00    -0.356 N 
ATOM      4  O   UNL A   1      31.350  24.380  25.089  1.00  0.00    -0.275 OA
ATOM      5  C   UNL A   1      31.742  24.460  26.249  1.00  0.00     0.224 C 
ATOM      6  H   UNL A   1      32.053  25.622  27.907  1.00  0.00     0.163 HD
BRANCH   5   7
ATOM      7  C   UNL A   1      32.259  23.251  27.021  1.00  0.00     0.135 C 
BRANCH   7   8
ATOM      8  C   UNL A   1      33.610  22.870  26.470  1.00  0.00    -0.032 A 
ATOM      9  C   UNL A   1      33.846  21.481  26.123  1.00  0.00     0.022 A 
ATOM     10  C   UNL A   1      34.605  23.761  26.317  1.00  0.00     0.076 A 
ATOM     11  C   UNL A   1      35.062  21.077  25.744  1.00  0.00     0.095 A 
ATOM     12  C   UNL A   1      35.955  23.331  25.850  1.00  0.00     0.255 A 
ATOM     13  N   UNL A   1      36.109  21.971  25.630  1.00  0.00    -0.258 N 
ATOM     14  O   UNL A   1      36.825  24.183  25.706  1.00  0.00    -0.269 OA
BRANCH  13  15
ATOM     15  C   UNL A   1      37.418  21.514  25.244  1.00  0.00     0.451 C 
ATOM     16  F   UNL A   1      38.312  21.682  26.249  1.00  0.00    -0.185 F 
ATOM     17  F   UNL A   1      37.401  20.199  24.914  1.00  0.00    -0.185 F 
ENDBRANCH  13  15
ENDBRANCH   7   8
ENDBRANCH   5   7
ENDBRANCH   2   3
ENDBRANCH   1   2
BRANCH   1  18
ATOM     18  C   UNL A   1      33.204  28.726  27.253  1.00  0.00     0.118 C 
BRANCH  18  19
ATOM     19  N   UNL A   1      33.240  30.140  27.606  1.00  0.00    -0.352 N 
ATOM     20  C   UNL A   1      34.298  30.869  28.106  1.00  0.00     0.251 C 
ATOM     21  H   UNL A   1      32.401  30.636  27.469  1.00  0.00     0.163 HD
ATOM     22  O   UNL A   1      34.138  32.045  28.421  1.00  0.00    -0.269 OA
BRANCH  20  23
ATOM     23  C   UNL A   1      35.611  30.212  28.307  1.00  0.00     0.039 A 
ATOM     24  C   UNL A   1      35.934  29.628  29.532  1.00  0.00     0.014 A 
ATOM     25  C   UNL A   1      36.552  30.237  27.274  1.00  0.00     0.014 A 
ATOM     26  C   UNL A   1      37.246  29.240  29.783  1.00  0.00     0.010 A 
ATOM     27  C   UNL A   1      37.851  29.766  27.503  1.00  0.00     0.010 A 
ATOM     28  C   UNL A   1      38.226  29.318  28.778  1.00  0.00    -0.014 A 
BRANCH  28  29
ATOM     29  C   UNL A   1      39.630  28.946  29.102  1.00  0.00     0.031 A 
ATOM     30  C   UNL A   1      40.484  29.829  29.976  1.00  0.00     0.074 A 
ATOM     31  C   UNL A   1      40.110  27.758  28.683  1.00  0.00     0.049 A 
ATOM     32  N   UNL A   1      41.691  29.608  30.434  1.00  0.00    -0.248 NA
ATOM     33  C   UNL A   1      39.919  31.123  30.392  1.00  0.00     0.031 C 
ATOM     34  C   UNL A   1      39.376  26.806  27.847  1.00  0.00     0.029 A 
ATOM     35  N   UNL A   1      41.303  27.127  28.934  1.00  0.00    -0.354 N 
ATOM     36  C   UNL A   1      42.030  30.730  31.182  1.00  0.00     0.074 A 
ATOM     37  C   UNL A   1      40.918  31.649  31.090  1.00  0.00     0.031 C 
ATOM     38  C   UNL A   1      40.099  25.685  27.720  1.00  0.00     0.029 A 
ATOM     39  C   UNL A   1      41.375  25.857  28.410  1.00  0.00     0.049 A 
ATOM     40  H   UNL A   1      42.037  27.543  29.442  1.00  0.00     0.167 HD
ATOM     41  C   UNL A   1      43.158  30.968  31.891  1.00  0.00     0.031 A 
ATOM     42  C   UNL A   1      42.349  24.927  28.475  1.00  0.00     0.031 A 
ATOM     43  C   UNL A   1      44.260  30.047  31.994  1.00  0.00     0.049 A 
ATOM     44  C   UNL A   1      43.606  25.227  29.239  1.00  0.00     0.074 A 
ATOM     45  C   UNL A   1      45.441  30.202  32.701  1.00  0.00     0.029 A 
ATOM     46  N   UNL A   1      44.321  28.804  31.384  1.00  0.00    -0.354 N 
ATOM     47  N   UNL A   1      43.902  26.296  29.939  1.00  0.00    -0.248 NA
ATOM     48  C   UNL A   1      44.658  24.202  29.226  1.00  0.00     0.031 C 
ATOM     49  C   UNL A   1      46.238  29.078  32.476  1.00  0.00     0.029 A 
ATOM     50  C   UNL A   1      45.527  28.192  31.682  1.00  0.00     0.049 A 
ATOM     51  H   UNL A   1      43.612  28.414  30.824  1.00  0.00     0.167 HD
ATOM     52  C   UNL A   1      45.173  26.070  30.453  1.00  0.00     0.074 A 
ATOM     53  C   UNL A   1      45.582  24.755  30.003  1.00  0.00     0.031 C 
ATOM     54  C   UNL A   1      45.931  26.885  31.227  1.00  0.00     0.031 A 
BRANCH  41  55
ATOM     55  C   UNL A   1      43.276  32.275  32.631  1.00  0.00    -0.014 A 
ATOM     56  C   UNL A   1      43.845  33.392  31.989  1.00  0.00     0.010 A 
ATOM     57  C   UNL A   1      42.938  32.368  33.992  1.00  0.00     0.010 A 
ATOM     58  C   UNL A   1      44.099  34.568  32.702  1.00  0.00     0.020 A 
ATOM     59  C   UNL A   1      43.167  33.550  34.702  1.00  0.00     0.020 A 
ATOM     60  C   UNL A   1      43.766  34.636  34.057  1.00  0.00     0.054 A 
BRANCH  60  61
ATOM     61  S   UNL A   1      44.116  36.164  34.972  1.00  0.00     0.124 S 
ATOM     62  O   UNL A   1      44.384  35.664  36.316  1.00  0.00    -0.237 OA
ATOM     63  O   UNL A   1      45.269  36.708  34.258  1.00  0.00    -0.237 OA
ATOM     64  O   UNL A   1      42.884  36.936  34.823  1.00  0.00    -0.744 OA
ENDBRANCH  60  61
ENDBRANCH  41  55
BRANCH  42  65
ATOM     65  C   UNL A   1      42.135  23.612  27.811  1.00  0.00    -0.014 A 
ATOM     66  C   UNL A   1      41.504  22.562  28.502  1.00  0.00     0.010 A 
ATOM     67  C   UNL A   1      42.650  23.374  26.525  1.00  0.00     0.010 A 
ATOM     68  C   UNL A   1      41.451  21.280  27.950  1.00  0.00     0.020 A 
ATOM     69  C   UNL A   1      42.573  22.099  25.956  1.00  0.00     0.020 A 
ATOM     70  C   UNL A   1      42.003  21.054  26.687  1.00  0.00     0.054 A 
BRANCH  70  71
ATOM     71  S   UNL A   1      41.987  19.368  26.017  1.00  0.00     0.124 S 
ATOM     72  O   UNL A   1      42.536  18.600  27.131  1.00  0.00    -0.237 OA
ATOM     73  O   UNL A   1      40.571  19.147  25.737  1.00  0.00    -0.237 OA
ATOM     74  O   UNL A   1      42.845  19.463  24.838  1.00  0.00    -0.744 OA
ENDBRANCH  70  71
ENDBRANCH  42  65
BRANCH  54  75
ATOM     75  C   UNL A   1      47.293  26.404  31.648  1.00  0.00    -0.014 A 
ATOM     76  C   UNL A   1      48.383  26.538  30.769  1.00  0.00     0.010 A 
ATOM     77  C   UNL A   1      47.464  25.696  32.851  1.00  0.00     0.010 A 
ATOM     78  C   UNL A   1      49.611  25.941  31.065  1.00  0.00     0.020 A 
ATOM     79  C   UNL A   1      48.698  25.119  33.162  1.00  0.00     0.020 A 
ATOM     80  C   UNL A   1      49.756  25.222  32.254  1.00  0.00     0.054 A 
BRANCH  80  81
ATOM     81  S   UNL A   1      51.344  24.418  32.605  1.00  0.00     0.124 S 
ATOM     82  O   UNL A   1      52.257  25.150  31.732  1.00  0.00    -0.237 OA
ATOM     83  O   UNL A   1      51.516  24.654  34.036  1.00  0.00    -0.237 OA
ATOM     84  O   UNL A   1      51.109  23.024  32.236  1.00  0.00    -0.744 OA
ENDBRANCH  80  81
ENDBRANCH  54  75
ENDBRANCH  28  29
ENDBRANCH  20  23
ENDBRANCH  18  19
ENDBRANCH   1  18
TORSDOF 15
ENDMDL
MODEL 2
REMARK VINA RESULT:     -10.4      3.303      5.622
REMARK SMILES O=C(Cc1ccn(C(F)F)c(=O)c1)NCCCNC(=O)c1ccc(-c2c3nc(c(-c4ccc(S(=O)(=O)[O-])cc4)c4ccc([nH]4)c(-c4ccc(S(=O)(=O)[O-])cc4)c4nc(c(-c5ccc(S(=O)(=O)[O-])cc5)c5ccc2[nH]5)C=C4)C=C3)cc1
REMARK SMILES IDX 16 1 15 2 14 3 1 4 2 5 3 7 4 8 5 9 13 10 6 11 11 12 7 13
REMARK SMILES IDX 12 14 8 15 9 16 10 17 17 18 18 19 19 20 20 22 21 23 22 24
REMARK SMILES IDX 80 25 23 26 79 27 24 28 25 29 26 30 73 31 27 32 78 33 72 34
REMARK SMILES IDX 74 35 28 36 77 37 71 38 70 39 29 41 59 42 40 43 58 44 41 45
REMARK SMILES IDX 44 46 57 47 75 48 42 49 43 50 56 52 76 53 45 54 30 55 31 56
REMARK SMILES IDX 39 57 32 58 38 59 33 60 34 61 35 62 36 63 37 64 60 65 61 66
REMARK SMILES IDX 69 67 62 68 68 69 63 70 64 71 65 72 66 73 67 74 46 75 47 76
REMARK SMILES IDX 55 77 48 78 54 79 49 80 50 81 51 82 52 83 53 84
REMARK H PARENT 14 6 18 21 74 40 44 51
REMARK Flexibility Score: inf
ROOT
ATOM      1  C   UNL A   1      34.734  34.279  29.407  1.00  0.00     0.042 C 
ENDROOT
BRANCH   1   2
ATOM      2  C   UNL A   1      33.817  34.962  30.412  1.00  0.00     0.117 C 
BRANCH   2   3
ATOM      3  N   UNL A   1      34.483  35.290  31.657  1.00  0.00    -0.356 N 
ATOM      4  O   UNL A   1      33.437  33.672  32.915  1.00  0.00    -0.275 OA
ATOM      5  C   UNL A   1      34.278  34.559  32.811  1.00  0.00     0.224 C 
ATOM      6  H   UNL A   1      35.099  36.057  31.681  1.00  0.00     0.163 HD
BRANCH   5   7
ATOM      7  C   UNL A   1      35.258  34.890  33.930  1.00  0.00     0.135 C 
BRANCH   7   8
ATOM      8  C   UNL A   1      36.239  33.753  34.064  1.00  0.00    -0.032 A 
ATOM      9  C   UNL A   1      36.593  33.005  32.873  1.00  0.00     0.022 A 
ATOM     10  C   UNL A   1      36.772  33.394  35.244  1.00  0.00     0.076 A 
ATOM     11  C   UNL A   1      37.365  31.917  32.962  1.00  0.00     0.095 A 
ATOM     12  C   UNL A   1      37.672  32.209  35.352  1.00  0.00     0.255 A 
ATOM     13  N   UNL A   1      37.880  31.505  34.176  1.00  0.00    -0.258 N 
ATOM     14  O   UNL A   1      38.151  31.932  36.446  1.00  0.00    -0.269 OA
BRANCH  13  15
ATOM     15  C   UNL A   1      38.689  30.317  34.257  1.00  0.00     0.451 C 
ATOM     16  F   UNL A   1      38.583  29.574  33.129  1.00  0.00    -0.185 F 
ATOM     17  F   UNL A   1      39.997  30.625  34.434  1.00  0.00    -0.185 F 
ENDBRANCH  13  15
ENDBRANCH   7   8
ENDBRANCH   5   7
ENDBRANCH   2   3
ENDBRANCH   1   2
BRANCH   1  18
ATOM     18  C   UNL A   1      34.841  32.765  29.549  1.00  0.00     0.118 C 
BRANCH  18  19
ATOM     19  N   UNL A   1      34.002  32.010  28.628  1.00  0.00    -0.352 N 
ATOM     20  C   UNL A   1      34.296  30.832  27.973  1.00  0.00     0.251 C 
ATOM     21  H   UNL A   1      33.111  32.389  28.451  1.00  0.00     0.163 HD
ATOM     22  O   UNL A   1      33.497  30.361  27.169  1.00  0.00    -0.269 OA
BRANCH  20  23
ATOM     23  C   UNL A   1      35.600  30.168  28.209  1.00  0.00     0.039 A 
ATOM     24  C   UNL A   1      35.879  29.564  29.436  1.00  0.00     0.014 A 
ATOM     25  C   UNL A   1      36.576  30.206  27.210  1.00  0.00     0.014 A 
ATOM     26  C   UNL A   1      37.181  29.169  29.726  1.00  0.00     0.010 A 
ATOM     27  C   UNL A   1      37.865  29.729  27.477  1.00  0.00     0.010 A 
ATOM     28  C   UNL A   1      38.195  29.261  28.757  1.00  0.00    -0.014 A 
BRANCH  28  29
ATOM     29  C   UNL A   1      39.587  28.880  29.124  1.00  0.00     0.031 A 
ATOM     30  C   UNL A   1      40.413  29.751  30.036  1.00  0.00     0.074 A 
ATOM     31  C   UNL A   1      40.077  27.695  28.707  1.00  0.00     0.049 A 
ATOM     32  N   UNL A   1      41.603  29.520  30.531  1.00  0.00    -0.248 NA
ATOM     33  C   UNL A   1      39.838  31.042  30.447  1.00  0.00     0.031 C 
ATOM     34  C   UNL A   1      39.368  26.756  27.836  1.00  0.00     0.029 A 
ATOM     35  N   UNL A   1      41.259  27.058  28.991  1.00  0.00    -0.354 N 
ATOM     36  C   UNL A   1      41.920  30.632  31.303  1.00  0.00     0.074 A 
ATOM     37  C   UNL A   1      40.815  31.556  31.185  1.00  0.00     0.031 C 
ATOM     38  C   UNL A   1      40.092  25.634  27.720  1.00  0.00     0.029 A 
ATOM     39  C   UNL A   1      41.345  25.793  28.455  1.00  0.00     0.049 A 
ATOM     40  H   UNL A   1      41.977  27.466  29.528  1.00  0.00     0.167 HD
ATOM     41  C   UNL A   1      43.025  30.858  32.053  1.00  0.00     0.031 A 
ATOM     42  C   UNL A   1      42.314  24.859  28.542  1.00  0.00     0.031 A 
ATOM     43  C   UNL A   1      44.120  29.932  32.182  1.00  0.00     0.049 A 
ATOM     44  C   UNL A   1      43.544  25.147  29.351  1.00  0.00     0.074 A 
ATOM     45  C   UNL A   1      45.277  30.076  32.930  1.00  0.00     0.029 A 
ATOM     46  N   UNL A   1      44.197  28.696  31.560  1.00  0.00    -0.354 N 
ATOM     47  N   UNL A   1      43.820  26.206  30.073  1.00  0.00    -0.248 NA
ATOM     48  C   UNL A   1      44.593  24.118  29.361  1.00  0.00     0.031 C 
ATOM     49  C   UNL A   1      46.077  28.951  32.719  1.00  0.00     0.029 A 
ATOM     50  C   UNL A   1      45.391  28.076  31.891  1.00  0.00     0.049 A 
ATOM     51  H   UNL A   1      43.506  28.315  30.973  1.00  0.00     0.167 HD
ATOM     52  C   UNL A   1      45.073  25.970  30.627  1.00  0.00     0.074 A 
ATOM     53  C   UNL A   1      45.492  24.659  30.176  1.00  0.00     0.031 C 
ATOM     54  C   UNL A   1      45.806  26.773  31.435  1.00  0.00     0.031 A 
BRANCH  41  55
ATOM     55  C   UNL A   1      43.122  32.156  32.811  1.00  0.00    -0.014 A 
ATOM     56  C   UNL A   1      43.688  33.287  32.192  1.00  0.00     0.010 A 
ATOM     57  C   UNL A   1      42.766  32.228  34.170  1.00  0.00     0.010 A 
ATOM     58  C   UNL A   1      43.922  34.455  32.923  1.00  0.00     0.020 A 
ATOM     59  C   UNL A   1      42.976  33.402  34.898  1.00  0.00     0.020 A 
ATOM     60  C   UNL A   1      43.573  34.502  34.274  1.00  0.00     0.054 A 
BRANCH  60  61
ATOM     61  S   UNL A   1      43.897  36.020  35.214  1.00  0.00     0.124 S 
ATOM     62  O   UNL A   1      44.878  35.572  36.196  1.00  0.00    -0.237 OA
ATOM     63  O   UNL A   1      44.401  36.931  34.188  1.00  0.00    -0.237 OA
ATOM     64  O   UNL A   1      42.585  36.372  35.753  1.00  0.00    -0.744 OA
ENDBRANCH  60  61
ENDBRANCH  41  55
BRANCH  42  65
ATOM     65  C   UNL A   1      42.117  23.553  27.855  1.00  0.00    -0.014 A 
ATOM     66  C   UNL A   1      41.501  22.483  28.528  1.00  0.00     0.010 A 
ATOM     67  C   UNL A   1      42.637  23.344  26.567  1.00  0.00     0.010 A 
ATOM     68  C   UNL A   1      41.466  21.210  27.955  1.00  0.00     0.020 A 
ATOM     69  C   UNL A   1      42.577  22.077  25.976  1.00  0.00     0.020 A 
ATOM     70  C   UNL A   1      42.022  21.012  26.689  1.00  0.00     0.054 A 
BRANCH  70  71
ATOM     71  S   UNL A   1      42.030  19.338  25.991  1.00  0.00     0.124 S 
ATOM     72  O   UNL A   1      40.616  19.137  25.684  1.00  0.00    -0.237 OA
ATOM     73  O   UNL A   1      42.911  19.476  24.834  1.00  0.00    -0.237 OA
ATOM     74  O   UNL A   1      42.558  18.519  27.079  1.00  0.00    -0.744 OA
ENDBRANCH  70  71
ENDBRANCH  42  65
BRANCH  54  75
ATOM     75  C   UNL A   1      47.152  26.284  31.896  1.00  0.00    -0.014 A 
ATOM     76  C   UNL A   1      48.255  26.350  31.025  1.00  0.00     0.010 A 
ATOM     77  C   UNL A   1      47.293  25.631  33.134  1.00  0.00     0.010 A 
ATOM     78  C   UNL A   1      49.465  25.740  31.365  1.00  0.00     0.020 A 
ATOM     79  C   UNL A   1      48.510  25.042  33.488  1.00  0.00     0.020 A 
ATOM     80  C   UNL A   1      49.580  25.077  32.590  1.00  0.00     0.054 A 
BRANCH  80  81
ATOM     81  S   UNL A   1      51.144  24.256  32.999  1.00  0.00     0.124 S 
ATOM     82  O   UNL A   1      52.109  25.340  32.843  1.00  0.00    -0.237 OA
ATOM     83  O   UNL A   1      50.922  23.803  34.370  1.00  0.00    -0.237 OA
ATOM     84  O   UNL A   1      51.238  23.188  32.007  1.00  0.00    -0.744 OA
ENDBRANCH  80  81
ENDBRANCH  54  75
ENDBRANCH  28  29
ENDBRANCH  20  23
ENDBRANCH  18  19
ENDBRANCH   1  18
TORSDOF 15
ENDMDL
MODEL 3
REMARK VINA RESULT:     -10.4      3.003      4.152
REMARK SMILES O=C(Cc1ccn(C(F)F)c(=O)c1)NCCCNC(=O)c1ccc(-c2c3nc(c(-c4ccc(S(=O)(=O)[O-])cc4)c4ccc([nH]4)c(-c4ccc(S(=O)(=O)[O-])cc4)c4nc(c(-c5ccc(S(=O)(=O)[O-])cc5)c5ccc2[nH]5)C=C4)C=C3)cc1
REMARK SMILES IDX 16 1 15 2 14 3 1 4 2 5 3 7 4 8 5 9 13 10 6 11 11 12 7 13
REMARK SMILES IDX 12 14 8 15 9 16 10 17 17 18 18 19 19 20 20 22 21 23 22 24
REMARK SMILES IDX 80 25 23 26 79 27 24 28 25 29 26 30 73 31 27 32 78 33 72 34
REMARK SMILES IDX 74 35 28 36 77 37 71 38 70 39 29 41 59 42 40 43 58 44 41 45
REMARK SMILES IDX 44 46 57 47 75 48 42 49 43 50 56 52 76 53 45 54 30 55 31 56
REMARK SMILES IDX 39 57 32 58 38 59 33 60 34 61 35 62 36 63 37 64 60 65 61 66
REMARK SMILES IDX 69 67 62 68 68 69 63 70 64 71 65 72 66 73 67 74 46 75 47 76
REMARK SMILES IDX 55 77 48 78 54 79 49 80 50 81 51 82 52 83 53 84
REMARK H PARENT 14 6 18 21 74 40 44 51
REMARK Flexibility Score: inf
ROOT
ATOM      1  C   UNL A   1      33.915  28.405  25.902  1.00  0.00     0.042 C 
ENDROOT
BRANCH   1   2
ATOM      2  C   UNL A   1      33.571  27.004  25.417  1.00  0.00     0.117 C 
BRANCH   2   3
ATOM      3  N   UNL A   1      32.185  26.868  25.012  1.00  0.00    -0.356 N 
ATOM      4  O   UNL A   1      32.630  25.843  23.000  1.00  0.00    -0.275 OA
ATOM      5  C   UNL A   1      31.825  26.227  23.842  1.00  0.00     0.224 C 
ATOM      6  H   UNL A   1      31.481  27.243  25.588  1.00  0.00     0.163 HD
BRANCH   5   7
ATOM      7  C   UNL A   1      30.329  25.955  23.727  1.00  0.00     0.135 C 
BRANCH   7   8
ATOM      8  C   UNL A   1      29.641  27.223  23.288  1.00  0.00    -0.032 A 
ATOM      9  C   UNL A   1      30.435  28.248  22.638  1.00  0.00     0.022 A 
ATOM     10  C   UNL A   1      28.333  27.446  23.501  1.00  0.00     0.076 A 
ATOM     11  C   UNL A   1      29.895  29.434  22.338  1.00  0.00     0.095 A 
ATOM     12  C   UNL A   1      27.706  28.747  23.130  1.00  0.00     0.255 A 
ATOM     13  N   UNL A   1      28.563  29.697  22.597  1.00  0.00    -0.258 N 
ATOM     14  O   UNL A   1      26.504  28.897  23.325  1.00  0.00    -0.269 OA
BRANCH  13  15
ATOM     15  C   UNL A   1      28.004  30.987  22.291  1.00  0.00     0.451 C 
ATOM     16  F   UNL A   1      27.726  31.681  23.422  1.00  0.00    -0.185 F 
ATOM     17  F   UNL A   1      28.859  31.728  21.545  1.00  0.00    -0.185 F 
ENDBRANCH  13  15
ENDBRANCH   7   8
ENDBRANCH   5   7
ENDBRANCH   2   3
ENDBRANCH   1   2
BRANCH   1  18
ATOM     18  C   UNL A   1      33.378  28.767  27.282  1.00  0.00     0.118 C 
BRANCH  18  19
ATOM     19  N   UNL A   1      33.448  30.186  27.606  1.00  0.00    -0.352 N 
ATOM     20  C   UNL A   1      34.522  30.899  28.096  1.00  0.00     0.251 C 
ATOM     21  H   UNL A   1      32.622  30.700  27.456  1.00  0.00     0.163 HD
ATOM     22  O   UNL A   1      34.390  32.085  28.386  1.00  0.00    -0.269 OA
BRANCH  20  23
ATOM     23  C   UNL A   1      35.817  30.213  28.316  1.00  0.00     0.039 A 
ATOM     24  C   UNL A   1      36.076  29.550  29.516  1.00  0.00     0.014 A 
ATOM     25  C   UNL A   1      36.806  30.289  27.331  1.00  0.00     0.014 A 
ATOM     26  C   UNL A   1      37.371  29.130  29.803  1.00  0.00     0.010 A 
ATOM     27  C   UNL A   1      38.088  29.789  27.590  1.00  0.00     0.010 A 
ATOM     28  C   UNL A   1      38.398  29.258  28.851  1.00  0.00    -0.014 A 
BRANCH  28  29
ATOM     29  C   UNL A   1      39.781  28.848  29.216  1.00  0.00     0.031 A 
ATOM     30  C   UNL A   1      40.623  29.694  30.137  1.00  0.00     0.074 A 
ATOM     31  C   UNL A   1      40.250  27.658  28.789  1.00  0.00     0.049 A 
ATOM     32  N   UNL A   1      41.808  29.437  30.632  1.00  0.00    -0.248 NA
ATOM     33  C   UNL A   1      40.072  30.992  30.560  1.00  0.00     0.031 C 
ATOM     34  C   UNL A   1      39.525  26.740  27.909  1.00  0.00     0.029 A 
ATOM     35  N   UNL A   1      41.420  26.996  29.069  1.00  0.00    -0.354 N 
ATOM     36  C   UNL A   1      42.145  30.536  31.414  1.00  0.00     0.074 A 
ATOM     37  C   UNL A   1      41.057  31.481  31.303  1.00  0.00     0.031 C 
ATOM     38  C   UNL A   1      40.228  25.605  27.783  1.00  0.00     0.029 A 
ATOM     39  C   UNL A   1      41.482  25.735  28.521  1.00  0.00     0.049 A 
ATOM     40  H   UNL A   1      42.144  27.385  29.610  1.00  0.00     0.167 HD
ATOM     41  C   UNL A   1      43.252  30.735  32.167  1.00  0.00     0.031 A 
ATOM     42  C   UNL A   1      42.433  24.782  28.600  1.00  0.00     0.031 A 
ATOM     43  C   UNL A   1      44.330  29.787  32.289  1.00  0.00     0.049 A 
ATOM     44  C   UNL A   1      43.668  25.039  29.414  1.00  0.00     0.074 A 
ATOM     45  C   UNL A   1      45.488  29.902  33.039  1.00  0.00     0.029 A 
ATOM     46  N   UNL A   1      44.384  28.555  31.656  1.00  0.00    -0.354 N 
ATOM     47  N   UNL A   1      43.963  26.086  30.146  1.00  0.00    -0.248 NA
ATOM     48  C   UNL A   1      44.698  23.991  29.416  1.00  0.00     0.031 C 
ATOM     49  C   UNL A   1      46.267  28.764  32.819  1.00  0.00     0.029 A 
ATOM     50  C   UNL A   1      45.566  27.910  31.983  1.00  0.00     0.049 A 
ATOM     51  H   UNL A   1      43.687  28.193  31.064  1.00  0.00     0.167 HD
ATOM     52  C   UNL A   1      45.210  25.822  30.699  1.00  0.00     0.074 A 
ATOM     53  C   UNL A   1      45.605  24.508  30.236  1.00  0.00     0.031 C 
ATOM     54  C   UNL A   1      45.957  26.604  31.515  1.00  0.00     0.031 A 
BRANCH  41  55
ATOM     55  C   UNL A   1      43.372  32.024  32.937  1.00  0.00    -0.014 A 
ATOM     56  C   UNL A   1      43.852  33.180  32.293  1.00  0.00     0.010 A 
ATOM     57  C   UNL A   1      43.128  32.064  34.321  1.00  0.00     0.010 A 
ATOM     58  C   UNL A   1      44.110  34.344  33.023  1.00  0.00     0.020 A 
ATOM     59  C   UNL A   1      43.361  33.234  35.050  1.00  0.00     0.020 A 
ATOM     60  C   UNL A   1      43.872  34.360  34.399  1.00  0.00     0.054 A 
BRANCH  60  61
ATOM     61  S   UNL A   1      44.227  35.874  35.335  1.00  0.00     0.124 S 
ATOM     62  O   UNL A   1      44.917  35.355  36.511  1.00  0.00    -0.237 OA
ATOM     63  O   UNL A   1      45.052  36.640  34.404  1.00  0.00    -0.237 OA
ATOM     64  O   UNL A   1      42.901  36.437  35.583  1.00  0.00    -0.744 OA
ENDBRANCH  60  61
ENDBRANCH  41  55
BRANCH  42  65
ATOM     65  C   UNL A   1      42.213  23.486  27.902  1.00  0.00    -0.014 A 
ATOM     66  C   UNL A   1      41.687  22.384  28.599  1.00  0.00     0.010 A 
ATOM     67  C   UNL A   1      42.625  23.320  26.569  1.00  0.00     0.010 A 
ATOM     68  C   UNL A   1      41.636  21.123  28.000  1.00  0.00     0.020 A 
ATOM     69  C   UNL A   1      42.549  22.065  25.955  1.00  0.00     0.020 A 
ATOM     70  C   UNL A   1      42.086  20.970  26.687  1.00  0.00     0.054 A 
BRANCH  70  71
ATOM     71  S   UNL A   1      42.078  19.312  25.950  1.00  0.00     0.124 S 
ATOM     72  O   UNL A   1      40.673  19.156  25.585  1.00  0.00    -0.237 OA
ATOM     73  O   UNL A   1      43.007  19.453  24.832  1.00  0.00    -0.237 OA
ATOM     74  O   UNL A   1      42.543  18.455  27.038  1.00  0.00    -0.744 OA
ENDBRANCH  70  71
ENDBRANCH  42  65
BRANCH  54  75
ATOM     75  C   UNL A   1      47.293  26.085  31.974  1.00  0.00    -0.014 A 
ATOM     76  C   UNL A   1      48.398  26.137  31.104  1.00  0.00     0.010 A 
ATOM     77  C   UNL A   1      47.420  25.420  33.206  1.00  0.00     0.010 A 
ATOM     78  C   UNL A   1      49.595  25.502  31.440  1.00  0.00     0.020 A 
ATOM     79  C   UNL A   1      48.625  24.805  33.557  1.00  0.00     0.020 A 
ATOM     80  C   UNL A   1      49.697  24.827  32.659  1.00  0.00     0.054 A 
BRANCH  80  81
ATOM     81  S   UNL A   1      51.245  23.973  33.063  1.00  0.00     0.124 S 
ATOM     82  O   UNL A   1      50.989  23.499  34.420  1.00  0.00    -0.237 OA
ATOM     83  O   UNL A   1      51.317  22.935  32.037  1.00  0.00    -0.237 OA
ATOM     84  O   UNL A   1      52.254  25.022  32.948  1.00  0.00    -0.744 OA
ENDBRANCH  80  81
ENDBRANCH  54  75
ENDBRANCH  28  29
ENDBRANCH  20  23
ENDBRANCH  18  19
ENDBRANCH   1  18
TORSDOF 15
ENDMDL
