MODEL 1
REMARK VINA RESULT:     -12.8      0.000      0.000
REMARK SMILES CCC[C@H]1CCc2c(sc(NC(=O)[C@H]3[C@@H](C(=O)NCCCNC(=O)c4ccc(-c5c6nc(c(-c7ccc(S(=O)(=O)[O-])cc7)c7ccc([nH]7)c(-c7ccc(S(=O)(=O)[O-])cc7)c7nc(c(-c8ccc(S(=O)(=O)[O-])cc8)c8ccc5[nH]8)C=C7)C=C6)cc4)[C@H]4CC[C@@H]3O4)c2C(N)=O)C1
REMARK SMILES IDX 19 1 18 2 16 3 17 4 15 6 14 7 88 8 85 9 87 10 89 11 86 12
REMARK SMILES IDX 12 13 11 14 13 16 10 17 4 18 5 19 94 20 6 21 8 22 7 23 9 24
REMARK SMILES IDX 90 25 3 26 2 27 1 28 91 29 92 30 93 31 20 34 21 35 22 36
REMARK SMILES IDX 23 37 24 39 25 40 26 41 84 42 27 43 83 44 28 45 29 46 30 47
REMARK SMILES IDX 77 48 31 49 82 50 76 51 78 52 32 53 81 54 75 55 74 56 33 58
REMARK SMILES IDX 63 59 44 60 62 61 45 62 48 63 61 64 79 65 46 66 47 67 60 69
REMARK SMILES IDX 80 70 49 71 34 72 35 73 43 74 36 75 42 76 37 77 38 78 39 79
REMARK SMILES IDX 40 80 41 81 64 82 65 83 73 84 66 85 72 86 67 87 68 88 69 89
REMARK SMILES IDX 70 90 71 91 50 92 51 93 59 94 52 95 58 96 53 97 54 98 55 99
REMARK SMILES IDX 56 100 57 101
REMARK H PARENT 18 5 11 15 92 32 92 33 22 38 78 57 48 68
REMARK Flexibility Score: inf
ROOT
ATOM      1  C   UNL A   1      33.335  29.648  26.597  1.00  0.00     0.117 C 
ENDROOT
BRANCH   1   2
ATOM      2  N   UNL A   1      33.665  29.600  25.202  1.00  0.00    -0.356 N 
ATOM      3  C   UNL A   1      33.393  28.700  24.242  1.00  0.00     0.226 C 
ATOM      4  O   UNL A   1      33.594  29.126  23.093  1.00  0.00    -0.275 OA
ATOM      5  H   UNL A   1      34.188  30.373  24.888  1.00  0.00     0.163 HD
BRANCH   3   6
ATOM      6  C   UNL A   1      32.799  27.297  24.410  1.00  0.00     0.122 C 
ATOM      7  C   UNL A   1      32.508  26.157  23.418  1.00  0.00     0.123 C 
ATOM      8  C   UNL A   1      30.992  26.250  23.220  1.00  0.00     0.132 C 
ATOM      9  C   UNL A   1      31.333  27.533  24.934  1.00  0.00     0.132 C 
ATOM     10  C   UNL A   1      30.486  27.608  22.731  1.00  0.00     0.035 C 
ATOM     11  O   UNL A   1      30.635  26.292  24.628  1.00  0.00    -0.373 OA
ATOM     12  C   UNL A   1      30.532  28.448  24.006  1.00  0.00     0.035 C 
BRANCH   7  13
ATOM     13  C   UNL A   1      33.250  25.727  22.181  1.00  0.00     0.231 C 
ATOM     14  N   UNL A   1      33.804  24.480  22.036  1.00  0.00    -0.317 N 
ATOM     15  H   UNL A   1      34.227  24.324  21.161  1.00  0.00     0.170 HD
ATOM     16  O   UNL A   1      33.361  26.502  21.226  1.00  0.00    -0.274 OA
BRANCH  14  17
ATOM     17  C   UNL A   1      33.871  23.409  22.902  1.00  0.00     0.108 A 
ATOM     18  C   UNL A   1      33.027  19.267  25.258  1.00  0.00    -0.006 C 
ATOM     19  C   UNL A   1      34.570  19.208  25.145  1.00  0.00     0.009 C 
ATOM     20  C   UNL A   1      32.461  19.891  23.955  1.00  0.00     0.050 C 
ATOM     21  C   UNL A   1      35.200  20.605  25.032  1.00  0.00     0.038 C 
ATOM     22  C   UNL A   1      33.155  21.196  23.686  1.00  0.00     0.011 A 
ATOM     23  C   UNL A   1      34.406  21.534  24.158  1.00  0.00    -0.019 A 
ATOM     24  S   UNL A   1      32.442  22.459  22.808  1.00  0.00    -0.122 S 
ATOM     25  C   UNL A   1      34.765  22.896  23.825  1.00  0.00     0.077 A 
BRANCH  18  26
ATOM     26  C   UNL A   1      32.465  17.862  25.548  1.00  0.00     0.004 C 
BRANCH  26  27
ATOM     27  C   UNL A   1      33.227  16.718  24.868  1.00  0.00    -0.003 C 
ATOM     28  C   UNL A   1      32.847  15.329  25.345  1.00  0.00     0.004 C 
ENDBRANCH  26  27
ENDBRANCH  18  26
BRANCH  25  29
ATOM     29  C   UNL A   1      35.896  23.582  24.442  1.00  0.00     0.251 C 
ATOM     30  N   UNL A   1      37.116  23.303  23.894  1.00  0.00    -0.365 N 
ATOM     31  O   UNL A   1      35.783  24.390  25.351  1.00  0.00    -0.269 OA
ATOM     32  H   UNL A   1      37.189  22.648  23.162  1.00  0.00     0.159 HD
ATOM     33  H   UNL A   1      37.922  23.755  24.231  1.00  0.00     0.159 HD
ENDBRANCH  25  29
ENDBRANCH  14  17
ENDBRANCH   7  13
ENDBRANCH   3   6
ENDBRANCH   1   2
BRANCH   1  34
ATOM     34  C   UNL A   1      34.031  30.791  27.313  1.00  0.00     0.042 C 
BRANCH  34  35
ATOM     35  C   UNL A   1      35.366  30.394  27.912  1.00  0.00     0.118 C 
BRANCH  35  36
ATOM     36  N   UNL A   1      35.361  30.564  29.361  1.00  0.00    -0.352 N 
ATOM     37  C   UNL A   1      36.305  30.215  30.296  1.00  0.00     0.251 C 
ATOM     38  H   UNL A   1      34.556  30.996  29.727  1.00  0.00     0.163 HD
ATOM     39  O   UNL A   1      35.989  30.208  31.483  1.00  0.00    -0.269 OA
BRANCH  37  40
ATOM     40  C   UNL A   1      37.680  29.841  29.886  1.00  0.00     0.039 A 
ATOM     41  C   UNL A   1      38.568  29.358  30.852  1.00  0.00     0.014 A 
ATOM     42  C   UNL A   1      38.113  29.995  28.568  1.00  0.00     0.014 A 
ATOM     43  C   UNL A   1      39.866  28.993  30.484  1.00  0.00     0.010 A 
ATOM     44  C   UNL A   1      39.359  29.518  28.180  1.00  0.00     0.010 A 
ATOM     45  C   UNL A   1      40.262  29.041  29.138  1.00  0.00    -0.014 A 
BRANCH  45  46
ATOM     46  C   UNL A   1      41.632  28.654  28.715  1.00  0.00     0.031 A 
ATOM     47  C   UNL A   1      42.722  29.697  28.667  1.00  0.00     0.074 A 
ATOM     48  C   UNL A   1      41.884  27.386  28.330  1.00  0.00     0.049 A 
ATOM     49  N   UNL A   1      43.957  29.581  28.252  1.00  0.00    -0.248 NA
ATOM     50  C   UNL A   1      42.370  31.057  29.114  1.00  0.00     0.031 C 
ATOM     51  C   UNL A   1      40.900  26.299  28.286  1.00  0.00     0.029 A 
ATOM     52  N   UNL A   1      43.045  26.796  27.901  1.00  0.00    -0.354 N 
ATOM     53  C   UNL A   1      44.518  30.847  28.375  1.00  0.00     0.074 A 
ATOM     54  C   UNL A   1      43.474  31.734  28.834  1.00  0.00     0.031 C 
ATOM     55  C   UNL A   1      41.508  25.170  27.889  1.00  0.00     0.029 A 
ATOM     56  C   UNL A   1      42.910  25.458  27.606  1.00  0.00     0.049 A 
ATOM     57  H   UNL A   1      43.896  27.283  27.811  1.00  0.00     0.167 HD
ATOM     58  C   UNL A   1      45.798  31.233  28.164  1.00  0.00     0.031 A 
ATOM     59  C   UNL A   1      43.814  24.568  27.154  1.00  0.00     0.031 A 
ATOM     60  C   UNL A   1      46.842  30.342  27.738  1.00  0.00     0.049 A 
ATOM     61  C   UNL A   1      45.230  25.026  26.922  1.00  0.00     0.074 A 
ATOM     62  C   UNL A   1      48.181  30.622  27.528  1.00  0.00     0.029 A 
ATOM     63  N   UNL A   1      46.667  28.992  27.477  1.00  0.00    -0.354 N 
ATOM     64  N   UNL A   1      45.749  26.219  27.091  1.00  0.00    -0.248 NA
ATOM     65  C   UNL A   1      46.186  24.014  26.451  1.00  0.00     0.031 C 
ATOM     66  C   UNL A   1      48.808  29.448  27.101  1.00  0.00     0.029 A 
ATOM     67  C   UNL A   1      47.873  28.427  27.100  1.00  0.00     0.049 A 
ATOM     68  H   UNL A   1      45.813  28.507  27.547  1.00  0.00     0.167 HD
ATOM     69  C   UNL A   1      47.098  26.092  26.781  1.00  0.00     0.074 A 
ATOM     70  C   UNL A   1      47.318  24.703  26.432  1.00  0.00     0.031 C 
ATOM     71  C   UNL A   1      48.070  27.037  26.778  1.00  0.00     0.031 A 
BRANCH  58  72
ATOM     72  C   UNL A   1      46.150  32.675  28.424  1.00  0.00    -0.014 A 
ATOM     73  C   UNL A   1      46.047  33.633  27.399  1.00  0.00     0.010 A 
ATOM     74  C   UNL A   1      46.519  33.091  29.715  1.00  0.00     0.010 A 
ATOM     75  C   UNL A   1      46.332  34.978  27.654  1.00  0.00     0.020 A 
ATOM     76  C   UNL A   1      46.777  34.440  29.981  1.00  0.00     0.020 A 
ATOM     77  C   UNL A   1      46.690  35.373  28.945  1.00  0.00     0.054 A 
BRANCH  77  78
ATOM     78  S   UNL A   1      46.993  37.134  29.257  1.00  0.00     0.124 S 
ATOM     79  O   UNL A   1      47.886  37.085  30.413  1.00  0.00    -0.237 OA
ATOM     80  O   UNL A   1      47.607  37.577  28.008  1.00  0.00    -0.237 OA
ATOM     81  O   UNL A   1      45.663  37.675  29.521  1.00  0.00    -0.744 OA
ENDBRANCH  77  78
ENDBRANCH  58  72
BRANCH  59  82
ATOM     82  C   UNL A   1      43.418  23.156  26.889  1.00  0.00    -0.014 A 
ATOM     83  C   UNL A   1      43.045  22.305  27.946  1.00  0.00     0.010 A 
ATOM     84  C   UNL A   1      43.449  22.642  25.580  1.00  0.00     0.010 A 
ATOM     85  C   UNL A   1      42.758  20.958  27.704  1.00  0.00     0.020 A 
ATOM     86  C   UNL A   1      43.130  21.304  25.330  1.00  0.00     0.020 A 
ATOM     87  C   UNL A   1      42.811  20.464  26.398  1.00  0.00     0.054 A 
BRANCH  87  88
ATOM     88  S   UNL A   1      42.442  18.712  26.107  1.00  0.00     0.124 S 
ATOM     89  O   UNL A   1      41.048  18.765  25.677  1.00  0.00    -0.237 OA
ATOM     90  O   UNL A   1      43.409  18.351  25.074  1.00  0.00    -0.237 OA
ATOM     91  O   UNL A   1      42.672  18.094  27.410  1.00  0.00    -0.744 OA
ENDBRANCH  87  88
ENDBRANCH  59  82
BRANCH  71  92
ATOM     92  C   UNL A   1      49.466  26.593  26.441  1.00  0.00    -0.014 A 
ATOM     93  C   UNL A   1      50.276  25.946  27.391  1.00  0.00     0.010 A 
ATOM     94  C   UNL A   1      49.951  26.775  25.133  1.00  0.00     0.010 A 
ATOM     95  C   UNL A   1      51.561  25.520  27.047  1.00  0.00     0.020 A 
ATOM     96  C   UNL A   1      51.223  26.323  24.777  1.00  0.00     0.020 A 
ATOM     97  C   UNL A   1      52.026  25.711  25.740  1.00  0.00     0.054 A 
BRANCH  97  98
ATOM     98  S   UNL A   1      53.679  25.106  25.308  1.00  0.00     0.124 S 
ATOM     99  O   UNL A   1      53.856  25.643  23.962  1.00  0.00    -0.237 OA
ATOM    100  O   UNL A   1      54.520  25.707  26.340  1.00  0.00    -0.237 OA
ATOM    101  O   UNL A   1      53.549  23.653  25.387  1.00  0.00    -0.744 OA
ENDBRANCH  97  98
ENDBRANCH  71  92
ENDBRANCH  45  46
ENDBRANCH  37  40
ENDBRANCH  35  36
ENDBRANCH  34  35
ENDBRANCH   1  34
TORSDOF 18
ENDMDL
MODEL 2
REMARK VINA RESULT:     -12.2      0.620      7.873
REMARK SMILES CCC[C@H]1CCc2c(sc(NC(=O)[C@H]3[C@@H](C(=O)NCCCNC(=O)c4ccc(-c5c6nc(c(-c7ccc(S(=O)(=O)[O-])cc7)c7ccc([nH]7)c(-c7ccc(S(=O)(=O)[O-])cc7)c7nc(c(-c8ccc(S(=O)(=O)[O-])cc8)c8ccc5[nH]8)C=C7)C=C6)cc4)[C@H]4CC[C@@H]3O4)c2C(N)=O)C1
REMARK SMILES IDX 19 1 18 2 16 3 17 4 15 6 14 7 88 8 85 9 87 10 89 11 86 12
REMARK SMILES IDX 12 13 11 14 13 16 10 17 4 18 5 19 94 20 6 21 8 22 7 23 9 24
REMARK SMILES IDX 90 25 3 26 2 27 1 28 91 29 92 30 93 31 20 34 21 35 22 36
REMARK SMILES IDX 23 37 24 39 25 40 26 41 84 42 27 43 83 44 28 45 29 46 30 47
REMARK SMILES IDX 77 48 31 49 82 50 76 51 78 52 32 53 81 54 75 55 74 56 33 58
REMARK SMILES IDX 63 59 44 60 62 61 45 62 48 63 61 64 79 65 46 66 47 67 60 69
REMARK SMILES IDX 80 70 49 71 34 72 35 73 43 74 36 75 42 76 37 77 38 78 39 79
REMARK SMILES IDX 40 80 41 81 64 82 65 83 73 84 66 85 72 86 67 87 68 88 69 89
REMARK SMILES IDX 70 90 71 91 50 92 51 93 59 94 52 95 58 96 53 97 54 98 55 99
REMARK SMILES IDX 56 100 57 101
REMARK H PARENT 18 5 11 15 92 32 92 33 22 38 78 57 48 68
REMARK Flexibility Score: inf
ROOT
ATOM      1  C   UNL A   1      33.920  29.183  26.799  1.00  0.00     0.117 C 
ENDROOT
BRANCH   1   2
ATOM      2  N   UNL A   1      34.068  29.280  25.376  1.00  0.00    -0.356 N 
ATOM      3  C   UNL A   1      33.601  28.524  24.367  1.00  0.00     0.226 C 
ATOM      4  O   UNL A   1      33.693  29.070  23.256  1.00  0.00    -0.275 OA
ATOM      5  H   UNL A   1      34.613  30.045  25.081  1.00  0.00     0.163 HD
BRANCH   3   6
ATOM      6  C   UNL A   1      32.911  27.158  24.457  1.00  0.00     0.122 C 
ATOM      7  C   UNL A   1      32.566  26.087  23.408  1.00  0.00     0.123 C 
ATOM      8  C   UNL A   1      31.064  26.291  23.189  1.00  0.00     0.132 C 
ATOM      9  C   UNL A   1      31.454  27.468  24.968  1.00  0.00     0.132 C 
ATOM     10  C   UNL A   1      30.659  27.702  22.757  1.00  0.00     0.035 C 
ATOM     11  O   UNL A   1      30.682  26.292  24.591  1.00  0.00    -0.373 OA
ATOM     12  C   UNL A   1      30.735  28.477  24.071  1.00  0.00     0.035 C 
BRANCH   7  13
ATOM     13  C   UNL A   1      33.303  25.666  22.165  1.00  0.00     0.231 C 
ATOM     14  N   UNL A   1      33.823  24.410  21.993  1.00  0.00    -0.317 N 
ATOM     15  H   UNL A   1      34.247  24.262  21.116  1.00  0.00     0.170 HD
ATOM     16  O   UNL A   1      33.438  26.461  21.229  1.00  0.00    -0.274 OA
BRANCH  14  17
ATOM     17  C   UNL A   1      33.858  23.317  22.834  1.00  0.00     0.108 A 
ATOM     18  C   UNL A   1      32.909  19.132  25.071  1.00  0.00    -0.006 C 
ATOM     19  C   UNL A   1      34.454  19.054  24.990  1.00  0.00     0.009 C 
ATOM     20  C   UNL A   1      32.381  19.793  23.770  1.00  0.00     0.050 C 
ATOM     21  C   UNL A   1      35.103  20.445  24.925  1.00  0.00     0.038 C 
ATOM     22  C   UNL A   1      33.097  21.095  23.548  1.00  0.00     0.011 A 
ATOM     23  C   UNL A   1      34.341  21.405  24.056  1.00  0.00    -0.019 A 
ATOM     24  S   UNL A   1      32.420  22.388  22.686  1.00  0.00    -0.122 S 
ATOM     25  C   UNL A   1      34.725  22.771  23.764  1.00  0.00     0.077 A 
BRANCH  18  26
ATOM     26  C   UNL A   1      32.324  17.727  25.314  1.00  0.00     0.004 C 
BRANCH  26  27
ATOM     27  C   UNL A   1      33.366  16.650  25.638  1.00  0.00    -0.003 C 
ATOM     28  C   UNL A   1      32.940  15.233  25.302  1.00  0.00     0.004 C 
ENDBRANCH  26  27
ENDBRANCH  18  26
BRANCH  25  29
ATOM     29  C   UNL A   1      35.850  23.426  24.421  1.00  0.00     0.251 C 
ATOM     30  N   UNL A   1      37.075  23.174  23.871  1.00  0.00    -0.365 N 
ATOM     31  O   UNL A   1      35.730  24.190  25.367  1.00  0.00    -0.269 OA
ATOM     32  H   UNL A   1      37.154  22.555  23.109  1.00  0.00     0.159 HD
ATOM     33  H   UNL A   1      37.878  23.610  24.236  1.00  0.00     0.159 HD
ENDBRANCH  25  29
ENDBRANCH  14  17
ENDBRANCH   7  13
ENDBRANCH   3   6
ENDBRANCH   1   2
BRANCH   1  34
ATOM     34  C   UNL A   1      34.320  30.465  27.507  1.00  0.00     0.042 C 
BRANCH  34  35
ATOM     35  C   UNL A   1      35.723  30.415  28.080  1.00  0.00     0.118 C 
BRANCH  35  36
ATOM     36  N   UNL A   1      35.692  30.235  29.527  1.00  0.00    -0.352 N 
ATOM     37  C   UNL A   1      36.628  29.690  30.371  1.00  0.00     0.251 C 
ATOM     38  H   UNL A   1      34.872  30.555  29.968  1.00  0.00     0.163 HD
ATOM     39  O   UNL A   1      36.293  29.394  31.516  1.00  0.00    -0.269 OA
BRANCH  37  40
ATOM     40  C   UNL A   1      38.016  29.446  29.912  1.00  0.00     0.039 A 
ATOM     41  C   UNL A   1      38.978  29.045  30.843  1.00  0.00     0.014 A 
ATOM     42  C   UNL A   1      38.387  29.644  28.581  1.00  0.00     0.014 A 
ATOM     43  C   UNL A   1      40.291  28.804  30.429  1.00  0.00     0.010 A 
ATOM     44  C   UNL A   1      39.658  29.286  28.147  1.00  0.00     0.010 A 
ATOM     45  C   UNL A   1      40.634  28.892  29.070  1.00  0.00    -0.014 A 
BRANCH  45  46
ATOM     46  C   UNL A   1      42.018  28.636  28.598  1.00  0.00     0.031 A 
ATOM     47  C   UNL A   1      42.419  27.241  28.182  1.00  0.00     0.074 A 
ATOM     48  C   UNL A   1      42.922  29.637  28.587  1.00  0.00     0.049 A 
ATOM     49  N   UNL A   1      43.594  26.795  27.817  1.00  0.00    -0.248 NA
ATOM     50  C   UNL A   1      41.372  26.204  28.210  1.00  0.00     0.031 C 
ATOM     51  C   UNL A   1      42.667  31.017  29.012  1.00  0.00     0.029 A 
ATOM     52  N   UNL A   1      44.240  29.648  28.207  1.00  0.00    -0.354 N 
ATOM     53  C   UNL A   1      43.426  25.433  27.589  1.00  0.00     0.074 A 
ATOM     54  C   UNL A   1      42.059  25.109  27.923  1.00  0.00     0.031 C 
ATOM     55  C   UNL A   1      43.781  31.745  28.835  1.00  0.00     0.029 A 
ATOM     56  C   UNL A   1      44.840  30.880  28.328  1.00  0.00     0.049 A 
ATOM     57  H   UNL A   1      44.712  28.850  27.878  1.00  0.00     0.167 HD
ATOM     58  C   UNL A   1      44.318  24.538  27.105  1.00  0.00     0.031 A 
ATOM     59  C   UNL A   1      46.104  31.266  28.065  1.00  0.00     0.031 A 
ATOM     60  C   UNL A   1      45.669  24.870  26.742  1.00  0.00     0.049 A 
ATOM     61  C   UNL A   1      47.077  30.247  27.534  1.00  0.00     0.074 A 
ATOM     62  C   UNL A   1      46.645  24.046  26.210  1.00  0.00     0.029 A 
ATOM     63  N   UNL A   1      46.227  26.133  26.857  1.00  0.00    -0.354 N 
ATOM     64  N   UNL A   1      46.882  28.974  27.280  1.00  0.00    -0.248 NA
ATOM     65  C   UNL A   1      48.437  30.719  27.240  1.00  0.00     0.031 C 
ATOM     66  C   UNL A   1      47.807  24.804  26.039  1.00  0.00     0.029 A 
ATOM     67  C   UNL A   1      47.536  26.110  26.412  1.00  0.00     0.049 A 
ATOM     68  H   UNL A   1      45.762  26.928  27.205  1.00  0.00     0.167 HD
ATOM     69  C   UNL A   1      48.085  28.504  26.764  1.00  0.00     0.074 A 
ATOM     70  C   UNL A   1      48.993  29.631  26.725  1.00  0.00     0.031 C 
ATOM     71  C   UNL A   1      48.413  27.251  26.363  1.00  0.00     0.031 A 
BRANCH  58  72
ATOM     72  C   UNL A   1      43.852  23.118  26.907  1.00  0.00    -0.014 A 
ATOM     73  C   UNL A   1      43.043  22.489  27.870  1.00  0.00     0.010 A 
ATOM     74  C   UNL A   1      44.167  22.430  25.721  1.00  0.00     0.010 A 
ATOM     75  C   UNL A   1      42.576  21.188  27.663  1.00  0.00     0.020 A 
ATOM     76  C   UNL A   1      43.678  21.139  25.498  1.00  0.00     0.020 A 
ATOM     77  C   UNL A   1      42.892  20.523  26.475  1.00  0.00     0.054 A 
BRANCH  77  78
ATOM     78  S   UNL A   1      42.221  18.859  26.211  1.00  0.00     0.124 S 
ATOM     79  O   UNL A   1      42.356  18.265  27.540  1.00  0.00    -0.237 OA
ATOM     80  O   UNL A   1      40.852  19.132  25.783  1.00  0.00    -0.237 OA
ATOM     81  O   UNL A   1      43.091  18.291  25.185  1.00  0.00    -0.744 OA
ENDBRANCH  77  78
ENDBRANCH  58  72
BRANCH  59  82
ATOM     82  C   UNL A   1      46.528  32.675  28.296  1.00  0.00    -0.014 A 
ATOM     83  C   UNL A   1      47.001  33.085  29.556  1.00  0.00     0.010 A 
ATOM     84  C   UNL A   1      46.427  33.627  27.264  1.00  0.00     0.010 A 
ATOM     85  C   UNL A   1      47.317  34.427  29.793  1.00  0.00     0.020 A 
ATOM     86  C   UNL A   1      46.774  34.962  27.488  1.00  0.00     0.020 A 
ATOM     87  C   UNL A   1      47.193  35.359  28.758  1.00  0.00     0.054 A 
BRANCH  87  88
ATOM     88  S   UNL A   1      47.602  37.095  29.088  1.00  0.00     0.124 S 
ATOM     89  O   UNL A   1      47.538  37.679  27.752  1.00  0.00    -0.237 OA
ATOM     90  O   UNL A   1      46.542  37.502  30.007  1.00  0.00    -0.237 OA
ATOM     91  O   UNL A   1      48.936  37.026  29.679  1.00  0.00    -0.744 OA
ENDBRANCH  87  88
ENDBRANCH  59  82
BRANCH  71  92
ATOM     92  C   UNL A   1      49.791  27.045  25.797  1.00  0.00    -0.014 A 
ATOM     93  C   UNL A   1      50.054  27.229  24.428  1.00  0.00     0.010 A 
ATOM     94  C   UNL A   1      50.851  26.719  26.663  1.00  0.00     0.010 A 
ATOM     95  C   UNL A   1      51.346  27.057  23.930  1.00  0.00     0.020 A 
ATOM     96  C   UNL A   1      52.151  26.576  26.174  1.00  0.00     0.020 A 
ATOM     97  C   UNL A   1      52.388  26.731  24.807  1.00  0.00     0.054 A 
BRANCH  97  98
ATOM     98  S   UNL A   1      54.065  26.559  24.142  1.00  0.00     0.124 S 
ATOM     99  O   UNL A   1      54.706  27.783  24.614  1.00  0.00    -0.237 OA
ATOM    100  O   UNL A   1      54.532  25.323  24.765  1.00  0.00    -0.237 OA
ATOM    101  O   UNL A   1      53.859  26.482  22.697  1.00  0.00    -0.744 OA
ENDBRANCH  97  98
ENDBRANCH  71  92
ENDBRANCH  45  46
ENDBRANCH  37  40
ENDBRANCH  35  36
ENDBRANCH  34  35
ENDBRANCH   1  34
TORSDOF 18
ENDMDL
MODEL 3
REMARK VINA RESULT:     -11.8      3.244      5.468
REMARK SMILES CCC[C@H]1CCc2c(sc(NC(=O)[C@H]3[C@@H](C(=O)NCCCNC(=O)c4ccc(-c5c6nc(c(-c7ccc(S(=O)(=O)[O-])cc7)c7ccc([nH]7)c(-c7ccc(S(=O)(=O)[O-])cc7)c7nc(c(-c8ccc(S(=O)(=O)[O-])cc8)c8ccc5[nH]8)C=C7)C=C6)cc4)[C@H]4CC[C@@H]3O4)c2C(N)=O)C1
REMARK SMILES IDX 19 1 18 2 16 3 17 4 15 6 14 7 88 8 85 9 87 10 89 11 86 12
REMARK SMILES IDX 12 13 11 14 13 16 10 17 4 18 5 19 94 20 6 21 8 22 7 23 9 24
REMARK SMILES IDX 90 25 3 26 2 27 1 28 91 29 92 30 93 31 20 34 21 35 22 36
REMARK SMILES IDX 23 37 24 39 25 40 26 41 84 42 27 43 83 44 28 45 29 46 30 47
REMARK SMILES IDX 77 48 31 49 82 50 76 51 78 52 32 53 81 54 75 55 74 56 33 58
REMARK SMILES IDX 63 59 44 60 62 61 45 62 48 63 61 64 79 65 46 66 47 67 60 69
REMARK SMILES IDX 80 70 49 71 34 72 35 73 43 74 36 75 42 76 37 77 38 78 39 79
REMARK SMILES IDX 40 80 41 81 64 82 65 83 73 84 66 85 72 86 67 87 68 88 69 89
REMARK SMILES IDX 70 90 71 91 50 92 51 93 59 94 52 95 58 96 53 97 54 98 55 99
REMARK SMILES IDX 56 100 57 101
REMARK H PARENT 18 5 11 15 92 32 92 33 22 38 78 57 48 68
REMARK Flexibility Score: inf
ROOT
ATOM      1  C   UNL A   1      31.844  27.059  26.153  1.00  0.00     0.117 C 
ENDROOT
BRANCH   1   2
ATOM      2  N   UNL A   1      31.482  25.792  26.717  1.00  0.00    -0.356 N 
ATOM      3  C   UNL A   1      32.028  24.568  26.611  1.00  0.00     0.226 C 
ATOM      4  O   UNL A   1      31.614  23.766  27.463  1.00  0.00    -0.275 OA
ATOM      5  H   UNL A   1      30.683  25.824  27.293  1.00  0.00     0.163 HD
BRANCH   3   6
ATOM      6  C   UNL A   1      33.128  24.111  25.647  1.00  0.00     0.122 C 
ATOM      7  C   UNL A   1      33.226  22.948  24.645  1.00  0.00     0.123 C 
ATOM      8  C   UNL A   1      34.115  21.937  25.375  1.00  0.00     0.132 C 
ATOM      9  C   UNL A   1      34.348  23.732  26.568  1.00  0.00     0.132 C 
ATOM     10  C   UNL A   1      33.603  21.499  26.748  1.00  0.00     0.035 C 
ATOM     11  O   UNL A   1      35.172  22.866  25.738  1.00  0.00    -0.373 OA
ATOM     12  C   UNL A   1      33.968  22.695  27.626  1.00  0.00     0.035 C 
BRANCH   7  13
ATOM     13  C   UNL A   1      32.168  22.307  23.787  1.00  0.00     0.231 C 
ATOM     14  N   UNL A   1      31.308  23.027  22.997  1.00  0.00    -0.317 N 
ATOM     15  H   UNL A   1      30.692  22.476  22.462  1.00  0.00     0.170 HD
ATOM     16  O   UNL A   1      32.060  21.077  23.754  1.00  0.00    -0.274 OA
BRANCH  14  17
ATOM     17  C   UNL A   1      31.155  24.386  22.823  1.00  0.00     0.108 A 
ATOM     18  C   UNL A   1      29.501  28.933  22.903  1.00  0.00    -0.006 C 
ATOM     19  C   UNL A   1      31.009  29.187  23.152  1.00  0.00     0.009 C 
ATOM     20  C   UNL A   1      29.091  27.633  23.644  1.00  0.00     0.050 C 
ATOM     21  C   UNL A   1      31.890  28.069  22.572  1.00  0.00     0.038 C 
ATOM     22  C   UNL A   1      30.022  26.521  23.250  1.00  0.00     0.011 A 
ATOM     23  C   UNL A   1      31.303  26.701  22.770  1.00  0.00    -0.019 A 
ATOM     24  S   UNL A   1      29.577  24.886  23.284  1.00  0.00    -0.122 S 
ATOM     25  C   UNL A   1      31.917  25.451  22.374  1.00  0.00     0.077 A 
BRANCH  18  26
ATOM     26  C   UNL A   1      28.682  30.162  23.343  1.00  0.00     0.004 C 
BRANCH  26  27
ATOM     27  C   UNL A   1      29.108  31.481  22.687  1.00  0.00    -0.003 C 
ATOM     28  C   UNL A   1      28.025  32.542  22.631  1.00  0.00     0.004 C 
ENDBRANCH  26  27
ENDBRANCH  18  26
BRANCH  25  29
ATOM     29  C   UNL A   1      33.141  25.395  21.583  1.00  0.00     0.251 C 
ATOM     30  N   UNL A   1      34.300  25.344  22.304  1.00  0.00    -0.365 N 
ATOM     31  O   UNL A   1      33.156  25.346  20.362  1.00  0.00    -0.269 OA
ATOM     32  H   UNL A   1      34.270  25.385  23.287  1.00  0.00     0.159 HD
ATOM     33  H   UNL A   1      35.165  25.267  21.841  1.00  0.00     0.159 HD
ENDBRANCH  25  29
ENDBRANCH  14  17
ENDBRANCH   7  13
ENDBRANCH   3   6
ENDBRANCH   1   2
BRANCH   1  34
ATOM     34  C   UNL A   1      33.241  27.492  26.560  1.00  0.00     0.042 C 
BRANCH  34  35
ATOM     35  C   UNL A   1      33.264  28.296  27.845  1.00  0.00     0.118 C 
BRANCH  35  36
ATOM     36  N   UNL A   1      33.325  29.727  27.566  1.00  0.00    -0.352 N 
ATOM     37  C   UNL A   1      34.333  30.631  27.796  1.00  0.00     0.251 C 
ATOM     38  H   UNL A   1      32.517  30.103  27.147  1.00  0.00     0.163 HD
ATOM     39  O   UNL A   1      34.079  31.831  27.729  1.00  0.00    -0.269 OA
BRANCH  37  40
ATOM     40  C   UNL A   1      35.702  30.174  28.132  1.00  0.00     0.039 A 
ATOM     41  C   UNL A   1      36.684  30.182  27.137  1.00  0.00     0.014 A 
ATOM     42  C   UNL A   1      36.020  29.704  29.408  1.00  0.00     0.014 A 
ATOM     43  C   UNL A   1      37.983  29.762  27.437  1.00  0.00     0.010 A 
ATOM     44  C   UNL A   1      37.336  29.405  29.737  1.00  0.00     0.010 A 
ATOM     45  C   UNL A   1      38.327  29.399  28.749  1.00  0.00    -0.014 A 
BRANCH  45  46
ATOM     46  C   UNL A   1      39.700  28.955  29.100  1.00  0.00     0.031 A 
ATOM     47  C   UNL A   1      40.637  29.908  29.803  1.00  0.00     0.074 A 
ATOM     48  C   UNL A   1      40.119  27.723  28.747  1.00  0.00     0.049 A 
ATOM     49  N   UNL A   1      41.894  29.742  30.123  1.00  0.00    -0.248 NA
ATOM     50  C   UNL A   1      40.101  31.233  30.164  1.00  0.00     0.031 C 
ATOM     51  C   UNL A   1      39.322  26.729  28.022  1.00  0.00     0.029 A 
ATOM     52  N   UNL A   1      41.322  27.095  28.951  1.00  0.00    -0.354 N 
ATOM     53  C   UNL A   1      42.297  30.939  30.707  1.00  0.00     0.074 A 
ATOM     54  C   UNL A   1      41.177  31.848  30.633  1.00  0.00     0.031 C 
ATOM     55  C   UNL A   1      40.044  25.607  27.874  1.00  0.00     0.029 A 
ATOM     56  C   UNL A   1      41.368  25.813  28.451  1.00  0.00     0.049 A 
ATOM     57  H   UNL A   1      42.080  27.520  29.411  1.00  0.00     0.167 HD
ATOM     58  C   UNL A   1      43.479  31.243  31.289  1.00  0.00     0.031 A 
ATOM     59  C   UNL A   1      42.368  24.911  28.453  1.00  0.00     0.031 A 
ATOM     60  C   UNL A   1      44.581  30.326  31.390  1.00  0.00     0.049 A 
ATOM     61  C   UNL A   1      43.676  25.279  29.103  1.00  0.00     0.074 A 
ATOM     62  C   UNL A   1      45.812  30.522  31.991  1.00  0.00     0.029 A 
ATOM     63  N   UNL A   1      44.577  29.032  30.893  1.00  0.00    -0.354 N 
ATOM     64  N   UNL A   1      44.017  26.401  29.691  1.00  0.00    -0.248 NA
ATOM     65  C   UNL A   1      44.729  24.254  29.101  1.00  0.00     0.031 C 
ATOM     66  C   UNL A   1      46.567  29.357  31.823  1.00  0.00     0.029 A 
ATOM     67  C   UNL A   1      45.786  28.420  31.168  1.00  0.00     0.049 A 
ATOM     68  H   UNL A   1      43.825  28.612  30.415  1.00  0.00     0.167 HD
ATOM     69  C   UNL A   1      45.311  26.203  30.159  1.00  0.00     0.074 A 
ATOM     70  C   UNL A   1      45.683  24.850  29.802  1.00  0.00     0.031 C 
ATOM     71  C   UNL A   1      46.124  27.063  30.821  1.00  0.00     0.031 A 
BRANCH  58  72
ATOM     72  C   UNL A   1      43.632  32.615  31.894  1.00  0.00    -0.014 A 
ATOM     73  C   UNL A   1      44.121  33.687  31.125  1.00  0.00     0.010 A 
ATOM     74  C   UNL A   1      43.222  32.854  33.218  1.00  0.00     0.010 A 
ATOM     75  C   UNL A   1      44.221  34.967  31.676  1.00  0.00     0.020 A 
ATOM     76  C   UNL A   1      43.294  34.139  33.764  1.00  0.00     0.020 A 
ATOM     77  C   UNL A   1      43.801  35.186  32.990  1.00  0.00     0.054 A 
BRANCH  77  78
ATOM     78  S   UNL A   1      43.887  36.872  33.655  1.00  0.00     0.124 S 
ATOM     79  O   UNL A   1      42.722  36.907  34.538  1.00  0.00    -0.237 OA
ATOM     80  O   UNL A   1      45.183  36.884  34.326  1.00  0.00    -0.237 OA
ATOM     81  O   UNL A   1      43.793  37.719  32.469  1.00  0.00    -0.744 OA
ENDBRANCH  77  78
ENDBRANCH  58  72
BRANCH  59  82
ATOM     82  C   UNL A   1      42.181  23.573  27.824  1.00  0.00    -0.014 A 
ATOM     83  C   UNL A   1      41.533  22.537  28.520  1.00  0.00     0.010 A 
ATOM     84  C   UNL A   1      42.685  23.316  26.535  1.00  0.00     0.010 A 
ATOM     85  C   UNL A   1      41.436  21.258  27.962  1.00  0.00     0.020 A 
ATOM     86  C   UNL A   1      42.560  22.049  25.959  1.00  0.00     0.020 A 
ATOM     87  C   UNL A   1      41.958  21.021  26.687  1.00  0.00     0.054 A 
BRANCH  87  88
ATOM     88  S   UNL A   1      41.828  19.354  25.983  1.00  0.00     0.124 S 
ATOM     89  O   UNL A   1      40.397  19.251  25.716  1.00  0.00    -0.237 OA
ATOM     90  O   UNL A   1      42.687  19.439  24.805  1.00  0.00    -0.237 OA
ATOM     91  O   UNL A   1      42.330  18.493  27.050  1.00  0.00    -0.744 OA
ENDBRANCH  87  88
ENDBRANCH  59  82
BRANCH  71  92
ATOM     92  C   UNL A   1      47.471  26.551  31.250  1.00  0.00    -0.014 A 
ATOM     93  C   UNL A   1      47.642  25.882  32.474  1.00  0.00     0.010 A 
ATOM     94  C   UNL A   1      48.570  26.692  30.383  1.00  0.00     0.010 A 
ATOM     95  C   UNL A   1      48.897  25.392  32.840  1.00  0.00     0.020 A 
ATOM     96  C   UNL A   1      49.820  26.177  30.732  1.00  0.00     0.020 A 
ATOM     97  C   UNL A   1      49.980  25.543  31.964  1.00  0.00     0.054 A 
BRANCH  97  98
ATOM     98  S   UNL A   1      51.588  24.857  32.443  1.00  0.00     0.124 S 
ATOM     99  O   UNL A   1      51.712  25.310  33.825  1.00  0.00    -0.237 OA
ATOM    100  O   UNL A   1      51.390  23.421  32.266  1.00  0.00    -0.237 OA
ATOM    101  O   UNL A   1      52.521  25.472  31.501  1.00  0.00    -0.744 OA
ENDBRANCH  97  98
ENDBRANCH  71  92
ENDBRANCH  45  46
ENDBRANCH  37  40
ENDBRANCH  35  36
ENDBRANCH  34  35
ENDBRANCH   1  34
TORSDOF 18
ENDMDL
