MODEL 1
REMARK VINA RESULT:     -12.2      0.000      0.000
REMARK SMILES Cc1ccc(O)c(C(=O)NCc2ccc(C(=O)NCCCNC(=O)c3ccc(-c4c5nc(c(-c6ccc(S(=O)(=O)[O-])cc6)c6ccc([nH]6)c(-c6ccc(S(=O)(=O)[O-])cc6)c6nc(c(-c7ccc(S(=O)(=O)[O-])cc7)c7ccc4[nH]7)C=C6)C=C5)cc3)o2)c1
REMARK SMILES IDX 19 1 18 2 16 3 17 4 15 6 12 7 13 8 85 9 14 10 11 11 10 12
REMARK SMILES IDX 8 13 9 14 7 16 1 17 2 18 3 19 86 20 4 21 5 22 6 23 20 25
REMARK SMILES IDX 21 26 22 27 23 28 24 30 25 31 26 32 84 33 27 34 83 35 28 36
REMARK SMILES IDX 29 37 30 38 77 39 31 40 82 41 76 42 78 43 32 44 81 45 75 46
REMARK SMILES IDX 74 47 33 49 63 50 44 51 62 52 45 53 48 54 61 55 79 56 46 57
REMARK SMILES IDX 47 58 60 60 80 61 49 62 34 63 35 64 43 65 36 66 42 67 37 68
REMARK SMILES IDX 38 69 39 70 40 71 41 72 64 73 65 74 73 75 66 76 72 77 67 78
REMARK SMILES IDX 68 79 69 80 70 81 71 82 50 83 51 84 59 85 52 86 58 87 53 88
REMARK SMILES IDX 54 89 55 90 56 91 57 92
REMARK H PARENT 18 5 10 15 6 24 22 29 78 48 48 59
REMARK Flexibility Score: inf
ROOT
ATOM      1  C   UNL A   1      36.789  22.327  25.471  1.00  0.00     0.118 C 
ENDROOT
BRANCH   1   2
ATOM      2  N   UNL A   1      35.901  22.112  26.595  1.00  0.00    -0.349 N 
ATOM      3  C   UNL A   1      34.571  21.775  26.653  1.00  0.00     0.286 C 
ATOM      4  O   UNL A   1      34.124  21.582  27.790  1.00  0.00    -0.266 OA
ATOM      5  H   UNL A   1      36.326  22.229  27.475  1.00  0.00     0.163 HD
BRANCH   3   6
ATOM      6  C   UNL A   1      33.759  21.635  25.461  1.00  0.00     0.191 A 
ATOM      7  C   UNL A   1      32.323  22.438  23.968  1.00  0.00     0.124 A 
ATOM      8  C   UNL A   1      32.616  21.151  23.574  1.00  0.00     0.048 A 
ATOM      9  O   UNL A   1      32.995  22.725  25.117  1.00  0.00    -0.454 OA
ATOM     10  C   UNL A   1      33.561  20.654  24.504  1.00  0.00     0.056 A 
BRANCH   7  11
ATOM     11  C   UNL A   1      31.521  23.547  23.397  1.00  0.00     0.191 C 
BRANCH  11  12
ATOM     12  N   UNL A   1      32.320  24.200  22.383  1.00  0.00    -0.345 N 
ATOM     13  C   UNL A   1      32.830  25.454  22.201  1.00  0.00     0.255 C 
ATOM     14  O   UNL A   1      33.480  25.623  21.162  1.00  0.00    -0.269 OA
ATOM     15  H   UNL A   1      32.552  23.593  21.643  1.00  0.00     0.164 HD
BRANCH  13  16
ATOM     16  C   UNL A   1      32.686  26.621  23.128  1.00  0.00     0.081 A 
ATOM     17  C   UNL A   1      33.963  28.027  26.451  1.00  0.00     0.044 C 
ATOM     18  C   UNL A   1      33.198  27.893  25.165  1.00  0.00    -0.050 A 
ATOM     19  C   UNL A   1      32.261  28.864  24.808  1.00  0.00     0.007 A 
ATOM     20  C   UNL A   1      33.401  26.786  24.321  1.00  0.00     0.021 A 
ATOM     21  C   UNL A   1      31.534  28.724  23.631  1.00  0.00     0.047 A 
ATOM     22  C   UNL A   1      31.740  27.617  22.806  1.00  0.00     0.128 A 
BRANCH  22  23
ATOM     23  O   UNL A   1      30.949  27.582  21.685  1.00  0.00    -0.507 OA
ATOM     24  H   UNL A   1      31.007  28.268  21.049  1.00  0.00     0.293 HD
ENDBRANCH  22  23
ENDBRANCH  13  16
ENDBRANCH  11  12
ENDBRANCH   7  11
ENDBRANCH   3   6
ENDBRANCH   1   2
BRANCH   1  25
ATOM     25  C   UNL A   1      37.263  23.775  25.395  1.00  0.00     0.042 C 
BRANCH  25  26
ATOM     26  C   UNL A   1      38.191  24.161  26.546  1.00  0.00     0.118 C 
BRANCH  26  27
ATOM     27  N   UNL A   1      39.596  24.071  26.165  1.00  0.00    -0.352 N 
ATOM     28  C   UNL A   1      40.651  24.897  26.454  1.00  0.00     0.251 C 
ATOM     29  H   UNL A   1      39.824  23.289  25.610  1.00  0.00     0.163 HD
ATOM     30  O   UNL A   1      41.696  24.779  25.820  1.00  0.00    -0.269 OA
BRANCH  28  31
ATOM     31  C   UNL A   1      40.539  25.920  27.515  1.00  0.00     0.039 A 
ATOM     32  C   UNL A   1      39.623  25.722  28.551  1.00  0.00     0.014 A 
ATOM     33  C   UNL A   1      41.294  27.094  27.463  1.00  0.00     0.014 A 
ATOM     34  C   UNL A   1      39.506  26.676  29.565  1.00  0.00     0.010 A 
ATOM     35  C   UNL A   1      41.235  28.005  28.515  1.00  0.00     0.010 A 
ATOM     36  C   UNL A   1      40.335  27.810  29.571  1.00  0.00    -0.014 A 
BRANCH  36  37
ATOM     37  C   UNL A   1      40.274  28.800  30.676  1.00  0.00     0.031 A 
ATOM     38  C   UNL A   1      41.163  28.649  31.881  1.00  0.00     0.074 A 
ATOM     39  C   UNL A   1      39.373  29.800  30.620  1.00  0.00     0.049 A 
ATOM     40  N   UNL A   1      41.212  29.378  32.966  1.00  0.00    -0.248 NA
ATOM     41  C   UNL A   1      42.102  27.515  31.880  1.00  0.00     0.031 C 
ATOM     42  C   UNL A   1      38.427  30.028  29.524  1.00  0.00     0.029 A 
ATOM     43  N   UNL A   1      39.098  30.810  31.508  1.00  0.00    -0.354 N 
ATOM     44  C   UNL A   1      42.172  28.787  33.779  1.00  0.00     0.074 A 
ATOM     45  C   UNL A   1      42.641  27.606  33.086  1.00  0.00     0.031 C 
ATOM     46  C   UNL A   1      37.697  31.122  29.792  1.00  0.00     0.029 A 
ATOM     47  C   UNL A   1      38.088  31.647  31.095  1.00  0.00     0.049 A 
ATOM     48  H   UNL A   1      39.579  30.924  32.359  1.00  0.00     0.167 HD
ATOM     49  C   UNL A   1      42.635  29.198  34.983  1.00  0.00     0.031 A 
ATOM     50  C   UNL A   1      37.531  32.713  31.702  1.00  0.00     0.031 A 
ATOM     51  C   UNL A   1      42.165  30.376  35.665  1.00  0.00     0.049 A 
ATOM     52  C   UNL A   1      38.052  33.143  33.046  1.00  0.00     0.074 A 
ATOM     53  C   UNL A   1      42.604  30.908  36.865  1.00  0.00     0.029 A 
ATOM     54  N   UNL A   1      41.148  31.202  35.210  1.00  0.00    -0.354 N 
ATOM     55  N   UNL A   1      39.008  32.608  33.769  1.00  0.00    -0.248 NA
ATOM     56  C   UNL A   1      37.429  34.328  33.649  1.00  0.00     0.031 C 
ATOM     57  C   UNL A   1      41.814  32.021  37.164  1.00  0.00     0.029 A 
ATOM     58  C   UNL A   1      40.928  32.224  36.118  1.00  0.00     0.049 A 
ATOM     59  H   UNL A   1      40.655  31.079  34.367  1.00  0.00     0.167 HD
ATOM     60  C   UNL A   1      39.119  33.408  34.900  1.00  0.00     0.074 A 
ATOM     61  C   UNL A   1      38.146  34.473  34.756  1.00  0.00     0.031 C 
ATOM     62  C   UNL A   1      39.952  33.275  35.962  1.00  0.00     0.031 A 
BRANCH  49  63
ATOM     63  C   UNL A   1      43.703  28.363  35.643  1.00  0.00    -0.014 A 
ATOM     64  C   UNL A   1      45.068  28.595  35.392  1.00  0.00     0.010 A 
ATOM     65  C   UNL A   1      43.341  27.355  36.556  1.00  0.00     0.010 A 
ATOM     66  C   UNL A   1      46.046  27.808  36.004  1.00  0.00     0.020 A 
ATOM     67  C   UNL A   1      44.317  26.586  37.196  1.00  0.00     0.020 A 
ATOM     68  C   UNL A   1      45.665  26.806  36.901  1.00  0.00     0.054 A 
BRANCH  68  69
ATOM     69  S   UNL A   1      46.958  25.814  37.696  1.00  0.00     0.124 S 
ATOM     70  O   UNL A   1      47.848  25.525  36.574  1.00  0.00    -0.237 OA
ATOM     71  O   UNL A   1      47.493  26.730  38.700  1.00  0.00    -0.237 OA
ATOM     72  O   UNL A   1      46.235  24.663  38.229  1.00  0.00    -0.744 OA
ENDBRANCH  68  69
ENDBRANCH  49  63
BRANCH  50  73
ATOM     73  C   UNL A   1      36.424  33.451  31.034  1.00  0.00    -0.014 A 
ATOM     74  C   UNL A   1      36.550  33.875  29.699  1.00  0.00     0.010 A 
ATOM     75  C   UNL A   1      35.228  33.719  31.725  1.00  0.00     0.010 A 
ATOM     76  C   UNL A   1      35.508  34.568  29.074  1.00  0.00     0.020 A 
ATOM     77  C   UNL A   1      34.173  34.384  31.095  1.00  0.00     0.020 A 
ATOM     78  C   UNL A   1      34.324  34.814  29.776  1.00  0.00     0.054 A 
BRANCH  78  79
ATOM     79  S   UNL A   1      32.966  35.667  28.926  1.00  0.00     0.124 S 
ATOM     80  O   UNL A   1      32.146  36.122  30.044  1.00  0.00    -0.237 OA
ATOM     81  O   UNL A   1      33.667  36.714  28.186  1.00  0.00    -0.237 OA
ATOM     82  O   UNL A   1      32.372  34.620  28.096  1.00  0.00    -0.744 OA
ENDBRANCH  78  79
ENDBRANCH  50  73
BRANCH  62  83
ATOM     83  C   UNL A   1      39.876  34.326  37.038  1.00  0.00    -0.014 A 
ATOM     84  C   UNL A   1      40.567  35.544  36.922  1.00  0.00     0.010 A 
ATOM     85  C   UNL A   1      39.055  34.107  38.161  1.00  0.00     0.010 A 
ATOM     86  C   UNL A   1      40.466  36.511  37.926  1.00  0.00     0.020 A 
ATOM     87  C   UNL A   1      38.928  35.084  39.152  1.00  0.00     0.020 A 
ATOM     88  C   UNL A   1      39.647  36.275  39.034  1.00  0.00     0.054 A 
BRANCH  88  89
ATOM     89  S   UNL A   1      39.503  37.562  40.303  1.00  0.00     0.124 S 
ATOM     90  O   UNL A   1      38.609  38.522  39.664  1.00  0.00    -0.237 OA
ATOM     91  O   UNL A   1      38.936  36.832  41.436  1.00  0.00    -0.237 OA
ATOM     92  O   UNL A   1      40.878  38.020  40.491  1.00  0.00    -0.744 OA
ENDBRANCH  88  89
ENDBRANCH  62  83
ENDBRANCH  36  37
ENDBRANCH  28  31
ENDBRANCH  26  27
ENDBRANCH  25  26
ENDBRANCH   1  25
TORSDOF 17
ENDMDL
MODEL 2
REMARK VINA RESULT:     -12.2      4.526     10.386
REMARK SMILES Cc1ccc(O)c(C(=O)NCc2ccc(C(=O)NCCCNC(=O)c3ccc(-c4c5nc(c(-c6ccc(S(=O)(=O)[O-])cc6)c6ccc([nH]6)c(-c6ccc(S(=O)(=O)[O-])cc6)c6nc(c(-c7ccc(S(=O)(=O)[O-])cc7)c7ccc4[nH]7)C=C6)C=C5)cc3)o2)c1
REMARK SMILES IDX 19 1 18 2 16 3 17 4 15 6 12 7 13 8 85 9 14 10 11 11 10 12
REMARK SMILES IDX 8 13 9 14 7 16 1 17 2 18 3 19 86 20 4 21 5 22 6 23 20 25
REMARK SMILES IDX 21 26 22 27 23 28 24 30 25 31 26 32 84 33 27 34 83 35 28 36
REMARK SMILES IDX 29 37 30 38 77 39 31 40 82 41 76 42 78 43 32 44 81 45 75 46
REMARK SMILES IDX 74 47 33 49 63 50 44 51 62 52 45 53 48 54 61 55 79 56 46 57
REMARK SMILES IDX 47 58 60 60 80 61 49 62 34 63 35 64 43 65 36 66 42 67 37 68
REMARK SMILES IDX 38 69 39 70 40 71 41 72 64 73 65 74 73 75 66 76 72 77 67 78
REMARK SMILES IDX 68 79 69 80 70 81 71 82 50 83 51 84 59 85 52 86 58 87 53 88
REMARK SMILES IDX 54 89 55 90 56 91 57 92
REMARK H PARENT 18 5 10 15 6 24 22 29 78 48 48 59
REMARK Flexibility Score: inf
ROOT
ATOM      1  C   UNL A   1      31.823  28.925  25.124  1.00  0.00     0.118 C 
ENDROOT
BRANCH   1   2
ATOM      2  N   UNL A   1      31.168  29.227  23.868  1.00  0.00    -0.349 N 
ATOM      3  C   UNL A   1      30.940  28.460  22.753  1.00  0.00     0.286 C 
ATOM      4  O   UNL A   1      30.266  29.001  21.867  1.00  0.00    -0.266 OA
ATOM      5  H   UNL A   1      30.826  30.148  23.801  1.00  0.00     0.163 HD
BRANCH   3   6
ATOM      6  C   UNL A   1      31.438  27.104  22.636  1.00  0.00     0.191 A 
ATOM      7  C   UNL A   1      31.295  24.926  23.051  1.00  0.00     0.124 A 
ATOM      8  C   UNL A   1      32.420  25.103  22.276  1.00  0.00     0.048 A 
ATOM      9  O   UNL A   1      30.713  26.134  23.286  1.00  0.00    -0.454 OA
ATOM     10  C   UNL A   1      32.489  26.486  21.979  1.00  0.00     0.056 A 
BRANCH   7  11
ATOM     11  C   UNL A   1      30.582  23.748  23.601  1.00  0.00     0.191 C 
BRANCH  11  12
ATOM     12  N   UNL A   1      30.569  23.866  25.043  1.00  0.00    -0.345 N 
ATOM     13  C   UNL A   1      31.420  23.529  26.057  1.00  0.00     0.255 C 
ATOM     14  O   UNL A   1      31.028  23.802  27.198  1.00  0.00    -0.269 OA
ATOM     15  H   UNL A   1      29.746  24.293  25.375  1.00  0.00     0.164 HD
BRANCH  13  16
ATOM     16  C   UNL A   1      32.761  22.880  25.919  1.00  0.00     0.081 A 
ATOM     17  C   UNL A   1      36.512  23.643  25.924  1.00  0.00     0.044 C 
ATOM     18  C   UNL A   1      35.216  22.888  25.843  1.00  0.00    -0.050 A 
ATOM     19  C   UNL A   1      35.224  21.517  25.579  1.00  0.00     0.007 A 
ATOM     20  C   UNL A   1      33.988  23.551  26.012  1.00  0.00     0.021 A 
ATOM     21  C   UNL A   1      34.022  20.825  25.478  1.00  0.00     0.047 A 
ATOM     22  C   UNL A   1      32.809  21.498  25.640  1.00  0.00     0.128 A 
BRANCH  22  23
ATOM     23  O   UNL A   1      31.694  20.711  25.496  1.00  0.00    -0.507 OA
ATOM     24  H   UNL A   1      31.100  20.605  26.214  1.00  0.00     0.293 HD
ENDBRANCH  22  23
ENDBRANCH  13  16
ENDBRANCH  11  12
ENDBRANCH   7  11
ENDBRANCH   3   6
ENDBRANCH   1   2
BRANCH   1  25
ATOM     25  C   UNL A   1      33.303  28.614  24.928  1.00  0.00     0.042 C 
BRANCH  25  26
ATOM     26  C   UNL A   1      34.109  28.704  26.223  1.00  0.00     0.118 C 
BRANCH  26  27
ATOM     27  N   UNL A   1      33.900  29.976  26.906  1.00  0.00    -0.352 N 
ATOM     28  C   UNL A   1      34.632  30.588  27.890  1.00  0.00     0.251 C 
ATOM     29  H   UNL A   1      33.105  30.478  26.611  1.00  0.00     0.163 HD
ATOM     30  O   UNL A   1      34.139  31.530  28.505  1.00  0.00    -0.269 OA
BRANCH  28  31
ATOM     31  C   UNL A   1      35.997  30.125  28.213  1.00  0.00     0.039 A 
ATOM     32  C   UNL A   1      36.986  30.192  27.228  1.00  0.00     0.014 A 
ATOM     33  C   UNL A   1      36.294  29.577  29.465  1.00  0.00     0.014 A 
ATOM     34  C   UNL A   1      38.283  29.762  27.517  1.00  0.00     0.010 A 
ATOM     35  C   UNL A   1      37.604  29.225  29.776  1.00  0.00     0.010 A 
ATOM     36  C   UNL A   1      38.610  29.305  28.803  1.00  0.00    -0.014 A 
BRANCH  36  37
ATOM     37  C   UNL A   1      39.999  28.910  29.150  1.00  0.00     0.031 A 
ATOM     38  C   UNL A   1      40.926  29.895  29.809  1.00  0.00     0.074 A 
ATOM     39  C   UNL A   1      40.442  27.683  28.812  1.00  0.00     0.049 A 
ATOM     40  N   UNL A   1      42.186  29.750  30.133  1.00  0.00    -0.248 NA
ATOM     41  C   UNL A   1      40.377  31.224  30.121  1.00  0.00     0.031 C 
ATOM     42  C   UNL A   1      39.650  26.654  28.131  1.00  0.00     0.029 A 
ATOM     43  N   UNL A   1      41.667  27.093  28.988  1.00  0.00    -0.354 N 
ATOM     44  C   UNL A   1      42.582  30.969  30.672  1.00  0.00     0.074 A 
ATOM     45  C   UNL A   1      41.444  31.859  30.582  1.00  0.00     0.031 C 
ATOM     46  C   UNL A   1      40.400  25.553  27.974  1.00  0.00     0.029 A 
ATOM     47  C   UNL A   1      41.737  25.810  28.497  1.00  0.00     0.049 A 
ATOM     48  H   UNL A   1      42.425  27.545  29.424  1.00  0.00     0.167 HD
ATOM     49  C   UNL A   1      43.775  31.311  31.213  1.00  0.00     0.031 A 
ATOM     50  C   UNL A   1      42.766  24.940  28.462  1.00  0.00     0.031 A 
ATOM     51  C   UNL A   1      44.901  30.418  31.303  1.00  0.00     0.049 A 
ATOM     52  C   UNL A   1      44.087  25.347  29.054  1.00  0.00     0.074 A 
ATOM     53  C   UNL A   1      46.139  30.650  31.877  1.00  0.00     0.029 A 
ATOM     54  N   UNL A   1      44.930  29.125  30.802  1.00  0.00    -0.354 N 
ATOM     55  N   UNL A   1      44.421  26.483  29.621  1.00  0.00    -0.248 NA
ATOM     56  C   UNL A   1      45.165  24.351  29.017  1.00  0.00     0.031 C 
ATOM     57  C   UNL A   1      46.935  29.519  31.672  1.00  0.00     0.029 A 
ATOM     58  C   UNL A   1      46.171  28.557  31.031  1.00  0.00     0.049 A 
ATOM     59  H   UNL A   1      44.178  28.678  30.351  1.00  0.00     0.167 HD
ATOM     60  C   UNL A   1      45.740  26.327  30.031  1.00  0.00     0.074 A 
ATOM     61  C   UNL A   1      46.135  24.982  29.663  1.00  0.00     0.031 C 
ATOM     62  C   UNL A   1      46.551  27.216  30.655  1.00  0.00     0.031 A 
BRANCH  49  63
ATOM     63  C   UNL A   1      43.925  32.714  31.744  1.00  0.00    -0.014 A 
ATOM     64  C   UNL A   1      44.190  33.795  30.883  1.00  0.00     0.010 A 
ATOM     65  C   UNL A   1      43.763  32.963  33.120  1.00  0.00     0.010 A 
ATOM     66  C   UNL A   1      44.334  35.088  31.391  1.00  0.00     0.020 A 
ATOM     67  C   UNL A   1      43.875  34.260  33.629  1.00  0.00     0.020 A 
ATOM     68  C   UNL A   1      44.178  35.313  32.762  1.00  0.00     0.054 A 
BRANCH  68  69
ATOM     69  S   UNL A   1      44.351  37.005  33.389  1.00  0.00     0.124 S 
ATOM     70  O   UNL A   1      45.038  37.668  32.282  1.00  0.00    -0.237 OA
ATOM     71  O   UNL A   1      42.965  37.412  33.600  1.00  0.00    -0.237 OA
ATOM     72  O   UNL A   1      45.143  36.846  34.606  1.00  0.00    -0.744 OA
ENDBRANCH  68  69
ENDBRANCH  49  63
BRANCH  50  73
ATOM     73  C   UNL A   1      42.578  23.595  27.852  1.00  0.00    -0.014 A 
ATOM     74  C   UNL A   1      42.787  23.397  26.476  1.00  0.00     0.010 A 
ATOM     75  C   UNL A   1      42.205  22.497  28.651  1.00  0.00     0.010 A 
ATOM     76  C   UNL A   1      42.610  22.132  25.907  1.00  0.00     0.020 A 
ATOM     77  C   UNL A   1      42.057  21.226  28.091  1.00  0.00     0.020 A 
ATOM     78  C   UNL A   1      42.250  21.053  26.720  1.00  0.00     0.054 A 
BRANCH  78  79
ATOM     79  S   UNL A   1      42.079  19.411  25.967  1.00  0.00     0.124 S 
ATOM     80  O   UNL A   1      42.941  19.522  24.795  1.00  0.00    -0.237 OA
ATOM     81  O   UNL A   1      42.562  18.528  27.027  1.00  0.00    -0.237 OA
ATOM     82  O   UNL A   1      40.648  19.310  25.688  1.00  0.00    -0.744 OA
ENDBRANCH  78  79
ENDBRANCH  50  73
BRANCH  62  83
ATOM     83  C   UNL A   1      47.938  26.754  31.017  1.00  0.00    -0.014 A 
ATOM     84  C   UNL A   1      49.047  27.061  30.210  1.00  0.00     0.010 A 
ATOM     85  C   UNL A   1      48.139  26.042  32.216  1.00  0.00     0.010 A 
ATOM     86  C   UNL A   1      50.326  26.635  30.576  1.00  0.00     0.020 A 
ATOM     87  C   UNL A   1      49.421  25.642  32.601  1.00  0.00     0.020 A 
ATOM     88  C   UNL A   1      50.505  25.929  31.770  1.00  0.00     0.054 A 
BRANCH  88  89
ATOM     89  S   UNL A   1      52.181  25.423  32.241  1.00  0.00     0.124 S 
ATOM     90  O   UNL A   1      52.019  23.988  32.451  1.00  0.00    -0.237 OA
ATOM     91  O   UNL A   1      52.970  25.802  31.070  1.00  0.00    -0.237 OA
ATOM     92  O   UNL A   1      52.453  26.203  33.447  1.00  0.00    -0.744 OA
ENDBRANCH  88  89
ENDBRANCH  62  83
ENDBRANCH  36  37
ENDBRANCH  28  31
ENDBRANCH  26  27
ENDBRANCH  25  26
ENDBRANCH   1  25
TORSDOF 17
ENDMDL
MODEL 3
REMARK VINA RESULT:     -12.0      3.339      4.032
REMARK SMILES Cc1ccc(O)c(C(=O)NCc2ccc(C(=O)NCCCNC(=O)c3ccc(-c4c5nc(c(-c6ccc(S(=O)(=O)[O-])cc6)c6ccc([nH]6)c(-c6ccc(S(=O)(=O)[O-])cc6)c6nc(c(-c7ccc(S(=O)(=O)[O-])cc7)c7ccc4[nH]7)C=C6)C=C5)cc3)o2)c1
REMARK SMILES IDX 19 1 18 2 16 3 17 4 15 6 12 7 13 8 85 9 14 10 11 11 10 12
REMARK SMILES IDX 8 13 9 14 7 16 1 17 2 18 3 19 86 20 4 21 5 22 6 23 20 25
REMARK SMILES IDX 21 26 22 27 23 28 24 30 25 31 26 32 84 33 27 34 83 35 28 36
REMARK SMILES IDX 29 37 30 38 77 39 31 40 82 41 76 42 78 43 32 44 81 45 75 46
REMARK SMILES IDX 74 47 33 49 63 50 44 51 62 52 45 53 48 54 61 55 79 56 46 57
REMARK SMILES IDX 47 58 60 60 80 61 49 62 34 63 35 64 43 65 36 66 42 67 37 68
REMARK SMILES IDX 38 69 39 70 40 71 41 72 64 73 65 74 73 75 66 76 72 77 67 78
REMARK SMILES IDX 68 79 69 80 70 81 71 82 50 83 51 84 59 85 52 86 58 87 53 88
REMARK SMILES IDX 54 89 55 90 56 91 57 92
REMARK H PARENT 18 5 10 15 6 24 22 29 78 48 48 59
REMARK Flexibility Score: inf
ROOT
ATOM      1  C   UNL A   1      35.076  21.688  24.832  1.00  0.00     0.118 C 
ENDROOT
BRANCH   1   2
ATOM      2  N   UNL A   1      34.122  20.626  25.077  1.00  0.00    -0.349 N 
ATOM      3  C   UNL A   1      32.760  20.649  25.250  1.00  0.00     0.286 C 
ATOM      4  O   UNL A   1      32.223  19.539  25.358  1.00  0.00    -0.266 OA
ATOM      5  H   UNL A   1      34.521  19.728  25.130  1.00  0.00     0.163 HD
BRANCH   3   6
ATOM      6  C   UNL A   1      32.007  21.886  25.281  1.00  0.00     0.191 A 
ATOM      7  C   UNL A   1      31.047  23.617  24.272  1.00  0.00     0.124 A 
ATOM      8  C   UNL A   1      30.810  23.770  25.620  1.00  0.00     0.048 A 
ATOM      9  O   UNL A   1      31.787  22.492  24.067  1.00  0.00    -0.454 OA
ATOM     10  C   UNL A   1      31.389  22.648  26.259  1.00  0.00     0.056 A 
BRANCH   7  11
ATOM     11  C   UNL A   1      30.630  24.345  23.049  1.00  0.00     0.191 C 
BRANCH  11  12
ATOM     12  N   UNL A   1      31.824  24.708  22.316  1.00  0.00    -0.345 N 
ATOM     13  C   UNL A   1      32.677  25.775  22.307  1.00  0.00     0.255 C 
ATOM     14  O   UNL A   1      33.612  25.707  21.500  1.00  0.00    -0.269 OA
ATOM     15  H   UNL A   1      32.085  24.018  21.664  1.00  0.00     0.164 HD
BRANCH  13  16
ATOM     16  C   UNL A   1      32.593  26.993  23.173  1.00  0.00     0.081 A 
ATOM     17  C   UNL A   1      34.143  28.622  26.271  1.00  0.00     0.044 C 
ATOM     18  C   UNL A   1      33.264  28.396  25.074  1.00  0.00    -0.050 A 
ATOM     19  C   UNL A   1      32.275  29.327  24.751  1.00  0.00     0.007 A 
ATOM     20  C   UNL A   1      33.413  27.244  24.281  1.00  0.00     0.021 A 
ATOM     21  C   UNL A   1      31.444  29.102  23.658  1.00  0.00     0.047 A 
ATOM     22  C   UNL A   1      31.598  27.950  22.885  1.00  0.00     0.128 A 
BRANCH  22  23
ATOM     23  O   UNL A   1      30.706  27.833  21.848  1.00  0.00    -0.507 OA
ATOM     24  H   UNL A   1      30.258  27.023  21.705  1.00  0.00     0.293 HD
ENDBRANCH  22  23
ENDBRANCH  13  16
ENDBRANCH  11  12
ENDBRANCH   7  11
ENDBRANCH   3   6
ENDBRANCH   1   2
BRANCH   1  25
ATOM     25  C   UNL A   1      35.106  22.696  25.977  1.00  0.00     0.042 C 
BRANCH  25  26
ATOM     26  C   UNL A   1      36.416  23.480  26.048  1.00  0.00     0.118 C 
BRANCH  26  27
ATOM     27  N   UNL A   1      37.578  22.599  26.023  1.00  0.00    -0.352 N 
ATOM     28  C   UNL A   1      38.903  22.867  26.253  1.00  0.00     0.251 C 
ATOM     29  H   UNL A   1      37.380  21.659  25.806  1.00  0.00     0.163 HD
ATOM     30  O   UNL A   1      39.748  22.038  25.926  1.00  0.00    -0.269 OA
BRANCH  28  31
ATOM     31  C   UNL A   1      39.316  24.137  26.886  1.00  0.00     0.039 A 
ATOM     32  C   UNL A   1      38.948  24.385  28.211  1.00  0.00     0.014 A 
ATOM     33  C   UNL A   1      40.019  25.105  26.163  1.00  0.00     0.014 A 
ATOM     34  C   UNL A   1      39.333  25.578  28.827  1.00  0.00     0.010 A 
ATOM     35  C   UNL A   1      40.471  26.257  26.801  1.00  0.00     0.010 A 
ATOM     36  C   UNL A   1      40.125  26.509  28.136  1.00  0.00    -0.014 A 
BRANCH  36  37
ATOM     37  C   UNL A   1      40.603  27.751  28.796  1.00  0.00     0.031 A 
ATOM     38  C   UNL A   1      41.987  27.814  29.384  1.00  0.00     0.074 A 
ATOM     39  C   UNL A   1      39.766  28.799  28.920  1.00  0.00     0.049 A 
ATOM     40  N   UNL A   1      42.558  28.788  30.046  1.00  0.00    -0.248 NA
ATOM     41  C   UNL A   1      42.832  26.618  29.232  1.00  0.00     0.031 C 
ATOM     42  C   UNL A   1      38.385  28.843  28.428  1.00  0.00     0.029 A 
ATOM     43  N   UNL A   1      39.948  30.028  29.502  1.00  0.00    -0.354 N 
ATOM     44  C   UNL A   1      43.818  28.320  30.400  1.00  0.00     0.074 A 
ATOM     45  C   UNL A   1      43.908  26.955  29.927  1.00  0.00     0.031 C 
ATOM     46  C   UNL A   1      37.858  30.046  28.705  1.00  0.00     0.029 A 
ATOM     47  C   UNL A   1      38.840  30.841  29.433  1.00  0.00     0.049 A 
ATOM     48  H   UNL A   1      40.792  30.302  29.929  1.00  0.00     0.167 HD
ATOM     49  C   UNL A   1      44.816  28.971  31.042  1.00  0.00     0.031 A 
ATOM     50  C   UNL A   1      38.635  32.084  29.910  1.00  0.00     0.031 A 
ATOM     51  C   UNL A   1      44.720  30.331  31.506  1.00  0.00     0.049 A 
ATOM     52  C   UNL A   1      39.754  32.782  30.633  1.00  0.00     0.074 A 
ATOM     53  C   UNL A   1      45.691  31.100  32.122  1.00  0.00     0.029 A 
ATOM     54  N   UNL A   1      43.586  31.123  31.409  1.00  0.00    -0.354 N 
ATOM     55  N   UNL A   1      40.962  32.346  30.900  1.00  0.00    -0.248 NA
ATOM     56  C   UNL A   1      39.486  34.146  31.107  1.00  0.00     0.031 C 
ATOM     57  C   UNL A   1      45.126  32.336  32.451  1.00  0.00     0.029 A 
ATOM     58  C   UNL A   1      43.824  32.362  31.977  1.00  0.00     0.049 A 
ATOM     59  H   UNL A   1      42.736  30.844  30.996  1.00  0.00     0.167 HD
ATOM     60  C   UNL A   1      41.607  33.392  31.548  1.00  0.00     0.074 A 
ATOM     61  C   UNL A   1      40.661  34.488  31.617  1.00  0.00     0.031 C 
ATOM     62  C   UNL A   1      42.870  33.442  32.041  1.00  0.00     0.031 A 
BRANCH  49  63
ATOM     63  C   UNL A   1      46.099  28.218  31.284  1.00  0.00    -0.014 A 
ATOM     64  C   UNL A   1      46.225  27.319  32.359  1.00  0.00     0.010 A 
ATOM     65  C   UNL A   1      47.185  28.381  30.403  1.00  0.00     0.010 A 
ATOM     66  C   UNL A   1      47.423  26.634  32.575  1.00  0.00     0.020 A 
ATOM     67  C   UNL A   1      48.375  27.674  30.597  1.00  0.00     0.020 A 
ATOM     68  C   UNL A   1      48.492  26.817  31.694  1.00  0.00     0.054 A 
BRANCH  68  69
ATOM     69  S   UNL A   1      50.028  25.899  31.990  1.00  0.00     0.124 S 
ATOM     70  O   UNL A   1      50.934  26.960  32.423  1.00  0.00    -0.237 OA
ATOM     71  O   UNL A   1      49.637  24.947  33.026  1.00  0.00    -0.237 OA
ATOM     72  O   UNL A   1      50.337  25.310  30.690  1.00  0.00    -0.744 OA
ENDBRANCH  68  69
ENDBRANCH  49  63
BRANCH  50  73
ATOM     73  C   UNL A   1      37.318  32.747  29.707  1.00  0.00    -0.014 A 
ATOM     74  C   UNL A   1      36.346  32.736  30.725  1.00  0.00     0.010 A 
ATOM     75  C   UNL A   1      37.034  33.411  28.499  1.00  0.00     0.010 A 
ATOM     76  C   UNL A   1      35.110  33.360  30.530  1.00  0.00     0.020 A 
ATOM     77  C   UNL A   1      35.811  34.061  28.313  1.00  0.00     0.020 A 
ATOM     78  C   UNL A   1      34.853  34.023  29.326  1.00  0.00     0.054 A 
BRANCH  78  79
ATOM     79  S   UNL A   1      33.262  34.871  29.119  1.00  0.00     0.124 S 
ATOM     80  O   UNL A   1      33.676  36.174  28.607  1.00  0.00    -0.237 OA
ATOM     81  O   UNL A   1      32.566  34.008  28.168  1.00  0.00    -0.237 OA
ATOM     82  O   UNL A   1      32.700  34.877  30.468  1.00  0.00    -0.744 OA
ENDBRANCH  78  79
ENDBRANCH  50  73
BRANCH  62  83
ATOM     83  C   UNL A   1      43.318  34.737  32.668  1.00  0.00    -0.014 A 
ATOM     84  C   UNL A   1      43.890  35.764  31.899  1.00  0.00     0.010 A 
ATOM     85  C   UNL A   1      43.112  34.945  34.046  1.00  0.00     0.010 A 
ATOM     86  C   UNL A   1      44.282  36.963  32.501  1.00  0.00     0.020 A 
ATOM     87  C   UNL A   1      43.474  36.154  34.645  1.00  0.00     0.020 A 
ATOM     88  C   UNL A   1      44.070  37.150  33.870  1.00  0.00     0.054 A 
BRANCH  88  89
ATOM     89  S   UNL A   1      44.551  38.730  34.619  1.00  0.00     0.124 S 
ATOM     90  O   UNL A   1      44.623  38.387  36.036  1.00  0.00    -0.237 OA
ATOM     91  O   UNL A   1      45.833  39.012  33.974  1.00  0.00    -0.237 OA
ATOM     92  O   UNL A   1      43.463  39.634  34.251  1.00  0.00    -0.744 OA
ENDBRANCH  88  89
ENDBRANCH  62  83
ENDBRANCH  36  37
ENDBRANCH  28  31
ENDBRANCH  26  27
ENDBRANCH  25  26
ENDBRANCH   1  25
TORSDOF 17
ENDMDL
