MODEL 1
REMARK VINA RESULT:     -12.3      0.000      0.000
REMARK SMILES Nc1ccc2[nH]cc(C(=O)NCCCNC(=O)c3ccc(-c4c5nc(c(-c6ccc(S(=O)(=O)[O-])cc6)c6ccc([nH]6)c(-c6ccc(S(=O)(=O)[O-])cc6)c6nc(c(-c7ccc(S(=O)(=O)[O-])cc7)c7ccc4[nH]7)C=C6)C=C5)cc3)c2c1
REMARK SMILES IDX 14 1 13 2 12 3 11 4 9 5 10 6 8 8 2 9 3 10 79 11 4 12 78 13
REMARK SMILES IDX 5 14 6 15 7 16 1 18 15 21 16 22 17 24 18 25 19 26 77 27
REMARK SMILES IDX 20 28 76 29 21 30 22 31 23 32 70 33 24 34 75 35 69 36 71 37
REMARK SMILES IDX 25 38 74 39 68 40 67 41 26 43 56 44 37 45 55 46 38 47 41 48
REMARK SMILES IDX 54 49 72 50 39 51 40 52 53 54 73 55 42 56 27 57 28 58 36 59
REMARK SMILES IDX 29 60 35 61 30 62 31 63 32 64 33 65 34 66 57 67 58 68 66 69
REMARK SMILES IDX 59 70 65 71 60 72 61 73 62 74 63 75 64 76 43 77 44 78 52 79
REMARK SMILES IDX 45 80 51 81 46 82 47 83 48 84 49 85 50 86
REMARK H PARENT 11 7 6 17 1 19 1 20 15 23 71 42 41 53
REMARK Flexibility Score: inf
ROOT
ATOM      1  C   UNL A   1      40.668  21.656  26.494  1.00  0.00     0.118 C 
ENDROOT
BRANCH   1   2
ATOM      2  C   UNL A   1      39.855  20.510  25.882  1.00  0.00     0.042 C 
BRANCH   2   3
ATOM      3  C   UNL A   1      38.479  20.962  25.375  1.00  0.00     0.118 C 
BRANCH   3   4
ATOM      4  N   UNL A   1      38.250  22.369  25.560  1.00  0.00    -0.352 N 
ATOM      5  C   UNL A   1      37.137  23.154  25.463  1.00  0.00     0.253 C 
ATOM      6  O   UNL A   1      37.293  24.278  25.961  1.00  0.00    -0.269 OA
ATOM      7  H   UNL A   1      39.061  22.869  25.808  1.00  0.00     0.163 HD
BRANCH   5   8
ATOM      8  C   UNL A   1      35.858  22.806  24.813  1.00  0.00     0.065 A 
ATOM      9  C   UNL A   1      33.278  19.971  25.618  1.00  0.00     0.032 A 
ATOM     10  C   UNL A   1      32.468  20.219  24.522  1.00  0.00     0.027 A 
ATOM     11  C   UNL A   1      34.400  20.790  25.838  1.00  0.00     0.036 A 
ATOM     12  C   UNL A   1      32.765  21.246  23.630  1.00  0.00     0.029 A 
ATOM     13  C   UNL A   1      34.778  21.836  24.954  1.00  0.00     0.014 A 
ATOM     14  C   UNL A   1      33.902  22.028  23.872  1.00  0.00     0.046 A 
ATOM     15  N   UNL A   1      34.366  23.086  23.139  1.00  0.00    -0.360 N 
ATOM     16  C   UNL A   1      35.513  23.557  23.687  1.00  0.00     0.097 A 
ATOM     17  H   UNL A   1      33.931  23.450  22.334  1.00  0.00     0.166 HD
BRANCH   9  18
ATOM     18  N   UNL A   1      32.911  19.014  26.551  1.00  0.00    -0.399 N 
ATOM     19  H   UNL A   1      33.460  18.205  26.669  1.00  0.00     0.156 HD
ATOM     20  H   UNL A   1      32.102  19.143  27.098  1.00  0.00     0.156 HD
ENDBRANCH   9  18
ENDBRANCH   5   8
ENDBRANCH   3   4
ENDBRANCH   2   3
ENDBRANCH   1   2
BRANCH   1  21
ATOM     21  N   UNL A   1      41.781  22.072  25.658  1.00  0.00    -0.352 N 
ATOM     22  C   UNL A   1      42.541  23.192  25.494  1.00  0.00     0.251 C 
ATOM     23  H   UNL A   1      42.061  21.353  25.047  1.00  0.00     0.163 HD
ATOM     24  O   UNL A   1      43.414  23.101  24.625  1.00  0.00    -0.269 OA
BRANCH  22  25
ATOM     25  C   UNL A   1      42.389  24.483  26.217  1.00  0.00     0.039 A 
ATOM     26  C   UNL A   1      42.988  24.830  27.427  1.00  0.00     0.014 A 
ATOM     27  C   UNL A   1      41.510  25.406  25.614  1.00  0.00     0.014 A 
ATOM     28  C   UNL A   1      42.645  26.032  28.054  1.00  0.00     0.010 A 
ATOM     29  C   UNL A   1      41.172  26.605  26.231  1.00  0.00     0.010 A 
ATOM     30  C   UNL A   1      41.704  26.898  27.478  1.00  0.00    -0.014 A 
BRANCH  30  31
ATOM     31  C   UNL A   1      41.404  28.168  28.142  1.00  0.00     0.031 A 
ATOM     32  C   UNL A   1      42.438  29.214  27.929  1.00  0.00     0.074 A 
ATOM     33  C   UNL A   1      40.260  28.444  28.807  1.00  0.00     0.049 A 
ATOM     34  N   UNL A   1      43.252  29.700  28.805  1.00  0.00    -0.248 NA
ATOM     35  C   UNL A   1      42.704  29.664  26.552  1.00  0.00     0.031 C 
ATOM     36  C   UNL A   1      39.045  27.626  28.883  1.00  0.00     0.029 A 
ATOM     37  N   UNL A   1      39.907  29.570  29.498  1.00  0.00    -0.354 N 
ATOM     38  C   UNL A   1      43.996  30.672  28.141  1.00  0.00     0.074 A 
ATOM     39  C   UNL A   1      43.734  30.491  26.737  1.00  0.00     0.031 C 
ATOM     40  C   UNL A   1      38.026  28.369  29.378  1.00  0.00     0.029 A 
ATOM     41  C   UNL A   1      38.551  29.654  29.808  1.00  0.00     0.049 A 
ATOM     42  H   UNL A   1      40.557  30.264  29.755  1.00  0.00     0.167 HD
ATOM     43  C   UNL A   1      44.584  31.696  28.818  1.00  0.00     0.031 A 
ATOM     44  C   UNL A   1      37.904  30.703  30.378  1.00  0.00     0.031 A 
ATOM     45  C   UNL A   1      44.608  31.442  30.233  1.00  0.00     0.049 A 
ATOM     46  C   UNL A   1      38.914  31.478  31.130  1.00  0.00     0.074 A 
ATOM     47  C   UNL A   1      45.303  30.609  31.080  1.00  0.00     0.029 A 
ATOM     48  N   UNL A   1      43.488  31.867  30.899  1.00  0.00    -0.354 N 
ATOM     49  N   UNL A   1      39.541  31.014  32.173  1.00  0.00    -0.248 NA
ATOM     50  C   UNL A   1      39.493  32.669  30.526  1.00  0.00     0.031 C 
ATOM     51  C   UNL A   1      44.415  30.331  32.159  1.00  0.00     0.029 A 
ATOM     52  C   UNL A   1      43.233  31.051  31.971  1.00  0.00     0.049 A 
ATOM     53  H   UNL A   1      42.943  32.647  30.644  1.00  0.00     0.167 HD
ATOM     54  C   UNL A   1      40.803  31.570  32.089  1.00  0.00     0.074 A 
ATOM     55  C   UNL A   1      40.660  32.699  31.174  1.00  0.00     0.031 C 
ATOM     56  C   UNL A   1      41.901  30.890  32.527  1.00  0.00     0.031 A 
BRANCH  43  57
ATOM     57  C   UNL A   1      44.741  33.095  28.266  1.00  0.00    -0.014 A 
ATOM     58  C   UNL A   1      43.645  33.921  27.941  1.00  0.00     0.010 A 
ATOM     59  C   UNL A   1      46.009  33.714  28.309  1.00  0.00     0.010 A 
ATOM     60  C   UNL A   1      43.799  35.275  27.638  1.00  0.00     0.020 A 
ATOM     61  C   UNL A   1      46.170  35.083  28.043  1.00  0.00     0.020 A 
ATOM     62  C   UNL A   1      45.062  35.852  27.694  1.00  0.00     0.054 A 
BRANCH  62  63
ATOM     63  S   UNL A   1      45.210  37.621  27.344  1.00  0.00     0.124 S 
ATOM     64  O   UNL A   1      45.582  38.152  28.655  1.00  0.00    -0.237 OA
ATOM     65  O   UNL A   1      46.268  37.651  26.333  1.00  0.00    -0.237 OA
ATOM     66  O   UNL A   1      43.886  37.993  26.872  1.00  0.00    -0.744 OA
ENDBRANCH  62  63
ENDBRANCH  43  57
BRANCH  44  67
ATOM     67  C   UNL A   1      36.597  31.304  30.000  1.00  0.00    -0.014 A 
ATOM     68  C   UNL A   1      36.387  31.725  28.673  1.00  0.00     0.010 A 
ATOM     69  C   UNL A   1      35.717  31.791  30.991  1.00  0.00     0.010 A 
ATOM     70  C   UNL A   1      35.410  32.680  28.362  1.00  0.00     0.020 A 
ATOM     71  C   UNL A   1      34.733  32.748  30.685  1.00  0.00     0.020 A 
ATOM     72  C   UNL A   1      34.618  33.219  29.376  1.00  0.00     0.054 A 
BRANCH  72  73
ATOM     73  S   UNL A   1      33.521  34.610  28.968  1.00  0.00     0.124 S 
ATOM     74  O   UNL A   1      32.976  34.962  30.278  1.00  0.00    -0.237 OA
ATOM     75  O   UNL A   1      34.448  35.585  28.396  1.00  0.00    -0.237 OA
ATOM     76  O   UNL A   1      32.565  34.037  28.027  1.00  0.00    -0.744 OA
ENDBRANCH  72  73
ENDBRANCH  44  67
BRANCH  56  77
ATOM     77  C   UNL A   1      41.705  29.767  33.519  1.00  0.00    -0.014 A 
ATOM     78  C   UNL A   1      41.813  30.100  34.882  1.00  0.00     0.010 A 
ATOM     79  C   UNL A   1      41.559  28.410  33.171  1.00  0.00     0.010 A 
ATOM     80  C   UNL A   1      41.827  29.115  35.868  1.00  0.00     0.020 A 
ATOM     81  C   UNL A   1      41.540  27.414  34.162  1.00  0.00     0.020 A 
ATOM     82  C   UNL A   1      41.702  27.774  35.503  1.00  0.00     0.054 A 
BRANCH  82  83
ATOM     83  S   UNL A   1      41.787  26.525  36.814  1.00  0.00     0.124 S 
ATOM     84  O   UNL A   1      41.880  25.282  36.052  1.00  0.00    -0.237 OA
ATOM     85  O   UNL A   1      42.997  26.902  37.541  1.00  0.00    -0.237 OA
ATOM     86  O   UNL A   1      40.539  26.701  37.553  1.00  0.00    -0.744 OA
ENDBRANCH  82  83
ENDBRANCH  56  77
ENDBRANCH  30  31
ENDBRANCH  22  25
ENDBRANCH   1  21
TORSDOF 14
ENDMDL
MODEL 2
REMARK VINA RESULT:     -12.3      2.908      4.911
REMARK SMILES Nc1ccc2[nH]cc(C(=O)NCCCNC(=O)c3ccc(-c4c5nc(c(-c6ccc(S(=O)(=O)[O-])cc6)c6ccc([nH]6)c(-c6ccc(S(=O)(=O)[O-])cc6)c6nc(c(-c7ccc(S(=O)(=O)[O-])cc7)c7ccc4[nH]7)C=C6)C=C5)cc3)c2c1
REMARK SMILES IDX 14 1 13 2 12 3 11 4 9 5 10 6 8 8 2 9 3 10 79 11 4 12 78 13
REMARK SMILES IDX 5 14 6 15 7 16 1 18 15 21 16 22 17 24 18 25 19 26 77 27
REMARK SMILES IDX 20 28 76 29 21 30 22 31 23 32 70 33 24 34 75 35 69 36 71 37
REMARK SMILES IDX 25 38 74 39 68 40 67 41 26 43 56 44 37 45 55 46 38 47 41 48
REMARK SMILES IDX 54 49 72 50 39 51 40 52 53 54 73 55 42 56 27 57 28 58 36 59
REMARK SMILES IDX 29 60 35 61 30 62 31 63 32 64 33 65 34 66 57 67 58 68 66 69
REMARK SMILES IDX 59 70 65 71 60 72 61 73 62 74 63 75 64 76 43 77 44 78 52 79
REMARK SMILES IDX 45 80 51 81 46 82 47 83 48 84 49 85 50 86
REMARK H PARENT 11 7 6 17 1 19 1 20 15 23 71 42 41 53
REMARK Flexibility Score: inf
ROOT
ATOM      1  C   UNL A   1      41.721  20.276  26.965  1.00  0.00     0.118 C 
ENDROOT
BRANCH   1   2
ATOM      2  C   UNL A   1      42.382  19.264  26.022  1.00  0.00     0.042 C 
BRANCH   2   3
ATOM      3  C   UNL A   1      43.472  18.435  26.711  1.00  0.00     0.118 C 
BRANCH   3   4
ATOM      4  N   UNL A   1      44.691  18.371  25.951  1.00  0.00    -0.352 N 
ATOM      5  C   UNL A   1      45.456  19.319  25.334  1.00  0.00     0.253 C 
ATOM      6  O   UNL A   1      46.577  18.899  25.009  1.00  0.00    -0.269 OA
ATOM      7  H   UNL A   1      45.046  17.458  25.856  1.00  0.00     0.163 HD
BRANCH   5   8
ATOM      8  C   UNL A   1      45.062  20.702  25.003  1.00  0.00     0.065 A 
ATOM      9  C   UNL A   1      44.879  23.906  27.249  1.00  0.00     0.032 A 
ATOM     10  C   UNL A   1      44.316  24.715  26.275  1.00  0.00     0.027 A 
ATOM     11  C   UNL A   1      45.207  22.577  26.929  1.00  0.00     0.036 A 
ATOM     12  C   UNL A   1      44.052  24.221  25.000  1.00  0.00     0.029 A 
ATOM     13  C   UNL A   1      44.939  22.000  25.658  1.00  0.00     0.014 A 
ATOM     14  C   UNL A   1      44.375  22.886  24.724  1.00  0.00     0.046 A 
ATOM     15  N   UNL A   1      44.215  22.208  23.546  1.00  0.00    -0.360 N 
ATOM     16  C   UNL A   1      44.623  20.924  23.696  1.00  0.00     0.097 A 
ATOM     17  H   UNL A   1      43.857  22.596  22.715  1.00  0.00     0.166 HD
BRANCH   9  18
ATOM     18  N   UNL A   1      45.230  24.442  28.478  1.00  0.00    -0.399 N 
ATOM     19  H   UNL A   1      44.746  24.169  29.291  1.00  0.00     0.156 HD
ATOM     20  H   UNL A   1      45.966  25.093  28.539  1.00  0.00     0.156 HD
ENDBRANCH   9  18
ENDBRANCH   5   8
ENDBRANCH   3   4
ENDBRANCH   2   3
ENDBRANCH   1   2
BRANCH   1  21
ATOM     21  N   UNL A   1      40.415  20.715  26.503  1.00  0.00    -0.352 N 
ATOM     22  C   UNL A   1      39.713  21.883  26.461  1.00  0.00     0.251 C 
ATOM     23  H   UNL A   1      39.901  19.971  26.116  1.00  0.00     0.163 HD
ATOM     24  O   UNL A   1      38.585  21.790  25.966  1.00  0.00    -0.269 OA
BRANCH  22  25
ATOM     25  C   UNL A   1      40.154  23.205  26.981  1.00  0.00     0.039 A 
ATOM     26  C   UNL A   1      41.198  23.437  27.875  1.00  0.00     0.014 A 
ATOM     27  C   UNL A   1      39.390  24.306  26.540  1.00  0.00     0.014 A 
ATOM     28  C   UNL A   1      41.411  24.724  28.377  1.00  0.00     0.010 A 
ATOM     29  C   UNL A   1      39.603  25.588  27.032  1.00  0.00     0.010 A 
ATOM     30  C   UNL A   1      40.585  25.791  27.991  1.00  0.00    -0.014 A 
BRANCH  30  31
ATOM     31  C   UNL A   1      40.867  27.133  28.504  1.00  0.00     0.031 A 
ATOM     32  C   UNL A   1      42.158  27.697  28.028  1.00  0.00     0.074 A 
ATOM     33  C   UNL A   1      40.018  27.870  29.254  1.00  0.00     0.049 A 
ATOM     34  N   UNL A   1      43.220  27.918  28.729  1.00  0.00    -0.248 NA
ATOM     35  C   UNL A   1      42.343  27.896  26.582  1.00  0.00     0.031 C 
ATOM     36  C   UNL A   1      38.620  27.572  29.585  1.00  0.00     0.029 A 
ATOM     37  N   UNL A   1      40.204  29.101  29.820  1.00  0.00    -0.354 N 
ATOM     38  C   UNL A   1      44.144  28.483  27.854  1.00  0.00     0.074 A 
ATOM     39  C   UNL A   1      43.615  28.294  26.529  1.00  0.00     0.031 C 
ATOM     40  C   UNL A   1      38.025  28.680  30.089  1.00  0.00     0.029 A 
ATOM     41  C   UNL A   1      39.035  29.709  30.272  1.00  0.00     0.049 A 
ATOM     42  H   UNL A   1      41.090  29.522  29.901  1.00  0.00     0.167 HD
ATOM     43  C   UNL A   1      45.159  29.269  28.310  1.00  0.00     0.031 A 
ATOM     44  C   UNL A   1      38.904  30.968  30.765  1.00  0.00     0.031 A 
ATOM     45  C   UNL A   1      45.317  29.146  29.734  1.00  0.00     0.049 A 
ATOM     46  C   UNL A   1      40.229  31.373  31.278  1.00  0.00     0.074 A 
ATOM     47  C   UNL A   1      45.795  28.189  30.599  1.00  0.00     0.029 A 
ATOM     48  N   UNL A   1      44.543  30.012  30.462  1.00  0.00    -0.354 N 
ATOM     49  N   UNL A   1      40.808  30.799  32.295  1.00  0.00    -0.248 NA
ATOM     50  C   UNL A   1      41.090  32.207  30.453  1.00  0.00     0.031 C 
ATOM     51  C   UNL A   1      45.050  28.354  31.803  1.00  0.00     0.029 A 
ATOM     52  C   UNL A   1      44.189  29.443  31.658  1.00  0.00     0.049 A 
ATOM     53  H   UNL A   1      44.278  30.914  30.167  1.00  0.00     0.167 HD
ATOM     54  C   UNL A   1      42.154  30.837  31.987  1.00  0.00     0.074 A 
ATOM     55  C   UNL A   1      42.279  31.855  30.949  1.00  0.00     0.031 C 
ATOM     56  C   UNL A   1      42.994  29.837  32.384  1.00  0.00     0.031 A 
BRANCH  43  57
ATOM     57  C   UNL A   1      45.712  30.456  27.555  1.00  0.00    -0.014 A 
ATOM     58  C   UNL A   1      44.898  31.475  27.020  1.00  0.00     0.010 A 
ATOM     59  C   UNL A   1      47.101  30.712  27.596  1.00  0.00     0.010 A 
ATOM     60  C   UNL A   1      45.429  32.665  26.518  1.00  0.00     0.020 A 
ATOM     61  C   UNL A   1      47.642  31.920  27.129  1.00  0.00     0.020 A 
ATOM     62  C   UNL A   1      46.800  32.884  26.578  1.00  0.00     0.054 A 
BRANCH  62  63
ATOM     63  S   UNL A   1      47.441  34.460  25.964  1.00  0.00     0.124 S 
ATOM     64  O   UNL A   1      48.719  34.053  25.378  1.00  0.00    -0.237 OA
ATOM     65  O   UNL A   1      46.412  34.863  25.003  1.00  0.00    -0.237 OA
ATOM     66  O   UNL A   1      47.536  35.285  27.158  1.00  0.00    -0.744 OA
ENDBRANCH  62  63
ENDBRANCH  43  57
BRANCH  44  67
ATOM     67  C   UNL A   1      37.853  31.978  30.463  1.00  0.00    -0.014 A 
ATOM     68  C   UNL A   1      36.607  31.895  31.113  1.00  0.00     0.010 A 
ATOM     69  C   UNL A   1      37.937  32.776  29.302  1.00  0.00     0.010 A 
ATOM     70  C   UNL A   1      35.464  32.493  30.567  1.00  0.00     0.020 A 
ATOM     71  C   UNL A   1      36.794  33.380  28.750  1.00  0.00     0.020 A 
ATOM     72  C   UNL A   1      35.555  33.195  29.365  1.00  0.00     0.054 A 
BRANCH  72  73
ATOM     73  S   UNL A   1      34.017  33.763  28.578  1.00  0.00     0.124 S 
ATOM     74  O   UNL A   1      33.498  32.526  27.999  1.00  0.00    -0.237 OA
ATOM     75  O   UNL A   1      33.258  34.288  29.712  1.00  0.00    -0.237 OA
ATOM     76  O   UNL A   1      34.466  34.764  27.616  1.00  0.00    -0.744 OA
ENDBRANCH  72  73
ENDBRANCH  44  67
BRANCH  56  77
ATOM     77  C   UNL A   1      42.572  28.956  33.537  1.00  0.00    -0.014 A 
ATOM     78  C   UNL A   1      43.067  29.299  34.808  1.00  0.00     0.010 A 
ATOM     79  C   UNL A   1      41.841  27.760  33.403  1.00  0.00     0.010 A 
ATOM     80  C   UNL A   1      42.887  28.457  35.905  1.00  0.00     0.020 A 
ATOM     81  C   UNL A   1      41.628  26.923  34.511  1.00  0.00     0.020 A 
ATOM     82  C   UNL A   1      42.178  27.265  35.749  1.00  0.00     0.054 A 
BRANCH  82  83
ATOM     83  S   UNL A   1      42.022  26.175  37.188  1.00  0.00     0.124 S 
ATOM     84  O   UNL A   1      42.237  24.854  36.600  1.00  0.00    -0.237 OA
ATOM     85  O   UNL A   1      43.090  26.647  38.068  1.00  0.00    -0.237 OA
ATOM     86  O   UNL A   1      40.665  26.418  37.673  1.00  0.00    -0.744 OA
ENDBRANCH  82  83
ENDBRANCH  56  77
ENDBRANCH  30  31
ENDBRANCH  22  25
ENDBRANCH   1  21
TORSDOF 14
ENDMDL
MODEL 3
REMARK VINA RESULT:     -12.2      1.997      2.828
REMARK SMILES Nc1ccc2[nH]cc(C(=O)NCCCNC(=O)c3ccc(-c4c5nc(c(-c6ccc(S(=O)(=O)[O-])cc6)c6ccc([nH]6)c(-c6ccc(S(=O)(=O)[O-])cc6)c6nc(c(-c7ccc(S(=O)(=O)[O-])cc7)c7ccc4[nH]7)C=C6)C=C5)cc3)c2c1
REMARK SMILES IDX 14 1 13 2 12 3 11 4 9 5 10 6 8 8 2 9 3 10 79 11 4 12 78 13
REMARK SMILES IDX 5 14 6 15 7 16 1 18 15 21 16 22 17 24 18 25 19 26 77 27
REMARK SMILES IDX 20 28 76 29 21 30 22 31 23 32 70 33 24 34 75 35 69 36 71 37
REMARK SMILES IDX 25 38 74 39 68 40 67 41 26 43 56 44 37 45 55 46 38 47 41 48
REMARK SMILES IDX 54 49 72 50 39 51 40 52 53 54 73 55 42 56 27 57 28 58 36 59
REMARK SMILES IDX 29 60 35 61 30 62 31 63 32 64 33 65 34 66 57 67 58 68 66 69
REMARK SMILES IDX 59 70 65 71 60 72 61 73 62 74 63 75 64 76 43 77 44 78 52 79
REMARK SMILES IDX 45 80 51 81 46 82 47 83 48 84 49 85 50 86
REMARK H PARENT 11 7 6 17 1 19 1 20 15 23 71 42 41 53
REMARK Flexibility Score: inf
ROOT
ATOM      1  C   UNL A   1      37.100  22.008  25.681  1.00  0.00     0.118 C 
ENDROOT
BRANCH   1   2
ATOM      2  C   UNL A   1      36.641  21.723  24.247  1.00  0.00     0.042 C 
BRANCH   2   3
ATOM      3  C   UNL A   1      35.990  22.941  23.579  1.00  0.00     0.118 C 
BRANCH   3   4
ATOM      4  N   UNL A   1      34.794  23.374  24.250  1.00  0.00    -0.352 N 
ATOM      5  C   UNL A   1      33.589  22.777  24.486  1.00  0.00     0.253 C 
ATOM      6  O   UNL A   1      32.910  23.376  25.333  1.00  0.00    -0.269 OA
ATOM      7  H   UNL A   1      34.857  24.286  24.614  1.00  0.00     0.163 HD
BRANCH   5   8
ATOM      8  C   UNL A   1      33.046  21.576  23.822  1.00  0.00     0.065 A 
ATOM      9  C   UNL A   1      33.785  17.777  24.424  1.00  0.00     0.032 A 
ATOM     10  C   UNL A   1      33.024  17.326  23.357  1.00  0.00     0.027 A 
ATOM     11  C   UNL A   1      33.831  19.155  24.698  1.00  0.00     0.036 A 
ATOM     12  C   UNL A   1      32.330  18.220  22.546  1.00  0.00     0.029 A 
ATOM     13  C   UNL A   1      33.171  20.124  23.895  1.00  0.00     0.014 A 
ATOM     14  C   UNL A   1      32.414  19.588  22.839  1.00  0.00     0.046 A 
ATOM     15  N   UNL A   1      31.807  20.626  22.188  1.00  0.00    -0.360 N 
ATOM     16  C   UNL A   1      32.165  21.800  22.762  1.00  0.00     0.097 A 
ATOM     17  H   UNL A   1      31.200  20.533  21.418  1.00  0.00     0.166 HD
BRANCH   9  18
ATOM     18  N   UNL A   1      34.386  16.868  25.282  1.00  0.00    -0.399 N 
ATOM     19  H   UNL A   1      33.833  16.225  25.783  1.00  0.00     0.156 HD
ATOM     20  H   UNL A   1      35.364  16.865  25.389  1.00  0.00     0.156 HD
ENDBRANCH   9  18
ENDBRANCH   5   8
ENDBRANCH   3   4
ENDBRANCH   2   3
ENDBRANCH   1   2
BRANCH   1  21
ATOM     21  N   UNL A   1      38.445  21.529  25.953  1.00  0.00    -0.352 N 
ATOM     22  C   UNL A   1      39.582  22.019  26.522  1.00  0.00     0.251 C 
ATOM     23  H   UNL A   1      38.566  20.602  25.644  1.00  0.00     0.163 HD
ATOM     24  O   UNL A   1      40.534  21.232  26.536  1.00  0.00    -0.269 OA
BRANCH  22  25
ATOM     25  C   UNL A   1      39.783  23.387  27.072  1.00  0.00     0.039 A 
ATOM     26  C   UNL A   1      39.001  24.510  26.805  1.00  0.00     0.014 A 
ATOM     27  C   UNL A   1      40.912  23.536  27.904  1.00  0.00     0.014 A 
ATOM     28  C   UNL A   1      39.392  25.761  27.291  1.00  0.00     0.010 A 
ATOM     29  C   UNL A   1      41.300  24.778  28.394  1.00  0.00     0.010 A 
ATOM     30  C   UNL A   1      40.565  25.903  28.047  1.00  0.00    -0.014 A 
BRANCH  30  31
ATOM     31  C   UNL A   1      40.918  27.221  28.575  1.00  0.00     0.031 A 
ATOM     32  C   UNL A   1      42.237  27.723  28.104  1.00  0.00     0.074 A 
ATOM     33  C   UNL A   1      40.111  27.993  29.336  1.00  0.00     0.049 A 
ATOM     34  N   UNL A   1      43.310  27.879  28.804  1.00  0.00    -0.248 NA
ATOM     35  C   UNL A   1      42.429  27.930  26.659  1.00  0.00     0.031 C 
ATOM     36  C   UNL A   1      38.700  27.766  29.667  1.00  0.00     0.029 A 
ATOM     37  N   UNL A   1      40.362  29.205  29.917  1.00  0.00    -0.354 N 
ATOM     38  C   UNL A   1      44.261  28.405  27.934  1.00  0.00     0.074 A 
ATOM     39  C   UNL A   1      43.720  28.260  26.608  1.00  0.00     0.031 C 
ATOM     40  C   UNL A   1      38.165  28.897  30.185  1.00  0.00     0.029 A 
ATOM     41  C   UNL A   1      39.228  29.869  30.379  1.00  0.00     0.049 A 
ATOM     42  H   UNL A   1      41.270  29.579  30.001  1.00  0.00     0.167 HD
ATOM     43  C   UNL A   1      45.316  29.131  28.397  1.00  0.00     0.031 A 
ATOM     44  C   UNL A   1      39.164  31.127  30.887  1.00  0.00     0.031 A 
ATOM     45  C   UNL A   1      45.470  28.982  29.819  1.00  0.00     0.049 A 
ATOM     46  C   UNL A   1      40.510  31.455  31.402  1.00  0.00     0.074 A 
ATOM     47  C   UNL A   1      45.899  27.991  30.672  1.00  0.00     0.029 A 
ATOM     48  N   UNL A   1      44.744  29.879  30.559  1.00  0.00    -0.354 N 
ATOM     49  N   UNL A   1      41.059  30.839  32.411  1.00  0.00    -0.248 NA
ATOM     50  C   UNL A   1      41.412  32.253  30.585  1.00  0.00     0.031 C 
ATOM     51  C   UNL A   1      45.166  28.180  31.879  1.00  0.00     0.029 A 
ATOM     52  C   UNL A   1      44.363  29.315  31.749  1.00  0.00     0.049 A 
ATOM     53  H   UNL A   1      44.527  30.797  30.276  1.00  0.00     0.167 HD
ATOM     54  C   UNL A   1      42.405  30.810  32.100  1.00  0.00     0.074 A 
ATOM     55  C   UNL A   1      42.582  31.833  31.074  1.00  0.00     0.031 C 
ATOM     56  C   UNL A   1      43.191  29.762  32.483  1.00  0.00     0.031 A 
BRANCH  43  57
ATOM     57  C   UNL A   1      45.931  30.296  27.656  1.00  0.00    -0.014 A 
ATOM     58  C   UNL A   1      45.201  31.446  27.291  1.00  0.00     0.010 A 
ATOM     59  C   UNL A   1      47.336  30.375  27.540  1.00  0.00     0.010 A 
ATOM     60  C   UNL A   1      45.823  32.597  26.803  1.00  0.00     0.020 A 
ATOM     61  C   UNL A   1      47.974  31.541  27.086  1.00  0.00     0.020 A 
ATOM     62  C   UNL A   1      47.208  32.641  26.705  1.00  0.00     0.054 A 
BRANCH  62  63
ATOM     63  S   UNL A   1      47.976  34.169  26.116  1.00  0.00     0.124 S 
ATOM     64  O   UNL A   1      49.218  33.670  25.526  1.00  0.00    -0.237 OA
ATOM     65  O   UNL A   1      46.985  34.668  25.161  1.00  0.00    -0.237 OA
ATOM     66  O   UNL A   1      48.134  34.966  27.323  1.00  0.00    -0.744 OA
ENDBRANCH  62  63
ENDBRANCH  43  57
BRANCH  44  67
ATOM     67  C   UNL A   1      38.168  32.194  30.601  1.00  0.00    -0.014 A 
ATOM     68  C   UNL A   1      37.023  32.309  31.412  1.00  0.00     0.010 A 
ATOM     69  C   UNL A   1      38.152  32.844  29.347  1.00  0.00     0.010 A 
ATOM     70  C   UNL A   1      35.867  32.950  30.949  1.00  0.00     0.020 A 
ATOM     71  C   UNL A   1      36.995  33.491  28.877  1.00  0.00     0.020 A 
ATOM     72  C   UNL A   1      35.845  33.499  29.667  1.00  0.00     0.054 A 
BRANCH  72  73
ATOM     73  S   UNL A   1      34.263  34.122  29.022  1.00  0.00     0.124 S 
ATOM     74  O   UNL A   1      33.778  32.979  28.252  1.00  0.00    -0.237 OA
ATOM     75  O   UNL A   1      33.518  34.414  30.245  1.00  0.00    -0.237 OA
ATOM     76  O   UNL A   1      34.643  35.290  28.234  1.00  0.00    -0.744 OA
ENDBRANCH  72  73
ENDBRANCH  44  67
BRANCH  56  77
ATOM     77  C   UNL A   1      42.726  28.891  33.626  1.00  0.00    -0.014 A 
ATOM     78  C   UNL A   1      43.331  29.112  34.876  1.00  0.00     0.010 A 
ATOM     79  C   UNL A   1      41.841  27.803  33.493  1.00  0.00     0.010 A 
ATOM     80  C   UNL A   1      43.106  28.251  35.950  1.00  0.00     0.020 A 
ATOM     81  C   UNL A   1      41.585  26.950  34.580  1.00  0.00     0.020 A 
ATOM     82  C   UNL A   1      42.243  27.166  35.794  1.00  0.00     0.054 A 
BRANCH  82  83
ATOM     83  S   UNL A   1      42.030  26.040  37.198  1.00  0.00     0.124 S 
ATOM     84  O   UNL A   1      42.974  26.582  38.174  1.00  0.00    -0.237 OA
ATOM     85  O   UNL A   1      40.618  26.209  37.536  1.00  0.00    -0.237 OA
ATOM     86  O   UNL A   1      42.387  24.729  36.661  1.00  0.00    -0.744 OA
ENDBRANCH  82  83
ENDBRANCH  56  77
ENDBRANCH  30  31
ENDBRANCH  22  25
ENDBRANCH   1  21
TORSDOF 14
ENDMDL
