MODEL 1
REMARK VINA RESULT:     -11.9      0.000      0.000
REMARK SMILES O=C(Cc1cccn1-c1ccc2c(c1)OCCO2)NCCCNC(=O)c1ccc(-c2c3nc(c(-c4ccc(S(=O)(=O)[O-])cc4)c4ccc([nH]4)c(-c4ccc(S(=O)(=O)[O-])cc4)c4nc(c(-c5ccc(S(=O)(=O)[O-])cc5)c5ccc2[nH]5)C=C4)C=C3)cc1
REMARK SMILES IDX 21 1 20 2 19 3 1 4 2 5 3 7 4 8 5 9 8 10 6 11 7 12 9 13 10 14
REMARK SMILES IDX 14 15 11 16 13 17 12 18 15 19 18 20 16 21 17 22 22 23 23 24
REMARK SMILES IDX 24 25 25 27 26 28 27 29 85 30 28 31 84 32 29 33 30 34 31 35
REMARK SMILES IDX 78 36 32 37 83 38 77 39 79 40 33 41 82 42 76 43 75 44 34 46
REMARK SMILES IDX 64 47 45 48 63 49 46 50 49 51 62 52 80 53 47 54 48 55 61 57
REMARK SMILES IDX 81 58 50 59 35 60 36 61 44 62 37 63 43 64 38 65 39 66 40 67
REMARK SMILES IDX 41 68 42 69 65 70 66 71 74 72 67 73 73 74 68 75 69 76 70 77
REMARK SMILES IDX 71 78 72 79 51 80 52 81 60 82 53 83 59 84 54 85 55 86 56 87
REMARK SMILES IDX 57 88 58 89
REMARK H PARENT 19 6 23 26 79 45 49 56
REMARK Flexibility Score: inf
ROOT
ATOM      1  C   UNL A   1      34.036  28.471  25.444  1.00  0.00     0.042 C 
ENDROOT
BRANCH   1   2
ATOM      2  C   UNL A   1      33.070  27.541  24.708  1.00  0.00     0.117 C 
BRANCH   2   3
ATOM      3  N   UNL A   1      33.715  26.353  24.168  1.00  0.00    -0.356 N 
ATOM      4  O   UNL A   1      33.044  24.950  25.858  1.00  0.00    -0.275 OA
ATOM      5  C   UNL A   1      33.592  25.114  24.770  1.00  0.00     0.225 C 
ATOM      6  H   UNL A   1      34.253  26.435  23.348  1.00  0.00     0.163 HD
BRANCH   5   7
ATOM      7  C   UNL A   1      34.168  23.948  23.967  1.00  0.00     0.154 C 
BRANCH   7   8
ATOM      8  C   UNL A   1      35.349  23.358  24.692  1.00  0.00     0.032 A 
ATOM      9  C   UNL A   1      36.576  23.944  24.956  1.00  0.00     0.024 A 
ATOM     10  N   UNL A   1      35.352  22.108  25.297  1.00  0.00    -0.320 N 
ATOM     11  C   UNL A   1      37.280  23.098  25.841  1.00  0.00     0.020 A 
ATOM     12  C   UNL A   1      36.469  22.018  26.100  1.00  0.00     0.091 A 
BRANCH  10  13
ATOM     13  C   UNL A   1      34.478  21.027  25.049  1.00  0.00     0.049 A 
ATOM     14  C   UNL A   1      33.100  21.155  25.263  1.00  0.00     0.031 A 
ATOM     15  C   UNL A   1      35.033  19.796  24.693  1.00  0.00     0.077 A 
ATOM     16  C   UNL A   1      32.282  20.029  25.141  1.00  0.00     0.052 A 
ATOM     17  C   UNL A   1      34.217  18.682  24.584  1.00  0.00     0.163 A 
ATOM     18  C   UNL A   1      32.853  18.787  24.857  1.00  0.00     0.161 A 
ATOM     19  O   UNL A   1      34.848  17.516  24.252  1.00  0.00    -0.486 OA
ATOM     20  O   UNL A   1      32.027  17.695  24.894  1.00  0.00    -0.486 OA
ATOM     21  C   UNL A   1      33.918  16.471  23.963  1.00  0.00     0.271 C 
ATOM     22  C   UNL A   1      32.782  16.471  24.978  1.00  0.00     0.271 C 
ENDBRANCH  10  13
ENDBRANCH   7   8
ENDBRANCH   5   7
ENDBRANCH   2   3
ENDBRANCH   1   2
BRANCH   1  23
ATOM     23  C   UNL A   1      33.804  28.517  26.953  1.00  0.00     0.118 C 
BRANCH  23  24
ATOM     24  N   UNL A   1      33.799  29.859  27.512  1.00  0.00    -0.352 N 
ATOM     25  C   UNL A   1      34.752  30.576  28.215  1.00  0.00     0.251 C 
ATOM     26  H   UNL A   1      32.960  30.351  27.363  1.00  0.00     0.163 HD
ATOM     27  O   UNL A   1      34.410  31.661  28.663  1.00  0.00    -0.269 OA
BRANCH  25  28
ATOM     28  C   UNL A   1      36.158  30.104  28.448  1.00  0.00     0.039 A 
ATOM     29  C   UNL A   1      36.497  29.588  29.718  1.00  0.00     0.014 A 
ATOM     30  C   UNL A   1      37.167  30.178  27.501  1.00  0.00     0.014 A 
ATOM     31  C   UNL A   1      37.803  29.147  30.013  1.00  0.00     0.010 A 
ATOM     32  C   UNL A   1      38.460  29.767  27.803  1.00  0.00     0.010 A 
ATOM     33  C   UNL A   1      38.800  29.235  29.043  1.00  0.00    -0.014 A 
BRANCH  33  34
ATOM     34  C   UNL A   1      40.186  28.701  29.186  1.00  0.00     0.031 A 
ATOM     35  C   UNL A   1      41.165  29.680  29.879  1.00  0.00     0.074 A 
ATOM     36  C   UNL A   1      40.426  27.408  28.797  1.00  0.00     0.049 A 
ATOM     37  N   UNL A   1      42.456  29.609  29.995  1.00  0.00    -0.248 NA
ATOM     38  C   UNL A   1      40.647  30.919  30.534  1.00  0.00     0.031 C 
ATOM     39  C   UNL A   1      39.406  26.501  28.223  1.00  0.00     0.029 A 
ATOM     40  N   UNL A   1      41.542  26.586  28.813  1.00  0.00    -0.354 N 
ATOM     41  C   UNL A   1      42.880  30.702  30.786  1.00  0.00     0.074 A 
ATOM     42  C   UNL A   1      41.718  31.467  31.104  1.00  0.00     0.031 C 
ATOM     43  C   UNL A   1      39.954  25.316  27.873  1.00  0.00     0.029 A 
ATOM     44  C   UNL A   1      41.367  25.316  28.202  1.00  0.00     0.049 A 
ATOM     45  H   UNL A   1      42.395  26.864  29.219  1.00  0.00     0.167 HD
ATOM     46  C   UNL A   1      44.169  30.926  31.163  1.00  0.00     0.031 A 
ATOM     47  C   UNL A   1      42.290  24.342  27.927  1.00  0.00     0.031 A 
ATOM     48  C   UNL A   1      45.046  30.007  30.536  1.00  0.00     0.049 A 
ATOM     49  C   UNL A   1      43.566  24.787  28.509  1.00  0.00     0.074 A 
ATOM     50  C   UNL A   1      45.473  29.872  29.241  1.00  0.00     0.029 A 
ATOM     51  N   UNL A   1      45.358  28.871  31.236  1.00  0.00    -0.354 N 
ATOM     52  N   UNL A   1      43.888  24.738  29.764  1.00  0.00    -0.248 NA
ATOM     53  C   UNL A   1      44.578  25.345  27.600  1.00  0.00     0.031 C 
ATOM     54  C   UNL A   1      45.626  28.481  29.081  1.00  0.00     0.029 A 
ATOM     55  C   UNL A   1      45.414  27.855  30.313  1.00  0.00     0.049 A 
ATOM     56  H   UNL A   1      45.512  28.799  32.205  1.00  0.00     0.167 HD
ATOM     57  C   UNL A   1      44.985  25.563  29.822  1.00  0.00     0.074 A 
ATOM     58  C   UNL A   1      45.527  25.633  28.485  1.00  0.00     0.031 C 
ATOM     59  C   UNL A   1      45.042  26.536  30.761  1.00  0.00     0.031 A 
BRANCH  46  60
ATOM     60  C   UNL A   1      44.749  31.860  32.183  1.00  0.00    -0.014 A 
ATOM     61  C   UNL A   1      44.501  31.567  33.547  1.00  0.00     0.010 A 
ATOM     62  C   UNL A   1      45.211  33.146  31.863  1.00  0.00     0.010 A 
ATOM     63  C   UNL A   1      44.589  32.548  34.535  1.00  0.00     0.020 A 
ATOM     64  C   UNL A   1      45.333  34.130  32.859  1.00  0.00     0.020 A 
ATOM     65  C   UNL A   1      44.970  33.837  34.177  1.00  0.00     0.054 A 
BRANCH  65  66
ATOM     66  S   UNL A   1      44.904  35.131  35.446  1.00  0.00     0.124 S 
ATOM     67  O   UNL A   1      46.255  35.680  35.396  1.00  0.00    -0.237 OA
ATOM     68  O   UNL A   1      43.851  36.013  34.945  1.00  0.00    -0.237 OA
ATOM     69  O   UNL A   1      44.563  34.399  36.663  1.00  0.00    -0.744 OA
ENDBRANCH  65  66
ENDBRANCH  46  60
BRANCH  47  70
ATOM     70  C   UNL A   1      42.372  23.067  27.105  1.00  0.00    -0.014 A 
ATOM     71  C   UNL A   1      42.920  22.933  25.825  1.00  0.00     0.010 A 
ATOM     72  C   UNL A   1      41.954  21.848  27.718  1.00  0.00     0.010 A 
ATOM     73  C   UNL A   1      43.186  21.653  25.273  1.00  0.00     0.020 A 
ATOM     74  C   UNL A   1      42.254  20.582  27.212  1.00  0.00     0.020 A 
ATOM     75  C   UNL A   1      42.903  20.490  25.996  1.00  0.00     0.054 A 
BRANCH  75  76
ATOM     76  S   UNL A   1      43.499  18.864  25.449  1.00  0.00     0.124 S 
ATOM     77  O   UNL A   1      44.788  18.758  26.123  1.00  0.00    -0.237 OA
ATOM     78  O   UNL A   1      42.459  17.956  25.926  1.00  0.00    -0.237 OA
ATOM     79  O   UNL A   1      43.564  19.005  23.994  1.00  0.00    -0.744 OA
ENDBRANCH  75  76
ENDBRANCH  47  70
BRANCH  59  80
ATOM     80  C   UNL A   1      44.310  26.232  32.047  1.00  0.00    -0.014 A 
ATOM     81  C   UNL A   1      43.290  27.105  32.461  1.00  0.00     0.010 A 
ATOM     82  C   UNL A   1      44.642  25.147  32.886  1.00  0.00     0.010 A 
ATOM     83  C   UNL A   1      42.613  26.906  33.669  1.00  0.00     0.020 A 
ATOM     84  C   UNL A   1      43.963  24.940  34.098  1.00  0.00     0.020 A 
ATOM     85  C   UNL A   1      42.950  25.823  34.481  1.00  0.00     0.054 A 
BRANCH  85  86
ATOM     86  S   UNL A   1      42.056  25.603  36.047  1.00  0.00     0.124 S 
ATOM     87  O   UNL A   1      41.276  26.834  36.147  1.00  0.00    -0.237 OA
ATOM     88  O   UNL A   1      41.281  24.390  35.799  1.00  0.00    -0.237 OA
ATOM     89  O   UNL A   1      43.123  25.469  37.038  1.00  0.00    -0.744 OA
ENDBRANCH  85  86
ENDBRANCH  59  80
ENDBRANCH  33  34
ENDBRANCH  25  28
ENDBRANCH  23  24
ENDBRANCH   1  23
TORSDOF 15
ENDMDL
MODEL 2
REMARK VINA RESULT:     -11.9      4.726     11.659
REMARK SMILES O=C(Cc1cccn1-c1ccc2c(c1)OCCO2)NCCCNC(=O)c1ccc(-c2c3nc(c(-c4ccc(S(=O)(=O)[O-])cc4)c4ccc([nH]4)c(-c4ccc(S(=O)(=O)[O-])cc4)c4nc(c(-c5ccc(S(=O)(=O)[O-])cc5)c5ccc2[nH]5)C=C4)C=C3)cc1
REMARK SMILES IDX 21 1 20 2 19 3 1 4 2 5 3 7 4 8 5 9 8 10 6 11 7 12 9 13 10 14
REMARK SMILES IDX 14 15 11 16 13 17 12 18 15 19 18 20 16 21 17 22 22 23 23 24
REMARK SMILES IDX 24 25 25 27 26 28 27 29 85 30 28 31 84 32 29 33 30 34 31 35
REMARK SMILES IDX 78 36 32 37 83 38 77 39 79 40 33 41 82 42 76 43 75 44 34 46
REMARK SMILES IDX 64 47 45 48 63 49 46 50 49 51 62 52 80 53 47 54 48 55 61 57
REMARK SMILES IDX 81 58 50 59 35 60 36 61 44 62 37 63 43 64 38 65 39 66 40 67
REMARK SMILES IDX 41 68 42 69 65 70 66 71 74 72 67 73 73 74 68 75 69 76 70 77
REMARK SMILES IDX 71 78 72 79 51 80 52 81 60 82 53 83 59 84 54 85 55 86 56 87
REMARK SMILES IDX 57 88 58 89
REMARK H PARENT 19 6 23 26 79 45 49 56
REMARK Flexibility Score: inf
ROOT
ATOM      1  C   UNL A   1      37.026  32.595  29.697  1.00  0.00     0.042 C 
ENDROOT
BRANCH   1   2
ATOM      2  C   UNL A   1      38.552  32.500  29.735  1.00  0.00     0.117 C 
BRANCH   2   3
ATOM      3  N   UNL A   1      39.119  32.859  31.026  1.00  0.00    -0.356 N 
ATOM      4  O   UNL A   1      38.205  34.966  31.090  1.00  0.00    -0.275 OA
ATOM      5  C   UNL A   1      38.840  34.068  31.639  1.00  0.00     0.225 C 
ATOM      6  H   UNL A   1      39.719  32.222  31.477  1.00  0.00     0.163 HD
BRANCH   5   7
ATOM      7  C   UNL A   1      39.359  34.199  33.071  1.00  0.00     0.154 C 
BRANCH   7   8
ATOM      8  C   UNL A   1      39.008  32.965  33.860  1.00  0.00     0.032 A 
ATOM      9  C   UNL A   1      39.861  32.008  34.383  1.00  0.00     0.024 A 
ATOM     10  N   UNL A   1      37.721  32.634  34.263  1.00  0.00    -0.320 N 
ATOM     11  C   UNL A   1      39.103  31.162  35.223  1.00  0.00     0.020 A 
ATOM     12  C   UNL A   1      37.806  31.622  35.196  1.00  0.00     0.091 A 
BRANCH  10  13
ATOM     13  C   UNL A   1      36.502  33.108  33.732  1.00  0.00     0.049 A 
ATOM     14  C   UNL A   1      35.731  32.307  32.880  1.00  0.00     0.031 A 
ATOM     15  C   UNL A   1      36.141  34.432  33.986  1.00  0.00     0.077 A 
ATOM     16  C   UNL A   1      34.604  32.855  32.263  1.00  0.00     0.052 A 
ATOM     17  C   UNL A   1      35.027  34.971  33.362  1.00  0.00     0.163 A 
ATOM     18  C   UNL A   1      34.290  34.200  32.464  1.00  0.00     0.161 A 
ATOM     19  O   UNL A   1      34.760  36.279  33.653  1.00  0.00    -0.486 OA
ATOM     20  O   UNL A   1      33.264  34.721  31.722  1.00  0.00    -0.486 OA
ATOM     21  C   UNL A   1      33.495  36.693  33.135  1.00  0.00     0.271 C 
ATOM     22  C   UNL A   1      33.296  36.161  31.722  1.00  0.00     0.271 C 
ENDBRANCH  10  13
ENDBRANCH   7   8
ENDBRANCH   5   7
ENDBRANCH   2   3
ENDBRANCH   1   2
BRANCH   1  23
ATOM     23  C   UNL A   1      36.467  32.827  28.295  1.00  0.00     0.118 C 
BRANCH  23  24
ATOM     24  N   UNL A   1      35.615  31.753  27.810  1.00  0.00    -0.352 N 
ATOM     25  C   UNL A   1      35.834  30.396  27.642  1.00  0.00     0.251 C 
ATOM     26  H   UNL A   1      34.710  32.046  27.552  1.00  0.00     0.163 HD
ATOM     27  O   UNL A   1      34.948  29.756  27.096  1.00  0.00    -0.269 OA
BRANCH  25  28
ATOM     28  C   UNL A   1      37.076  29.683  28.091  1.00  0.00     0.039 A 
ATOM     29  C   UNL A   1      38.219  29.729  27.264  1.00  0.00     0.014 A 
ATOM     30  C   UNL A   1      37.164  28.942  29.258  1.00  0.00     0.014 A 
ATOM     31  C   UNL A   1      39.412  29.063  27.612  1.00  0.00     0.010 A 
ATOM     32  C   UNL A   1      38.333  28.266  29.587  1.00  0.00     0.010 A 
ATOM     33  C   UNL A   1      39.473  28.322  28.791  1.00  0.00    -0.014 A 
BRANCH  33  34
ATOM     34  C   UNL A   1      40.702  27.670  29.332  1.00  0.00     0.031 A 
ATOM     35  C   UNL A   1      41.143  26.415  28.540  1.00  0.00     0.074 A 
ATOM     36  C   UNL A   1      41.353  28.278  30.375  1.00  0.00     0.049 A 
ATOM     37  N   UNL A   1      42.040  25.525  28.840  1.00  0.00    -0.248 NA
ATOM     38  C   UNL A   1      40.501  26.091  27.231  1.00  0.00     0.031 C 
ATOM     39  C   UNL A   1      40.912  29.534  31.022  1.00  0.00     0.029 A 
ATOM     40  N   UNL A   1      42.505  27.992  31.091  1.00  0.00    -0.354 N 
ATOM     41  C   UNL A   1      42.132  24.622  27.756  1.00  0.00     0.074 A 
ATOM     42  C   UNL A   1      41.170  25.030  26.785  1.00  0.00     0.031 C 
ATOM     43  C   UNL A   1      41.714  29.849  32.064  1.00  0.00     0.029 A 
ATOM     44  C   UNL A   1      42.765  28.857  32.188  1.00  0.00     0.049 A 
ATOM     45  H   UNL A   1      43.100  27.244  30.855  1.00  0.00     0.167 HD
ATOM     46  C   UNL A   1      43.008  23.582  27.692  1.00  0.00     0.031 A 
ATOM     47  C   UNL A   1      43.721  28.768  33.165  1.00  0.00     0.031 A 
ATOM     48  C   UNL A   1      43.709  23.436  28.915  1.00  0.00     0.049 A 
ATOM     49  C   UNL A   1      44.580  27.626  32.818  1.00  0.00     0.074 A 
ATOM     50  C   UNL A   1      43.323  23.004  30.157  1.00  0.00     0.029 A 
ATOM     51  N   UNL A   1      44.925  24.059  29.012  1.00  0.00    -0.354 N 
ATOM     52  N   UNL A   1      45.507  27.619  31.911  1.00  0.00    -0.248 NA
ATOM     53  C   UNL A   1      44.382  26.369  33.554  1.00  0.00     0.031 C 
ATOM     54  C   UNL A   1      44.103  23.776  31.039  1.00  0.00     0.029 A 
ATOM     55  C   UNL A   1      45.012  24.537  30.297  1.00  0.00     0.049 A 
ATOM     56  H   UNL A   1      45.602  24.146  28.302  1.00  0.00     0.167 HD
ATOM     57  C   UNL A   1      45.752  26.276  31.747  1.00  0.00     0.074 A 
ATOM     58  C   UNL A   1      45.299  25.619  32.950  1.00  0.00     0.031 C 
ATOM     59  C   UNL A   1      45.769  25.747  30.502  1.00  0.00     0.031 A 
BRANCH  46  60
ATOM     60  C   UNL A   1      43.414  22.703  26.547  1.00  0.00    -0.014 A 
ATOM     61  C   UNL A   1      42.792  21.435  26.449  1.00  0.00     0.010 A 
ATOM     62  C   UNL A   1      44.581  22.920  25.798  1.00  0.00     0.010 A 
ATOM     63  C   UNL A   1      43.374  20.386  25.736  1.00  0.00     0.020 A 
ATOM     64  C   UNL A   1      45.155  21.876  25.051  1.00  0.00     0.020 A 
ATOM     65  C   UNL A   1      44.574  20.605  25.069  1.00  0.00     0.054 A 
BRANCH  65  66
ATOM     66  S   UNL A   1      45.396  19.182  24.301  1.00  0.00     0.124 S 
ATOM     67  O   UNL A   1      45.209  18.140  25.306  1.00  0.00    -0.237 OA
ATOM     68  O   UNL A   1      44.636  19.004  23.066  1.00  0.00    -0.237 OA
ATOM     69  O   UNL A   1      46.770  19.641  24.114  1.00  0.00    -0.744 OA
ENDBRANCH  65  66
ENDBRANCH  46  60
BRANCH  47  70
ATOM     70  C   UNL A   1      44.023  29.413  34.507  1.00  0.00    -0.014 A 
ATOM     71  C   UNL A   1      43.104  30.029  35.362  1.00  0.00     0.010 A 
ATOM     72  C   UNL A   1      45.349  29.297  35.021  1.00  0.00     0.010 A 
ATOM     73  C   UNL A   1      43.451  30.350  36.700  1.00  0.00     0.020 A 
ATOM     74  C   UNL A   1      45.693  29.560  36.348  1.00  0.00     0.020 A 
ATOM     75  C   UNL A   1      44.725  30.059  37.198  1.00  0.00     0.054 A 
BRANCH  75  76
ATOM     76  S   UNL A   1      45.103  30.182  38.971  1.00  0.00     0.124 S 
ATOM     77  O   UNL A   1      45.073  28.787  39.396  1.00  0.00    -0.237 OA
ATOM     78  O   UNL A   1      46.417  30.819  38.982  1.00  0.00    -0.237 OA
ATOM     79  O   UNL A   1      44.017  31.017  39.486  1.00  0.00    -0.744 OA
ENDBRANCH  75  76
ENDBRANCH  47  70
BRANCH  59  80
ATOM     80  C   UNL A   1      46.208  26.690  29.407  1.00  0.00    -0.014 A 
ATOM     81  C   UNL A   1      45.222  27.341  28.647  1.00  0.00     0.010 A 
ATOM     82  C   UNL A   1      47.561  26.903  29.069  1.00  0.00     0.010 A 
ATOM     83  C   UNL A   1      45.566  28.185  27.585  1.00  0.00     0.020 A 
ATOM     84  C   UNL A   1      47.913  27.752  28.006  1.00  0.00     0.020 A 
ATOM     85  C   UNL A   1      46.909  28.389  27.271  1.00  0.00     0.054 A 
BRANCH  85  86
ATOM     86  S   UNL A   1      47.317  29.484  25.880  1.00  0.00     0.124 S 
ATOM     87  O   UNL A   1      48.293  30.400  26.467  1.00  0.00    -0.237 OA
ATOM     88  O   UNL A   1      47.852  28.551  24.892  1.00  0.00    -0.237 OA
ATOM     89  O   UNL A   1      46.034  30.093  25.531  1.00  0.00    -0.744 OA
ENDBRANCH  85  86
ENDBRANCH  59  80
ENDBRANCH  33  34
ENDBRANCH  25  28
ENDBRANCH  23  24
ENDBRANCH   1  23
TORSDOF 15
ENDMDL
MODEL 3
REMARK VINA RESULT:     -11.8      2.904      8.830
REMARK SMILES O=C(Cc1cccn1-c1ccc2c(c1)OCCO2)NCCCNC(=O)c1ccc(-c2c3nc(c(-c4ccc(S(=O)(=O)[O-])cc4)c4ccc([nH]4)c(-c4ccc(S(=O)(=O)[O-])cc4)c4nc(c(-c5ccc(S(=O)(=O)[O-])cc5)c5ccc2[nH]5)C=C4)C=C3)cc1
REMARK SMILES IDX 21 1 20 2 19 3 1 4 2 5 3 7 4 8 5 9 8 10 6 11 7 12 9 13 10 14
REMARK SMILES IDX 14 15 11 16 13 17 12 18 15 19 18 20 16 21 17 22 22 23 23 24
REMARK SMILES IDX 24 25 25 27 26 28 27 29 85 30 28 31 84 32 29 33 30 34 31 35
REMARK SMILES IDX 78 36 32 37 83 38 77 39 79 40 33 41 82 42 76 43 75 44 34 46
REMARK SMILES IDX 64 47 45 48 63 49 46 50 49 51 62 52 80 53 47 54 48 55 61 57
REMARK SMILES IDX 81 58 50 59 35 60 36 61 44 62 37 63 43 64 38 65 39 66 40 67
REMARK SMILES IDX 41 68 42 69 65 70 66 71 74 72 67 73 73 74 68 75 69 76 70 77
REMARK SMILES IDX 71 78 72 79 51 80 52 81 60 82 53 83 59 84 54 85 55 86 56 87
REMARK SMILES IDX 57 88 58 89
REMARK H PARENT 19 6 23 26 79 45 49 56
REMARK Flexibility Score: inf
ROOT
ATOM      1  C   UNL A   1      33.661  28.593  25.145  1.00  0.00     0.042 C 
ENDROOT
BRANCH   1   2
ATOM      2  C   UNL A   1      32.476  27.629  25.225  1.00  0.00     0.117 C 
BRANCH   2   3
ATOM      3  N   UNL A   1      32.779  26.403  25.946  1.00  0.00    -0.356 N 
ATOM      4  O   UNL A   1      32.570  25.018  24.125  1.00  0.00    -0.275 OA
ATOM      5  C   UNL A   1      32.864  25.178  25.308  1.00  0.00     0.225 C 
ATOM      6  H   UNL A   1      32.929  26.446  26.918  1.00  0.00     0.163 HD
BRANCH   5   7
ATOM      7  C   UNL A   1      33.381  24.033  26.179  1.00  0.00     0.154 C 
BRANCH   7   8
ATOM      8  C   UNL A   1      34.778  23.658  25.759  1.00  0.00     0.032 A 
ATOM      9  C   UNL A   1      35.894  24.473  25.662  1.00  0.00     0.024 A 
ATOM     10  N   UNL A   1      35.189  22.364  25.470  1.00  0.00    -0.320 N 
ATOM     11  C   UNL A   1      37.018  23.647  25.442  1.00  0.00     0.020 A 
ATOM     12  C   UNL A   1      36.566  22.348  25.413  1.00  0.00     0.091 A 
BRANCH  10  13
ATOM     13  C   UNL A   1      34.378  21.258  25.131  1.00  0.00     0.049 A 
ATOM     14  C   UNL A   1      32.983  21.338  25.212  1.00  0.00     0.031 A 
ATOM     15  C   UNL A   1      35.006  20.049  24.822  1.00  0.00     0.077 A 
ATOM     16  C   UNL A   1      32.219  20.187  25.004  1.00  0.00     0.052 A 
ATOM     17  C   UNL A   1      34.242  18.910  24.626  1.00  0.00     0.163 A 
ATOM     18  C   UNL A   1      32.856  18.968  24.767  1.00  0.00     0.161 A 
ATOM     19  O   UNL A   1      34.941  17.769  24.348  1.00  0.00    -0.486 OA
ATOM     20  O   UNL A   1      32.068  17.849  24.717  1.00  0.00    -0.486 OA
ATOM     21  C   UNL A   1      34.079  16.697  23.964  1.00  0.00     0.271 C 
ATOM     22  C   UNL A   1      32.851  16.650  24.864  1.00  0.00     0.271 C 
ENDBRANCH  10  13
ENDBRANCH   7   8
ENDBRANCH   5   7
ENDBRANCH   2   3
ENDBRANCH   1   2
BRANCH   1  23
ATOM     23  C   UNL A   1      34.485  28.650  26.430  1.00  0.00     0.118 C 
BRANCH  23  24
ATOM     24  N   UNL A   1      34.716  29.997  26.928  1.00  0.00    -0.352 N 
ATOM     25  C   UNL A   1      35.714  30.537  27.721  1.00  0.00     0.251 C 
ATOM     26  H   UNL A   1      34.033  30.649  26.647  1.00  0.00     0.163 HD
ATOM     27  O   UNL A   1      35.573  31.698  28.074  1.00  0.00    -0.269 OA
BRANCH  25  28
ATOM     28  C   UNL A   1      36.938  29.786  28.159  1.00  0.00     0.039 A 
ATOM     29  C   UNL A   1      38.072  29.792  27.318  1.00  0.00     0.014 A 
ATOM     30  C   UNL A   1      37.016  29.046  29.328  1.00  0.00     0.014 A 
ATOM     31  C   UNL A   1      39.247  29.090  27.655  1.00  0.00     0.010 A 
ATOM     32  C   UNL A   1      38.167  28.334  29.645  1.00  0.00     0.010 A 
ATOM     33  C   UNL A   1      39.299  28.351  28.836  1.00  0.00    -0.014 A 
BRANCH  33  34
ATOM     34  C   UNL A   1      40.512  27.663  29.365  1.00  0.00     0.031 A 
ATOM     35  C   UNL A   1      40.918  26.405  28.558  1.00  0.00     0.074 A 
ATOM     36  C   UNL A   1      41.183  28.243  30.411  1.00  0.00     0.049 A 
ATOM     37  N   UNL A   1      41.792  25.489  28.845  1.00  0.00    -0.248 NA
ATOM     38  C   UNL A   1      40.262  26.110  27.249  1.00  0.00     0.031 C 
ATOM     39  C   UNL A   1      40.778  29.504  31.072  1.00  0.00     0.029 A 
ATOM     40  N   UNL A   1      42.331  27.920  31.119  1.00  0.00    -0.354 N 
ATOM     41  C   UNL A   1      41.857  24.594  27.752  1.00  0.00     0.074 A 
ATOM     42  C   UNL A   1      40.902  25.037  26.789  1.00  0.00     0.031 C 
ATOM     43  C   UNL A   1      41.592  29.787  32.114  1.00  0.00     0.029 A 
ATOM     44  C   UNL A   1      42.617  28.767  32.223  1.00  0.00     0.049 A 
ATOM     45  H   UNL A   1      42.906  27.160  30.873  1.00  0.00     0.167 HD
ATOM     46  C   UNL A   1      42.706  23.533  27.674  1.00  0.00     0.031 A 
ATOM     47  C   UNL A   1      43.575  28.644  33.195  1.00  0.00     0.031 A 
ATOM     48  C   UNL A   1      43.407  23.357  28.893  1.00  0.00     0.049 A 
ATOM     49  C   UNL A   1      44.403  27.483  32.833  1.00  0.00     0.074 A 
ATOM     50  C   UNL A   1      43.015  22.922  30.131  1.00  0.00     0.029 A 
ATOM     51  N   UNL A   1      44.640  23.947  28.990  1.00  0.00    -0.354 N 
ATOM     52  N   UNL A   1      45.325  27.461  31.922  1.00  0.00    -0.248 NA
ATOM     53  C   UNL A   1      44.176  26.224  33.557  1.00  0.00     0.031 C 
ATOM     54  C   UNL A   1      43.819  23.665  31.018  1.00  0.00     0.029 A 
ATOM     55  C   UNL A   1      44.744  24.410  30.279  1.00  0.00     0.049 A 
ATOM     56  H   UNL A   1      45.316  24.024  28.278  1.00  0.00     0.167 HD
ATOM     57  C   UNL A   1      45.535  26.115  31.743  1.00  0.00     0.074 A 
ATOM     58  C   UNL A   1      45.070  25.457  32.942  1.00  0.00     0.031 C 
ATOM     59  C   UNL A   1      45.533  25.597  30.493  1.00  0.00     0.031 A 
BRANCH  46  60
ATOM     60  C   UNL A   1      43.084  22.656  26.518  1.00  0.00    -0.014 A 
ATOM     61  C   UNL A   1      42.524  21.355  26.479  1.00  0.00     0.010 A 
ATOM     62  C   UNL A   1      44.189  22.918  25.693  1.00  0.00     0.010 A 
ATOM     63  C   UNL A   1      43.114  20.325  25.746  1.00  0.00     0.020 A 
ATOM     64  C   UNL A   1      44.768  21.892  24.926  1.00  0.00     0.020 A 
ATOM     65  C   UNL A   1      44.257  20.593  25.000  1.00  0.00     0.054 A 
BRANCH  65  66
ATOM     66  S   UNL A   1      45.102  19.201  24.203  1.00  0.00     0.124 S 
ATOM     67  O   UNL A   1      44.705  18.077  25.045  1.00  0.00    -0.237 OA
ATOM     68  O   UNL A   1      44.528  19.209  22.858  1.00  0.00    -0.237 OA
ATOM     69  O   UNL A   1      46.513  19.574  24.269  1.00  0.00    -0.744 OA
ENDBRANCH  65  66
ENDBRANCH  46  60
BRANCH  47  70
ATOM     70  C   UNL A   1      43.899  29.266  34.542  1.00  0.00    -0.014 A 
ATOM     71  C   UNL A   1      43.863  28.629  35.787  1.00  0.00     0.010 A 
ATOM     72  C   UNL A   1      44.399  30.603  34.559  1.00  0.00     0.010 A 
ATOM     73  C   UNL A   1      44.444  29.228  36.934  1.00  0.00     0.020 A 
ATOM     74  C   UNL A   1      45.019  31.186  35.665  1.00  0.00     0.020 A 
ATOM     75  C   UNL A   1      45.069  30.477  36.849  1.00  0.00     0.054 A 
BRANCH  75  76
ATOM     76  S   UNL A   1      46.072  31.130  38.215  1.00  0.00     0.124 S 
ATOM     77  O   UNL A   1      47.172  31.783  37.513  1.00  0.00    -0.237 OA
ATOM     78  O   UNL A   1      45.144  32.022  38.905  1.00  0.00    -0.237 OA
ATOM     79  O   UNL A   1      46.435  29.928  38.966  1.00  0.00    -0.744 OA
ENDBRANCH  75  76
ENDBRANCH  47  70
BRANCH  59  80
ATOM     80  C   UNL A   1      45.992  26.540  29.406  1.00  0.00    -0.014 A 
ATOM     81  C   UNL A   1      45.021  27.250  28.679  1.00  0.00     0.010 A 
ATOM     82  C   UNL A   1      47.346  26.697  29.042  1.00  0.00     0.010 A 
ATOM     83  C   UNL A   1      45.381  28.097  27.626  1.00  0.00     0.020 A 
ATOM     84  C   UNL A   1      47.714  27.549  27.987  1.00  0.00     0.020 A 
ATOM     85  C   UNL A   1      46.725  28.245  27.285  1.00  0.00     0.054 A 
BRANCH  85  86
ATOM     86  S   UNL A   1      47.154  29.346  25.905  1.00  0.00     0.124 S 
ATOM     87  O   UNL A   1      48.219  30.171  26.471  1.00  0.00    -0.237 OA
ATOM     88  O   UNL A   1      47.575  28.405  24.871  1.00  0.00    -0.237 OA
ATOM     89  O   UNL A   1      45.906  30.057  25.630  1.00  0.00    -0.744 OA
ENDBRANCH  85  86
ENDBRANCH  59  80
ENDBRANCH  33  34
ENDBRANCH  25  28
ENDBRANCH  23  24
ENDBRANCH   1  23
TORSDOF 15
ENDMDL
