MODEL 1
REMARK VINA RESULT:     -10.8      0.000      0.000
REMARK SMILES C[C@H](Nc1ccc(F)cc1Br)[C@@H](C)C(=O)NCCCNC(=O)c1ccc(-c2c3nc(c(-c4ccc(S(=O)(=O)[O-])cc4)c4ccc([nH]4)c(-c4ccc(S(=O)(=O)[O-])cc4)c4nc(c(-c5ccc(S(=O)(=O)[O-])cc5)c5ccc2[nH]5)C=C4)C=C3)cc1
REMARK SMILES IDX 18 1 17 2 16 3 14 4 15 5 12 7 13 8 2 9 1 10 3 11 4 13 5 14
REMARK SMILES IDX 10 15 6 16 9 17 11 18 7 19 8 20 19 21 20 22 21 23 22 25
REMARK SMILES IDX 23 26 24 27 82 28 25 29 81 30 26 31 27 32 28 33 75 34 29 35
REMARK SMILES IDX 80 36 74 37 76 38 30 39 79 40 73 41 72 42 31 44 61 45 42 46
REMARK SMILES IDX 60 47 43 48 46 49 59 50 77 51 44 52 45 53 58 55 78 56 47 57
REMARK SMILES IDX 32 58 33 59 41 60 34 61 40 62 35 63 36 64 37 65 38 66 39 67
REMARK SMILES IDX 62 68 63 69 71 70 64 71 70 72 65 73 66 74 67 75 68 76 69 77
REMARK SMILES IDX 48 78 49 79 57 80 50 81 56 82 51 83 52 84 53 85 54 86 55 87
REMARK H PARENT 16 6 3 12 20 24 76 43 46 54
REMARK Flexibility Score: inf
ROOT
ATOM      1  C   UNL A   1      32.205  27.722  27.398  1.00  0.00     0.042 C 
ENDROOT
BRANCH   1   2
ATOM      2  C   UNL A   1      31.511  27.085  26.200  1.00  0.00     0.117 C 
BRANCH   2   3
ATOM      3  N   UNL A   1      30.867  25.825  26.534  1.00  0.00    -0.356 N 
ATOM      4  C   UNL A   1      31.300  24.537  26.477  1.00  0.00     0.224 C 
ATOM      5  O   UNL A   1      30.510  23.661  26.842  1.00  0.00    -0.275 OA
ATOM      6  H   UNL A   1      29.944  25.922  26.863  1.00  0.00     0.163 HD
BRANCH   4   7
ATOM      7  C   UNL A   1      32.703  24.159  26.009  1.00  0.00     0.097 C 
ATOM      8  C   UNL A   1      32.884  24.636  24.565  1.00  0.00     0.020 C 
BRANCH   7   9
ATOM      9  C   UNL A   1      33.050  22.676  26.292  1.00  0.00     0.088 C 
ATOM     10  C   UNL A   1      33.959  22.553  27.520  1.00  0.00     0.031 C 
BRANCH   9  11
ATOM     11  N   UNL A   1      33.553  22.000  25.076  1.00  0.00    -0.381 N 
ATOM     12  H   UNL A   1      33.905  22.595  24.375  1.00  0.00     0.160 HD
BRANCH  11  13
ATOM     13  C   UNL A   1      33.596  20.645  24.787  1.00  0.00     0.049 A 
ATOM     14  C   UNL A   1      32.445  19.918  24.456  1.00  0.00     0.030 A 
ATOM     15  C   UNL A   1      34.813  19.926  24.806  1.00  0.00     0.044 A 
ATOM     16  C   UNL A   1      32.482  18.541  24.213  1.00  0.00     0.041 A 
ATOM     17  C   UNL A   1      34.860  18.547  24.575  1.00  0.00     0.057 A 
ATOM     18  Br  UNL A   1      36.482  20.791  25.100  1.00  0.00    -0.048 Br
ATOM     19  C   UNL A   1      33.689  17.868  24.291  1.00  0.00     0.124 A 
ATOM     20  F   UNL A   1      33.728  16.549  24.066  1.00  0.00    -0.207 F 
ENDBRANCH  11  13
ENDBRANCH   9  11
ENDBRANCH   7   9
ENDBRANCH   4   7
ENDBRANCH   2   3
ENDBRANCH   1   2
BRANCH   1  21
ATOM     21  C   UNL A   1      33.517  28.415  27.056  1.00  0.00     0.118 C 
BRANCH  21  22
ATOM     22  N   UNL A   1      33.488  29.840  27.360  1.00  0.00    -0.352 N 
ATOM     23  C   UNL A   1      34.407  30.628  28.003  1.00  0.00     0.251 C 
ATOM     24  H   UNL A   1      32.680  30.312  27.053  1.00  0.00     0.163 HD
ATOM     25  O   UNL A   1      34.083  31.765  28.352  1.00  0.00    -0.269 OA
BRANCH  23  26
ATOM     26  C   UNL A   1      35.766  30.124  28.296  1.00  0.00     0.039 A 
ATOM     27  C   UNL A   1      36.707  30.073  27.265  1.00  0.00     0.014 A 
ATOM     28  C   UNL A   1      36.109  29.675  29.573  1.00  0.00     0.014 A 
ATOM     29  C   UNL A   1      38.009  29.640  27.532  1.00  0.00     0.010 A 
ATOM     30  C   UNL A   1      37.427  29.326  29.858  1.00  0.00     0.010 A 
ATOM     31  C   UNL A   1      38.391  29.301  28.840  1.00  0.00    -0.014 A 
BRANCH  31  32
ATOM     32  C   UNL A   1      39.791  28.924  29.165  1.00  0.00     0.031 A 
ATOM     33  C   UNL A   1      40.723  29.931  29.787  1.00  0.00     0.074 A 
ATOM     34  C   UNL A   1      40.243  27.696  28.838  1.00  0.00     0.049 A 
ATOM     35  N   UNL A   1      41.994  29.811  30.071  1.00  0.00    -0.248 NA
ATOM     36  C   UNL A   1      40.161  31.255  30.108  1.00  0.00     0.031 C 
ATOM     37  C   UNL A   1      39.452  26.646  28.192  1.00  0.00     0.029 A 
ATOM     38  N   UNL A   1      41.482  27.127  28.991  1.00  0.00    -0.354 N 
ATOM     39  C   UNL A   1      42.388  31.042  30.581  1.00  0.00     0.074 A 
ATOM     40  C   UNL A   1      41.234  31.912  30.528  1.00  0.00     0.031 C 
ATOM     41  C   UNL A   1      40.218  25.556  28.025  1.00  0.00     0.029 A 
ATOM     42  C   UNL A   1      41.565  25.841  28.508  1.00  0.00     0.049 A 
ATOM     43  H   UNL A   1      42.242  27.594  29.409  1.00  0.00     0.167 HD
ATOM     44  C   UNL A   1      43.598  31.411  31.067  1.00  0.00     0.031 A 
ATOM     45  C   UNL A   1      42.609  24.992  28.445  1.00  0.00     0.031 A 
ATOM     46  C   UNL A   1      44.737  30.537  31.138  1.00  0.00     0.049 A 
ATOM     47  C   UNL A   1      43.942  25.430  28.987  1.00  0.00     0.074 A 
ATOM     48  C   UNL A   1      45.986  30.798  31.677  1.00  0.00     0.029 A 
ATOM     49  N   UNL A   1      44.773  29.237  30.657  1.00  0.00    -0.354 N 
ATOM     50  N   UNL A   1      44.272  26.575  29.536  1.00  0.00    -0.248 NA
ATOM     51  C   UNL A   1      45.042  24.458  28.912  1.00  0.00     0.031 C 
ATOM     52  C   UNL A   1      46.794  29.676  31.468  1.00  0.00     0.029 A 
ATOM     53  C   UNL A   1      46.030  28.694  30.860  1.00  0.00     0.049 A 
ATOM     54  H   UNL A   1      44.016  28.771  30.233  1.00  0.00     0.167 HD
ATOM     55  C   UNL A   1      45.610  26.449  29.897  1.00  0.00     0.074 A 
ATOM     56  C   UNL A   1      46.021  25.113  29.523  1.00  0.00     0.031 C 
ATOM     57  C   UNL A   1      46.424  27.358  30.487  1.00  0.00     0.031 A 
BRANCH  44  58
ATOM     58  C   UNL A   1      43.759  32.825  31.562  1.00  0.00    -0.014 A 
ATOM     59  C   UNL A   1      44.000  33.885  30.670  1.00  0.00     0.010 A 
ATOM     60  C   UNL A   1      43.589  33.107  32.930  1.00  0.00     0.010 A 
ATOM     61  C   UNL A   1      44.091  35.198  31.139  1.00  0.00     0.020 A 
ATOM     62  C   UNL A   1      43.652  34.422  33.400  1.00  0.00     0.020 A 
ATOM     63  C   UNL A   1      43.913  35.459  32.502  1.00  0.00     0.054 A 
BRANCH  63  64
ATOM     64  S   UNL A   1      43.983  37.179  33.072  1.00  0.00     0.124 S 
ATOM     65  O   UNL A   1      42.770  37.277  33.882  1.00  0.00    -0.237 OA
ATOM     66  O   UNL A   1      45.238  37.218  33.818  1.00  0.00    -0.237 OA
ATOM     67  O   UNL A   1      43.970  37.958  31.836  1.00  0.00    -0.744 OA
ENDBRANCH  63  64
ENDBRANCH  44  58
BRANCH  45  68
ATOM     68  C   UNL A   1      42.441  23.640  27.838  1.00  0.00    -0.014 A 
ATOM     69  C   UNL A   1      41.929  22.572  28.595  1.00  0.00     0.010 A 
ATOM     70  C   UNL A   1      42.810  23.414  26.499  1.00  0.00     0.010 A 
ATOM     71  C   UNL A   1      41.820  21.296  28.036  1.00  0.00     0.020 A 
ATOM     72  C   UNL A   1      42.672  22.146  25.928  1.00  0.00     0.020 A 
ATOM     73  C   UNL A   1      42.195  21.090  26.706  1.00  0.00     0.054 A 
BRANCH  73  74
ATOM     74  S   UNL A   1      42.024  19.431  25.993  1.00  0.00     0.124 S 
ATOM     75  O   UNL A   1      42.852  19.529  24.796  1.00  0.00    -0.237 OA
ATOM     76  O   UNL A   1      42.545  18.575  27.057  1.00  0.00    -0.237 OA
ATOM     77  O   UNL A   1      40.587  19.308  25.754  1.00  0.00    -0.744 OA
ENDBRANCH  73  74
ENDBRANCH  45  68
BRANCH  57  78
ATOM     78  C   UNL A   1      47.831  26.930  30.803  1.00  0.00    -0.014 A 
ATOM     79  C   UNL A   1      48.902  27.246  29.947  1.00  0.00     0.010 A 
ATOM     80  C   UNL A   1      48.094  26.252  32.008  1.00  0.00     0.010 A 
ATOM     81  C   UNL A   1      50.205  26.863  30.275  1.00  0.00     0.020 A 
ATOM     82  C   UNL A   1      49.399  25.896  32.354  1.00  0.00     0.020 A 
ATOM     83  C   UNL A   1      50.446  26.192  31.478  1.00  0.00     0.054 A 
BRANCH  83  84
ATOM     84  S   UNL A   1      52.152  25.747  31.903  1.00  0.00     0.124 S 
ATOM     85  O   UNL A   1      52.023  24.332  32.239  1.00  0.00    -0.237 OA
ATOM     86  O   UNL A   1      52.874  26.036  30.666  1.00  0.00    -0.237 OA
ATOM     87  O   UNL A   1      52.471  26.627  33.025  1.00  0.00    -0.744 OA
ENDBRANCH  83  84
ENDBRANCH  57  78
ENDBRANCH  31  32
ENDBRANCH  23  26
ENDBRANCH  21  22
ENDBRANCH   1  21
TORSDOF 16
ENDMDL
MODEL 2
REMARK VINA RESULT:     -10.8      1.119      1.733
REMARK SMILES C[C@H](Nc1ccc(F)cc1Br)[C@@H](C)C(=O)NCCCNC(=O)c1ccc(-c2c3nc(c(-c4ccc(S(=O)(=O)[O-])cc4)c4ccc([nH]4)c(-c4ccc(S(=O)(=O)[O-])cc4)c4nc(c(-c5ccc(S(=O)(=O)[O-])cc5)c5ccc2[nH]5)C=C4)C=C3)cc1
REMARK SMILES IDX 18 1 17 2 16 3 14 4 15 5 12 7 13 8 2 9 1 10 3 11 4 13 5 14
REMARK SMILES IDX 10 15 6 16 9 17 11 18 7 19 8 20 19 21 20 22 21 23 22 25
REMARK SMILES IDX 23 26 24 27 82 28 25 29 81 30 26 31 27 32 28 33 75 34 29 35
REMARK SMILES IDX 80 36 74 37 76 38 30 39 79 40 73 41 72 42 31 44 61 45 42 46
REMARK SMILES IDX 60 47 43 48 46 49 59 50 77 51 44 52 45 53 58 55 78 56 47 57
REMARK SMILES IDX 32 58 33 59 41 60 34 61 40 62 35 63 36 64 37 65 38 66 39 67
REMARK SMILES IDX 62 68 63 69 71 70 64 71 70 72 65 73 66 74 67 75 68 76 69 77
REMARK SMILES IDX 48 78 49 79 57 80 50 81 56 82 51 83 52 84 53 85 54 86 55 87
REMARK H PARENT 16 6 3 12 20 24 76 43 46 54
REMARK Flexibility Score: inf
ROOT
ATOM      1  C   UNL A   1      33.114  27.677  26.868  1.00  0.00     0.042 C 
ENDROOT
BRANCH   1   2
ATOM      2  C   UNL A   1      31.703  27.503  26.320  1.00  0.00     0.117 C 
BRANCH   2   3
ATOM      3  N   UNL A   1      31.170  26.172  26.565  1.00  0.00    -0.356 N 
ATOM      4  C   UNL A   1      31.061  25.075  25.770  1.00  0.00     0.224 C 
ATOM      5  O   UNL A   1      30.560  24.064  26.271  1.00  0.00    -0.275 OA
ATOM      6  H   UNL A   1      30.824  26.041  27.477  1.00  0.00     0.163 HD
BRANCH   4   7
ATOM      7  C   UNL A   1      31.547  25.053  24.322  1.00  0.00     0.097 C 
ATOM      8  C   UNL A   1      30.601  24.175  23.500  1.00  0.00     0.020 C 
BRANCH   7   9
ATOM      9  C   UNL A   1      33.059  24.736  24.203  1.00  0.00     0.088 C 
ATOM     10  C   UNL A   1      33.411  24.282  22.782  1.00  0.00     0.031 C 
BRANCH   9  11
ATOM     11  N   UNL A   1      33.503  23.821  25.277  1.00  0.00    -0.381 N 
ATOM     12  H   UNL A   1      33.062  23.945  26.148  1.00  0.00     0.160 HD
BRANCH  11  13
ATOM     13  C   UNL A   1      34.453  22.814  25.226  1.00  0.00     0.049 A 
ATOM     14  C   UNL A   1      35.823  23.076  25.353  1.00  0.00     0.030 A 
ATOM     15  C   UNL A   1      34.084  21.460  25.048  1.00  0.00     0.044 A 
ATOM     16  C   UNL A   1      36.784  22.065  25.253  1.00  0.00     0.041 A 
ATOM     17  C   UNL A   1      35.037  20.443  24.934  1.00  0.00     0.057 A 
ATOM     18  Br  UNL A   1      32.260  20.919  24.997  1.00  0.00    -0.048 Br
ATOM     19  C   UNL A   1      36.381  20.761  25.028  1.00  0.00     0.124 A 
ATOM     20  F   UNL A   1      37.298  19.791  24.924  1.00  0.00    -0.207 F 
ENDBRANCH  11  13
ENDBRANCH   9  11
ENDBRANCH   7   9
ENDBRANCH   4   7
ENDBRANCH   2   3
ENDBRANCH   1   2
BRANCH   1  21
ATOM     21  C   UNL A   1      33.908  28.787  26.192  1.00  0.00     0.118 C 
BRANCH  21  22
ATOM     22  N   UNL A   1      33.729  30.076  26.847  1.00  0.00    -0.352 N 
ATOM     23  C   UNL A   1      34.490  30.697  27.804  1.00  0.00     0.251 C 
ATOM     24  H   UNL A   1      32.937  30.582  26.556  1.00  0.00     0.163 HD
ATOM     25  O   UNL A   1      34.036  31.686  28.383  1.00  0.00    -0.269 OA
BRANCH  23  26
ATOM     26  C   UNL A   1      35.832  30.185  28.157  1.00  0.00     0.039 A 
ATOM     27  C   UNL A   1      36.855  30.253  27.208  1.00  0.00     0.014 A 
ATOM     28  C   UNL A   1      36.079  29.612  29.406  1.00  0.00     0.014 A 
ATOM     29  C   UNL A   1      38.140  29.813  27.537  1.00  0.00     0.010 A 
ATOM     30  C   UNL A   1      37.377  29.255  29.763  1.00  0.00     0.010 A 
ATOM     31  C   UNL A   1      38.421  29.348  28.831  1.00  0.00    -0.014 A 
BRANCH  31  32
ATOM     32  C   UNL A   1      39.798  28.959  29.233  1.00  0.00     0.031 A 
ATOM     33  C   UNL A   1      40.693  29.950  29.931  1.00  0.00     0.074 A 
ATOM     34  C   UNL A   1      40.266  27.737  28.908  1.00  0.00     0.049 A 
ATOM     35  N   UNL A   1      41.945  29.819  30.288  1.00  0.00    -0.248 NA
ATOM     36  C   UNL A   1      40.116  31.269  30.243  1.00  0.00     0.031 C 
ATOM     37  C   UNL A   1      39.513  26.703  28.194  1.00  0.00     0.029 A 
ATOM     38  N   UNL A   1      41.492  27.160  29.125  1.00  0.00    -0.354 N 
ATOM     39  C   UNL A   1      42.310  31.039  30.846  1.00  0.00     0.074 A 
ATOM     40  C   UNL A   1      41.163  31.914  30.741  1.00  0.00     0.031 C 
ATOM     41  C   UNL A   1      40.285  25.614  28.052  1.00  0.00     0.029 A 
ATOM     42  C   UNL A   1      41.602  25.884  28.621  1.00  0.00     0.049 A 
ATOM     43  H   UNL A   1      42.227  27.616  29.597  1.00  0.00     0.167 HD
ATOM     44  C   UNL A   1      43.489  31.393  31.411  1.00  0.00     0.031 A 
ATOM     45  C   UNL A   1      42.645  25.032  28.604  1.00  0.00     0.031 A 
ATOM     46  C   UNL A   1      44.620  30.514  31.533  1.00  0.00     0.049 A 
ATOM     47  C   UNL A   1      43.945  25.454  29.234  1.00  0.00     0.074 A 
ATOM     48  C   UNL A   1      45.835  30.759  32.151  1.00  0.00     0.029 A 
ATOM     49  N   UNL A   1      44.682  29.224  31.029  1.00  0.00    -0.354 N 
ATOM     50  N   UNL A   1      44.243  26.587  29.825  1.00  0.00    -0.248 NA
ATOM     51  C   UNL A   1      45.045  24.480  29.205  1.00  0.00     0.031 C 
ATOM     52  C   UNL A   1      46.652  29.639  31.968  1.00  0.00     0.029 A 
ATOM     53  C   UNL A   1      45.923  28.673  31.296  1.00  0.00     0.049 A 
ATOM     54  H   UNL A   1      43.951  28.769  30.551  1.00  0.00     0.167 HD
ATOM     55  C   UNL A   1      45.556  26.449  30.264  1.00  0.00     0.074 A 
ATOM     56  C   UNL A   1      45.986  25.119  29.888  1.00  0.00     0.031 C 
ATOM     57  C   UNL A   1      46.335  27.343  30.920  1.00  0.00     0.031 A 
BRANCH  44  58
ATOM     58  C   UNL A   1      43.624  32.796  31.944  1.00  0.00    -0.014 A 
ATOM     59  C   UNL A   1      44.127  33.835  31.140  1.00  0.00     0.010 A 
ATOM     60  C   UNL A   1      43.167  33.096  33.240  1.00  0.00     0.010 A 
ATOM     61  C   UNL A   1      44.194  35.141  31.631  1.00  0.00     0.020 A 
ATOM     62  C   UNL A   1      43.205  34.406  33.726  1.00  0.00     0.020 A 
ATOM     63  C   UNL A   1      43.728  35.420  32.920  1.00  0.00     0.054 A 
BRANCH  63  64
ATOM     64  S   UNL A   1      43.776  37.135  33.509  1.00  0.00     0.124 S 
ATOM     65  O   UNL A   1      43.742  37.884  32.255  1.00  0.00    -0.237 OA
ATOM     66  O   UNL A   1      42.569  37.225  34.326  1.00  0.00    -0.237 OA
ATOM     67  O   UNL A   1      45.034  37.215  34.248  1.00  0.00    -0.744 OA
ENDBRANCH  63  64
ENDBRANCH  44  58
BRANCH  45  68
ATOM     68  C   UNL A   1      42.511  23.694  27.961  1.00  0.00    -0.014 A 
ATOM     69  C   UNL A   1      41.987  22.603  28.676  1.00  0.00     0.010 A 
ATOM     70  C   UNL A   1      42.924  23.503  26.629  1.00  0.00     0.010 A 
ATOM     71  C   UNL A   1      41.909  21.339  28.084  1.00  0.00     0.020 A 
ATOM     72  C   UNL A   1      42.818  22.248  26.024  1.00  0.00     0.020 A 
ATOM     73  C   UNL A   1      42.328  21.169  26.762  1.00  0.00     0.054 A 
BRANCH  73  74
ATOM     74  S   UNL A   1      42.197  19.525  26.005  1.00  0.00     0.124 S 
ATOM     75  O   UNL A   1      40.766  19.429  25.736  1.00  0.00    -0.237 OA
ATOM     76  O   UNL A   1      43.057  19.649  24.831  1.00  0.00    -0.237 OA
ATOM     77  O   UNL A   1      42.701  18.630  27.045  1.00  0.00    -0.744 OA
ENDBRANCH  73  74
ENDBRANCH  45  68
BRANCH  57  78
ATOM     78  C   UNL A   1      47.721  26.904  31.311  1.00  0.00    -0.014 A 
ATOM     79  C   UNL A   1      48.846  27.263  30.547  1.00  0.00     0.010 A 
ATOM     80  C   UNL A   1      47.904  26.170  32.498  1.00  0.00     0.010 A 
ATOM     81  C   UNL A   1      50.125  26.868  30.945  1.00  0.00     0.020 A 
ATOM     82  C   UNL A   1      49.184  25.800  32.916  1.00  0.00     0.020 A 
ATOM     83  C   UNL A   1      50.286  26.140  32.129  1.00  0.00     0.054 A 
BRANCH  83  84
ATOM     84  S   UNL A   1      51.962  25.680  32.649  1.00  0.00     0.124 S 
ATOM     85  O   UNL A   1      52.423  26.901  33.303  1.00  0.00    -0.237 OA
ATOM     86  O   UNL A   1      51.720  24.544  33.536  1.00  0.00    -0.237 OA
ATOM     87  O   UNL A   1      52.637  25.352  31.395  1.00  0.00    -0.744 OA
ENDBRANCH  83  84
ENDBRANCH  57  78
ENDBRANCH  31  32
ENDBRANCH  23  26
ENDBRANCH  21  22
ENDBRANCH   1  21
TORSDOF 16
ENDMDL
MODEL 3
REMARK VINA RESULT:     -10.6      3.451      9.749
REMARK SMILES C[C@H](Nc1ccc(F)cc1Br)[C@@H](C)C(=O)NCCCNC(=O)c1ccc(-c2c3nc(c(-c4ccc(S(=O)(=O)[O-])cc4)c4ccc([nH]4)c(-c4ccc(S(=O)(=O)[O-])cc4)c4nc(c(-c5ccc(S(=O)(=O)[O-])cc5)c5ccc2[nH]5)C=C4)C=C3)cc1
REMARK SMILES IDX 18 1 17 2 16 3 14 4 15 5 12 7 13 8 2 9 1 10 3 11 4 13 5 14
REMARK SMILES IDX 10 15 6 16 9 17 11 18 7 19 8 20 19 21 20 22 21 23 22 25
REMARK SMILES IDX 23 26 24 27 82 28 25 29 81 30 26 31 27 32 28 33 75 34 29 35
REMARK SMILES IDX 80 36 74 37 76 38 30 39 79 40 73 41 72 42 31 44 61 45 42 46
REMARK SMILES IDX 60 47 43 48 46 49 59 50 77 51 44 52 45 53 58 55 78 56 47 57
REMARK SMILES IDX 32 58 33 59 41 60 34 61 40 62 35 63 36 64 37 65 38 66 39 67
REMARK SMILES IDX 62 68 63 69 71 70 64 71 70 72 65 73 66 74 67 75 68 76 69 77
REMARK SMILES IDX 48 78 49 79 57 80 50 81 56 82 51 83 52 84 53 85 54 86 55 87
REMARK H PARENT 16 6 3 12 20 24 76 43 46 54
REMARK Flexibility Score: inf
ROOT
ATOM      1  C   UNL A   1      35.316  22.916  26.625  1.00  0.00     0.042 C 
ENDROOT
BRANCH   1   2
ATOM      2  C   UNL A   1      34.060  22.820  25.767  1.00  0.00     0.117 C 
BRANCH   2   3
ATOM      3  N   UNL A   1      32.944  23.564  26.327  1.00  0.00    -0.356 N 
ATOM      4  C   UNL A   1      32.509  24.838  26.132  1.00  0.00     0.224 C 
ATOM      5  O   UNL A   1      31.505  25.192  26.757  1.00  0.00    -0.275 OA
ATOM      6  H   UNL A   1      32.401  23.051  26.969  1.00  0.00     0.163 HD
BRANCH   4   7
ATOM      7  C   UNL A   1      33.195  25.805  25.170  1.00  0.00     0.097 C 
ATOM      8  C   UNL A   1      33.947  26.859  25.987  1.00  0.00     0.020 C 
BRANCH   7   9
ATOM      9  C   UNL A   1      32.240  26.338  24.072  1.00  0.00     0.088 C 
ATOM     10  C   UNL A   1      33.017  27.108  23.000  1.00  0.00     0.031 C 
BRANCH   9  11
ATOM     11  N   UNL A   1      31.100  27.072  24.663  1.00  0.00    -0.381 N 
ATOM     12  H   UNL A   1      30.869  26.824  25.587  1.00  0.00     0.160 HD
BRANCH  11  13
ATOM     13  C   UNL A   1      30.312  28.060  24.094  1.00  0.00     0.049 A 
ATOM     14  C   UNL A   1      29.227  27.758  23.260  1.00  0.00     0.030 A 
ATOM     15  C   UNL A   1      30.560  29.431  24.335  1.00  0.00     0.044 A 
ATOM     16  C   UNL A   1      28.462  28.756  22.648  1.00  0.00     0.041 A 
ATOM     17  C   UNL A   1      29.809  30.437  23.719  1.00  0.00     0.057 A 
ATOM     18  Br  UNL A   1      31.905  30.005  25.552  1.00  0.00    -0.048 Br
ATOM     19  C   UNL A   1      28.772  30.086  22.872  1.00  0.00     0.124 A 
ATOM     20  F   UNL A   1      28.047  31.044  22.282  1.00  0.00    -0.207 F 
ENDBRANCH  11  13
ENDBRANCH   9  11
ENDBRANCH   7   9
ENDBRANCH   4   7
ENDBRANCH   2   3
ENDBRANCH   1   2
BRANCH   1  21
ATOM     21  C   UNL A   1      36.517  23.506  25.898  1.00  0.00     0.118 C 
BRANCH  21  22
ATOM     22  N   UNL A   1      37.692  22.648  25.980  1.00  0.00    -0.352 N 
ATOM     23  C   UNL A   1      38.981  22.943  26.341  1.00  0.00     0.251 C 
ATOM     24  H   UNL A   1      37.534  21.707  25.739  1.00  0.00     0.163 HD
ATOM     25  O   UNL A   1      39.868  22.115  26.127  1.00  0.00    -0.269 OA
BRANCH  23  26
ATOM     26  C   UNL A   1      39.317  24.241  26.964  1.00  0.00     0.039 A 
ATOM     27  C   UNL A   1      38.903  24.492  28.275  1.00  0.00     0.014 A 
ATOM     28  C   UNL A   1      40.012  25.223  26.255  1.00  0.00     0.014 A 
ATOM     29  C   UNL A   1      39.247  25.696  28.895  1.00  0.00     0.010 A 
ATOM     30  C   UNL A   1      40.429  26.385  26.901  1.00  0.00     0.010 A 
ATOM     31  C   UNL A   1      40.048  26.636  28.227  1.00  0.00    -0.014 A 
BRANCH  31  32
ATOM     32  C   UNL A   1      40.502  27.882  28.896  1.00  0.00     0.031 A 
ATOM     33  C   UNL A   1      41.865  27.947  29.534  1.00  0.00     0.074 A 
ATOM     34  C   UNL A   1      39.661  28.932  28.988  1.00  0.00     0.049 A 
ATOM     35  N   UNL A   1      42.404  28.918  30.227  1.00  0.00    -0.248 NA
ATOM     36  C   UNL A   1      42.724  26.758  29.402  1.00  0.00     0.031 C 
ATOM     37  C   UNL A   1      38.299  28.978  28.450  1.00  0.00     0.029 A 
ATOM     38  N   UNL A   1      39.822  30.160  29.580  1.00  0.00    -0.354 N 
ATOM     39  C   UNL A   1      43.651  28.451  30.628  1.00  0.00     0.074 A 
ATOM     40  C   UNL A   1      43.773  27.095  30.141  1.00  0.00     0.031 C 
ATOM     41  C   UNL A   1      37.759  30.178  28.717  1.00  0.00     0.029 A 
ATOM     42  C   UNL A   1      38.715  30.971  29.484  1.00  0.00     0.049 A 
ATOM     43  H   UNL A   1      40.653  30.436  30.031  1.00  0.00     0.167 HD
ATOM     44  C   UNL A   1      44.614  29.100  31.325  1.00  0.00     0.031 A 
ATOM     45  C   UNL A   1      38.485  32.207  29.970  1.00  0.00     0.031 A 
ATOM     46  C   UNL A   1      44.498  30.456  31.789  1.00  0.00     0.049 A 
ATOM     47  C   UNL A   1      39.572  32.902  30.744  1.00  0.00     0.074 A 
ATOM     48  C   UNL A   1      45.447  31.223  32.444  1.00  0.00     0.029 A 
ATOM     49  N   UNL A   1      43.369  31.249  31.653  1.00  0.00    -0.354 N 
ATOM     50  N   UNL A   1      40.773  32.469  31.046  1.00  0.00    -0.248 NA
ATOM     51  C   UNL A   1      39.277  34.255  31.235  1.00  0.00     0.031 C 
ATOM     52  C   UNL A   1      44.871  32.458  32.755  1.00  0.00     0.029 A 
ATOM     53  C   UNL A   1      43.587  32.484  32.236  1.00  0.00     0.049 A 
ATOM     54  H   UNL A   1      42.535  30.972  31.207  1.00  0.00     0.167 HD
ATOM     55  C   UNL A   1      41.386  33.510  31.737  1.00  0.00     0.074 A 
ATOM     56  C   UNL A   1      40.432  34.596  31.791  1.00  0.00     0.031 C 
ATOM     57  C   UNL A   1      42.628  33.560  32.277  1.00  0.00     0.031 A 
BRANCH  44  58
ATOM     58  C   UNL A   1      45.887  28.354  31.633  1.00  0.00    -0.014 A 
ATOM     59  C   UNL A   1      46.992  28.411  30.765  1.00  0.00     0.010 A 
ATOM     60  C   UNL A   1      46.005  27.651  32.846  1.00  0.00     0.010 A 
ATOM     61  C   UNL A   1      48.183  27.759  31.092  1.00  0.00     0.020 A 
ATOM     62  C   UNL A   1      47.205  27.021  33.191  1.00  0.00     0.020 A 
ATOM     63  C   UNL A   1      48.284  27.070  32.306  1.00  0.00     0.054 A 
BRANCH  63  64
ATOM     64  S   UNL A   1      49.861  26.281  32.728  1.00  0.00     0.124 S 
ATOM     65  O   UNL A   1      50.826  27.301  32.322  1.00  0.00    -0.237 OA
ATOM     66  O   UNL A   1      49.738  26.072  34.169  1.00  0.00    -0.237 OA
ATOM     67  O   UNL A   1      49.868  25.062  31.922  1.00  0.00    -0.744 OA
ENDBRANCH  63  64
ENDBRANCH  44  58
BRANCH  45  68
ATOM     68  C   UNL A   1      37.168  32.868  29.746  1.00  0.00    -0.014 A 
ATOM     69  C   UNL A   1      36.892  33.528  28.536  1.00  0.00     0.010 A 
ATOM     70  C   UNL A   1      36.187  32.853  30.755  1.00  0.00     0.010 A 
ATOM     71  C   UNL A   1      35.674  34.189  28.351  1.00  0.00     0.020 A 
ATOM     72  C   UNL A   1      34.956  33.486  30.561  1.00  0.00     0.020 A 
ATOM     73  C   UNL A   1      34.715  34.166  29.366  1.00  0.00     0.054 A 
BRANCH  73  74
ATOM     74  S   UNL A   1      33.132  35.011  29.096  1.00  0.00     0.124 S 
ATOM     75  O   UNL A   1      33.565  36.320  28.621  1.00  0.00    -0.237 OA
ATOM     76  O   UNL A   1      32.484  34.157  28.104  1.00  0.00    -0.237 OA
ATOM     77  O   UNL A   1      32.509  34.999  30.418  1.00  0.00    -0.744 OA
ENDBRANCH  73  74
ENDBRANCH  45  68
BRANCH  57  78
ATOM     78  C   UNL A   1      43.047  34.845  32.940  1.00  0.00    -0.014 A 
ATOM     79  C   UNL A   1      42.827  35.067  34.311  1.00  0.00     0.010 A 
ATOM     80  C   UNL A   1      43.727  35.822  32.188  1.00  0.00     0.010 A 
ATOM     81  C   UNL A   1      43.250  36.255  34.911  1.00  0.00     0.020 A 
ATOM     82  C   UNL A   1      44.179  36.997  32.791  1.00  0.00     0.020 A 
ATOM     83  C   UNL A   1      43.925  37.213  34.147  1.00  0.00     0.054 A 
BRANCH  83  84
ATOM     84  S   UNL A   1      44.506  38.727  34.959  1.00  0.00     0.124 S 
ATOM     85  O   UNL A   1      43.616  39.736  34.393  1.00  0.00    -0.237 OA
ATOM     86  O   UNL A   1      44.298  38.429  36.375  1.00  0.00    -0.237 OA
ATOM     87  O   UNL A   1      45.904  38.828  34.548  1.00  0.00    -0.744 OA
ENDBRANCH  83  84
ENDBRANCH  57  78
ENDBRANCH  31  32
ENDBRANCH  23  26
ENDBRANCH  21  22
ENDBRANCH   1  21
TORSDOF 16
ENDMDL
