MODEL 1
REMARK VINA RESULT:     -11.7      0.000      0.000
REMARK SMILES CS(=O)(=O)c1ccc(C(=O)N[C@@H](CC(=O)NCCCNC(=O)c2ccc(-c3c4nc(c(-c5ccc(S(=O)(=O)[O-])cc5)c5ccc([nH]5)c(-c5ccc(S(=O)(=O)[O-])cc5)c5nc(c(-c6ccc(S(=O)(=O)[O-])cc6)c6ccc3[nH]6)C=C5)C=C4)cc2)c2ccccc2)cc1
REMARK SMILES IDX 17 1 16 2 14 3 15 4 13 6 12 7 11 8 9 9 10 10 8 12 5 13 6 14
REMARK SMILES IDX 90 15 7 16 89 17 2 18 1 19 3 20 4 21 83 22 84 23 88 24 85 25
REMARK SMILES IDX 87 26 86 27 18 28 19 29 20 30 21 31 22 33 23 34 24 35 82 36
REMARK SMILES IDX 25 37 81 38 26 39 27 40 28 41 75 42 29 43 80 44 74 45 76 46
REMARK SMILES IDX 30 47 79 48 73 49 72 50 31 52 61 53 42 54 60 55 43 56 46 57
REMARK SMILES IDX 59 58 77 59 44 60 45 61 58 63 78 64 47 65 32 66 33 67 41 68
REMARK SMILES IDX 34 69 40 70 35 71 36 72 37 73 38 74 39 75 62 76 63 77 71 78
REMARK SMILES IDX 64 79 70 80 65 81 66 82 67 83 68 84 69 85 48 86 49 87 57 88
REMARK SMILES IDX 50 89 56 90 51 91 52 92 53 93 54 94 55 95
REMARK H PARENT 16 5 11 11 20 32 76 51 46 62
REMARK Flexibility Score: inf
ROOT
ATOM      1  C   UNL A   1      32.966  27.245  24.946  1.00  0.00     0.117 C 
ENDROOT
BRANCH   1   2
ATOM      2  N   UNL A   1      33.499  27.086  23.605  1.00  0.00    -0.356 N 
ATOM      3  C   UNL A   1      33.269  26.133  22.665  1.00  0.00     0.222 C 
ATOM      4  O   UNL A   1      33.809  26.283  21.566  1.00  0.00    -0.275 OA
ATOM      5  H   UNL A   1      34.134  27.787  23.330  1.00  0.00     0.163 HD
BRANCH   3   6
ATOM      6  C   UNL A   1      32.352  24.954  22.914  1.00  0.00     0.129 C 
BRANCH   6   7
ATOM      7  C   UNL A   1      32.902  23.679  23.585  1.00  0.00     0.122 C 
BRANCH   7   8
ATOM      8  N   UNL A   1      32.022  23.188  24.635  1.00  0.00    -0.345 N 
ATOM      9  C   UNL A   1      31.580  21.952  25.023  1.00  0.00     0.251 C 
ATOM     10  O   UNL A   1      30.518  21.901  25.645  1.00  0.00    -0.269 OA
ATOM     11  H   UNL A   1      31.661  23.912  25.196  1.00  0.00     0.164 HD
BRANCH   9  12
ATOM     12  C   UNL A   1      32.380  20.706  24.877  1.00  0.00     0.039 A 
ATOM     13  C   UNL A   1      33.450  18.149  24.499  1.00  0.00     0.067 A 
ATOM     14  C   UNL A   1      32.817  18.782  23.434  1.00  0.00     0.021 A 
ATOM     15  C   UNL A   1      33.617  18.803  25.721  1.00  0.00     0.021 A 
ATOM     16  C   UNL A   1      32.281  20.056  23.630  1.00  0.00     0.015 A 
ATOM     17  C   UNL A   1      33.125  20.099  25.888  1.00  0.00     0.015 A 
BRANCH  13  18
ATOM     18  S   UNL A   1      34.032  16.481  24.343  1.00  0.00     0.175 S 
ATOM     19  C   UNL A   1      32.764  15.537  25.142  1.00  0.00     0.163 C 
ATOM     20  O   UNL A   1      35.242  16.346  25.127  1.00  0.00    -0.224 OA
ATOM     21  O   UNL A   1      34.008  16.159  22.927  1.00  0.00    -0.224 OA
ENDBRANCH  13  18
ENDBRANCH   9  12
ENDBRANCH   7   8
BRANCH   7  22
ATOM     22  C   UNL A   1      34.349  23.616  24.040  1.00  0.00    -0.025 A 
ATOM     23  C   UNL A   1      34.820  24.067  25.278  1.00  0.00     0.006 A 
ATOM     24  C   UNL A   1      35.280  23.015  23.166  1.00  0.00     0.006 A 
ATOM     25  C   UNL A   1      36.179  23.985  25.601  1.00  0.00     0.000 A 
ATOM     26  C   UNL A   1      36.633  22.925  23.491  1.00  0.00     0.000 A 
ATOM     27  C   UNL A   1      37.085  23.423  24.707  1.00  0.00     0.000 A 
ENDBRANCH   7  22
ENDBRANCH   6   7
ENDBRANCH   3   6
ENDBRANCH   1   2
BRANCH   1  28
ATOM     28  C   UNL A   1      34.003  27.819  25.905  1.00  0.00     0.042 C 
BRANCH  28  29
ATOM     29  C   UNL A   1      33.457  28.241  27.258  1.00  0.00     0.118 C 
BRANCH  29  30
ATOM     30  N   UNL A   1      33.370  29.682  27.405  1.00  0.00    -0.352 N 
ATOM     31  C   UNL A   1      34.267  30.571  27.947  1.00  0.00     0.251 C 
ATOM     32  H   UNL A   1      32.540  30.086  27.064  1.00  0.00     0.163 HD
ATOM     33  O   UNL A   1      33.902  31.724  28.170  1.00  0.00    -0.269 OA
BRANCH  31  34
ATOM     34  C   UNL A   1      35.652  30.157  28.278  1.00  0.00     0.039 A 
ATOM     35  C   UNL A   1      36.627  30.205  27.277  1.00  0.00     0.014 A 
ATOM     36  C   UNL A   1      35.991  29.681  29.547  1.00  0.00     0.014 A 
ATOM     37  C   UNL A   1      37.945  29.837  27.566  1.00  0.00     0.010 A 
ATOM     38  C   UNL A   1      37.321  29.413  29.861  1.00  0.00     0.010 A 
ATOM     39  C   UNL A   1      38.312  29.470  28.871  1.00  0.00    -0.014 A 
BRANCH  39  40
ATOM     40  C   UNL A   1      39.715  29.120  29.218  1.00  0.00     0.031 A 
ATOM     41  C   UNL A   1      40.612  30.145  29.865  1.00  0.00     0.074 A 
ATOM     42  C   UNL A   1      40.204  27.906  28.896  1.00  0.00     0.049 A 
ATOM     43  N   UNL A   1      41.882  30.058  30.168  1.00  0.00    -0.248 NA
ATOM     44  C   UNL A   1      40.008  31.448  30.192  1.00  0.00     0.031 C 
ATOM     45  C   UNL A   1      39.450  26.835  28.238  1.00  0.00     0.029 A 
ATOM     46  N   UNL A   1      41.455  27.368  29.071  1.00  0.00    -0.354 N 
ATOM     47  C   UNL A   1      42.232  31.294  30.698  1.00  0.00     0.074 A 
ATOM     48  C   UNL A   1      41.057  32.132  30.626  1.00  0.00     0.031 C 
ATOM     49  C   UNL A   1      40.246  25.764  28.089  1.00  0.00     0.029 A 
ATOM     50  C   UNL A   1      41.577  26.084  28.593  1.00  0.00     0.049 A 
ATOM     51  H   UNL A   1      42.196  27.855  29.500  1.00  0.00     0.167 HD
ATOM     52  C   UNL A   1      43.418  31.692  31.217  1.00  0.00     0.031 A 
ATOM     53  C   UNL A   1      42.643  25.260  28.549  1.00  0.00     0.031 A 
ATOM     54  C   UNL A   1      44.584  30.852  31.297  1.00  0.00     0.049 A 
ATOM     55  C   UNL A   1      43.959  25.732  29.109  1.00  0.00     0.074 A 
ATOM     56  C   UNL A   1      45.817  31.142  31.853  1.00  0.00     0.029 A 
ATOM     57  N   UNL A   1      44.661  29.556  30.807  1.00  0.00    -0.354 N 
ATOM     58  N   UNL A   1      44.251  26.886  29.662  1.00  0.00    -0.248 NA
ATOM     59  C   UNL A   1      45.084  24.789  29.047  1.00  0.00     0.031 C 
ATOM     60  C   UNL A   1      46.660  30.048  31.644  1.00  0.00     0.029 A 
ATOM     61  C   UNL A   1      45.931  29.046  31.021  1.00  0.00     0.049 A 
ATOM     62  H   UNL A   1      43.924  29.072  30.370  1.00  0.00     0.167 HD
ATOM     63  C   UNL A   1      45.586  26.794  30.042  1.00  0.00     0.074 A 
ATOM     64  C   UNL A   1      46.038  25.470  29.668  1.00  0.00     0.031 C 
ATOM     65  C   UNL A   1      46.366  27.724  30.647  1.00  0.00     0.031 A 
BRANCH  52  66
ATOM     66  C   UNL A   1      43.517  33.105  31.736  1.00  0.00    -0.014 A 
ATOM     67  C   UNL A   1      43.205  33.416  33.071  1.00  0.00     0.010 A 
ATOM     68  C   UNL A   1      43.971  34.130  30.886  1.00  0.00     0.010 A 
ATOM     69  C   UNL A   1      43.301  34.730  33.535  1.00  0.00     0.020 A 
ATOM     70  C   UNL A   1      44.101  35.442  31.354  1.00  0.00     0.020 A 
ATOM     71  C   UNL A   1      43.748  35.736  32.671  1.00  0.00     0.054 A 
BRANCH  71  72
ATOM     72  S   UNL A   1      43.884  37.429  33.309  1.00  0.00     0.124 S 
ATOM     73  O   UNL A   1      45.192  37.402  33.958  1.00  0.00    -0.237 OA
ATOM     74  O   UNL A   1      43.804  38.235  32.093  1.00  0.00    -0.237 OA
ATOM     75  O   UNL A   1      42.744  37.553  34.213  1.00  0.00    -0.744 OA
ENDBRANCH  71  72
ENDBRANCH  52  66
BRANCH  53  76
ATOM     76  C   UNL A   1      42.509  23.901  27.953  1.00  0.00    -0.014 A 
ATOM     77  C   UNL A   1      42.149  22.801  28.752  1.00  0.00     0.010 A 
ATOM     78  C   UNL A   1      42.732  23.700  26.578  1.00  0.00     0.010 A 
ATOM     79  C   UNL A   1      42.034  21.524  28.192  1.00  0.00     0.020 A 
ATOM     80  C   UNL A   1      42.587  22.433  26.009  1.00  0.00     0.020 A 
ATOM     81  C   UNL A   1      42.251  21.349  26.822  1.00  0.00     0.054 A 
BRANCH  81  82
ATOM     82  S   UNL A   1      42.051  19.693  26.111  1.00  0.00     0.124 S 
ATOM     83  O   UNL A   1      42.940  19.749  24.954  1.00  0.00    -0.237 OA
ATOM     84  O   UNL A   1      42.488  18.827  27.203  1.00  0.00    -0.237 OA
ATOM     85  O   UNL A   1      40.625  19.622  25.802  1.00  0.00    -0.744 OA
ENDBRANCH  81  82
ENDBRANCH  53  76
BRANCH  65  86
ATOM     86  C   UNL A   1      47.781  27.335  30.986  1.00  0.00    -0.014 A 
ATOM     87  C   UNL A   1      48.853  27.653  30.134  1.00  0.00     0.010 A 
ATOM     88  C   UNL A   1      48.048  26.703  32.216  1.00  0.00     0.010 A 
ATOM     89  C   UNL A   1      50.163  27.326  30.495  1.00  0.00     0.020 A 
ATOM     90  C   UNL A   1      49.358  26.402  32.593  1.00  0.00     0.020 A 
ATOM     91  C   UNL A   1      50.408  26.707  31.725  1.00  0.00     0.054 A 
BRANCH  91  92
ATOM     92  S   UNL A   1      52.122  26.348  32.195  1.00  0.00     0.124 S 
ATOM     93  O   UNL A   1      52.309  25.001  31.663  1.00  0.00    -0.237 OA
ATOM     94  O   UNL A   1      52.867  27.403  31.511  1.00  0.00    -0.237 OA
ATOM     95  O   UNL A   1      52.112  26.447  33.653  1.00  0.00    -0.744 OA
ENDBRANCH  91  92
ENDBRANCH  65  86
ENDBRANCH  39  40
ENDBRANCH  31  34
ENDBRANCH  29  30
ENDBRANCH  28  29
ENDBRANCH   1  28
TORSDOF 18
ENDMDL
MODEL 2
REMARK VINA RESULT:     -11.6      3.030      3.674
REMARK SMILES CS(=O)(=O)c1ccc(C(=O)N[C@@H](CC(=O)NCCCNC(=O)c2ccc(-c3c4nc(c(-c5ccc(S(=O)(=O)[O-])cc5)c5ccc([nH]5)c(-c5ccc(S(=O)(=O)[O-])cc5)c5nc(c(-c6ccc(S(=O)(=O)[O-])cc6)c6ccc3[nH]6)C=C5)C=C4)cc2)c2ccccc2)cc1
REMARK SMILES IDX 17 1 16 2 14 3 15 4 13 6 12 7 11 8 9 9 10 10 8 12 5 13 6 14
REMARK SMILES IDX 90 15 7 16 89 17 2 18 1 19 3 20 4 21 83 22 84 23 88 24 85 25
REMARK SMILES IDX 87 26 86 27 18 28 19 29 20 30 21 31 22 33 23 34 24 35 82 36
REMARK SMILES IDX 25 37 81 38 26 39 27 40 28 41 75 42 29 43 80 44 74 45 76 46
REMARK SMILES IDX 30 47 79 48 73 49 72 50 31 52 61 53 42 54 60 55 43 56 46 57
REMARK SMILES IDX 59 58 77 59 44 60 45 61 58 63 78 64 47 65 32 66 33 67 41 68
REMARK SMILES IDX 34 69 40 70 35 71 36 72 37 73 38 74 39 75 62 76 63 77 71 78
REMARK SMILES IDX 64 79 70 80 65 81 66 82 67 83 68 84 69 85 48 86 49 87 57 88
REMARK SMILES IDX 50 89 56 90 51 91 52 92 53 93 54 94 55 95
REMARK H PARENT 16 5 11 11 20 32 76 51 46 62
REMARK Flexibility Score: inf
ROOT
ATOM      1  C   UNL A   1      33.597  29.274  25.588  1.00  0.00     0.117 C 
ENDROOT
BRANCH   1   2
ATOM      2  N   UNL A   1      32.435  28.540  25.120  1.00  0.00    -0.356 N 
ATOM      3  C   UNL A   1      32.338  27.350  24.473  1.00  0.00     0.222 C 
ATOM      4  O   UNL A   1      31.203  26.918  24.253  1.00  0.00    -0.275 OA
ATOM      5  H   UNL A   1      31.572  28.978  25.303  1.00  0.00     0.163 HD
BRANCH   3   6
ATOM      6  C   UNL A   1      33.555  26.544  24.071  1.00  0.00     0.129 C 
BRANCH   6   7
ATOM      7  C   UNL A   1      33.505  25.003  24.108  1.00  0.00     0.122 C 
BRANCH   7   8
ATOM      8  N   UNL A   1      32.489  24.509  25.025  1.00  0.00    -0.345 N 
ATOM      9  C   UNL A   1      31.839  23.316  25.193  1.00  0.00     0.251 C 
ATOM     10  O   UNL A   1      30.740  23.343  25.748  1.00  0.00    -0.269 OA
ATOM     11  H   UNL A   1      32.201  25.190  25.675  1.00  0.00     0.164 HD
BRANCH   9  12
ATOM     12  C   UNL A   1      32.451  21.993  24.892  1.00  0.00     0.039 A 
ATOM     13  C   UNL A   1      33.134  19.355  24.260  1.00  0.00     0.067 A 
ATOM     14  C   UNL A   1      32.480  20.131  23.308  1.00  0.00     0.021 A 
ATOM     15  C   UNL A   1      33.514  19.901  25.488  1.00  0.00     0.021 A 
ATOM     16  C   UNL A   1      32.137  21.445  23.631  1.00  0.00     0.015 A 
ATOM     17  C   UNL A   1      33.215  21.234  25.778  1.00  0.00     0.015 A 
BRANCH  13  18
ATOM     18  S   UNL A   1      33.476  17.643  23.950  1.00  0.00     0.175 S 
ATOM     19  C   UNL A   1      32.587  16.817  25.242  1.00  0.00     0.163 C 
ATOM     20  O   UNL A   1      34.888  17.413  24.171  1.00  0.00    -0.224 OA
ATOM     21  O   UNL A   1      32.844  17.310  22.686  1.00  0.00    -0.224 OA
ENDBRANCH  13  18
ENDBRANCH   9  12
ENDBRANCH   7   8
BRANCH   7  22
ATOM     22  C   UNL A   1      34.784  24.198  24.258  1.00  0.00    -0.025 A 
ATOM     23  C   UNL A   1      35.344  23.393  23.261  1.00  0.00     0.006 A 
ATOM     24  C   UNL A   1      35.482  24.308  25.479  1.00  0.00     0.006 A 
ATOM     25  C   UNL A   1      36.519  22.670  23.499  1.00  0.00     0.000 A 
ATOM     26  C   UNL A   1      36.657  23.596  25.714  1.00  0.00     0.000 A 
ATOM     27  C   UNL A   1      37.169  22.765  24.725  1.00  0.00     0.000 A 
ENDBRANCH   7  22
ENDBRANCH   6   7
ENDBRANCH   3   6
ENDBRANCH   1   2
BRANCH   1  28
ATOM     28  C   UNL A   1      33.992  28.870  27.003  1.00  0.00     0.042 C 
BRANCH  28  29
ATOM     29  C   UNL A   1      35.350  29.378  27.458  1.00  0.00     0.118 C 
BRANCH  29  30
ATOM     30  N   UNL A   1      35.314  29.969  28.783  1.00  0.00    -0.352 N 
ATOM     31  C   UNL A   1      36.300  30.066  29.735  1.00  0.00     0.251 C 
ATOM     32  H   UNL A   1      34.448  30.360  29.040  1.00  0.00     0.163 HD
ATOM     33  O   UNL A   1      35.997  30.412  30.874  1.00  0.00    -0.269 OA
BRANCH  31  34
ATOM     34  C   UNL A   1      37.712  29.747  29.410  1.00  0.00     0.039 A 
ATOM     35  C   UNL A   1      38.571  29.359  30.443  1.00  0.00     0.014 A 
ATOM     36  C   UNL A   1      38.210  29.867  28.111  1.00  0.00     0.014 A 
ATOM     37  C   UNL A   1      39.902  29.037  30.163  1.00  0.00     0.010 A 
ATOM     38  C   UNL A   1      39.505  29.448  27.816  1.00  0.00     0.010 A 
ATOM     39  C   UNL A   1      40.372  29.044  28.840  1.00  0.00    -0.014 A 
BRANCH  39  40
ATOM     40  C   UNL A   1      41.769  28.658  28.506  1.00  0.00     0.031 A 
ATOM     41  C   UNL A   1      42.854  29.704  28.470  1.00  0.00     0.074 A 
ATOM     42  C   UNL A   1      42.053  27.382  28.174  1.00  0.00     0.049 A 
ATOM     43  N   UNL A   1      44.110  29.580  28.122  1.00  0.00    -0.248 NA
ATOM     44  C   UNL A   1      42.472  31.075  28.849  1.00  0.00     0.031 C 
ATOM     45  C   UNL A   1      41.088  26.280  28.138  1.00  0.00     0.029 A 
ATOM     46  N   UNL A   1      43.236  26.797  27.794  1.00  0.00    -0.354 N 
ATOM     47  C   UNL A   1      44.659  30.854  28.220  1.00  0.00     0.074 A 
ATOM     48  C   UNL A   1      43.589  31.745  28.606  1.00  0.00     0.031 C 
ATOM     49  C   UNL A   1      41.722  25.151  27.783  1.00  0.00     0.029 A 
ATOM     50  C   UNL A   1      43.124  25.454  27.517  1.00  0.00     0.049 A 
ATOM     51  H   UNL A   1      44.084  27.291  27.727  1.00  0.00     0.167 HD
ATOM     52  C   UNL A   1      45.941  31.244  28.027  1.00  0.00     0.031 A 
ATOM     53  C   UNL A   1      44.041  24.566  27.083  1.00  0.00     0.031 A 
ATOM     54  C   UNL A   1      47.007  30.352  27.653  1.00  0.00     0.049 A 
ATOM     55  C   UNL A   1      45.455  25.029  26.850  1.00  0.00     0.074 A 
ATOM     56  C   UNL A   1      48.349  30.639  27.485  1.00  0.00     0.029 A 
ATOM     57  N   UNL A   1      46.850  28.999  27.389  1.00  0.00    -0.354 N 
ATOM     58  N   UNL A   1      45.967  26.227  27.009  1.00  0.00    -0.248 NA
ATOM     59  C   UNL A   1      46.417  24.018  26.390  1.00  0.00     0.031 C 
ATOM     60  C   UNL A   1      48.995  29.475  27.058  1.00  0.00     0.029 A 
ATOM     61  C   UNL A   1      48.068  28.445  27.031  1.00  0.00     0.049 A 
ATOM     62  H   UNL A   1      46.000  28.506  27.448  1.00  0.00     0.167 HD
ATOM     63  C   UNL A   1      47.317  26.105  26.697  1.00  0.00     0.074 A 
ATOM     64  C   UNL A   1      47.544  24.716  26.354  1.00  0.00     0.031 C 
ATOM     65  C   UNL A   1      48.281  27.059  26.696  1.00  0.00     0.031 A 
BRANCH  52  66
ATOM     66  C   UNL A   1      46.263  32.706  28.211  1.00  0.00    -0.014 A 
ATOM     67  C   UNL A   1      46.672  33.212  29.458  1.00  0.00     0.010 A 
ATOM     68  C   UNL A   1      46.198  33.580  27.109  1.00  0.00     0.010 A 
ATOM     69  C   UNL A   1      46.965  34.570  29.611  1.00  0.00     0.020 A 
ATOM     70  C   UNL A   1      46.522  34.933  27.250  1.00  0.00     0.020 A 
ATOM     71  C   UNL A   1      46.887  35.422  28.505  1.00  0.00     0.054 A 
BRANCH  71  72
ATOM     72  S   UNL A   1      47.296  37.175  28.730  1.00  0.00     0.124 S 
ATOM     73  O   UNL A   1      47.742  37.204  30.121  1.00  0.00    -0.237 OA
ATOM     74  O   UNL A   1      48.341  37.389  27.732  1.00  0.00    -0.237 OA
ATOM     75  O   UNL A   1      46.035  37.863  28.467  1.00  0.00    -0.744 OA
ENDBRANCH  71  72
ENDBRANCH  52  66
BRANCH  53  76
ATOM     76  C   UNL A   1      43.650  23.149  26.842  1.00  0.00    -0.014 A 
ATOM     77  C   UNL A   1      43.004  22.404  27.844  1.00  0.00     0.010 A 
ATOM     78  C   UNL A   1      43.914  22.538  25.602  1.00  0.00     0.010 A 
ATOM     79  C   UNL A   1      42.648  21.070  27.618  1.00  0.00     0.020 A 
ATOM     80  C   UNL A   1      43.531  21.216  25.361  1.00  0.00     0.020 A 
ATOM     81  C   UNL A   1      42.911  20.486  26.375  1.00  0.00     0.054 A 
BRANCH  81  82
ATOM     82  S   UNL A   1      42.398  18.770  26.091  1.00  0.00     0.124 S 
ATOM     83  O   UNL A   1      42.616  18.166  27.403  1.00  0.00    -0.237 OA
ATOM     84  O   UNL A   1      41.001  18.921  25.689  1.00  0.00    -0.237 OA
ATOM     85  O   UNL A   1      43.296  18.313  25.034  1.00  0.00    -0.744 OA
ENDBRANCH  81  82
ENDBRANCH  53  76
BRANCH  65  86
ATOM     86  C   UNL A   1      49.684  26.633  26.355  1.00  0.00    -0.014 A 
ATOM     87  C   UNL A   1      50.531  26.060  27.320  1.00  0.00     0.010 A 
ATOM     88  C   UNL A   1      50.136  26.742  25.026  1.00  0.00     0.010 A 
ATOM     89  C   UNL A   1      51.812  25.626  26.967  1.00  0.00     0.020 A 
ATOM     90  C   UNL A   1      51.404  26.281  24.664  1.00  0.00     0.020 A 
ATOM     91  C   UNL A   1      52.239  25.735  25.639  1.00  0.00     0.054 A 
BRANCH  91  92
ATOM     92  S   UNL A   1      53.882  25.109  25.197  1.00  0.00     0.124 S 
ATOM     93  O   UNL A   1      53.606  23.704  24.909  1.00  0.00    -0.237 OA
ATOM     94  O   UNL A   1      54.235  25.930  24.041  1.00  0.00    -0.237 OA
ATOM     95  O   UNL A   1      54.682  25.354  26.395  1.00  0.00    -0.744 OA
ENDBRANCH  91  92
ENDBRANCH  65  86
ENDBRANCH  39  40
ENDBRANCH  31  34
ENDBRANCH  29  30
ENDBRANCH  28  29
ENDBRANCH   1  28
TORSDOF 18
ENDMDL
MODEL 3
REMARK VINA RESULT:     -11.0      4.226      9.413
REMARK SMILES CS(=O)(=O)c1ccc(C(=O)N[C@@H](CC(=O)NCCCNC(=O)c2ccc(-c3c4nc(c(-c5ccc(S(=O)(=O)[O-])cc5)c5ccc([nH]5)c(-c5ccc(S(=O)(=O)[O-])cc5)c5nc(c(-c6ccc(S(=O)(=O)[O-])cc6)c6ccc3[nH]6)C=C5)C=C4)cc2)c2ccccc2)cc1
REMARK SMILES IDX 17 1 16 2 14 3 15 4 13 6 12 7 11 8 9 9 10 10 8 12 5 13 6 14
REMARK SMILES IDX 90 15 7 16 89 17 2 18 1 19 3 20 4 21 83 22 84 23 88 24 85 25
REMARK SMILES IDX 87 26 86 27 18 28 19 29 20 30 21 31 22 33 23 34 24 35 82 36
REMARK SMILES IDX 25 37 81 38 26 39 27 40 28 41 75 42 29 43 80 44 74 45 76 46
REMARK SMILES IDX 30 47 79 48 73 49 72 50 31 52 61 53 42 54 60 55 43 56 46 57
REMARK SMILES IDX 59 58 77 59 44 60 45 61 58 63 78 64 47 65 32 66 33 67 41 68
REMARK SMILES IDX 34 69 40 70 35 71 36 72 37 73 38 74 39 75 62 76 63 77 71 78
REMARK SMILES IDX 64 79 70 80 65 81 66 82 67 83 68 84 69 85 48 86 49 87 57 88
REMARK SMILES IDX 50 89 56 90 51 91 52 92 53 93 54 94 55 95
REMARK H PARENT 16 5 11 11 20 32 76 51 46 62
REMARK Flexibility Score: inf
ROOT
ATOM      1  C   UNL A   1      31.793  30.627  26.641  1.00  0.00     0.117 C 
ENDROOT
BRANCH   1   2
ATOM      2  N   UNL A   1      31.666  30.273  25.238  1.00  0.00    -0.356 N 
ATOM      3  C   UNL A   1      32.248  29.281  24.516  1.00  0.00     0.222 C 
ATOM      4  O   UNL A   1      31.902  29.164  23.337  1.00  0.00    -0.275 OA
ATOM      5  H   UNL A   1      31.055  30.850  24.723  1.00  0.00     0.163 HD
BRANCH   3   6
ATOM      6  C   UNL A   1      33.245  28.316  25.122  1.00  0.00     0.129 C 
BRANCH   6   7
ATOM      7  C   UNL A   1      33.176  26.816  24.769  1.00  0.00     0.122 C 
BRANCH   7   8
ATOM      8  N   UNL A   1      33.143  26.591  23.332  1.00  0.00    -0.345 N 
ATOM      9  C   UNL A   1      33.583  25.596  22.501  1.00  0.00     0.251 C 
ATOM     10  O   UNL A   1      33.804  25.896  21.327  1.00  0.00    -0.269 OA
ATOM     11  H   UNL A   1      32.702  27.323  22.844  1.00  0.00     0.164 HD
BRANCH   9  12
ATOM     12  C   UNL A   1      33.654  24.163  22.894  1.00  0.00     0.039 A 
ATOM     13  C   UNL A   1      33.445  21.589  23.970  1.00  0.00     0.067 A 
ATOM     14  C   UNL A   1      32.328  22.166  23.376  1.00  0.00     0.021 A 
ATOM     15  C   UNL A   1      34.676  22.248  23.969  1.00  0.00     0.021 A 
ATOM     16  C   UNL A   1      32.436  23.453  22.845  1.00  0.00     0.015 A 
ATOM     17  C   UNL A   1      34.785  23.512  23.385  1.00  0.00     0.015 A 
BRANCH  13  18
ATOM     18  S   UNL A   1      33.329  20.013  24.775  1.00  0.00     0.175 S 
ATOM     19  C   UNL A   1      33.331  20.439  26.495  1.00  0.00     0.163 C 
ATOM     20  O   UNL A   1      34.542  19.272  24.503  1.00  0.00    -0.224 OA
ATOM     21  O   UNL A   1      32.021  19.471  24.448  1.00  0.00    -0.224 OA
ENDBRANCH  13  18
ENDBRANCH   9  12
ENDBRANCH   7   8
BRANCH   7  22
ATOM     22  C   UNL A   1      32.177  25.910  25.467  1.00  0.00    -0.025 A 
ATOM     23  C   UNL A   1      30.788  26.060  25.414  1.00  0.00     0.006 A 
ATOM     24  C   UNL A   1      32.690  24.807  26.184  1.00  0.00     0.006 A 
ATOM     25  C   UNL A   1      29.946  25.184  26.108  1.00  0.00     0.000 A 
ATOM     26  C   UNL A   1      31.851  23.929  26.868  1.00  0.00     0.000 A 
ATOM     27  C   UNL A   1      30.475  24.127  26.840  1.00  0.00     0.000 A 
ENDBRANCH   7  22
ENDBRANCH   6   7
ENDBRANCH   3   6
ENDBRANCH   1   2
BRANCH   1  28
ATOM     28  C   UNL A   1      31.634  32.125  26.866  1.00  0.00     0.042 C 
BRANCH  28  29
ATOM     29  C   UNL A   1      32.891  32.839  27.334  1.00  0.00     0.118 C 
BRANCH  29  30
ATOM     30  N   UNL A   1      32.634  34.194  27.782  1.00  0.00    -0.352 N 
ATOM     31  C   UNL A   1      33.163  34.891  28.842  1.00  0.00     0.251 C 
ATOM     32  H   UNL A   1      31.978  34.693  27.243  1.00  0.00     0.163 HD
ATOM     33  O   UNL A   1      32.646  35.955  29.173  1.00  0.00    -0.269 OA
BRANCH  31  34
ATOM     34  C   UNL A   1      34.330  34.370  29.594  1.00  0.00     0.039 A 
ATOM     35  C   UNL A   1      34.109  33.673  30.786  1.00  0.00     0.014 A 
ATOM     36  C   UNL A   1      35.639  34.596  29.162  1.00  0.00     0.014 A 
ATOM     37  C   UNL A   1      35.191  33.157  31.506  1.00  0.00     0.010 A 
ATOM     38  C   UNL A   1      36.708  33.996  29.824  1.00  0.00     0.010 A 
ATOM     39  C   UNL A   1      36.499  33.283  31.013  1.00  0.00    -0.014 A 
BRANCH  39  40
ATOM     40  C   UNL A   1      37.664  32.701  31.732  1.00  0.00     0.031 A 
ATOM     41  C   UNL A   1      38.381  31.503  31.165  1.00  0.00     0.074 A 
ATOM     42  C   UNL A   1      38.039  33.208  32.924  1.00  0.00     0.049 A 
ATOM     43  N   UNL A   1      39.361  30.806  31.681  1.00  0.00    -0.248 NA
ATOM     44  C   UNL A   1      37.920  31.006  29.857  1.00  0.00     0.031 C 
ATOM     45  C   UNL A   1      37.407  34.345  33.598  1.00  0.00     0.029 A 
ATOM     46  N   UNL A   1      39.038  32.827  33.785  1.00  0.00    -0.354 N 
ATOM     47  C   UNL A   1      39.617  29.782  30.776  1.00  0.00     0.074 A 
ATOM     48  C   UNL A   1      38.655  29.915  29.705  1.00  0.00     0.031 C 
ATOM     49  C   UNL A   1      38.049  34.584  34.753  1.00  0.00     0.029 A 
ATOM     50  C   UNL A   1      39.103  33.590  34.928  1.00  0.00     0.049 A 
ATOM     51  H   UNL A   1      39.650  32.078  33.603  1.00  0.00     0.167 HD
ATOM     52  C   UNL A   1      40.579  28.829  30.820  1.00  0.00     0.031 A 
ATOM     53  C   UNL A   1      39.909  33.494  36.005  1.00  0.00     0.031 A 
ATOM     54  C   UNL A   1      41.542  28.706  31.882  1.00  0.00     0.049 A 
ATOM     55  C   UNL A   1      40.954  32.411  36.043  1.00  0.00     0.074 A 
ATOM     56  C   UNL A   1      42.588  27.808  31.994  1.00  0.00     0.029 A 
ATOM     57  N   UNL A   1      41.576  29.504  33.017  1.00  0.00    -0.354 N 
ATOM     58  N   UNL A   1      41.219  31.490  35.147  1.00  0.00    -0.248 NA
ATOM     59  C   UNL A   1      41.814  32.360  37.234  1.00  0.00     0.031 C 
ATOM     60  C   UNL A   1      43.217  28.021  33.224  1.00  0.00     0.029 A 
ATOM     61  C   UNL A   1      42.608  29.099  33.847  1.00  0.00     0.049 A 
ATOM     62  H   UNL A   1      40.958  30.247  33.204  1.00  0.00     0.167 HD
ATOM     63  C   UNL A   1      42.297  30.770  35.652  1.00  0.00     0.074 A 
ATOM     64  C   UNL A   1      42.642  31.371  36.925  1.00  0.00     0.031 C 
ATOM     65  C   UNL A   1      42.943  29.708  35.110  1.00  0.00     0.031 A 
BRANCH  52  66
ATOM     66  C   UNL A   1      40.633  27.836  29.686  1.00  0.00    -0.014 A 
ATOM     67  C   UNL A   1      41.658  27.882  28.725  1.00  0.00     0.010 A 
ATOM     68  C   UNL A   1      39.668  26.815  29.605  1.00  0.00     0.010 A 
ATOM     69  C   UNL A   1      41.693  26.955  27.679  1.00  0.00     0.020 A 
ATOM     70  C   UNL A   1      39.718  25.865  28.580  1.00  0.00     0.020 A 
ATOM     71  C   UNL A   1      40.720  25.952  27.613  1.00  0.00     0.054 A 
BRANCH  71  72
ATOM     72  S   UNL A   1      40.805  24.750  26.258  1.00  0.00     0.124 S 
ATOM     73  O   UNL A   1      41.113  25.607  25.115  1.00  0.00    -0.237 OA
ATOM     74  O   UNL A   1      41.884  23.863  26.685  1.00  0.00    -0.237 OA
ATOM     75  O   UNL A   1      39.474  24.149  26.243  1.00  0.00    -0.744 OA
ENDBRANCH  71  72
ENDBRANCH  52  66
BRANCH  53  76
ATOM     76  C   UNL A   1      39.760  34.454  37.134  1.00  0.00    -0.014 A 
ATOM     77  C   UNL A   1      40.273  35.760  37.037  1.00  0.00     0.010 A 
ATOM     78  C   UNL A   1      39.094  34.070  38.313  1.00  0.00     0.010 A 
ATOM     79  C   UNL A   1      40.141  36.655  38.104  1.00  0.00     0.020 A 
ATOM     80  C   UNL A   1      38.931  34.972  39.368  1.00  0.00     0.020 A 
ATOM     81  C   UNL A   1      39.467  36.256  39.262  1.00  0.00     0.054 A 
BRANCH  81  82
ATOM     82  S   UNL A   1      39.268  37.450  40.612  1.00  0.00     0.124 S 
ATOM     83  O   UNL A   1      40.628  37.958  40.771  1.00  0.00    -0.237 OA
ATOM     84  O   UNL A   1      38.301  38.394  40.057  1.00  0.00    -0.237 OA
ATOM     85  O   UNL A   1      38.770  36.637  41.718  1.00  0.00    -0.744 OA
ENDBRANCH  81  82
ENDBRANCH  53  76
BRANCH  65  86
ATOM     86  C   UNL A   1      44.119  29.146  35.864  1.00  0.00    -0.014 A 
ATOM     87  C   UNL A   1      45.410  29.684  35.715  1.00  0.00     0.010 A 
ATOM     88  C   UNL A   1      43.912  28.109  36.792  1.00  0.00     0.010 A 
ATOM     89  C   UNL A   1      46.476  29.179  36.464  1.00  0.00     0.020 A 
ATOM     90  C   UNL A   1      44.969  27.622  37.564  1.00  0.00     0.020 A 
ATOM     91  C   UNL A   1      46.248  28.153  37.388  1.00  0.00     0.054 A 
BRANCH  91  92
ATOM     92  S   UNL A   1      47.637  27.557  38.389  1.00  0.00     0.124 S 
ATOM     93  O   UNL A   1      48.719  27.509  37.412  1.00  0.00    -0.237 OA
ATOM     94  O   UNL A   1      47.759  28.593  39.412  1.00  0.00    -0.237 OA
ATOM     95  O   UNL A   1      47.180  26.258  38.880  1.00  0.00    -0.744 OA
ENDBRANCH  91  92
ENDBRANCH  65  86
ENDBRANCH  39  40
ENDBRANCH  31  34
ENDBRANCH  29  30
ENDBRANCH  28  29
ENDBRANCH   1  28
TORSDOF 18
ENDMDL
