MODEL 1
REMARK VINA RESULT:     -11.6      0.000      0.000
REMARK SMILES Cc1nc(=O)[nH]c(C)c1CC(=O)N1CC[C@H](C(=O)NCCCNC(=O)c2ccc(-c3c4nc(c(-c5ccc(S(=O)(=O)[O-])cc5)c5ccc([nH]5)c(-c5ccc(S(=O)(=O)[O-])cc5)c5nc(c(-c6ccc(S(=O)(=O)[O-])cc6)c6ccc3[nH]6)C=C5)C=C4)cc2)[C@@H]1C
REMARK SMILES IDX 21 1 20 2 19 3 17 4 18 5 16 7 13 8 14 9 86 10 15 11 87 12
REMARK SMILES IDX 11 13 12 14 10 15 9 16 1 17 2 18 3 19 4 20 7 21 5 22 6 23
REMARK SMILES IDX 8 24 22 26 23 27 24 28 25 30 26 31 27 32 85 33 28 34 84 35
REMARK SMILES IDX 29 36 30 37 31 38 78 39 32 40 83 41 77 42 79 43 33 44 82 45
REMARK SMILES IDX 76 46 75 47 34 49 64 50 45 51 63 52 46 53 49 54 62 55 80 56
REMARK SMILES IDX 47 57 48 58 61 60 81 61 50 62 35 63 36 64 44 65 37 66 43 67
REMARK SMILES IDX 38 68 39 69 40 70 41 71 42 72 65 73 66 74 74 75 67 76 73 77
REMARK SMILES IDX 68 78 69 79 70 80 71 81 72 82 51 83 52 84 60 85 53 86 59 87
REMARK SMILES IDX 54 88 55 89 56 90 57 91 58 92
REMARK H PARENT 19 6 6 25 23 29 79 48 49 59
REMARK Flexibility Score: inf
ROOT
ATOM      1  C   UNL A   1      32.329  29.363  26.652  1.00  0.00     0.042 C 
ENDROOT
BRANCH   1   2
ATOM      2  C   UNL A   1      32.176  29.883  25.235  1.00  0.00     0.117 C 
BRANCH   2   3
ATOM      3  N   UNL A   1      33.207  29.399  24.327  1.00  0.00    -0.356 N 
ATOM      4  C   UNL A   1      33.330  28.300  23.544  1.00  0.00     0.225 C 
ATOM      5  O   UNL A   1      34.249  28.343  22.714  1.00  0.00    -0.275 OA
ATOM      6  H   UNL A   1      33.983  30.002  24.270  1.00  0.00     0.163 HD
BRANCH   4   7
ATOM      7  C   UNL A   1      32.530  26.998  23.667  1.00  0.00     0.102 C 
ATOM      8  N   UNL A   1      33.791  24.987  23.585  1.00  0.00    -0.339 N 
ATOM      9  C   UNL A   1      33.583  25.452  22.212  1.00  0.00     0.120 C 
ATOM     10  C   UNL A   1      33.015  25.822  24.531  1.00  0.00     0.094 C 
ATOM     11  C   UNL A   1      32.385  26.374  22.286  1.00  0.00     0.037 C 
ATOM     12  C   UNL A   1      33.658  26.338  25.818  1.00  0.00     0.032 C 
BRANCH   8  13
ATOM     13  C   UNL A   1      34.561  23.850  23.724  1.00  0.00     0.227 C 
ATOM     14  O   UNL A   1      35.131  23.369  22.737  1.00  0.00    -0.275 OA
BRANCH  13  15
ATOM     15  C   UNL A   1      34.598  23.064  25.028  1.00  0.00     0.139 C 
BRANCH  15  16
ATOM     16  C   UNL A   1      34.025  21.687  24.996  1.00  0.00     0.002 A 
ATOM     17  C   UNL A   1      31.568  22.622  24.931  1.00  0.00     0.067 C 
ATOM     18  C   UNL A   1      32.541  21.459  25.014  1.00  0.00     0.049 A 
ATOM     19  N   UNL A   1      31.980  20.299  25.139  1.00  0.00    -0.198 NA
ATOM     20  C   UNL A   1      32.761  19.186  25.241  1.00  0.00     0.345 A 
ATOM     21  C   UNL A   1      34.754  20.552  24.986  1.00  0.00     0.022 A 
ATOM     22  O   UNL A   1      32.300  18.066  25.449  1.00  0.00    -0.246 OA
ATOM     23  N   UNL A   1      34.113  19.345  25.108  1.00  0.00    -0.310 N 
ATOM     24  C   UNL A   1      36.256  20.465  24.937  1.00  0.00     0.065 C 
ATOM     25  H   UNL A   1      34.668  18.531  25.098  1.00  0.00     0.171 HD
ENDBRANCH  15  16
ENDBRANCH  13  15
ENDBRANCH   8  13
ENDBRANCH   4   7
ENDBRANCH   2   3
ENDBRANCH   1   2
BRANCH   1  26
ATOM     26  C   UNL A   1      33.711  29.620  27.229  1.00  0.00     0.118 C 
BRANCH  26  27
ATOM     27  N   UNL A   1      33.771  30.827  28.052  1.00  0.00    -0.352 N 
ATOM     28  C   UNL A   1      34.760  31.271  28.902  1.00  0.00     0.251 C 
ATOM     29  H   UNL A   1      32.983  31.413  27.988  1.00  0.00     0.163 HD
ATOM     30  O   UNL A   1      34.551  32.223  29.646  1.00  0.00    -0.269 OA
BRANCH  28  31
ATOM     31  C   UNL A   1      36.055  30.563  28.939  1.00  0.00     0.039 A 
ATOM     32  C   UNL A   1      36.906  30.610  27.832  1.00  0.00     0.014 A 
ATOM     33  C   UNL A   1      36.456  29.909  30.102  1.00  0.00     0.014 A 
ATOM     34  C   UNL A   1      38.206  30.109  27.941  1.00  0.00     0.010 A 
ATOM     35  C   UNL A   1      37.783  29.541  30.253  1.00  0.00     0.010 A 
ATOM     36  C   UNL A   1      38.677  29.631  29.175  1.00  0.00    -0.014 A 
BRANCH  36  37
ATOM     37  C   UNL A   1      40.082  29.198  29.391  1.00  0.00     0.031 A 
ATOM     38  C   UNL A   1      41.094  30.208  29.866  1.00  0.00     0.074 A 
ATOM     39  C   UNL A   1      40.474  27.955  29.044  1.00  0.00     0.049 A 
ATOM     40  N   UNL A   1      42.397  30.108  29.923  1.00  0.00    -0.248 NA
ATOM     41  C   UNL A   1      40.575  31.521  30.286  1.00  0.00     0.031 C 
ATOM     42  C   UNL A   1      39.598  26.893  28.539  1.00  0.00     0.029 A 
ATOM     43  N   UNL A   1      41.721  27.378  29.043  1.00  0.00    -0.354 N 
ATOM     44  C   UNL A   1      42.849  31.354  30.344  1.00  0.00     0.074 A 
ATOM     45  C   UNL A   1      41.692  32.209  30.467  1.00  0.00     0.031 C 
ATOM     46  C   UNL A   1      40.331  25.792  28.303  1.00  0.00     0.029 A 
ATOM     47  C   UNL A   1      41.734  26.083  28.576  1.00  0.00     0.049 A 
ATOM     48  H   UNL A   1      42.531  27.848  29.348  1.00  0.00     0.167 HD
ATOM     49  C   UNL A   1      44.113  31.745  30.625  1.00  0.00     0.031 A 
ATOM     50  C   UNL A   1      42.760  25.234  28.369  1.00  0.00     0.031 A 
ATOM     51  C   UNL A   1      45.255  30.878  30.529  1.00  0.00     0.049 A 
ATOM     52  C   UNL A   1      44.161  25.694  28.675  1.00  0.00     0.074 A 
ATOM     53  C   UNL A   1      46.571  31.156  30.851  1.00  0.00     0.029 A 
ATOM     54  N   UNL A   1      45.216  29.567  30.083  1.00  0.00    -0.354 N 
ATOM     55  N   UNL A   1      44.565  26.859  29.123  1.00  0.00    -0.248 NA
ATOM     56  C   UNL A   1      45.246  24.727  28.456  1.00  0.00     0.031 C 
ATOM     57  C   UNL A   1      47.338  30.029  30.543  1.00  0.00     0.029 A 
ATOM     58  C   UNL A   1      46.489  29.027  30.101  1.00  0.00     0.049 A 
ATOM     59  H   UNL A   1      44.403  29.091  29.797  1.00  0.00     0.167 HD
ATOM     60  C   UNL A   1      45.942  26.750  29.279  1.00  0.00     0.074 A 
ATOM     61  C   UNL A   1      46.304  25.407  28.878  1.00  0.00     0.031 C 
ATOM     62  C   UNL A   1      46.825  27.677  29.722  1.00  0.00     0.031 A 
BRANCH  49  63
ATOM     63  C   UNL A   1      44.325  33.172  31.061  1.00  0.00    -0.014 A 
ATOM     64  C   UNL A   1      44.356  33.523  32.423  1.00  0.00     0.010 A 
ATOM     65  C   UNL A   1      44.531  34.173  30.093  1.00  0.00     0.010 A 
ATOM     66  C   UNL A   1      44.542  34.853  32.807  1.00  0.00     0.020 A 
ATOM     67  C   UNL A   1      44.753  35.499  30.474  1.00  0.00     0.020 A 
ATOM     68  C   UNL A   1      44.740  35.832  31.830  1.00  0.00     0.054 A 
BRANCH  68  69
ATOM     69  S   UNL A   1      45.005  37.545  32.363  1.00  0.00     0.124 S 
ATOM     70  O   UNL A   1      45.617  37.360  33.677  1.00  0.00    -0.237 OA
ATOM     71  O   UNL A   1      45.890  38.068  31.326  1.00  0.00    -0.237 OA
ATOM     72  O   UNL A   1      43.660  38.116  32.379  1.00  0.00    -0.744 OA
ENDBRANCH  68  69
ENDBRANCH  49  63
BRANCH  50  73
ATOM     73  C   UNL A   1      42.502  23.858  27.855  1.00  0.00    -0.014 A 
ATOM     74  C   UNL A   1      42.398  23.621  26.472  1.00  0.00     0.010 A 
ATOM     75  C   UNL A   1      42.370  22.773  28.742  1.00  0.00     0.010 A 
ATOM     76  C   UNL A   1      42.147  22.334  25.988  1.00  0.00     0.020 A 
ATOM     77  C   UNL A   1      42.150  21.479  28.261  1.00  0.00     0.020 A 
ATOM     78  C   UNL A   1      42.028  21.269  26.887  1.00  0.00     0.054 A 
BRANCH  78  79
ATOM     79  S   UNL A   1      41.749  19.600  26.230  1.00  0.00     0.124 S 
ATOM     80  O   UNL A   1      42.227  18.759  27.323  1.00  0.00    -0.237 OA
ATOM     81  O   UNL A   1      40.306  19.589  26.007  1.00  0.00    -0.237 OA
ATOM     82  O   UNL A   1      42.560  19.571  25.015  1.00  0.00    -0.744 OA
ENDBRANCH  78  79
ENDBRANCH  50  73
BRANCH  62  83
ATOM     83  C   UNL A   1      48.267  27.269  29.871  1.00  0.00    -0.014 A 
ATOM     84  C   UNL A   1      49.197  27.471  28.839  1.00  0.00     0.010 A 
ATOM     85  C   UNL A   1      48.715  26.797  31.119  1.00  0.00     0.010 A 
ATOM     86  C   UNL A   1      50.553  27.206  29.052  1.00  0.00     0.020 A 
ATOM     87  C   UNL A   1      50.071  26.559  31.346  1.00  0.00     0.020 A 
ATOM     88  C   UNL A   1      50.982  26.765  30.309  1.00  0.00     0.054 A 
BRANCH  88  89
ATOM     89  S   UNL A   1      52.759  26.532  30.589  1.00  0.00     0.124 S 
ATOM     90  O   UNL A   1      53.267  26.387  29.228  1.00  0.00    -0.237 OA
ATOM     91  O   UNL A   1      53.138  27.765  31.275  1.00  0.00    -0.237 OA
ATOM     92  O   UNL A   1      52.825  25.324  31.410  1.00  0.00    -0.744 OA
ENDBRANCH  88  89
ENDBRANCH  62  83
ENDBRANCH  36  37
ENDBRANCH  28  31
ENDBRANCH  26  27
ENDBRANCH   1  26
TORSDOF 16
ENDMDL
MODEL 2
REMARK VINA RESULT:     -11.6      1.317      1.839
REMARK SMILES Cc1nc(=O)[nH]c(C)c1CC(=O)N1CC[C@H](C(=O)NCCCNC(=O)c2ccc(-c3c4nc(c(-c5ccc(S(=O)(=O)[O-])cc5)c5ccc([nH]5)c(-c5ccc(S(=O)(=O)[O-])cc5)c5nc(c(-c6ccc(S(=O)(=O)[O-])cc6)c6ccc3[nH]6)C=C5)C=C4)cc2)[C@@H]1C
REMARK SMILES IDX 21 1 20 2 19 3 17 4 18 5 16 7 13 8 14 9 86 10 15 11 87 12
REMARK SMILES IDX 11 13 12 14 10 15 9 16 1 17 2 18 3 19 4 20 7 21 5 22 6 23
REMARK SMILES IDX 8 24 22 26 23 27 24 28 25 30 26 31 27 32 85 33 28 34 84 35
REMARK SMILES IDX 29 36 30 37 31 38 78 39 32 40 83 41 77 42 79 43 33 44 82 45
REMARK SMILES IDX 76 46 75 47 34 49 64 50 45 51 63 52 46 53 49 54 62 55 80 56
REMARK SMILES IDX 47 57 48 58 61 60 81 61 50 62 35 63 36 64 44 65 37 66 43 67
REMARK SMILES IDX 38 68 39 69 40 70 41 71 42 72 65 73 66 74 74 75 67 76 73 77
REMARK SMILES IDX 68 78 69 79 70 80 71 81 72 82 51 83 52 84 60 85 53 86 59 87
REMARK SMILES IDX 54 88 55 89 56 90 57 91 58 92
REMARK H PARENT 19 6 6 25 23 29 79 48 49 59
REMARK Flexibility Score: inf
ROOT
ATOM      1  C   UNL A   1      31.978  28.210  27.701  1.00  0.00     0.042 C 
ENDROOT
BRANCH   1   2
ATOM      2  C   UNL A   1      31.247  27.737  26.459  1.00  0.00     0.117 C 
BRANCH   2   3
ATOM      3  N   UNL A   1      31.531  28.542  25.279  1.00  0.00    -0.356 N 
ATOM      4  C   UNL A   1      31.740  28.254  23.972  1.00  0.00     0.225 C 
ATOM      5  O   UNL A   1      31.711  29.226  23.204  1.00  0.00    -0.275 OA
ATOM      6  H   UNL A   1      31.582  29.506  25.473  1.00  0.00     0.163 HD
BRANCH   4   7
ATOM      7  C   UNL A   1      32.111  26.886  23.387  1.00  0.00     0.102 C 
ATOM      8  N   UNL A   1      31.986  25.044  24.881  1.00  0.00    -0.339 N 
ATOM      9  C   UNL A   1      33.256  25.734  25.113  1.00  0.00     0.120 C 
ATOM     10  C   UNL A   1      31.300  25.618  23.700  1.00  0.00     0.094 C 
ATOM     11  C   UNL A   1      33.516  26.518  23.844  1.00  0.00     0.037 C 
ATOM     12  C   UNL A   1      29.807  25.943  23.752  1.00  0.00     0.032 C 
BRANCH   8  13
ATOM     13  C   UNL A   1      31.724  23.973  25.711  1.00  0.00     0.227 C 
ATOM     14  O   UNL A   1      31.254  24.169  26.838  1.00  0.00    -0.275 OA
BRANCH  13  15
ATOM     15  C   UNL A   1      32.153  22.557  25.348  1.00  0.00     0.139 C 
BRANCH  15  16
ATOM     16  C   UNL A   1      33.616  22.268  25.398  1.00  0.00     0.002 A 
ATOM     17  C   UNL A   1      33.900  22.851  22.850  1.00  0.00     0.067 C 
ATOM     18  C   UNL A   1      34.468  22.346  24.164  1.00  0.00     0.049 A 
ATOM     19  N   UNL A   1      35.704  21.966  24.103  1.00  0.00    -0.198 NA
ATOM     20  C   UNL A   1      36.309  21.477  25.223  1.00  0.00     0.345 A 
ATOM     21  C   UNL A   1      34.286  21.885  26.504  1.00  0.00     0.022 A 
ATOM     22  O   UNL A   1      37.448  21.017  25.217  1.00  0.00    -0.246 OA
ATOM     23  N   UNL A   1      35.599  21.503  26.392  1.00  0.00    -0.310 N 
ATOM     24  C   UNL A   1      33.707  21.747  27.887  1.00  0.00     0.065 C 
ATOM     25  H   UNL A   1      36.066  21.228  27.214  1.00  0.00     0.171 HD
ENDBRANCH  15  16
ENDBRANCH  13  15
ENDBRANCH   8  13
ENDBRANCH   4   7
ENDBRANCH   2   3
ENDBRANCH   1   2
BRANCH   1  26
ATOM     26  C   UNL A   1      33.354  28.777  27.396  1.00  0.00     0.118 C 
BRANCH  26  27
ATOM     27  N   UNL A   1      33.485  30.187  27.759  1.00  0.00    -0.352 N 
ATOM     28  C   UNL A   1      34.550  30.864  28.310  1.00  0.00     0.251 C 
ATOM     29  H   UNL A   1      32.689  30.737  27.581  1.00  0.00     0.163 HD
ATOM     30  O   UNL A   1      34.408  32.014  28.710  1.00  0.00    -0.269 OA
BRANCH  28  31
ATOM     31  C   UNL A   1      35.850  30.178  28.455  1.00  0.00     0.039 A 
ATOM     32  C   UNL A   1      36.741  30.143  27.380  1.00  0.00     0.014 A 
ATOM     33  C   UNL A   1      36.212  29.628  29.683  1.00  0.00     0.014 A 
ATOM     34  C   UNL A   1      38.041  29.668  27.578  1.00  0.00     0.010 A 
ATOM     35  C   UNL A   1      37.536  29.289  29.912  1.00  0.00     0.010 A 
ATOM     36  C   UNL A   1      38.469  29.300  28.864  1.00  0.00    -0.014 A 
BRANCH  36  37
ATOM     37  C   UNL A   1      39.869  28.904  29.167  1.00  0.00     0.031 A 
ATOM     38  C   UNL A   1      40.819  29.935  29.718  1.00  0.00     0.074 A 
ATOM     39  C   UNL A   1      40.317  27.676  28.835  1.00  0.00     0.049 A 
ATOM     40  N   UNL A   1      42.117  29.871  29.858  1.00  0.00    -0.248 NA
ATOM     41  C   UNL A   1      40.236  31.229  30.115  1.00  0.00     0.031 C 
ATOM     42  C   UNL A   1      39.507  26.596  28.264  1.00  0.00     0.029 A 
ATOM     43  N   UNL A   1      41.578  27.134  28.909  1.00  0.00    -0.354 N 
ATOM     44  C   UNL A   1      42.505  31.125  30.321  1.00  0.00     0.074 A 
ATOM     45  C   UNL A   1      41.319  31.945  30.376  1.00  0.00     0.031 C 
ATOM     46  C   UNL A   1      40.284  25.519  28.065  1.00  0.00     0.029 A 
ATOM     47  C   UNL A   1      41.658  25.845  28.432  1.00  0.00     0.049 A 
ATOM     48  H   UNL A   1      42.352  27.622  29.271  1.00  0.00     0.167 HD
ATOM     49  C   UNL A   1      43.737  31.547  30.687  1.00  0.00     0.031 A 
ATOM     50  C   UNL A   1      42.719  25.027  28.284  1.00  0.00     0.031 A 
ATOM     51  C   UNL A   1      44.907  30.713  30.658  1.00  0.00     0.049 A 
ATOM     52  C   UNL A   1      44.083  25.522  28.686  1.00  0.00     0.074 A 
ATOM     53  C   UNL A   1      46.191  31.023  31.068  1.00  0.00     0.029 A 
ATOM     54  N   UNL A   1      44.934  29.406  30.198  1.00  0.00    -0.354 N 
ATOM     55  N   UNL A   1      44.424  26.693  29.170  1.00  0.00    -0.248 NA
ATOM     56  C   UNL A   1      45.207  24.588  28.528  1.00  0.00     0.031 C 
ATOM     57  C   UNL A   1      47.008  29.922  30.799  1.00  0.00     0.029 A 
ATOM     58  C   UNL A   1      46.218  28.901  30.293  1.00  0.00     0.049 A 
ATOM     59  H   UNL A   1      44.156  28.911  29.854  1.00  0.00     0.167 HD
ATOM     60  C   UNL A   1      45.791  26.620  29.415  1.00  0.00     0.074 A 
ATOM     61  C   UNL A   1      46.215  25.293  29.025  1.00  0.00     0.031 C 
ATOM     62  C   UNL A   1      46.616  27.566  29.924  1.00  0.00     0.031 A 
BRANCH  49  63
ATOM     63  C   UNL A   1      43.879  32.974  31.150  1.00  0.00    -0.014 A 
ATOM     64  C   UNL A   1      44.146  34.014  30.240  1.00  0.00     0.010 A 
ATOM     65  C   UNL A   1      43.707  33.286  32.511  1.00  0.00     0.010 A 
ATOM     66  C   UNL A   1      44.285  35.329  30.689  1.00  0.00     0.020 A 
ATOM     67  C   UNL A   1      43.810  34.606  32.959  1.00  0.00     0.020 A 
ATOM     68  C   UNL A   1      44.116  35.617  32.045  1.00  0.00     0.054 A 
BRANCH  68  69
ATOM     69  S   UNL A   1      44.277  37.338  32.592  1.00  0.00     0.124 S 
ATOM     70  O   UNL A   1      45.628  37.351  33.149  1.00  0.00    -0.237 OA
ATOM     71  O   UNL A   1      44.102  38.085  31.350  1.00  0.00    -0.237 OA
ATOM     72  O   UNL A   1      43.201  37.495  33.569  1.00  0.00    -0.744 OA
ENDBRANCH  68  69
ENDBRANCH  49  63
BRANCH  50  73
ATOM     73  C   UNL A   1      42.534  23.651  27.741  1.00  0.00    -0.014 A 
ATOM     74  C   UNL A   1      42.682  23.401  26.365  1.00  0.00     0.010 A 
ATOM     75  C   UNL A   1      42.220  22.578  28.597  1.00  0.00     0.010 A 
ATOM     76  C   UNL A   1      42.500  22.113  25.852  1.00  0.00     0.020 A 
ATOM     77  C   UNL A   1      42.068  21.282  28.092  1.00  0.00     0.020 A 
ATOM     78  C   UNL A   1      42.198  21.060  26.721  1.00  0.00     0.054 A 
BRANCH  78  79
ATOM     79  S   UNL A   1      42.013  19.390  26.035  1.00  0.00     0.124 S 
ATOM     80  O   UNL A   1      42.840  19.461  24.835  1.00  0.00    -0.237 OA
ATOM     81  O   UNL A   1      42.529  18.550  27.113  1.00  0.00    -0.237 OA
ATOM     82  O   UNL A   1      40.575  19.274  25.799  1.00  0.00    -0.744 OA
ENDBRANCH  78  79
ENDBRANCH  50  73
BRANCH  62  83
ATOM     83  C   UNL A   1      48.056  27.197  30.163  1.00  0.00    -0.014 A 
ATOM     84  C   UNL A   1      49.051  27.467  29.209  1.00  0.00     0.010 A 
ATOM     85  C   UNL A   1      48.429  26.689  31.422  1.00  0.00     0.010 A 
ATOM     86  C   UNL A   1      50.396  27.235  29.512  1.00  0.00     0.020 A 
ATOM     87  C   UNL A   1      49.772  26.484  31.739  1.00  0.00     0.020 A 
ATOM     88  C   UNL A   1      50.748  26.758  30.779  1.00  0.00     0.054 A 
BRANCH  88  89
ATOM     89  S   UNL A   1      52.507  26.568  31.180  1.00  0.00     0.124 S 
ATOM     90  O   UNL A   1      53.126  26.598  29.859  1.00  0.00    -0.237 OA
ATOM     91  O   UNL A   1      52.769  27.731  32.025  1.00  0.00    -0.237 OA
ATOM     92  O   UNL A   1      52.569  25.279  31.868  1.00  0.00    -0.744 OA
ENDBRANCH  88  89
ENDBRANCH  62  83
ENDBRANCH  36  37
ENDBRANCH  28  31
ENDBRANCH  26  27
ENDBRANCH   1  26
TORSDOF 16
ENDMDL
MODEL 3
REMARK VINA RESULT:     -11.5      4.782      5.997
REMARK SMILES Cc1nc(=O)[nH]c(C)c1CC(=O)N1CC[C@H](C(=O)NCCCNC(=O)c2ccc(-c3c4nc(c(-c5ccc(S(=O)(=O)[O-])cc5)c5ccc([nH]5)c(-c5ccc(S(=O)(=O)[O-])cc5)c5nc(c(-c6ccc(S(=O)(=O)[O-])cc6)c6ccc3[nH]6)C=C5)C=C4)cc2)[C@@H]1C
REMARK SMILES IDX 21 1 20 2 19 3 17 4 18 5 16 7 13 8 14 9 86 10 15 11 87 12
REMARK SMILES IDX 11 13 12 14 10 15 9 16 1 17 2 18 3 19 4 20 7 21 5 22 6 23
REMARK SMILES IDX 8 24 22 26 23 27 24 28 25 30 26 31 27 32 85 33 28 34 84 35
REMARK SMILES IDX 29 36 30 37 31 38 78 39 32 40 83 41 77 42 79 43 33 44 82 45
REMARK SMILES IDX 76 46 75 47 34 49 64 50 45 51 63 52 46 53 49 54 62 55 80 56
REMARK SMILES IDX 47 57 48 58 61 60 81 61 50 62 35 63 36 64 44 65 37 66 43 67
REMARK SMILES IDX 38 68 39 69 40 70 41 71 42 72 65 73 66 74 74 75 67 76 73 77
REMARK SMILES IDX 68 78 69 79 70 80 71 81 72 82 51 83 52 84 60 85 53 86 59 87
REMARK SMILES IDX 54 88 55 89 56 90 57 91 58 92
REMARK H PARENT 19 6 6 25 23 29 79 48 49 59
REMARK Flexibility Score: inf
ROOT
ATOM      1  C   UNL A   1      31.770  32.407  26.847  1.00  0.00     0.042 C 
ENDROOT
BRANCH   1   2
ATOM      2  C   UNL A   1      31.877  30.895  26.795  1.00  0.00     0.117 C 
BRANCH   2   3
ATOM      3  N   UNL A   1      31.900  30.362  25.440  1.00  0.00    -0.356 N 
ATOM      4  C   UNL A   1      31.598  29.159  24.897  1.00  0.00     0.225 C 
ATOM      5  O   UNL A   1      31.506  29.143  23.661  1.00  0.00    -0.275 OA
ATOM      6  H   UNL A   1      32.202  31.021  24.772  1.00  0.00     0.163 HD
BRANCH   4   7
ATOM      7  C   UNL A   1      31.476  27.825  25.645  1.00  0.00     0.102 C 
ATOM      8  N   UNL A   1      32.888  26.072  24.888  1.00  0.00    -0.339 N 
ATOM      9  C   UNL A   1      31.725  26.137  24.001  1.00  0.00     0.120 C 
ATOM     10  C   UNL A   1      32.709  26.994  26.034  1.00  0.00     0.094 C 
ATOM     11  C   UNL A   1      30.660  26.857  24.800  1.00  0.00     0.037 C 
ATOM     12  C   UNL A   1      33.850  27.910  26.477  1.00  0.00     0.032 C 
BRANCH   8  13
ATOM     13  C   UNL A   1      33.846  25.136  24.555  1.00  0.00     0.227 C 
ATOM     14  O   UNL A   1      34.171  24.983  23.372  1.00  0.00    -0.275 OA
BRANCH  13  15
ATOM     15  C   UNL A   1      34.400  24.159  25.584  1.00  0.00     0.139 C 
BRANCH  15  16
ATOM     16  C   UNL A   1      33.808  22.789  25.593  1.00  0.00     0.002 A 
ATOM     17  C   UNL A   1      35.917  21.782  24.388  1.00  0.00     0.067 C 
ATOM     18  C   UNL A   1      34.516  21.631  24.951  1.00  0.00     0.049 A 
ATOM     19  N   UNL A   1      33.997  20.455  24.790  1.00  0.00    -0.198 NA
ATOM     20  C   UNL A   1      32.734  20.214  25.243  1.00  0.00     0.345 A 
ATOM     21  C   UNL A   1      32.609  22.474  26.123  1.00  0.00     0.022 A 
ATOM     22  O   UNL A   1      32.148  19.152  25.047  1.00  0.00    -0.246 OA
ATOM     23  N   UNL A   1      32.107  21.211  25.938  1.00  0.00    -0.310 N 
ATOM     24  C   UNL A   1      31.689  23.416  26.854  1.00  0.00     0.065 C 
ATOM     25  H   UNL A   1      31.229  21.007  26.335  1.00  0.00     0.171 HD
ENDBRANCH  15  16
ENDBRANCH  13  15
ENDBRANCH   8  13
ENDBRANCH   4   7
ENDBRANCH   2   3
ENDBRANCH   1   2
BRANCH   1  26
ATOM     26  C   UNL A   1      32.901  33.052  27.630  1.00  0.00     0.118 C 
BRANCH  26  27
ATOM     27  N   UNL A   1      32.681  34.475  27.884  1.00  0.00    -0.352 N 
ATOM     28  C   UNL A   1      33.205  35.291  28.862  1.00  0.00     0.251 C 
ATOM     29  H   UNL A   1      32.063  34.918  27.259  1.00  0.00     0.163 HD
ATOM     30  O   UNL A   1      32.762  36.424  29.021  1.00  0.00    -0.269 OA
BRANCH  28  31
ATOM     31  C   UNL A   1      34.274  34.776  29.742  1.00  0.00     0.039 A 
ATOM     32  C   UNL A   1      33.956  34.308  31.019  1.00  0.00     0.014 A 
ATOM     33  C   UNL A   1      35.582  34.693  29.271  1.00  0.00     0.014 A 
ATOM     34  C   UNL A   1      34.930  33.643  31.770  1.00  0.00     0.010 A 
ATOM     35  C   UNL A   1      36.503  33.916  29.954  1.00  0.00     0.010 A 
ATOM     36  C   UNL A   1      36.193  33.383  31.215  1.00  0.00    -0.014 A 
BRANCH  36  37
ATOM     37  C   UNL A   1      37.231  32.577  31.910  1.00  0.00     0.031 A 
ATOM     38  C   UNL A   1      37.761  33.053  33.236  1.00  0.00     0.074 A 
ATOM     39  C   UNL A   1      37.781  31.505  31.303  1.00  0.00     0.049 A 
ATOM     40  N   UNL A   1      38.798  32.630  33.912  1.00  0.00    -0.248 NA
ATOM     41  C   UNL A   1      37.063  34.191  33.861  1.00  0.00     0.031 C 
ATOM     42  C   UNL A   1      37.380  30.959  30.003  1.00  0.00     0.029 A 
ATOM     43  N   UNL A   1      38.817  30.691  31.693  1.00  0.00    -0.354 N 
ATOM     44  C   UNL A   1      38.895  33.474  35.014  1.00  0.00     0.074 A 
ATOM     45  C   UNL A   1      37.856  34.467  34.884  1.00  0.00     0.031 C 
ATOM     46  C   UNL A   1      38.143  29.891  29.718  1.00  0.00     0.029 A 
ATOM     47  C   UNL A   1      39.128  29.710  30.779  1.00  0.00     0.049 A 
ATOM     48  H   UNL A   1      39.294  30.800  32.548  1.00  0.00     0.167 HD
ATOM     49  C   UNL A   1      39.760  33.412  36.053  1.00  0.00     0.031 A 
ATOM     50  C   UNL A   1      40.108  28.784  30.782  1.00  0.00     0.031 A 
ATOM     51  C   UNL A   1      40.772  32.401  36.189  1.00  0.00     0.049 A 
ATOM     52  C   UNL A   1      41.067  28.742  31.941  1.00  0.00     0.074 A 
ATOM     53  C   UNL A   1      41.658  32.210  37.233  1.00  0.00     0.029 A 
ATOM     54  N   UNL A   1      41.028  31.409  35.255  1.00  0.00    -0.354 N 
ATOM     55  N   UNL A   1      41.113  29.515  33.000  1.00  0.00    -0.248 NA
ATOM     56  C   UNL A   1      42.106  27.702  31.913  1.00  0.00     0.031 C 
ATOM     57  C   UNL A   1      42.490  31.138  36.902  1.00  0.00     0.029 A 
ATOM     58  C   UNL A   1      42.073  30.615  35.688  1.00  0.00     0.049 A 
ATOM     59  H   UNL A   1      40.538  31.289  34.409  1.00  0.00     0.167 HD
ATOM     60  C   UNL A   1      42.153  29.027  33.783  1.00  0.00     0.074 A 
ATOM     61  C   UNL A   1      42.713  27.895  33.077  1.00  0.00     0.031 C 
ATOM     62  C   UNL A   1      42.599  29.474  34.982  1.00  0.00     0.031 A 
BRANCH  49  63
ATOM     63  C   UNL A   1      39.648  34.469  37.121  1.00  0.00    -0.014 A 
ATOM     64  C   UNL A   1      40.286  35.715  36.985  1.00  0.00     0.010 A 
ATOM     65  C   UNL A   1      38.862  34.226  38.262  1.00  0.00     0.010 A 
ATOM     66  C   UNL A   1      40.179  36.679  37.991  1.00  0.00     0.020 A 
ATOM     67  C   UNL A   1      38.722  35.201  39.254  1.00  0.00     0.020 A 
ATOM     68  C   UNL A   1      39.398  36.415  39.118  1.00  0.00     0.054 A 
BRANCH  68  69
ATOM     69  S   UNL A   1      39.259  37.697  40.394  1.00  0.00     0.124 S 
ATOM     70  O   UNL A   1      38.928  36.907  41.578  1.00  0.00    -0.237 OA
ATOM     71  O   UNL A   1      40.590  38.297  40.390  1.00  0.00    -0.237 OA
ATOM     72  O   UNL A   1      38.186  38.559  39.904  1.00  0.00    -0.744 OA
ENDBRANCH  68  69
ENDBRANCH  49  63
BRANCH  50  73
ATOM     73  C   UNL A   1      40.225  27.814  29.656  1.00  0.00    -0.014 A 
ATOM     74  C   UNL A   1      41.148  28.035  28.617  1.00  0.00     0.010 A 
ATOM     75  C   UNL A   1      39.424  26.657  29.619  1.00  0.00     0.010 A 
ATOM     76  C   UNL A   1      41.254  27.131  27.556  1.00  0.00     0.020 A 
ATOM     77  C   UNL A   1      39.549  25.735  28.575  1.00  0.00     0.020 A 
ATOM     78  C   UNL A   1      40.455  25.983  27.544  1.00  0.00     0.054 A 
BRANCH  78  79
ATOM     79  S   UNL A   1      40.645  24.803  26.178  1.00  0.00     0.124 S 
ATOM     80  O   UNL A   1      41.128  25.661  25.100  1.00  0.00    -0.237 OA
ATOM     81  O   UNL A   1      41.616  23.855  26.716  1.00  0.00    -0.237 OA
ATOM     82  O   UNL A   1      39.297  24.269  25.997  1.00  0.00    -0.744 OA
ENDBRANCH  78  79
ENDBRANCH  50  73
BRANCH  62  83
ATOM     83  C   UNL A   1      43.704  28.707  35.658  1.00  0.00    -0.014 A 
ATOM     84  C   UNL A   1      43.439  27.571  36.440  1.00  0.00     0.010 A 
ATOM     85  C   UNL A   1      45.040  29.063  35.392  1.00  0.00     0.010 A 
ATOM     86  C   UNL A   1      44.493  26.804  36.944  1.00  0.00     0.020 A 
ATOM     87  C   UNL A   1      46.095  28.282  35.869  1.00  0.00     0.020 A 
ATOM     88  C   UNL A   1      45.813  27.157  36.644  1.00  0.00     0.054 A 
BRANCH  88  89
ATOM     89  S   UNL A   1      47.154  26.083  37.223  1.00  0.00     0.124 S 
ATOM     90  O   UNL A   1      48.059  26.080  36.077  1.00  0.00    -0.237 OA
ATOM     91  O   UNL A   1      47.640  26.788  38.407  1.00  0.00    -0.237 OA
ATOM     92  O   UNL A   1      46.489  24.809  37.492  1.00  0.00    -0.744 OA
ENDBRANCH  88  89
ENDBRANCH  62  83
ENDBRANCH  36  37
ENDBRANCH  28  31
ENDBRANCH  26  27
ENDBRANCH   1  26
TORSDOF 16
ENDMDL
