MODEL 1
REMARK VINA RESULT:     -11.4      0.000      0.000
REMARK SMILES O=C(NCCCNC(=O)c1cncc(Oc2cc(F)ccc2F)n1)c1ccc(-c2c3nc(c(-c4ccc(S(=O)(=O)[O-])cc4)c4ccc([nH]4)c(-c4ccc(S(=O)(=O)[O-])cc4)c4nc(c(-c5ccc(S(=O)(=O)[O-])cc5)c5ccc2[nH]5)C=C4)C=C3)cc1
REMARK SMILES IDX 4 1 3 2 1 3 2 4 25 6 26 7 84 8 27 9 83 10 28 11 29 12 30 13
REMARK SMILES IDX 77 14 31 15 82 16 76 17 78 18 32 19 81 20 75 21 74 22 33 24
REMARK SMILES IDX 63 25 44 26 62 27 45 28 48 29 61 30 79 31 46 32 47 33 60 35
REMARK SMILES IDX 80 36 49 37 34 38 35 39 43 40 36 41 42 42 37 43 38 44 39 45
REMARK SMILES IDX 40 46 41 47 64 48 65 49 73 50 66 51 72 52 67 53 68 54 69 55
REMARK SMILES IDX 70 56 71 57 50 58 51 59 59 60 52 61 58 62 53 63 54 64 55 65
REMARK SMILES IDX 56 66 57 67 5 68 6 69 7 70 8 71 9 73 10 74 11 75 24 76 12 77
REMARK SMILES IDX 14 78 13 79 15 80 16 81 17 82 22 83 18 84 21 85 23 86 19 87
REMARK SMILES IDX 20 88
REMARK H PARENT 3 5 78 23 48 34 7 72
REMARK Flexibility Score: inf
ROOT
ATOM      1  C   UNL A   1      40.873  21.788  26.199  1.00  0.00     0.118 C 
ENDROOT
BRANCH   1   2
ATOM      2  N   UNL A   1      39.486  22.026  25.827  1.00  0.00    -0.352 N 
ATOM      3  O   UNL A   1      37.442  22.953  25.883  1.00  0.00    -0.269 OA
ATOM      4  C   UNL A   1      38.643  23.061  26.140  1.00  0.00     0.251 C 
ATOM      5  H   UNL A   1      39.087  21.331  25.256  1.00  0.00     0.163 HD
BRANCH   4   6
ATOM      6  C   UNL A   1      39.147  24.288  26.794  1.00  0.00     0.039 A 
ATOM      7  C   UNL A   1      38.915  24.537  28.150  1.00  0.00     0.014 A 
ATOM      8  C   UNL A   1      39.919  25.182  26.045  1.00  0.00     0.014 A 
ATOM      9  C   UNL A   1      39.338  25.735  28.722  1.00  0.00     0.010 A 
ATOM     10  C   UNL A   1      40.410  26.347  26.641  1.00  0.00     0.010 A 
ATOM     11  C   UNL A   1      40.098  26.647  27.976  1.00  0.00    -0.014 A 
BRANCH  11  12
ATOM     12  C   UNL A   1      40.611  27.892  28.603  1.00  0.00     0.031 A 
ATOM     13  C   UNL A   1      42.019  27.965  29.121  1.00  0.00     0.074 A 
ATOM     14  C   UNL A   1      39.785  28.946  28.742  1.00  0.00     0.049 A 
ATOM     15  N   UNL A   1      42.606  28.932  29.778  1.00  0.00    -0.248 NA
ATOM     16  C   UNL A   1      42.876  26.794  28.878  1.00  0.00     0.031 C 
ATOM     17  C   UNL A   1      38.397  28.999  28.277  1.00  0.00     0.029 A 
ATOM     18  N   UNL A   1      39.986  30.171  29.329  1.00  0.00    -0.354 N 
ATOM     19  C   UNL A   1      43.892  28.478  30.054  1.00  0.00     0.074 A 
ATOM     20  C   UNL A   1      43.989  27.141  29.510  1.00  0.00     0.031 C 
ATOM     21  C   UNL A   1      37.874  30.193  28.590  1.00  0.00     0.029 A 
ATOM     22  C   UNL A   1      38.864  30.965  29.334  1.00  0.00     0.049 A 
ATOM     23  H   UNL A   1      40.849  30.453  29.709  1.00  0.00     0.167 HD
ATOM     24  C   UNL A   1      44.895  29.118  30.702  1.00  0.00     0.031 A 
ATOM     25  C   UNL A   1      38.637  32.165  29.903  1.00  0.00     0.031 A 
ATOM     26  C   UNL A   1      44.781  30.444  31.253  1.00  0.00     0.049 A 
ATOM     27  C   UNL A   1      39.746  32.840  30.656  1.00  0.00     0.074 A 
ATOM     28  C   UNL A   1      45.749  31.193  31.901  1.00  0.00     0.029 A 
ATOM     29  N   UNL A   1      43.626  31.214  31.236  1.00  0.00    -0.354 N 
ATOM     30  N   UNL A   1      40.966  32.413  30.876  1.00  0.00    -0.248 NA
ATOM     31  C   UNL A   1      39.453  34.159  31.232  1.00  0.00     0.031 C 
ATOM     32  C   UNL A   1      45.162  32.389  32.326  1.00  0.00     0.029 A 
ATOM     33  C   UNL A   1      43.848  32.416  31.884  1.00  0.00     0.049 A 
ATOM     34  H   UNL A   1      42.774  30.944  30.823  1.00  0.00     0.167 HD
ATOM     35  C   UNL A   1      41.598  33.423  31.591  1.00  0.00     0.074 A 
ATOM     36  C   UNL A   1      40.625  34.482  31.767  1.00  0.00     0.031 C 
ATOM     37  C   UNL A   1      42.873  33.467  32.049  1.00  0.00     0.031 A 
BRANCH  24  38
ATOM     38  C   UNL A   1      46.186  28.364  30.896  1.00  0.00    -0.014 A 
ATOM     39  C   UNL A   1      46.373  27.494  31.986  1.00  0.00     0.010 A 
ATOM     40  C   UNL A   1      47.232  28.530  29.970  1.00  0.00     0.010 A 
ATOM     41  C   UNL A   1      47.604  26.859  32.183  1.00  0.00     0.020 A 
ATOM     42  C   UNL A   1      48.453  27.874  30.145  1.00  0.00     0.020 A 
ATOM     43  C   UNL A   1      48.640  27.065  31.268  1.00  0.00     0.054 A 
BRANCH  43  44
ATOM     44  S   UNL A   1      50.239  26.262  31.567  1.00  0.00     0.124 S 
ATOM     45  O   UNL A   1      50.713  26.023  30.205  1.00  0.00    -0.237 OA
ATOM     46  O   UNL A   1      50.974  27.275  32.318  1.00  0.00    -0.237 OA
ATOM     47  O   UNL A   1      49.889  25.061  32.323  1.00  0.00    -0.744 OA
ENDBRANCH  43  44
ENDBRANCH  24  38
BRANCH  25  48
ATOM     48  C   UNL A   1      37.286  32.774  29.781  1.00  0.00    -0.014 A 
ATOM     49  C   UNL A   1      36.414  32.808  30.883  1.00  0.00     0.010 A 
ATOM     50  C   UNL A   1      36.903  33.405  28.583  1.00  0.00     0.010 A 
ATOM     51  C   UNL A   1      35.189  33.475  30.791  1.00  0.00     0.020 A 
ATOM     52  C   UNL A   1      35.692  34.096  28.497  1.00  0.00     0.020 A 
ATOM     53  C   UNL A   1      34.841  34.125  29.604  1.00  0.00     0.054 A 
BRANCH  53  54
ATOM     54  S   UNL A   1      33.295  35.074  29.546  1.00  0.00     0.124 S 
ATOM     55  O   UNL A   1      33.771  36.411  29.210  1.00  0.00    -0.237 OA
ATOM     56  O   UNL A   1      32.544  34.386  28.498  1.00  0.00    -0.237 OA
ATOM     57  O   UNL A   1      32.749  34.922  30.894  1.00  0.00    -0.744 OA
ENDBRANCH  53  54
ENDBRANCH  25  48
BRANCH  37  58
ATOM     58  C   UNL A   1      43.323  34.721  32.750  1.00  0.00    -0.014 A 
ATOM     59  C   UNL A   1      43.264  34.842  34.149  1.00  0.00     0.010 A 
ATOM     60  C   UNL A   1      43.917  35.751  31.995  1.00  0.00     0.010 A 
ATOM     61  C   UNL A   1      43.789  35.974  34.780  1.00  0.00     0.020 A 
ATOM     62  C   UNL A   1      44.465  36.870  32.624  1.00  0.00     0.020 A 
ATOM     63  C   UNL A   1      44.395  36.976  34.015  1.00  0.00     0.054 A 
BRANCH  63  64
ATOM     64  S   UNL A   1      45.154  38.387  34.866  1.00  0.00     0.124 S 
ATOM     65  O   UNL A   1      45.960  37.728  35.890  1.00  0.00    -0.237 OA
ATOM     66  O   UNL A   1      45.906  39.039  33.797  1.00  0.00    -0.237 OA
ATOM     67  O   UNL A   1      44.010  39.146  35.367  1.00  0.00    -0.744 OA
ENDBRANCH  63  64
ENDBRANCH  37  58
ENDBRANCH  11  12
ENDBRANCH   4   6
ENDBRANCH   1   2
BRANCH   1  68
ATOM     68  C   UNL A   1      41.012  21.164  27.584  1.00  0.00     0.042 C 
BRANCH  68  69
ATOM     69  C   UNL A   1      42.242  20.282  27.758  1.00  0.00     0.118 C 
BRANCH  69  70
ATOM     70  N   UNL A   1      42.075  18.962  27.164  1.00  0.00    -0.351 N 
ATOM     71  C   UNL A   1      42.761  18.371  26.128  1.00  0.00     0.271 C 
ATOM     72  H   UNL A   1      41.366  18.409  27.566  1.00  0.00     0.163 HD
ATOM     73  O   UNL A   1      42.391  17.277  25.703  1.00  0.00    -0.267 OA
BRANCH  71  74
ATOM     74  C   UNL A   1      43.950  19.033  25.545  1.00  0.00     0.150 A 
ATOM     75  C   UNL A   1      45.209  18.470  25.711  1.00  0.00     0.145 A 
ATOM     76  N   UNL A   1      43.743  20.177  24.843  1.00  0.00    -0.205 NA
ATOM     77  N   UNL A   1      46.333  19.055  25.233  1.00  0.00    -0.257 NA
ATOM     78  C   UNL A   1      44.862  20.752  24.348  1.00  0.00     0.238 A 
ATOM     79  C   UNL A   1      46.127  20.212  24.553  1.00  0.00     0.179 A 
BRANCH  78  80
ATOM     80  O   UNL A   1      44.798  21.932  23.618  1.00  0.00    -0.434 OA
BRANCH  80  81
ATOM     81  C   UNL A   1      45.111  23.093  24.280  1.00  0.00     0.168 A 
ATOM     82  C   UNL A   1      46.425  23.552  24.374  1.00  0.00     0.089 A 
ATOM     83  C   UNL A   1      44.065  23.875  24.774  1.00  0.00     0.166 A 
ATOM     84  C   UNL A   1      46.673  24.768  25.004  1.00  0.00     0.127 A 
ATOM     85  C   UNL A   1      44.318  25.097  25.394  1.00  0.00     0.046 A 
ATOM     86  F   UNL A   1      42.795  23.461  24.648  1.00  0.00    -0.203 F 
ATOM     87  F   UNL A   1      47.932  25.208  25.113  1.00  0.00    -0.207 F 
ATOM     88  C   UNL A   1      45.633  25.544  25.514  1.00  0.00     0.042 A 
ENDBRANCH  80  81
ENDBRANCH  78  80
ENDBRANCH  71  74
ENDBRANCH  69  70
ENDBRANCH  68  69
ENDBRANCH   1  68
TORSDOF 15
ENDMDL
MODEL 2
REMARK VINA RESULT:     -11.1      0.805      8.304
REMARK SMILES O=C(NCCCNC(=O)c1cncc(Oc2cc(F)ccc2F)n1)c1ccc(-c2c3nc(c(-c4ccc(S(=O)(=O)[O-])cc4)c4ccc([nH]4)c(-c4ccc(S(=O)(=O)[O-])cc4)c4nc(c(-c5ccc(S(=O)(=O)[O-])cc5)c5ccc2[nH]5)C=C4)C=C3)cc1
REMARK SMILES IDX 4 1 3 2 1 3 2 4 25 6 26 7 84 8 27 9 83 10 28 11 29 12 30 13
REMARK SMILES IDX 77 14 31 15 82 16 76 17 78 18 32 19 81 20 75 21 74 22 33 24
REMARK SMILES IDX 63 25 44 26 62 27 45 28 48 29 61 30 79 31 46 32 47 33 60 35
REMARK SMILES IDX 80 36 49 37 34 38 35 39 43 40 36 41 42 42 37 43 38 44 39 45
REMARK SMILES IDX 40 46 41 47 64 48 65 49 73 50 66 51 72 52 67 53 68 54 69 55
REMARK SMILES IDX 70 56 71 57 50 58 51 59 59 60 52 61 58 62 53 63 54 64 55 65
REMARK SMILES IDX 56 66 57 67 5 68 6 69 7 70 8 71 9 73 10 74 11 75 24 76 12 77
REMARK SMILES IDX 14 78 13 79 15 80 16 81 17 82 22 83 18 84 21 85 23 86 19 87
REMARK SMILES IDX 20 88
REMARK H PARENT 3 5 78 23 48 34 7 72
REMARK Flexibility Score: inf
ROOT
ATOM      1  C   UNL A   1      40.766  21.879  26.086  1.00  0.00     0.118 C 
ENDROOT
BRANCH   1   2
ATOM      2  N   UNL A   1      39.378  22.185  25.771  1.00  0.00    -0.352 N 
ATOM      3  O   UNL A   1      37.374  23.182  25.935  1.00  0.00    -0.269 OA
ATOM      4  C   UNL A   1      38.586  23.235  26.158  1.00  0.00     0.251 C 
ATOM      5  H   UNL A   1      38.936  21.532  25.182  1.00  0.00     0.163 HD
BRANCH   4   6
ATOM      6  C   UNL A   1      39.156  24.410  26.849  1.00  0.00     0.039 A 
ATOM      7  C   UNL A   1      38.974  24.606  28.222  1.00  0.00     0.014 A 
ATOM      8  C   UNL A   1      39.939  25.308  26.118  1.00  0.00     0.014 A 
ATOM      9  C   UNL A   1      39.460  25.760  28.833  1.00  0.00     0.010 A 
ATOM     10  C   UNL A   1      40.492  26.426  26.748  1.00  0.00     0.010 A 
ATOM     11  C   UNL A   1      40.233  26.676  28.105  1.00  0.00    -0.014 A 
BRANCH  11  12
ATOM     12  C   UNL A   1      40.811  27.871  28.770  1.00  0.00     0.031 A 
ATOM     13  C   UNL A   1      39.957  29.070  29.069  1.00  0.00     0.074 A 
ATOM     14  C   UNL A   1      42.125  27.886  29.068  1.00  0.00     0.049 A 
ATOM     15  N   UNL A   1      40.309  30.231  29.559  1.00  0.00    -0.248 NA
ATOM     16  C   UNL A   1      38.522  28.953  28.768  1.00  0.00     0.031 C 
ATOM     17  C   UNL A   1      43.057  26.782  28.831  1.00  0.00     0.029 A 
ATOM     18  N   UNL A   1      42.907  28.871  29.620  1.00  0.00    -0.354 N 
ATOM     19  C   UNL A   1      39.148  30.995  29.598  1.00  0.00     0.074 A 
ATOM     20  C   UNL A   1      38.085  30.169  29.064  1.00  0.00     0.031 C 
ATOM     21  C   UNL A   1      44.281  27.147  29.238  1.00  0.00     0.029 A 
ATOM     22  C   UNL A   1      44.235  28.529  29.705  1.00  0.00     0.049 A 
ATOM     23  H   UNL A   1      42.551  29.736  29.925  1.00  0.00     0.167 HD
ATOM     24  C   UNL A   1      38.984  32.267  30.038  1.00  0.00     0.031 A 
ATOM     25  C   UNL A   1      45.308  29.252  30.078  1.00  0.00     0.031 A 
ATOM     26  C   UNL A   1      40.052  33.083  30.554  1.00  0.00     0.049 A 
ATOM     27  C   UNL A   1      45.116  30.673  30.520  1.00  0.00     0.074 A 
ATOM     28  C   UNL A   1      39.984  34.373  31.054  1.00  0.00     0.029 A 
ATOM     29  N   UNL A   1      41.384  32.698  30.622  1.00  0.00    -0.354 N 
ATOM     30  N   UNL A   1      44.006  31.368  30.587  1.00  0.00    -0.248 NA
ATOM     31  C   UNL A   1      46.315  31.408  30.944  1.00  0.00     0.031 C 
ATOM     32  C   UNL A   1      41.283  34.787  31.368  1.00  0.00     0.029 A 
ATOM     33  C   UNL A   1      42.151  33.732  31.130  1.00  0.00     0.049 A 
ATOM     34  H   UNL A   1      41.732  31.818  30.349  1.00  0.00     0.167 HD
ATOM     35  C   UNL A   1      44.367  32.613  31.086  1.00  0.00     0.074 A 
ATOM     36  C   UNL A   1      45.798  32.576  31.306  1.00  0.00     0.031 C 
ATOM     37  C   UNL A   1      43.576  33.683  31.348  1.00  0.00     0.031 A 
BRANCH  24  38
ATOM     38  C   UNL A   1      37.606  32.866  29.927  1.00  0.00    -0.014 A 
ATOM     39  C   UNL A   1      37.152  33.450  28.730  1.00  0.00     0.010 A 
ATOM     40  C   UNL A   1      36.748  32.844  31.041  1.00  0.00     0.010 A 
ATOM     41  C   UNL A   1      35.895  34.062  28.672  1.00  0.00     0.020 A 
ATOM     42  C   UNL A   1      35.479  33.426  30.980  1.00  0.00     0.020 A 
ATOM     43  C   UNL A   1      35.073  34.058  29.802  1.00  0.00     0.054 A 
BRANCH  43  44
ATOM     44  S   UNL A   1      33.464  34.891  29.713  1.00  0.00     0.124 S 
ATOM     45  O   UNL A   1      33.058  34.907  31.117  1.00  0.00    -0.237 OA
ATOM     46  O   UNL A   1      33.806  36.192  29.145  1.00  0.00    -0.237 OA
ATOM     47  O   UNL A   1      32.670  34.024  28.845  1.00  0.00    -0.744 OA
ENDBRANCH  43  44
ENDBRANCH  24  38
BRANCH  25  48
ATOM     48  C   UNL A   1      46.655  28.623  30.022  1.00  0.00    -0.014 A 
ATOM     49  C   UNL A   1      47.137  27.866  31.102  1.00  0.00     0.010 A 
ATOM     50  C   UNL A   1      47.421  28.703  28.843  1.00  0.00     0.010 A 
ATOM     51  C   UNL A   1      48.357  27.190  31.001  1.00  0.00     0.020 A 
ATOM     52  C   UNL A   1      48.626  28.006  28.728  1.00  0.00     0.020 A 
ATOM     53  C   UNL A   1      49.087  27.254  29.810  1.00  0.00     0.054 A 
BRANCH  53  54
ATOM     54  S   UNL A   1      50.612  26.281  29.667  1.00  0.00     0.124 S 
ATOM     55  O   UNL A   1      51.451  26.875  30.701  1.00  0.00    -0.237 OA
ATOM     56  O   UNL A   1      50.144  24.922  29.933  1.00  0.00    -0.237 OA
ATOM     57  O   UNL A   1      51.045  26.523  28.292  1.00  0.00    -0.744 OA
ENDBRANCH  53  54
ENDBRANCH  25  48
BRANCH  37  58
ATOM     58  C   UNL A   1      44.224  34.902  31.951  1.00  0.00    -0.014 A 
ATOM     59  C   UNL A   1      44.399  35.028  33.340  1.00  0.00     0.010 A 
ATOM     60  C   UNL A   1      44.762  35.884  31.098  1.00  0.00     0.010 A 
ATOM     61  C   UNL A   1      45.099  36.119  33.864  1.00  0.00     0.020 A 
ATOM     62  C   UNL A   1      45.483  36.960  31.616  1.00  0.00     0.020 A 
ATOM     63  C   UNL A   1      45.646  37.073  32.998  1.00  0.00     0.054 A 
BRANCH  63  64
ATOM     64  S   UNL A   1      46.632  38.425  33.698  1.00  0.00     0.124 S 
ATOM     65  O   UNL A   1      45.791  39.588  33.428  1.00  0.00    -0.237 OA
ATOM     66  O   UNL A   1      46.747  38.044  35.103  1.00  0.00    -0.237 OA
ATOM     67  O   UNL A   1      47.880  38.371  32.940  1.00  0.00    -0.744 OA
ENDBRANCH  63  64
ENDBRANCH  37  58
ENDBRANCH  11  12
ENDBRANCH   4   6
ENDBRANCH   1   2
BRANCH   1  68
ATOM     68  C   UNL A   1      40.934  21.275  27.477  1.00  0.00     0.042 C 
BRANCH  68  69
ATOM     69  C   UNL A   1      42.184  20.420  27.646  1.00  0.00     0.118 C 
BRANCH  69  70
ATOM     70  N   UNL A   1      42.027  19.081  27.095  1.00  0.00    -0.351 N 
ATOM     71  C   UNL A   1      42.740  18.452  26.100  1.00  0.00     0.271 C 
ATOM     72  H   UNL A   1      41.304  18.546  27.495  1.00  0.00     0.163 HD
ATOM     73  O   UNL A   1      42.376  17.346  25.702  1.00  0.00    -0.267 OA
BRANCH  71  74
ATOM     74  C   UNL A   1      43.948  19.089  25.528  1.00  0.00     0.150 A 
ATOM     75  C   UNL A   1      45.193  18.499  25.708  1.00  0.00     0.145 A 
ATOM     76  N   UNL A   1      43.773  20.236  24.824  1.00  0.00    -0.205 NA
ATOM     77  N   UNL A   1      46.335  19.060  25.241  1.00  0.00    -0.257 NA
ATOM     78  C   UNL A   1      44.908  20.787  24.340  1.00  0.00     0.238 A 
ATOM     79  C   UNL A   1      46.160  20.221  24.558  1.00  0.00     0.179 A 
BRANCH  78  80
ATOM     80  O   UNL A   1      44.877  21.968  23.609  1.00  0.00    -0.434 OA
BRANCH  80  81
ATOM     81  C   UNL A   1      45.172  23.127  24.283  1.00  0.00     0.168 A 
ATOM     82  C   UNL A   1      46.480  23.596  24.395  1.00  0.00     0.089 A 
ATOM     83  C   UNL A   1      44.114  23.897  24.771  1.00  0.00     0.166 A 
ATOM     84  C   UNL A   1      46.711  24.810  25.036  1.00  0.00     0.127 A 
ATOM     85  C   UNL A   1      44.349  25.116  25.402  1.00  0.00     0.046 A 
ATOM     86  F   UNL A   1      42.849  23.472  24.627  1.00  0.00    -0.203 F 
ATOM     87  F   UNL A   1      47.965  25.260  25.162  1.00  0.00    -0.207 F 
ATOM     88  C   UNL A   1      45.659  25.573  25.539  1.00  0.00     0.042 A 
ENDBRANCH  80  81
ENDBRANCH  78  80
ENDBRANCH  71  74
ENDBRANCH  69  70
ENDBRANCH  68  69
ENDBRANCH   1  68
TORSDOF 15
ENDMDL
MODEL 3
REMARK VINA RESULT:     -11.1      3.577     10.337
REMARK SMILES O=C(NCCCNC(=O)c1cncc(Oc2cc(F)ccc2F)n1)c1ccc(-c2c3nc(c(-c4ccc(S(=O)(=O)[O-])cc4)c4ccc([nH]4)c(-c4ccc(S(=O)(=O)[O-])cc4)c4nc(c(-c5ccc(S(=O)(=O)[O-])cc5)c5ccc2[nH]5)C=C4)C=C3)cc1
REMARK SMILES IDX 4 1 3 2 1 3 2 4 25 6 26 7 84 8 27 9 83 10 28 11 29 12 30 13
REMARK SMILES IDX 77 14 31 15 82 16 76 17 78 18 32 19 81 20 75 21 74 22 33 24
REMARK SMILES IDX 63 25 44 26 62 27 45 28 48 29 61 30 79 31 46 32 47 33 60 35
REMARK SMILES IDX 80 36 49 37 34 38 35 39 43 40 36 41 42 42 37 43 38 44 39 45
REMARK SMILES IDX 40 46 41 47 64 48 65 49 73 50 66 51 72 52 67 53 68 54 69 55
REMARK SMILES IDX 70 56 71 57 50 58 51 59 59 60 52 61 58 62 53 63 54 64 55 65
REMARK SMILES IDX 56 66 57 67 5 68 6 69 7 70 8 71 9 73 10 74 11 75 24 76 12 77
REMARK SMILES IDX 14 78 13 79 15 80 16 81 17 82 22 83 18 84 21 85 23 86 19 87
REMARK SMILES IDX 20 88
REMARK H PARENT 3 5 78 23 48 34 7 72
REMARK Flexibility Score: inf
ROOT
ATOM      1  C   UNL A   1      34.088  28.586  25.752  1.00  0.00     0.118 C 
ENDROOT
BRANCH   1   2
ATOM      2  N   UNL A   1      33.798  29.866  26.381  1.00  0.00    -0.352 N 
ATOM      3  O   UNL A   1      33.893  31.507  27.910  1.00  0.00    -0.269 OA
ATOM      4  C   UNL A   1      34.438  30.527  27.397  1.00  0.00     0.251 C 
ATOM      5  H   UNL A   1      33.013  30.335  26.018  1.00  0.00     0.163 HD
BRANCH   4   6
ATOM      6  C   UNL A   1      35.754  30.073  27.895  1.00  0.00     0.039 A 
ATOM      7  C   UNL A   1      35.902  29.543  29.181  1.00  0.00     0.014 A 
ATOM      8  C   UNL A   1      36.855  30.126  27.035  1.00  0.00     0.014 A 
ATOM      9  C   UNL A   1      37.166  29.192  29.650  1.00  0.00     0.010 A 
ATOM     10  C   UNL A   1      38.109  29.701  27.481  1.00  0.00     0.010 A 
ATOM     11  C   UNL A   1      38.281  29.258  28.802  1.00  0.00    -0.014 A 
BRANCH  11  12
ATOM     12  C   UNL A   1      39.617  28.818  29.277  1.00  0.00     0.031 A 
ATOM     13  C   UNL A   1      40.503  29.755  30.047  1.00  0.00     0.074 A 
ATOM     14  C   UNL A   1      40.047  27.578  28.975  1.00  0.00     0.049 A 
ATOM     15  N   UNL A   1      41.732  29.575  30.460  1.00  0.00    -0.248 NA
ATOM     16  C   UNL A   1      39.939  31.070  30.389  1.00  0.00     0.031 C 
ATOM     17  C   UNL A   1      39.277  26.574  28.236  1.00  0.00     0.029 A 
ATOM     18  N   UNL A   1      41.242  26.955  29.236  1.00  0.00    -0.354 N 
ATOM     19  C   UNL A   1      42.100  30.762  31.084  1.00  0.00     0.074 A 
ATOM     20  C   UNL A   1      40.970  31.660  30.976  1.00  0.00     0.031 C 
ATOM     21  C   UNL A   1      40.015  25.462  28.108  1.00  0.00     0.029 A 
ATOM     22  C   UNL A   1      41.330  25.694  28.698  1.00  0.00     0.049 A 
ATOM     23  H   UNL A   1      41.964  27.371  29.759  1.00  0.00     0.167 HD
ATOM     24  C   UNL A   1      43.273  31.073  31.688  1.00  0.00     0.031 A 
ATOM     25  C   UNL A   1      42.361  24.829  28.645  1.00  0.00     0.031 A 
ATOM     26  C   UNL A   1      44.396  30.176  31.775  1.00  0.00     0.049 A 
ATOM     27  C   UNL A   1      43.667  25.206  29.281  1.00  0.00     0.074 A 
ATOM     28  C   UNL A   1      45.617  30.384  32.394  1.00  0.00     0.029 A 
ATOM     29  N   UNL A   1      44.443  28.906  31.216  1.00  0.00    -0.354 N 
ATOM     30  N   UNL A   1      43.987  26.318  29.899  1.00  0.00    -0.248 NA
ATOM     31  C   UNL A   1      44.750  24.215  29.219  1.00  0.00     0.031 C 
ATOM     32  C   UNL A   1      46.422  29.265  32.156  1.00  0.00     0.029 A 
ATOM     33  C   UNL A   1      45.680  28.331  31.450  1.00  0.00     0.049 A 
ATOM     34  H   UNL A   1      43.705  28.479  30.724  1.00  0.00     0.167 HD
ATOM     35  C   UNL A   1      45.298  26.150  30.326  1.00  0.00     0.074 A 
ATOM     36  C   UNL A   1      45.713  24.830  29.896  1.00  0.00     0.031 C 
ATOM     37  C   UNL A   1      46.080  27.013  31.021  1.00  0.00     0.031 A 
BRANCH  24  38
ATOM     38  C   UNL A   1      43.414  32.463  32.253  1.00  0.00    -0.014 A 
ATOM     39  C   UNL A   1      43.048  32.759  33.579  1.00  0.00     0.010 A 
ATOM     40  C   UNL A   1      43.922  33.494  31.442  1.00  0.00     0.010 A 
ATOM     41  C   UNL A   1      43.122  34.071  34.059  1.00  0.00     0.020 A 
ATOM     42  C   UNL A   1      44.028  34.800  31.926  1.00  0.00     0.020 A 
ATOM     43  C   UNL A   1      43.598  35.085  33.224  1.00  0.00     0.054 A 
BRANCH  43  44
ATOM     44  S   UNL A   1      43.648  36.784  33.857  1.00  0.00     0.124 S 
ATOM     45  O   UNL A   1      42.458  36.822  34.705  1.00  0.00    -0.237 OA
ATOM     46  O   UNL A   1      44.924  36.827  34.567  1.00  0.00    -0.237 OA
ATOM     47  O   UNL A   1      43.580  37.607  32.652  1.00  0.00    -0.744 OA
ENDBRANCH  43  44
ENDBRANCH  24  38
BRANCH  25  48
ATOM     48  C   UNL A   1      42.176  23.532  27.940  1.00  0.00    -0.014 A 
ATOM     49  C   UNL A   1      42.751  23.315  26.677  1.00  0.00     0.010 A 
ATOM     50  C   UNL A   1      41.500  22.475  28.577  1.00  0.00     0.010 A 
ATOM     51  C   UNL A   1      42.662  22.059  26.069  1.00  0.00     0.020 A 
ATOM     52  C   UNL A   1      41.433  21.211  27.985  1.00  0.00     0.020 A 
ATOM     53  C   UNL A   1      42.015  21.013  26.731  1.00  0.00     0.054 A 
BRANCH  53  54
ATOM     54  S   UNL A   1      42.008  19.366  25.969  1.00  0.00     0.124 S 
ATOM     55  O   UNL A   1      40.589  19.160  25.704  1.00  0.00    -0.237 OA
ATOM     56  O   UNL A   1      42.851  19.562  24.791  1.00  0.00    -0.237 OA
ATOM     57  O   UNL A   1      42.585  18.507  27.001  1.00  0.00    -0.744 OA
ENDBRANCH  53  54
ENDBRANCH  25  48
BRANCH  37  58
ATOM     58  C   UNL A   1      47.458  26.549  31.413  1.00  0.00    -0.014 A 
ATOM     59  C   UNL A   1      47.707  25.968  32.668  1.00  0.00     0.010 A 
ATOM     60  C   UNL A   1      48.494  26.600  30.461  1.00  0.00     0.010 A 
ATOM     61  C   UNL A   1      48.971  25.449  32.964  1.00  0.00     0.020 A 
ATOM     62  C   UNL A   1      49.750  26.059  30.744  1.00  0.00     0.020 A 
ATOM     63  C   UNL A   1      49.981  25.488  31.997  1.00  0.00     0.054 A 
BRANCH  63  64
ATOM     64  S   UNL A   1      51.582  24.721  32.372  1.00  0.00     0.124 S 
ATOM     65  O   UNL A   1      52.482  25.437  31.472  1.00  0.00    -0.237 OA
ATOM     66  O   UNL A   1      51.751  25.010  33.793  1.00  0.00    -0.237 OA
ATOM     67  O   UNL A   1      51.374  23.311  32.050  1.00  0.00    -0.744 OA
ENDBRANCH  63  64
ENDBRANCH  37  58
ENDBRANCH  11  12
ENDBRANCH   4   6
ENDBRANCH   1   2
BRANCH   1  68
ATOM     68  C   UNL A   1      33.545  27.402  26.546  1.00  0.00     0.042 C 
BRANCH  68  69
ATOM     69  C   UNL A   1      32.175  26.915  26.093  1.00  0.00     0.118 C 
BRANCH  69  70
ATOM     70  N   UNL A   1      31.690  25.789  26.880  1.00  0.00    -0.351 N 
ATOM     71  C   UNL A   1      31.632  24.453  26.559  1.00  0.00     0.271 C 
ATOM     72  H   UNL A   1      31.354  26.019  27.777  1.00  0.00     0.163 HD
ATOM     73  O   UNL A   1      31.082  23.668  27.330  1.00  0.00    -0.267 OA
BRANCH  71  74
ATOM     74  C   UNL A   1      32.248  23.958  25.307  1.00  0.00     0.150 A 
ATOM     75  C   UNL A   1      31.465  23.317  24.355  1.00  0.00     0.145 A 
ATOM     76  N   UNL A   1      33.577  24.177  25.138  1.00  0.00    -0.205 NA
ATOM     77  N   UNL A   1      31.984  22.810  23.211  1.00  0.00    -0.257 NA
ATOM     78  C   UNL A   1      34.094  23.690  23.987  1.00  0.00     0.238 A 
ATOM     79  C   UNL A   1      33.319  23.008  23.056  1.00  0.00     0.179 A 
BRANCH  78  80
ATOM     80  O   UNL A   1      35.443  23.835  23.690  1.00  0.00    -0.434 OA
BRANCH  80  81
ATOM     81  C   UNL A   1      36.326  23.067  24.407  1.00  0.00     0.168 A 
ATOM     82  C   UNL A   1      36.650  21.767  24.018  1.00  0.00     0.089 A 
ATOM     83  C   UNL A   1      36.987  23.653  25.488  1.00  0.00     0.166 A 
ATOM     84  C   UNL A   1      37.599  21.059  24.749  1.00  0.00     0.127 A 
ATOM     85  C   UNL A   1      37.944  22.944  26.210  1.00  0.00     0.046 A 
ATOM     86  F   UNL A   1      36.713  24.918  25.841  1.00  0.00    -0.203 F 
ATOM     87  F   UNL A   1      37.904  19.805  24.392  1.00  0.00    -0.207 F 
ATOM     88  C   UNL A   1      38.249  21.635  25.839  1.00  0.00     0.042 A 
ENDBRANCH  80  81
ENDBRANCH  78  80
ENDBRANCH  71  74
ENDBRANCH  69  70
ENDBRANCH  68  69
ENDBRANCH   1  68
TORSDOF 15
ENDMDL
