MODEL 1
REMARK VINA RESULT:     -14.6      0.000      0.000
REMARK SMILES Cc1ccc(S(=O)(=O)N2c3ccc(C(=O)NCCCNC(=O)c4ccc(-c5c6nc(c(-c7ccc(S(=O)(=O)[O-])cc7)c7ccc([nH]7)c(-c7ccc(S(=O)(=O)[O-])cc7)c7nc(c(-c8ccc(S(=O)(=O)[O-])cc8)c8ccc5[nH]8)C=C7)C=C6)cc4)cc3C[C@H]2C)cc1
REMARK SMILES IDX 18 1 17 2 16 3 14 4 15 5 13 7 9 8 10 9 86 10 11 11 84 12
REMARK SMILES IDX 85 13 87 14 12 15 83 16 6 17 7 18 8 19 5 20 1 21 2 22 3 23
REMARK SMILES IDX 89 24 4 25 88 26 19 27 20 28 21 29 22 31 23 32 24 33 82 34
REMARK SMILES IDX 25 35 81 36 26 37 27 38 28 39 75 40 29 41 80 42 74 43 76 44
REMARK SMILES IDX 30 45 79 46 73 47 72 48 31 50 61 51 42 52 60 53 43 54 46 55
REMARK SMILES IDX 59 56 77 57 44 58 45 59 58 61 78 62 47 63 32 64 33 65 41 66
REMARK SMILES IDX 34 67 40 68 35 69 36 70 37 71 38 72 39 73 62 74 63 75 71 76
REMARK SMILES IDX 64 77 70 78 65 79 66 80 67 81 68 82 69 83 48 84 49 85 57 86
REMARK SMILES IDX 50 87 56 88 51 89 52 90 53 91 54 92 55 93
REMARK H PARENT 16 6 20 30 76 49 46 60
REMARK Flexibility Score: inf
ROOT
ATOM      1  C   UNL A   1      32.595  30.097  27.268  1.00  0.00     0.042 C 
ENDROOT
BRANCH   1   2
ATOM      2  C   UNL A   1      31.865  29.447  26.092  1.00  0.00     0.118 C 
BRANCH   2   3
ATOM      3  N   UNL A   1      32.589  29.599  24.837  1.00  0.00    -0.352 N 
ATOM      4  C   UNL A   1      33.243  28.716  24.014  1.00  0.00     0.251 C 
ATOM      5  O   UNL A   1      33.649  29.157  22.936  1.00  0.00    -0.269 OA
ATOM      6  H   UNL A   1      32.615  30.527  24.511  1.00  0.00     0.163 HD
BRANCH   4   7
ATOM      7  C   UNL A   1      33.517  27.275  24.328  1.00  0.00     0.040 A 
ATOM      8  N   UNL A   1      34.491  23.164  24.716  1.00  0.00    -0.263 N 
ATOM      9  C   UNL A   1      34.174  24.575  24.720  1.00  0.00     0.055 A 
ATOM     10  C   UNL A   1      34.851  22.881  23.262  1.00  0.00     0.101 C 
ATOM     11  C   UNL A   1      33.995  25.383  25.821  1.00  0.00     0.028 A 
ATOM     12  C   UNL A   1      34.029  25.081  23.435  1.00  0.00    -0.021 A 
ATOM     13  C   UNL A   1      34.192  24.000  22.422  1.00  0.00     0.063 C 
ATOM     14  C   UNL A   1      36.380  22.937  23.127  1.00  0.00     0.032 C 
ATOM     15  C   UNL A   1      33.655  26.727  25.616  1.00  0.00     0.016 A 
ATOM     16  C   UNL A   1      33.704  26.416  23.224  1.00  0.00     0.019 A 
BRANCH   8  17
ATOM     17  S   UNL A   1      33.173  22.241  25.353  1.00  0.00     0.264 S 
ATOM     18  O   UNL A   1      31.953  22.714  24.728  1.00  0.00    -0.201 OA
ATOM     19  O   UNL A   1      33.304  22.189  26.796  1.00  0.00    -0.201 OA
BRANCH  17  20
ATOM     20  C   UNL A   1      33.365  20.549  24.824  1.00  0.00     0.088 A 
ATOM     21  C   UNL A   1      34.083  16.410  23.878  1.00  0.00     0.044 C 
ATOM     22  C   UNL A   1      33.834  17.858  24.185  1.00  0.00    -0.051 A 
ATOM     23  C   UNL A   1      34.891  18.679  24.587  1.00  0.00     0.005 A 
ATOM     24  C   UNL A   1      32.554  18.413  24.048  1.00  0.00     0.005 A 
ATOM     25  C   UNL A   1      34.659  20.015  24.909  1.00  0.00     0.022 A 
ATOM     26  C   UNL A   1      32.321  19.757  24.356  1.00  0.00     0.022 A 
ENDBRANCH  17  20
ENDBRANCH   8  17
ENDBRANCH   4   7
ENDBRANCH   2   3
ENDBRANCH   1   2
BRANCH   1  27
ATOM     27  C   UNL A   1      34.108  30.088  27.119  1.00  0.00     0.118 C 
BRANCH  27  28
ATOM     28  N   UNL A   1      34.734  31.243  27.749  1.00  0.00    -0.352 N 
ATOM     29  C   UNL A   1      35.900  31.260  28.488  1.00  0.00     0.251 C 
ATOM     30  H   UNL A   1      34.274  32.107  27.637  1.00  0.00     0.163 HD
ATOM     31  O   UNL A   1      36.234  32.214  29.171  1.00  0.00    -0.269 OA
BRANCH  29  32
ATOM     32  C   UNL A   1      36.800  30.106  28.305  1.00  0.00     0.039 A 
ATOM     33  C   UNL A   1      37.021  29.298  29.423  1.00  0.00     0.014 A 
ATOM     34  C   UNL A   1      37.608  30.016  27.175  1.00  0.00     0.014 A 
ATOM     35  C   UNL A   1      38.150  28.483  29.464  1.00  0.00     0.010 A 
ATOM     36  C   UNL A   1      38.772  29.266  27.253  1.00  0.00     0.010 A 
ATOM     37  C   UNL A   1      39.071  28.530  28.412  1.00  0.00    -0.014 A 
BRANCH  37  38
ATOM     38  C   UNL A   1      40.412  27.950  28.514  1.00  0.00     0.031 A 
ATOM     39  C   UNL A   1      40.668  26.525  28.171  1.00  0.00     0.074 A 
ATOM     40  C   UNL A   1      41.467  28.666  28.970  1.00  0.00     0.049 A 
ATOM     41  N   UNL A   1      41.536  25.785  28.790  1.00  0.00    -0.248 NA
ATOM     42  C   UNL A   1      39.942  25.813  27.123  1.00  0.00     0.031 C 
ATOM     43  C   UNL A   1      42.870  28.270  28.874  1.00  0.00     0.029 A 
ATOM     44  N   UNL A   1      41.492  29.783  29.807  1.00  0.00    -0.354 N 
ATOM     45  C   UNL A   1      41.679  24.633  28.056  1.00  0.00     0.074 A 
ATOM     46  C   UNL A   1      40.611  24.656  27.082  1.00  0.00     0.031 C 
ATOM     47  C   UNL A   1      43.559  28.892  29.841  1.00  0.00     0.029 A 
ATOM     48  C   UNL A   1      42.610  29.640  30.645  1.00  0.00     0.049 A 
ATOM     49  H   UNL A   1      40.848  30.528  29.808  1.00  0.00     0.167 HD
ATOM     50  C   UNL A   1      42.763  23.823  28.202  1.00  0.00     0.031 A 
ATOM     51  C   UNL A   1      42.605  29.719  32.006  1.00  0.00     0.031 A 
ATOM     52  C   UNL A   1      43.749  24.317  29.149  1.00  0.00     0.049 A 
ATOM     53  C   UNL A   1      43.264  28.548  32.691  1.00  0.00     0.074 A 
ATOM     54  C   UNL A   1      44.956  24.978  28.984  1.00  0.00     0.029 A 
ATOM     55  N   UNL A   1      43.457  24.361  30.506  1.00  0.00    -0.354 N 
ATOM     56  N   UNL A   1      43.596  27.447  32.080  1.00  0.00    -0.248 NA
ATOM     57  C   UNL A   1      43.520  28.483  34.128  1.00  0.00     0.031 C 
ATOM     58  C   UNL A   1      45.390  25.431  30.252  1.00  0.00     0.029 A 
ATOM     59  C   UNL A   1      44.443  25.052  31.185  1.00  0.00     0.049 A 
ATOM     60  H   UNL A   1      42.662  23.960  30.924  1.00  0.00     0.167 HD
ATOM     61  C   UNL A   1      44.036  26.528  32.996  1.00  0.00     0.074 A 
ATOM     62  C   UNL A   1      44.004  27.235  34.262  1.00  0.00     0.031 C 
ATOM     63  C   UNL A   1      44.358  25.256  32.623  1.00  0.00     0.031 A 
BRANCH  50  64
ATOM     64  C   UNL A   1      43.039  22.734  27.199  1.00  0.00    -0.014 A 
ATOM     65  C   UNL A   1      42.358  21.505  27.288  1.00  0.00     0.010 A 
ATOM     66  C   UNL A   1      44.011  22.859  26.188  1.00  0.00     0.010 A 
ATOM     67  C   UNL A   1      42.703  20.414  26.484  1.00  0.00     0.020 A 
ATOM     68  C   UNL A   1      44.390  21.763  25.399  1.00  0.00     0.020 A 
ATOM     69  C   UNL A   1      43.742  20.539  25.565  1.00  0.00     0.054 A 
BRANCH  69  70
ATOM     70  S   UNL A   1      44.278  19.068  24.651  1.00  0.00     0.124 S 
ATOM     71  O   UNL A   1      43.236  18.095  24.974  1.00  0.00    -0.237 OA
ATOM     72  O   UNL A   1      44.287  19.543  23.272  1.00  0.00    -0.237 OA
ATOM     73  O   UNL A   1      45.590  18.769  25.221  1.00  0.00    -0.744 OA
ENDBRANCH  69  70
ENDBRANCH  50  64
BRANCH  51  74
ATOM     74  C   UNL A   1      41.491  30.510  32.581  1.00  0.00    -0.014 A 
ATOM     75  C   UNL A   1      40.223  29.899  32.637  1.00  0.00     0.010 A 
ATOM     76  C   UNL A   1      41.763  31.613  33.409  1.00  0.00     0.010 A 
ATOM     77  C   UNL A   1      39.307  30.268  33.622  1.00  0.00     0.020 A 
ATOM     78  C   UNL A   1      40.844  31.984  34.398  1.00  0.00     0.020 A 
ATOM     79  C   UNL A   1      39.655  31.261  34.538  1.00  0.00     0.054 A 
BRANCH  79  80
ATOM     80  S   UNL A   1      38.623  31.449  36.020  1.00  0.00     0.124 S 
ATOM     81  O   UNL A   1      38.542  30.081  36.523  1.00  0.00    -0.237 OA
ATOM     82  O   UNL A   1      39.422  32.370  36.828  1.00  0.00    -0.237 OA
ATOM     83  O   UNL A   1      37.378  32.002  35.494  1.00  0.00    -0.744 OA
ENDBRANCH  79  80
ENDBRANCH  51  74
BRANCH  63  84
ATOM     84  C   UNL A   1      44.703  24.108  33.540  1.00  0.00    -0.014 A 
ATOM     85  C   UNL A   1      43.796  23.116  33.944  1.00  0.00     0.010 A 
ATOM     86  C   UNL A   1      46.052  23.941  33.941  1.00  0.00     0.010 A 
ATOM     87  C   UNL A   1      44.198  22.045  34.758  1.00  0.00     0.020 A 
ATOM     88  C   UNL A   1      46.471  22.857  34.721  1.00  0.00     0.020 A 
ATOM     89  C   UNL A   1      45.532  21.925  35.145  1.00  0.00     0.054 A 
BRANCH  89  90
ATOM     90  S   UNL A   1      46.069  20.507  36.140  1.00  0.00     0.124 S 
ATOM     91  O   UNL A   1      47.511  20.504  35.909  1.00  0.00    -0.237 OA
ATOM     92  O   UNL A   1      45.655  20.873  37.493  1.00  0.00    -0.237 OA
ATOM     93  O   UNL A   1      45.335  19.389  35.554  1.00  0.00    -0.744 OA
ENDBRANCH  89  90
ENDBRANCH  63  84
ENDBRANCH  37  38
ENDBRANCH  29  32
ENDBRANCH  27  28
ENDBRANCH   1  27
TORSDOF 15
ENDMDL
MODEL 2
REMARK VINA RESULT:     -14.4      4.848     11.333
REMARK SMILES Cc1ccc(S(=O)(=O)N2c3ccc(C(=O)NCCCNC(=O)c4ccc(-c5c6nc(c(-c7ccc(S(=O)(=O)[O-])cc7)c7ccc([nH]7)c(-c7ccc(S(=O)(=O)[O-])cc7)c7nc(c(-c8ccc(S(=O)(=O)[O-])cc8)c8ccc5[nH]8)C=C7)C=C6)cc4)cc3C[C@H]2C)cc1
REMARK SMILES IDX 18 1 17 2 16 3 14 4 15 5 13 7 9 8 10 9 86 10 11 11 84 12
REMARK SMILES IDX 85 13 87 14 12 15 83 16 6 17 7 18 8 19 5 20 1 21 2 22 3 23
REMARK SMILES IDX 89 24 4 25 88 26 19 27 20 28 21 29 22 31 23 32 24 33 82 34
REMARK SMILES IDX 25 35 81 36 26 37 27 38 28 39 75 40 29 41 80 42 74 43 76 44
REMARK SMILES IDX 30 45 79 46 73 47 72 48 31 50 61 51 42 52 60 53 43 54 46 55
REMARK SMILES IDX 59 56 77 57 44 58 45 59 58 61 78 62 47 63 32 64 33 65 41 66
REMARK SMILES IDX 34 67 40 68 35 69 36 70 37 71 38 72 39 73 62 74 63 75 71 76
REMARK SMILES IDX 64 77 70 78 65 79 66 80 67 81 68 82 69 83 48 84 49 85 57 86
REMARK SMILES IDX 50 87 56 88 51 89 52 90 53 91 54 92 55 93
REMARK H PARENT 16 6 20 30 76 49 46 60
REMARK Flexibility Score: inf
ROOT
ATOM      1  C   UNL A   1      37.370  22.395  24.836  1.00  0.00     0.042 C 
ENDROOT
BRANCH   1   2
ATOM      2  C   UNL A   1      36.051  21.690  25.156  1.00  0.00     0.118 C 
BRANCH   2   3
ATOM      3  N   UNL A   1      35.540  22.042  26.473  1.00  0.00    -0.352 N 
ATOM      4  C   UNL A   1      34.432  22.731  26.901  1.00  0.00     0.251 C 
ATOM      5  O   UNL A   1      34.217  22.739  28.116  1.00  0.00    -0.269 OA
ATOM      6  H   UNL A   1      36.105  21.718  27.211  1.00  0.00     0.163 HD
BRANCH   4   7
ATOM      7  C   UNL A   1      33.482  23.484  26.017  1.00  0.00     0.040 A 
ATOM      8  N   UNL A   1      31.226  25.736  23.218  1.00  0.00    -0.263 N 
ATOM      9  C   UNL A   1      31.881  24.897  24.197  1.00  0.00     0.055 A 
ATOM     10  C   UNL A   1      32.384  26.345  22.435  1.00  0.00     0.101 C 
ATOM     11  C   UNL A   1      31.290  23.957  25.013  1.00  0.00     0.028 A 
ATOM     12  C   UNL A   1      33.245  25.148  24.272  1.00  0.00    -0.021 A 
ATOM     13  C   UNL A   1      33.627  26.256  23.351  1.00  0.00     0.063 C 
ATOM     14  C   UNL A   1      32.593  25.509  21.163  1.00  0.00     0.032 C 
ATOM     15  C   UNL A   1      32.096  23.266  25.927  1.00  0.00     0.016 A 
ATOM     16  C   UNL A   1      34.051  24.456  25.168  1.00  0.00     0.019 A 
BRANCH   8  17
ATOM     17  S   UNL A   1      30.173  26.870  23.994  1.00  0.00     0.264 S 
ATOM     18  O   UNL A   1      29.322  26.135  24.910  1.00  0.00    -0.201 OA
ATOM     19  O   UNL A   1      29.607  27.738  22.980  1.00  0.00    -0.201 OA
BRANCH  17  20
ATOM     20  C   UNL A   1      31.161  27.951  25.010  1.00  0.00     0.088 A 
ATOM     21  C   UNL A   1      33.745  30.218  27.603  1.00  0.00     0.044 C 
ATOM     22  C   UNL A   1      32.827  29.442  26.705  1.00  0.00    -0.051 A 
ATOM     23  C   UNL A   1      32.247  28.253  27.157  1.00  0.00     0.005 A 
ATOM     24  C   UNL A   1      32.515  29.906  25.420  1.00  0.00     0.005 A 
ATOM     25  C   UNL A   1      31.423  27.508  26.315  1.00  0.00     0.022 A 
ATOM     26  C   UNL A   1      31.676  29.169  24.578  1.00  0.00     0.022 A 
ENDBRANCH  17  20
ENDBRANCH   8  17
ENDBRANCH   4   7
ENDBRANCH   2   3
ENDBRANCH   1   2
BRANCH   1  27
ATOM     27  C   UNL A   1      37.853  23.308  25.951  1.00  0.00     0.118 C 
BRANCH  27  28
ATOM     28  N   UNL A   1      39.217  23.005  26.364  1.00  0.00    -0.352 N 
ATOM     29  C   UNL A   1      40.171  23.898  26.810  1.00  0.00     0.251 C 
ATOM     30  H   UNL A   1      39.489  22.059  26.319  1.00  0.00     0.163 HD
ATOM     31  O   UNL A   1      41.350  23.604  26.917  1.00  0.00    -0.269 OA
BRANCH  29  32
ATOM     32  C   UNL A   1      39.668  25.201  27.284  1.00  0.00     0.039 A 
ATOM     33  C   UNL A   1      40.134  26.335  26.615  1.00  0.00     0.014 A 
ATOM     34  C   UNL A   1      39.016  25.300  28.510  1.00  0.00     0.014 A 
ATOM     35  C   UNL A   1      40.066  27.575  27.246  1.00  0.00     0.010 A 
ATOM     36  C   UNL A   1      39.025  26.521  29.166  1.00  0.00     0.010 A 
ATOM     37  C   UNL A   1      39.586  27.655  28.557  1.00  0.00    -0.014 A 
BRANCH  37  38
ATOM     38  C   UNL A   1      39.766  28.847  29.389  1.00  0.00     0.031 A 
ATOM     39  C   UNL A   1      38.747  29.931  29.420  1.00  0.00     0.074 A 
ATOM     40  C   UNL A   1      40.884  29.041  30.127  1.00  0.00     0.049 A 
ATOM     41  N   UNL A   1      39.043  31.188  29.545  1.00  0.00    -0.248 NA
ATOM     42  C   UNL A   1      37.314  29.684  29.279  1.00  0.00     0.031 C 
ATOM     43  C   UNL A   1      41.052  30.052  31.170  1.00  0.00     0.029 A 
ATOM     44  N   UNL A   1      42.170  28.528  29.951  1.00  0.00    -0.354 N 
ATOM     45  C   UNL A   1      37.868  31.857  29.784  1.00  0.00     0.074 A 
ATOM     46  C   UNL A   1      36.815  30.900  29.524  1.00  0.00     0.031 C 
ATOM     47  C   UNL A   1      42.359  30.316  31.305  1.00  0.00     0.029 A 
ATOM     48  C   UNL A   1      43.069  29.549  30.297  1.00  0.00     0.049 A 
ATOM     49  H   UNL A   1      42.401  27.621  29.642  1.00  0.00     0.167 HD
ATOM     50  C   UNL A   1      37.853  33.103  30.333  1.00  0.00     0.031 A 
ATOM     51  C   UNL A   1      44.099  30.004  29.529  1.00  0.00     0.031 A 
ATOM     52  C   UNL A   1      39.169  33.614  30.677  1.00  0.00     0.049 A 
ATOM     53  C   UNL A   1      44.113  31.501  29.343  1.00  0.00     0.074 A 
ATOM     54  C   UNL A   1      39.857  33.695  31.877  1.00  0.00     0.029 A 
ATOM     55  N   UNL A   1      40.078  33.940  29.679  1.00  0.00    -0.354 N 
ATOM     56  N   UNL A   1      43.121  32.278  29.671  1.00  0.00    -0.248 NA
ATOM     57  C   UNL A   1      45.199  32.232  28.696  1.00  0.00     0.031 C 
ATOM     58  C   UNL A   1      41.193  34.064  31.599  1.00  0.00     0.029 A 
ATOM     59  C   UNL A   1      41.319  34.201  30.229  1.00  0.00     0.049 A 
ATOM     60  H   UNL A   1      39.870  33.978  28.718  1.00  0.00     0.167 HD
ATOM     61  C   UNL A   1      43.379  33.555  29.247  1.00  0.00     0.074 A 
ATOM     62  C   UNL A   1      44.709  33.484  28.674  1.00  0.00     0.031 C 
ATOM     63  C   UNL A   1      42.453  34.547  29.385  1.00  0.00     0.031 A 
BRANCH  50  64
ATOM     64  C   UNL A   1      36.566  33.693  30.846  1.00  0.00    -0.014 A 
ATOM     65  C   UNL A   1      35.487  33.904  29.965  1.00  0.00     0.010 A 
ATOM     66  C   UNL A   1      36.400  34.112  32.180  1.00  0.00     0.010 A 
ATOM     67  C   UNL A   1      34.341  34.600  30.363  1.00  0.00     0.020 A 
ATOM     68  C   UNL A   1      35.270  34.840  32.581  1.00  0.00     0.020 A 
ATOM     69  C   UNL A   1      34.253  35.094  31.661  1.00  0.00     0.054 A 
BRANCH  69  70
ATOM     70  S   UNL A   1      32.832  36.129  32.104  1.00  0.00     0.124 S 
ATOM     71  O   UNL A   1      32.564  36.851  30.862  1.00  0.00    -0.237 OA
ATOM     72  O   UNL A   1      31.830  35.139  32.484  1.00  0.00    -0.237 OA
ATOM     73  O   UNL A   1      33.339  36.960  33.195  1.00  0.00    -0.744 OA
ENDBRANCH  69  70
ENDBRANCH  50  64
BRANCH  51  74
ATOM     74  C   UNL A   1      44.613  29.031  28.536  1.00  0.00    -0.014 A 
ATOM     75  C   UNL A   1      44.041  29.053  27.249  1.00  0.00     0.010 A 
ATOM     76  C   UNL A   1      45.872  28.432  28.722  1.00  0.00     0.010 A 
ATOM     77  C   UNL A   1      44.784  28.645  26.142  1.00  0.00     0.020 A 
ATOM     78  C   UNL A   1      46.618  28.021  27.611  1.00  0.00     0.020 A 
ATOM     79  C   UNL A   1      46.093  28.198  26.327  1.00  0.00     0.054 A 
BRANCH  79  80
ATOM     80  S   UNL A   1      47.152  28.043  24.860  1.00  0.00     0.124 S 
ATOM     81  O   UNL A   1      46.868  26.685  24.409  1.00  0.00    -0.237 OA
ATOM     82  O   UNL A   1      46.637  29.112  24.004  1.00  0.00    -0.237 OA
ATOM     83  O   UNL A   1      48.494  28.264  25.391  1.00  0.00    -0.744 OA
ENDBRANCH  79  80
ENDBRANCH  51  74
BRANCH  63  84
ATOM     84  C   UNL A   1      42.542  35.948  28.830  1.00  0.00    -0.014 A 
ATOM     85  C   UNL A   1      43.073  37.044  29.527  1.00  0.00     0.010 A 
ATOM     86  C   UNL A   1      42.173  36.168  27.480  1.00  0.00     0.010 A 
ATOM     87  C   UNL A   1      43.175  38.311  28.930  1.00  0.00     0.020 A 
ATOM     88  C   UNL A   1      42.304  37.418  26.864  1.00  0.00     0.020 A 
ATOM     89  C   UNL A   1      42.785  38.491  27.604  1.00  0.00     0.054 A 
BRANCH  89  90
ATOM     90  S   UNL A   1      42.977  40.109  26.809  1.00  0.00     0.124 S 
ATOM     91  O   UNL A   1      43.319  40.964  27.942  1.00  0.00    -0.237 OA
ATOM     92  O   UNL A   1      44.056  39.884  25.849  1.00  0.00    -0.237 OA
ATOM     93  O   UNL A   1      41.665  40.348  26.213  1.00  0.00    -0.744 OA
ENDBRANCH  89  90
ENDBRANCH  63  84
ENDBRANCH  37  38
ENDBRANCH  29  32
ENDBRANCH  27  28
ENDBRANCH   1  27
TORSDOF 15
ENDMDL
MODEL 3
REMARK VINA RESULT:     -14.4      1.213      2.025
REMARK SMILES Cc1ccc(S(=O)(=O)N2c3ccc(C(=O)NCCCNC(=O)c4ccc(-c5c6nc(c(-c7ccc(S(=O)(=O)[O-])cc7)c7ccc([nH]7)c(-c7ccc(S(=O)(=O)[O-])cc7)c7nc(c(-c8ccc(S(=O)(=O)[O-])cc8)c8ccc5[nH]8)C=C7)C=C6)cc4)cc3C[C@H]2C)cc1
REMARK SMILES IDX 18 1 17 2 16 3 14 4 15 5 13 7 9 8 10 9 86 10 11 11 84 12
REMARK SMILES IDX 85 13 87 14 12 15 83 16 6 17 7 18 8 19 5 20 1 21 2 22 3 23
REMARK SMILES IDX 89 24 4 25 88 26 19 27 20 28 21 29 22 31 23 32 24 33 82 34
REMARK SMILES IDX 25 35 81 36 26 37 27 38 28 39 75 40 29 41 80 42 74 43 76 44
REMARK SMILES IDX 30 45 79 46 73 47 72 48 31 50 61 51 42 52 60 53 43 54 46 55
REMARK SMILES IDX 59 56 77 57 44 58 45 59 58 61 78 62 47 63 32 64 33 65 41 66
REMARK SMILES IDX 34 67 40 68 35 69 36 70 37 71 38 72 39 73 62 74 63 75 71 76
REMARK SMILES IDX 64 77 70 78 65 79 66 80 67 81 68 82 69 83 48 84 49 85 57 86
REMARK SMILES IDX 50 87 56 88 51 89 52 90 53 91 54 92 55 93
REMARK H PARENT 16 6 20 30 76 49 46 60
REMARK Flexibility Score: inf
ROOT
ATOM      1  C   UNL A   1      32.626  29.773  27.047  1.00  0.00     0.042 C 
ENDROOT
BRANCH   1   2
ATOM      2  C   UNL A   1      32.102  29.678  25.613  1.00  0.00     0.118 C 
BRANCH   2   3
ATOM      3  N   UNL A   1      33.176  29.629  24.631  1.00  0.00    -0.352 N 
ATOM      4  C   UNL A   1      33.649  28.644  23.800  1.00  0.00     0.251 C 
ATOM      5  O   UNL A   1      34.507  28.975  22.978  1.00  0.00    -0.269 OA
ATOM      6  H   UNL A   1      33.665  30.479  24.545  1.00  0.00     0.163 HD
BRANCH   4   7
ATOM      7  C   UNL A   1      33.221  27.206  23.826  1.00  0.00     0.040 A 
ATOM      8  N   UNL A   1      32.044  23.176  24.435  1.00  0.00    -0.263 N 
ATOM      9  C   UNL A   1      32.375  24.546  24.110  1.00  0.00     0.055 A 
ATOM     10  C   UNL A   1      32.320  23.086  25.932  1.00  0.00     0.101 C 
ATOM     11  C   UNL A   1      32.100  25.210  22.934  1.00  0.00     0.028 A 
ATOM     12  C   UNL A   1      33.062  25.176  25.139  1.00  0.00    -0.021 A 
ATOM     13  C   UNL A   1      33.306  24.230  26.265  1.00  0.00     0.063 C 
ATOM     14  C   UNL A   1      30.992  23.288  26.677  1.00  0.00     0.032 C 
ATOM     15  C   UNL A   1      32.538  26.534  22.797  1.00  0.00     0.016 A 
ATOM     16  C   UNL A   1      33.489  26.492  25.014  1.00  0.00     0.019 A 
BRANCH   8  17
ATOM     17  S   UNL A   1      32.942  22.079  23.443  1.00  0.00     0.264 S 
ATOM     18  O   UNL A   1      33.072  22.671  22.126  1.00  0.00    -0.201 OA
ATOM     19  O   UNL A   1      32.391  20.749  23.615  1.00  0.00    -0.201 OA
BRANCH  17  20
ATOM     20  C   UNL A   1      34.599  21.965  24.090  1.00  0.00     0.088 A 
ATOM     21  C   UNL A   1      38.598  22.109  25.679  1.00  0.00     0.044 C 
ATOM     22  C   UNL A   1      37.212  22.041  25.111  1.00  0.00    -0.051 A 
ATOM     23  C   UNL A   1      36.814  22.953  24.128  1.00  0.00     0.005 A 
ATOM     24  C   UNL A   1      36.309  21.056  25.531  1.00  0.00     0.005 A 
ATOM     25  C   UNL A   1      35.515  22.919  23.623  1.00  0.00     0.022 A 
ATOM     26  C   UNL A   1      35.010  21.010  25.015  1.00  0.00     0.022 A 
ENDBRANCH  17  20
ENDBRANCH   8  17
ENDBRANCH   4   7
ENDBRANCH   2   3
ENDBRANCH   1   2
BRANCH   1  27
ATOM     27  C   UNL A   1      34.143  29.744  27.138  1.00  0.00     0.118 C 
BRANCH  27  28
ATOM     28  N   UNL A   1      34.680  30.905  27.836  1.00  0.00    -0.352 N 
ATOM     29  C   UNL A   1      35.842  30.968  28.578  1.00  0.00     0.251 C 
ATOM     30  H   UNL A   1      34.155  31.736  27.772  1.00  0.00     0.163 HD
ATOM     31  O   UNL A   1      36.103  31.904  29.316  1.00  0.00    -0.269 OA
BRANCH  29  32
ATOM     32  C   UNL A   1      36.827  29.899  28.332  1.00  0.00     0.039 A 
ATOM     33  C   UNL A   1      37.081  29.022  29.390  1.00  0.00     0.014 A 
ATOM     34  C   UNL A   1      37.666  29.956  27.223  1.00  0.00     0.014 A 
ATOM     35  C   UNL A   1      38.265  28.288  29.400  1.00  0.00     0.010 A 
ATOM     36  C   UNL A   1      38.879  29.286  27.276  1.00  0.00     0.010 A 
ATOM     37  C   UNL A   1      39.204  28.484  28.382  1.00  0.00    -0.014 A 
BRANCH  37  38
ATOM     38  C   UNL A   1      40.581  27.994  28.477  1.00  0.00     0.031 A 
ATOM     39  C   UNL A   1      40.937  26.604  28.086  1.00  0.00     0.074 A 
ATOM     40  C   UNL A   1      41.580  28.763  28.970  1.00  0.00     0.049 A 
ATOM     41  N   UNL A   1      41.849  25.902  28.687  1.00  0.00    -0.248 NA
ATOM     42  C   UNL A   1      40.270  25.882  27.005  1.00  0.00     0.031 C 
ATOM     43  C   UNL A   1      43.008  28.469  28.874  1.00  0.00     0.029 A 
ATOM     44  N   UNL A   1      41.521  29.848  29.846  1.00  0.00    -0.354 N 
ATOM     45  C   UNL A   1      42.077  24.790  27.914  1.00  0.00     0.074 A 
ATOM     46  C   UNL A   1      41.017  24.776  26.930  1.00  0.00     0.031 C 
ATOM     47  C   UNL A   1      43.645  29.100  29.870  1.00  0.00     0.029 A 
ATOM     48  C   UNL A   1      42.640  29.752  30.690  1.00  0.00     0.049 A 
ATOM     49  H   UNL A   1      40.827  30.547  29.868  1.00  0.00     0.167 HD
ATOM     50  C   UNL A   1      43.213  24.052  28.041  1.00  0.00     0.031 A 
ATOM     51  C   UNL A   1      42.619  29.781  32.053  1.00  0.00     0.031 A 
ATOM     52  C   UNL A   1      44.155  24.577  29.016  1.00  0.00     0.049 A 
ATOM     53  C   UNL A   1      43.351  28.633  32.703  1.00  0.00     0.074 A 
ATOM     54  C   UNL A   1      45.314  25.325  28.888  1.00  0.00     0.029 A 
ATOM     55  N   UNL A   1      43.849  24.552  30.370  1.00  0.00    -0.354 N 
ATOM     56  N   UNL A   1      43.763  27.581  32.056  1.00  0.00    -0.248 NA
ATOM     57  C   UNL A   1      43.600  28.533  34.139  1.00  0.00     0.031 C 
ATOM     58  C   UNL A   1      45.706  25.760  30.175  1.00  0.00     0.029 A 
ATOM     59  C   UNL A   1      44.781  25.283  31.085  1.00  0.00     0.049 A 
ATOM     60  H   UNL A   1      43.081  24.082  30.766  1.00  0.00     0.167 HD
ATOM     61  C   UNL A   1      44.258  26.661  32.943  1.00  0.00     0.074 A 
ATOM     62  C   UNL A   1      44.168  27.317  34.233  1.00  0.00     0.031 C 
ATOM     63  C   UNL A   1      44.669  25.428  32.528  1.00  0.00     0.031 A 
BRANCH  50  64
ATOM     64  C   UNL A   1      43.572  23.021  27.004  1.00  0.00    -0.014 A 
ATOM     65  C   UNL A   1      42.764  21.880  26.835  1.00  0.00     0.010 A 
ATOM     66  C   UNL A   1      44.734  23.110  26.214  1.00  0.00     0.010 A 
ATOM     67  C   UNL A   1      43.150  20.824  26.004  1.00  0.00     0.020 A 
ATOM     68  C   UNL A   1      45.149  22.043  25.403  1.00  0.00     0.020 A 
ATOM     69  C   UNL A   1      44.359  20.897  25.317  1.00  0.00     0.054 A 
BRANCH  69  70
ATOM     70  S   UNL A   1      44.914  19.451  24.375  1.00  0.00     0.124 S 
ATOM     71  O   UNL A   1      44.441  19.748  23.025  1.00  0.00    -0.237 OA
ATOM     72  O   UNL A   1      46.361  19.495  24.558  1.00  0.00    -0.237 OA
ATOM     73  O   UNL A   1      44.233  18.334  25.028  1.00  0.00    -0.744 OA
ENDBRANCH  69  70
ENDBRANCH  50  64
BRANCH  51  74
ATOM     74  C   UNL A   1      41.449  30.471  32.645  1.00  0.00    -0.014 A 
ATOM     75  C   UNL A   1      40.296  29.700  32.891  1.00  0.00     0.010 A 
ATOM     76  C   UNL A   1      41.617  31.695  33.316  1.00  0.00     0.010 A 
ATOM     77  C   UNL A   1      39.417  30.054  33.914  1.00  0.00     0.020 A 
ATOM     78  C   UNL A   1      40.736  32.052  34.343  1.00  0.00     0.020 A 
ATOM     79  C   UNL A   1      39.685  31.191  34.678  1.00  0.00     0.054 A 
BRANCH  79  80
ATOM     80  S   UNL A   1      38.758  31.412  36.224  1.00  0.00     0.124 S 
ATOM     81  O   UNL A   1      37.649  32.263  35.808  1.00  0.00    -0.237 OA
ATOM     82  O   UNL A   1      38.403  30.033  36.560  1.00  0.00    -0.237 OA
ATOM     83  O   UNL A   1      39.734  32.037  37.113  1.00  0.00    -0.744 OA
ENDBRANCH  79  80
ENDBRANCH  51  74
BRANCH  63  84
ATOM     84  C   UNL A   1      45.086  24.274  33.406  1.00  0.00    -0.014 A 
ATOM     85  C   UNL A   1      44.460  23.018  33.413  1.00  0.00     0.010 A 
ATOM     86  C   UNL A   1      46.250  24.411  34.202  1.00  0.00     0.010 A 
ATOM     87  C   UNL A   1      44.933  21.969  34.219  1.00  0.00     0.020 A 
ATOM     88  C   UNL A   1      46.752  23.362  34.981  1.00  0.00     0.020 A 
ATOM     89  C   UNL A   1      46.073  22.149  35.002  1.00  0.00     0.054 A 
BRANCH  89  90
ATOM     90  S   UNL A   1      46.725  20.778  35.992  1.00  0.00     0.124 S 
ATOM     91  O   UNL A   1      45.509  20.048  36.336  1.00  0.00    -0.237 OA
ATOM     92  O   UNL A   1      47.622  20.093  35.063  1.00  0.00    -0.237 OA
ATOM     93  O   UNL A   1      47.390  21.453  37.103  1.00  0.00    -0.744 OA
ENDBRANCH  89  90
ENDBRANCH  63  84
ENDBRANCH  37  38
ENDBRANCH  29  32
ENDBRANCH  27  28
ENDBRANCH   1  27
TORSDOF 15
ENDMDL
