MODEL 1
REMARK VINA RESULT:      -9.9      0.000      0.000
REMARK SMILES CC[C@](O)(C(=O)NCCCNC(=O)c1ccc(-c2c3nc(c(-c4ccc(S(=O)(=O)[O-])cc4)c4ccc([nH]4)c(-c4ccc(S(=O)(=O)[O-])cc4)c4nc(c(-c5ccc(S(=O)(=O)[O-])cc5)c5ccc2[nH]5)C=C4)C=C3)cc1)[C@@H](C)c1ccc2c(c1)OCCO2
REMARK SMILES IDX 9 1 8 2 7 3 5 4 6 5 3 7 2 8 1 9 74 10 75 11 76 12 77 13
REMARK SMILES IDX 81 14 78 15 80 16 79 17 82 18 85 19 83 20 84 21 4 22 10 24
REMARK SMILES IDX 11 25 12 26 13 28 14 29 15 30 73 31 16 32 72 33 17 34 18 35
REMARK SMILES IDX 19 36 66 37 20 38 71 39 65 40 67 41 21 42 70 43 64 44 63 45
REMARK SMILES IDX 22 47 52 48 33 49 51 50 34 51 37 52 50 53 68 54 35 55 36 56
REMARK SMILES IDX 49 58 69 59 38 60 23 61 24 62 32 63 25 64 31 65 26 66 27 67
REMARK SMILES IDX 28 68 29 69 30 70 53 71 54 72 62 73 55 74 61 75 56 76 57 77
REMARK SMILES IDX 58 78 59 79 60 80 39 81 40 82 48 83 41 84 47 85 42 86 43 87
REMARK SMILES IDX 44 88 45 89 46 90
REMARK H PARENT 7 6 4 23 11 27 67 46 37 57
REMARK Flexibility Score: inf
ROOT
ATOM      1  C   UNL A   1      33.863  33.732  28.470  1.00  0.00     0.042 C 
ENDROOT
BRANCH   1   2
ATOM      2  C   UNL A   1      34.727  34.744  29.200  1.00  0.00     0.117 C 
BRANCH   2   3
ATOM      3  N   UNL A   1      36.151  34.601  28.951  1.00  0.00    -0.354 N 
ATOM      4  C   UNL A   1      37.131  33.990  29.693  1.00  0.00     0.252 C 
ATOM      5  O   UNL A   1      38.184  33.729  29.109  1.00  0.00    -0.272 OA
ATOM      6  H   UNL A   1      36.465  35.011  28.112  1.00  0.00     0.163 HD
BRANCH   4   7
ATOM      7  C   UNL A   1      36.886  33.658  31.198  1.00  0.00     0.149 C 
BRANCH   7   8
ATOM      8  C   UNL A   1      35.940  32.421  31.310  1.00  0.00     0.043 C 
ATOM      9  C   UNL A   1      34.572  32.677  31.933  1.00  0.00     0.007 C 
ENDBRANCH   7   8
BRANCH   7  10
ATOM     10  C   UNL A   1      38.234  33.342  31.930  1.00  0.00     0.058 C 
ATOM     11  C   UNL A   1      39.089  34.582  32.279  1.00  0.00     0.016 C 
BRANCH  10  12
ATOM     12  C   UNL A   1      38.015  32.578  33.239  1.00  0.00    -0.038 A 
ATOM     13  C   UNL A   1      38.622  31.332  33.464  1.00  0.00     0.008 A 
ATOM     14  C   UNL A   1      37.287  33.181  34.276  1.00  0.00     0.054 A 
ATOM     15  C   UNL A   1      38.611  30.764  34.741  1.00  0.00     0.051 A 
ATOM     16  C   UNL A   1      37.333  32.656  35.550  1.00  0.00     0.161 A 
ATOM     17  C   UNL A   1      38.040  31.480  35.788  1.00  0.00     0.161 A 
ATOM     18  O   UNL A   1      36.787  33.421  36.540  1.00  0.00    -0.486 OA
ATOM     19  O   UNL A   1      38.333  31.109  37.078  1.00  0.00    -0.486 OA
ATOM     20  C   UNL A   1      37.466  33.274  37.791  1.00  0.00     0.271 C 
ATOM     21  C   UNL A   1      38.668  32.332  37.753  1.00  0.00     0.271 C 
ENDBRANCH  10  12
ENDBRANCH   7  10
BRANCH   7  22
ATOM     22  O   UNL A   1      36.336  34.845  31.785  1.00  0.00    -0.379 OA
ATOM     23  H   UNL A   1      36.998  35.255  32.364  1.00  0.00     0.212 HD
ENDBRANCH   7  22
ENDBRANCH   4   7
ENDBRANCH   2   3
ENDBRANCH   1   2
BRANCH   1  24
ATOM     24  C   UNL A   1      34.657  32.598  27.849  1.00  0.00     0.118 C 
BRANCH  24  25
ATOM     25  N   UNL A   1      33.938  31.334  27.911  1.00  0.00    -0.352 N 
ATOM     26  C   UNL A   1      34.403  30.044  27.915  1.00  0.00     0.251 C 
ATOM     27  H   UNL A   1      32.958  31.419  27.956  1.00  0.00     0.163 HD
ATOM     28  O   UNL A   1      33.621  29.129  27.670  1.00  0.00    -0.269 OA
BRANCH  26  29
ATOM     29  C   UNL A   1      35.820  29.755  28.215  1.00  0.00     0.039 A 
ATOM     30  C   UNL A   1      36.167  29.332  29.501  1.00  0.00     0.014 A 
ATOM     31  C   UNL A   1      36.815  29.948  27.253  1.00  0.00     0.014 A 
ATOM     32  C   UNL A   1      37.501  29.061  29.800  1.00  0.00     0.010 A 
ATOM     33  C   UNL A   1      38.126  29.574  27.520  1.00  0.00     0.010 A 
ATOM     34  C   UNL A   1      38.487  29.149  28.802  1.00  0.00    -0.014 A 
BRANCH  34  35
ATOM     35  C   UNL A   1      39.902  28.813  29.093  1.00  0.00     0.031 A 
ATOM     36  C   UNL A   1      40.807  29.830  29.733  1.00  0.00     0.074 A 
ATOM     37  C   UNL A   1      40.375  27.603  28.736  1.00  0.00     0.049 A 
ATOM     38  N   UNL A   1      42.072  29.722  30.050  1.00  0.00    -0.248 NA
ATOM     39  C   UNL A   1      40.229  31.151  30.033  1.00  0.00     0.031 C 
ATOM     40  C   UNL A   1      39.605  26.561  28.049  1.00  0.00     0.029 A 
ATOM     41  N   UNL A   1      41.615  27.043  28.902  1.00  0.00    -0.354 N 
ATOM     42  C   UNL A   1      42.439  30.955  30.576  1.00  0.00     0.074 A 
ATOM     43  C   UNL A   1      41.283  31.818  30.477  1.00  0.00     0.031 C 
ATOM     44  C   UNL A   1      40.379  25.476  27.889  1.00  0.00     0.029 A 
ATOM     45  C   UNL A   1      41.706  25.757  28.424  1.00  0.00     0.049 A 
ATOM     46  H   UNL A   1      42.367  27.517  29.324  1.00  0.00     0.167 HD
ATOM     47  C   UNL A   1      43.622  31.328  31.120  1.00  0.00     0.031 A 
ATOM     48  C   UNL A   1      42.744  24.900  28.419  1.00  0.00     0.031 A 
ATOM     49  C   UNL A   1      44.763  30.458  31.223  1.00  0.00     0.049 A 
ATOM     50  C   UNL A   1      44.042  25.332  29.039  1.00  0.00     0.074 A 
ATOM     51  C   UNL A   1      45.995  30.718  31.796  1.00  0.00     0.029 A 
ATOM     52  N   UNL A   1      44.811  29.157  30.744  1.00  0.00    -0.354 N 
ATOM     53  N   UNL A   1      44.348  26.482  29.593  1.00  0.00    -0.248 NA
ATOM     54  C   UNL A   1      45.129  24.345  29.052  1.00  0.00     0.031 C 
ATOM     55  C   UNL A   1      46.804  29.591  31.622  1.00  0.00     0.029 A 
ATOM     56  C   UNL A   1      46.058  28.608  30.991  1.00  0.00     0.049 A 
ATOM     57  H   UNL A   1      44.069  28.694  30.293  1.00  0.00     0.167 HD
ATOM     58  C   UNL A   1      45.660  26.352  30.033  1.00  0.00     0.074 A 
ATOM     59  C   UNL A   1      46.075  25.002  29.708  1.00  0.00     0.031 C 
ATOM     60  C   UNL A   1      46.454  27.266  30.645  1.00  0.00     0.031 A 
BRANCH  47  61
ATOM     61  C   UNL A   1      43.733  32.732  31.653  1.00  0.00    -0.014 A 
ATOM     62  C   UNL A   1      44.102  33.799  30.810  1.00  0.00     0.010 A 
ATOM     63  C   UNL A   1      43.425  33.002  32.998  1.00  0.00     0.010 A 
ATOM     64  C   UNL A   1      44.196  35.100  31.311  1.00  0.00     0.020 A 
ATOM     65  C   UNL A   1      43.489  34.307  33.497  1.00  0.00     0.020 A 
ATOM     66  C   UNL A   1      43.889  35.346  32.652  1.00  0.00     0.054 A 
BRANCH  66  67
ATOM     67  S   UNL A   1      43.986  37.050  33.265  1.00  0.00     0.124 S 
ATOM     68  O   UNL A   1      42.696  37.205  33.932  1.00  0.00    -0.237 OA
ATOM     69  O   UNL A   1      45.147  37.007  34.148  1.00  0.00    -0.237 OA
ATOM     70  O   UNL A   1      44.157  37.846  32.052  1.00  0.00    -0.744 OA
ENDBRANCH  66  67
ENDBRANCH  47  61
BRANCH  48  71
ATOM     71  C   UNL A   1      42.587  23.548  27.817  1.00  0.00    -0.014 A 
ATOM     72  C   UNL A   1      42.795  23.346  26.441  1.00  0.00     0.010 A 
ATOM     73  C   UNL A   1      42.244  22.449  28.624  1.00  0.00     0.010 A 
ATOM     74  C   UNL A   1      42.639  22.075  25.880  1.00  0.00     0.020 A 
ATOM     75  C   UNL A   1      42.116  21.170  28.073  1.00  0.00     0.020 A 
ATOM     76  C   UNL A   1      42.301  20.995  26.701  1.00  0.00     0.054 A 
BRANCH  76  77
ATOM     77  S   UNL A   1      42.145  19.346  25.959  1.00  0.00     0.124 S 
ATOM     78  O   UNL A   1      40.709  19.257  25.716  1.00  0.00    -0.237 OA
ATOM     79  O   UNL A   1      42.984  19.455  24.769  1.00  0.00    -0.237 OA
ATOM     80  O   UNL A   1      42.663  18.456  26.997  1.00  0.00    -0.744 OA
ENDBRANCH  76  77
ENDBRANCH  48  71
BRANCH  60  81
ATOM     81  C   UNL A   1      47.844  26.824  31.011  1.00  0.00    -0.014 A 
ATOM     82  C   UNL A   1      48.913  26.965  30.109  1.00  0.00     0.010 A 
ATOM     83  C   UNL A   1      48.088  26.278  32.285  1.00  0.00     0.010 A 
ATOM     84  C   UNL A   1      50.192  26.521  30.454  1.00  0.00     0.020 A 
ATOM     85  C   UNL A   1      49.372  25.862  32.646  1.00  0.00     0.020 A 
ATOM     86  C   UNL A   1      50.411  25.967  31.719  1.00  0.00     0.054 A 
BRANCH  86  87
ATOM     87  S   UNL A   1      52.082  25.409  32.149  1.00  0.00     0.124 S 
ATOM     88  O   UNL A   1      52.855  25.851  30.992  1.00  0.00    -0.237 OA
ATOM     89  O   UNL A   1      52.349  26.125  33.394  1.00  0.00    -0.237 OA
ATOM     90  O   UNL A   1      51.938  23.961  32.287  1.00  0.00    -0.744 OA
ENDBRANCH  86  87
ENDBRANCH  60  81
ENDBRANCH  34  35
ENDBRANCH  26  29
ENDBRANCH  24  25
ENDBRANCH   1  24
TORSDOF 17
ENDMDL
MODEL 2
REMARK VINA RESULT:      -9.8      5.225     12.615
REMARK SMILES CC[C@](O)(C(=O)NCCCNC(=O)c1ccc(-c2c3nc(c(-c4ccc(S(=O)(=O)[O-])cc4)c4ccc([nH]4)c(-c4ccc(S(=O)(=O)[O-])cc4)c4nc(c(-c5ccc(S(=O)(=O)[O-])cc5)c5ccc2[nH]5)C=C4)C=C3)cc1)[C@@H](C)c1ccc2c(c1)OCCO2
REMARK SMILES IDX 9 1 8 2 7 3 5 4 6 5 3 7 2 8 1 9 74 10 75 11 76 12 77 13
REMARK SMILES IDX 81 14 78 15 80 16 79 17 82 18 85 19 83 20 84 21 4 22 10 24
REMARK SMILES IDX 11 25 12 26 13 28 14 29 15 30 73 31 16 32 72 33 17 34 18 35
REMARK SMILES IDX 19 36 66 37 20 38 71 39 65 40 67 41 21 42 70 43 64 44 63 45
REMARK SMILES IDX 22 47 52 48 33 49 51 50 34 51 37 52 50 53 68 54 35 55 36 56
REMARK SMILES IDX 49 58 69 59 38 60 23 61 24 62 32 63 25 64 31 65 26 66 27 67
REMARK SMILES IDX 28 68 29 69 30 70 53 71 54 72 62 73 55 74 61 75 56 76 57 77
REMARK SMILES IDX 58 78 59 79 60 80 39 81 40 82 48 83 41 84 47 85 42 86 43 87
REMARK SMILES IDX 44 88 45 89 46 90
REMARK H PARENT 7 6 4 23 11 27 67 46 37 57
REMARK Flexibility Score: inf
ROOT
ATOM      1  C   UNL A   1      39.353  22.407  26.448  1.00  0.00     0.042 C 
ENDROOT
BRANCH   1   2
ATOM      2  C   UNL A   1      38.006  22.946  26.000  1.00  0.00     0.117 C 
BRANCH   2   3
ATOM      3  N   UNL A   1      37.760  22.820  24.574  1.00  0.00    -0.354 N 
ATOM      4  C   UNL A   1      36.623  23.049  23.839  1.00  0.00     0.252 C 
ATOM      5  O   UNL A   1      36.768  23.181  22.623  1.00  0.00    -0.272 OA
ATOM      6  H   UNL A   1      38.536  22.520  24.048  1.00  0.00     0.163 HD
BRANCH   4   7
ATOM      7  C   UNL A   1      35.235  23.134  24.546  1.00  0.00     0.149 C 
BRANCH   7   8
ATOM      8  C   UNL A   1      34.101  22.918  23.495  1.00  0.00     0.043 C 
ATOM      9  C   UNL A   1      32.917  23.876  23.579  1.00  0.00     0.007 C 
ENDBRANCH   7   8
BRANCH   7  10
ATOM     10  C   UNL A   1      35.109  22.048  25.669  1.00  0.00     0.058 C 
ATOM     11  C   UNL A   1      33.928  22.257  26.645  1.00  0.00     0.016 C 
BRANCH  10  12
ATOM     12  C   UNL A   1      34.957  20.638  25.092  1.00  0.00    -0.038 A 
ATOM     13  C   UNL A   1      36.078  19.825  24.852  1.00  0.00     0.008 A 
ATOM     14  C   UNL A   1      33.673  20.104  24.905  1.00  0.00     0.054 A 
ATOM     15  C   UNL A   1      35.914  18.469  24.558  1.00  0.00     0.051 A 
ATOM     16  C   UNL A   1      33.512  18.753  24.683  1.00  0.00     0.161 A 
ATOM     17  C   UNL A   1      34.630  17.932  24.564  1.00  0.00     0.161 A 
ATOM     18  O   UNL A   1      32.232  18.280  24.736  1.00  0.00    -0.486 OA
ATOM     19  O   UNL A   1      34.487  16.567  24.632  1.00  0.00    -0.486 OA
ATOM     20  C   UNL A   1      32.156  16.945  25.244  1.00  0.00     0.271 C 
ATOM     21  C   UNL A   1      33.501  16.345  25.653  1.00  0.00     0.271 C 
ENDBRANCH  10  12
ENDBRANCH   7  10
BRANCH   7  22
ATOM     22  O   UNL A   1      35.185  24.422  25.176  1.00  0.00    -0.379 OA
ATOM     23  H   UNL A   1      34.608  25.010  24.663  1.00  0.00     0.212 HD
ENDBRANCH   7  22
ENDBRANCH   4   7
ENDBRANCH   2   3
ENDBRANCH   1   2
BRANCH   1  24
ATOM     24  C   UNL A   1      40.231  23.451  27.111  1.00  0.00     0.118 C 
BRANCH  24  25
ATOM     25  N   UNL A   1      41.015  24.199  26.139  1.00  0.00    -0.352 N 
ATOM     26  C   UNL A   1      41.327  25.533  26.082  1.00  0.00     0.251 C 
ATOM     27  H   UNL A   1      41.382  23.657  25.403  1.00  0.00     0.163 HD
ATOM     28  O   UNL A   1      41.743  26.002  25.027  1.00  0.00    -0.269 OA
BRANCH  26  29
ATOM     29  C   UNL A   1      41.170  26.394  27.272  1.00  0.00     0.039 A 
ATOM     30  C   UNL A   1      42.046  27.468  27.450  1.00  0.00     0.014 A 
ATOM     31  C   UNL A   1      40.198  26.120  28.238  1.00  0.00     0.014 A 
ATOM     32  C   UNL A   1      41.914  28.287  28.571  1.00  0.00     0.010 A 
ATOM     33  C   UNL A   1      39.997  26.999  29.295  1.00  0.00     0.010 A 
ATOM     34  C   UNL A   1      40.868  28.077  29.485  1.00  0.00    -0.014 A 
BRANCH  34  35
ATOM     35  C   UNL A   1      40.682  28.972  30.653  1.00  0.00     0.031 A 
ATOM     36  C   UNL A   1      41.536  28.803  31.881  1.00  0.00     0.074 A 
ATOM     37  C   UNL A   1      39.713  29.907  30.616  1.00  0.00     0.049 A 
ATOM     38  N   UNL A   1      41.510  29.480  33.000  1.00  0.00    -0.248 NA
ATOM     39  C   UNL A   1      42.529  27.715  31.866  1.00  0.00     0.031 C 
ATOM     40  C   UNL A   1      38.781  30.118  29.503  1.00  0.00     0.029 A 
ATOM     41  N   UNL A   1      39.349  30.855  31.536  1.00  0.00    -0.354 N 
ATOM     42  C   UNL A   1      42.472  28.899  33.818  1.00  0.00     0.074 A 
ATOM     43  C   UNL A   1      43.020  27.774  33.094  1.00  0.00     0.031 C 
ATOM     44  C   UNL A   1      37.981  31.157  29.791  1.00  0.00     0.029 A 
ATOM     45  C   UNL A   1      38.315  31.659  31.119  1.00  0.00     0.049 A 
ATOM     46  H   UNL A   1      39.789  30.952  32.412  1.00  0.00     0.167 HD
ATOM     47  C   UNL A   1      42.884  29.284  35.050  1.00  0.00     0.031 A 
ATOM     48  C   UNL A   1      37.703  32.686  31.738  1.00  0.00     0.031 A 
ATOM     49  C   UNL A   1      42.340  30.412  35.758  1.00  0.00     0.049 A 
ATOM     50  C   UNL A   1      38.187  33.102  33.098  1.00  0.00     0.074 A 
ATOM     51  C   UNL A   1      42.715  30.917  36.990  1.00  0.00     0.029 A 
ATOM     52  N   UNL A   1      41.305  31.211  35.295  1.00  0.00    -0.354 N 
ATOM     53  N   UNL A   1      39.145  32.580  33.827  1.00  0.00    -0.248 NA
ATOM     54  C   UNL A   1      37.520  34.258  33.711  1.00  0.00     0.031 C 
ATOM     55  C   UNL A   1      41.875  31.994  37.293  1.00  0.00     0.029 A 
ATOM     56  C   UNL A   1      41.016  32.195  36.225  1.00  0.00     0.049 A 
ATOM     57  H   UNL A   1      40.844  31.095  34.434  1.00  0.00     0.167 HD
ATOM     58  C   UNL A   1      39.206  33.353  34.980  1.00  0.00     0.074 A 
ATOM     59  C   UNL A   1      38.209  34.396  34.835  1.00  0.00     0.031 C 
ATOM     60  C   UNL A   1      40.008  33.213  36.065  1.00  0.00     0.031 A 
BRANCH  47  61
ATOM     61  C   UNL A   1      43.982  28.484  35.700  1.00  0.00    -0.014 A 
ATOM     62  C   UNL A   1      45.336  28.821  35.504  1.00  0.00     0.010 A 
ATOM     63  C   UNL A   1      43.663  27.411  36.550  1.00  0.00     0.010 A 
ATOM     64  C   UNL A   1      46.348  28.077  36.116  1.00  0.00     0.020 A 
ATOM     65  C   UNL A   1      44.673  26.682  37.188  1.00  0.00     0.020 A 
ATOM     66  C   UNL A   1      46.010  27.012  36.954  1.00  0.00     0.054 A 
BRANCH  66  67
ATOM     67  S   UNL A   1      47.345  26.088  37.763  1.00  0.00     0.124 S 
ATOM     68  O   UNL A   1      48.496  26.433  36.933  1.00  0.00    -0.237 OA
ATOM     69  O   UNL A   1      47.353  26.651  39.110  1.00  0.00    -0.237 OA
ATOM     70  O   UNL A   1      46.909  24.697  37.674  1.00  0.00    -0.744 OA
ENDBRANCH  66  67
ENDBRANCH  47  61
BRANCH  48  71
ATOM     71  C   UNL A   1      36.579  33.393  31.067  1.00  0.00    -0.014 A 
ATOM     72  C   UNL A   1      36.777  34.063  29.847  1.00  0.00     0.010 A 
ATOM     73  C   UNL A   1      35.294  33.386  31.640  1.00  0.00     0.010 A 
ATOM     74  C   UNL A   1      35.719  34.733  29.226  1.00  0.00     0.020 A 
ATOM     75  C   UNL A   1      34.226  34.028  31.007  1.00  0.00     0.020 A 
ATOM     76  C   UNL A   1      34.450  34.710  29.811  1.00  0.00     0.054 A 
BRANCH  76  77
ATOM     77  S   UNL A   1      33.080  35.548  28.965  1.00  0.00     0.124 S 
ATOM     78  O   UNL A   1      32.470  34.454  28.217  1.00  0.00    -0.237 OA
ATOM     79  O   UNL A   1      32.293  36.070  30.079  1.00  0.00    -0.237 OA
ATOM     80  O   UNL A   1      33.750  36.565  28.156  1.00  0.00    -0.744 OA
ENDBRANCH  76  77
ENDBRANCH  48  71
BRANCH  60  81
ATOM     81  C   UNL A   1      39.843  34.222  37.169  1.00  0.00    -0.014 A 
ATOM     82  C   UNL A   1      38.988  33.975  38.257  1.00  0.00     0.010 A 
ATOM     83  C   UNL A   1      40.569  35.426  37.126  1.00  0.00     0.010 A 
ATOM     84  C   UNL A   1      38.823  34.936  39.258  1.00  0.00     0.020 A 
ATOM     85  C   UNL A   1      40.432  36.376  38.141  1.00  0.00     0.020 A 
ATOM     86  C   UNL A   1      39.542  36.132  39.189  1.00  0.00     0.054 A 
BRANCH  86  87
ATOM     87  S   UNL A   1      39.321  37.360  40.506  1.00  0.00     0.124 S 
ATOM     88  O   UNL A   1      38.963  36.519  41.645  1.00  0.00    -0.237 OA
ATOM     89  O   UNL A   1      40.636  37.992  40.579  1.00  0.00    -0.237 OA
ATOM     90  O   UNL A   1      38.251  38.218  40.003  1.00  0.00    -0.744 OA
ENDBRANCH  86  87
ENDBRANCH  60  81
ENDBRANCH  34  35
ENDBRANCH  26  29
ENDBRANCH  24  25
ENDBRANCH   1  24
TORSDOF 17
ENDMDL
MODEL 3
REMARK VINA RESULT:      -9.8      3.534      7.069
REMARK SMILES CC[C@](O)(C(=O)NCCCNC(=O)c1ccc(-c2c3nc(c(-c4ccc(S(=O)(=O)[O-])cc4)c4ccc([nH]4)c(-c4ccc(S(=O)(=O)[O-])cc4)c4nc(c(-c5ccc(S(=O)(=O)[O-])cc5)c5ccc2[nH]5)C=C4)C=C3)cc1)[C@@H](C)c1ccc2c(c1)OCCO2
REMARK SMILES IDX 9 1 8 2 7 3 5 4 6 5 3 7 2 8 1 9 74 10 75 11 76 12 77 13
REMARK SMILES IDX 81 14 78 15 80 16 79 17 82 18 85 19 83 20 84 21 4 22 10 24
REMARK SMILES IDX 11 25 12 26 13 28 14 29 15 30 73 31 16 32 72 33 17 34 18 35
REMARK SMILES IDX 19 36 66 37 20 38 71 39 65 40 67 41 21 42 70 43 64 44 63 45
REMARK SMILES IDX 22 47 52 48 33 49 51 50 34 51 37 52 50 53 68 54 35 55 36 56
REMARK SMILES IDX 49 58 69 59 38 60 23 61 24 62 32 63 25 64 31 65 26 66 27 67
REMARK SMILES IDX 28 68 29 69 30 70 53 71 54 72 62 73 55 74 61 75 56 76 57 77
REMARK SMILES IDX 58 78 59 79 60 80 39 81 40 82 48 83 41 84 47 85 42 86 43 87
REMARK SMILES IDX 44 88 45 89 46 90
REMARK H PARENT 7 6 4 23 11 27 67 46 37 57
REMARK Flexibility Score: inf
ROOT
ATOM      1  C   UNL A   1      32.948  27.391  26.508  1.00  0.00     0.042 C 
ENDROOT
BRANCH   1   2
ATOM      2  C   UNL A   1      33.198  26.004  25.942  1.00  0.00     0.117 C 
BRANCH   2   3
ATOM      3  N   UNL A   1      32.033  25.395  25.325  1.00  0.00    -0.354 N 
ATOM      4  C   UNL A   1      31.664  25.305  24.006  1.00  0.00     0.252 C 
ATOM      5  O   UNL A   1      30.808  24.464  23.727  1.00  0.00    -0.272 OA
ATOM      6  H   UNL A   1      31.403  24.979  25.958  1.00  0.00     0.163 HD
BRANCH   4   7
ATOM      7  C   UNL A   1      32.321  26.237  22.941  1.00  0.00     0.149 C 
BRANCH   7   8
ATOM      8  C   UNL A   1      31.686  25.958  21.542  1.00  0.00     0.043 C 
ATOM      9  C   UNL A   1      32.651  25.530  20.441  1.00  0.00     0.007 C 
ENDBRANCH   7   8
BRANCH   7  10
ATOM     10  C   UNL A   1      32.111  27.745  23.309  1.00  0.00     0.058 C 
ATOM     11  C   UNL A   1      33.088  28.724  22.619  1.00  0.00     0.016 C 
BRANCH  10  12
ATOM     12  C   UNL A   1      30.697  28.229  22.974  1.00  0.00    -0.038 A 
ATOM     13  C   UNL A   1      29.564  27.592  23.508  1.00  0.00     0.008 A 
ATOM     14  C   UNL A   1      30.529  29.396  22.212  1.00  0.00     0.054 A 
ATOM     15  C   UNL A   1      28.304  28.184  23.392  1.00  0.00     0.051 A 
ATOM     16  C   UNL A   1      29.298  30.014  22.156  1.00  0.00     0.161 A 
ATOM     17  C   UNL A   1      28.203  29.434  22.791  1.00  0.00     0.161 A 
ATOM     18  O   UNL A   1      29.269  31.254  21.586  1.00  0.00    -0.486 OA
ATOM     19  O   UNL A   1      27.059  30.170  22.987  1.00  0.00    -0.486 OA
ATOM     20  C   UNL A   1      28.291  32.113  22.178  1.00  0.00     0.271 C 
ATOM     21  C   UNL A   1      27.515  31.487  23.336  1.00  0.00     0.271 C 
ENDBRANCH  10  12
ENDBRANCH   7  10
BRANCH   7  22
ATOM     22  O   UNL A   1      33.729  25.967  22.987  1.00  0.00    -0.379 OA
ATOM     23  H   UNL A   1      34.187  26.530  22.344  1.00  0.00     0.212 HD
ENDBRANCH   7  22
ENDBRANCH   4   7
ENDBRANCH   2   3
ENDBRANCH   1   2
BRANCH   1  24
ATOM     24  C   UNL A   1      34.059  28.377  26.202  1.00  0.00     0.118 C 
BRANCH  24  25
ATOM     25  N   UNL A   1      33.831  29.668  26.834  1.00  0.00    -0.352 N 
ATOM     26  C   UNL A   1      34.547  30.325  27.802  1.00  0.00     0.251 C 
ATOM     27  H   UNL A   1      33.031  30.147  26.516  1.00  0.00     0.163 HD
ATOM     28  O   UNL A   1      34.019  31.256  28.403  1.00  0.00    -0.269 OA
BRANCH  26  29
ATOM     29  C   UNL A   1      35.934  29.924  28.115  1.00  0.00     0.039 A 
ATOM     30  C   UNL A   1      36.918  30.077  27.135  1.00  0.00     0.014 A 
ATOM     31  C   UNL A   1      36.260  29.353  29.347  1.00  0.00     0.014 A 
ATOM     32  C   UNL A   1      38.232  29.698  27.414  1.00  0.00     0.010 A 
ATOM     33  C   UNL A   1      37.585  29.080  29.662  1.00  0.00     0.010 A 
ATOM     34  C   UNL A   1      38.580  29.227  28.691  1.00  0.00    -0.014 A 
BRANCH  34  35
ATOM     35  C   UNL A   1      39.982  28.871  29.018  1.00  0.00     0.031 A 
ATOM     36  C   UNL A   1      40.886  29.876  29.679  1.00  0.00     0.074 A 
ATOM     37  C   UNL A   1      40.447  27.653  28.676  1.00  0.00     0.049 A 
ATOM     38  N   UNL A   1      42.140  29.750  30.028  1.00  0.00    -0.248 NA
ATOM     39  C   UNL A   1      40.320  31.207  29.960  1.00  0.00     0.031 C 
ATOM     40  C   UNL A   1      39.679  26.620  27.973  1.00  0.00     0.029 A 
ATOM     41  N   UNL A   1      41.674  27.075  28.875  1.00  0.00    -0.354 N 
ATOM     42  C   UNL A   1      42.512  30.980  30.560  1.00  0.00     0.074 A 
ATOM     43  C   UNL A   1      41.372  31.859  30.430  1.00  0.00     0.031 C 
ATOM     44  C   UNL A   1      40.441  25.523  27.835  1.00  0.00     0.029 A 
ATOM     45  C   UNL A   1      41.758  25.787  28.403  1.00  0.00     0.049 A 
ATOM     46  H   UNL A   1      42.422  27.539  29.315  1.00  0.00     0.167 HD
ATOM     47  C   UNL A   1      43.686  31.337  31.133  1.00  0.00     0.031 A 
ATOM     48  C   UNL A   1      42.783  24.915  28.426  1.00  0.00     0.031 A 
ATOM     49  C   UNL A   1      44.812  30.451  31.267  1.00  0.00     0.049 A 
ATOM     50  C   UNL A   1      44.071  25.330  29.079  1.00  0.00     0.074 A 
ATOM     51  C   UNL A   1      46.032  30.695  31.871  1.00  0.00     0.029 A 
ATOM     52  N   UNL A   1      44.853  29.148  30.793  1.00  0.00    -0.354 N 
ATOM     53  N   UNL A   1      44.380  26.477  29.637  1.00  0.00    -0.248 NA
ATOM     54  C   UNL A   1      45.143  24.327  29.122  1.00  0.00     0.031 C 
ATOM     55  C   UNL A   1      46.829  29.555  31.720  1.00  0.00     0.029 A 
ATOM     56  C   UNL A   1      46.085  28.582  31.073  1.00  0.00     0.049 A 
ATOM     57  H   UNL A   1      44.116  28.694  30.324  1.00  0.00     0.167 HD
ATOM     58  C   UNL A   1      45.678  26.329  30.110  1.00  0.00     0.074 A 
ATOM     59  C   UNL A   1      46.082  24.972  29.800  1.00  0.00     0.031 C 
ATOM     60  C   UNL A   1      46.469  27.233  30.740  1.00  0.00     0.031 A 
BRANCH  47  61
ATOM     61  C   UNL A   1      43.804  32.741  31.665  1.00  0.00    -0.014 A 
ATOM     62  C   UNL A   1      43.449  33.044  32.994  1.00  0.00     0.010 A 
ATOM     63  C   UNL A   1      44.316  33.764  30.846  1.00  0.00     0.010 A 
ATOM     64  C   UNL A   1      43.568  34.347  33.481  1.00  0.00     0.020 A 
ATOM     65  C   UNL A   1      44.464  35.065  31.339  1.00  0.00     0.020 A 
ATOM     66  C   UNL A   1      44.075  35.351  32.650  1.00  0.00     0.054 A 
BRANCH  66  67
ATOM     67  S   UNL A   1      44.251  37.026  33.322  1.00  0.00     0.124 S 
ATOM     68  O   UNL A   1      43.044  37.154  34.134  1.00  0.00    -0.237 OA
ATOM     69  O   UNL A   1      45.503  36.940  34.070  1.00  0.00    -0.237 OA
ATOM     70  O   UNL A   1      44.295  37.875  32.134  1.00  0.00    -0.744 OA
ENDBRANCH  66  67
ENDBRANCH  47  61
BRANCH  48  71
ATOM     71  C   UNL A   1      42.622  23.564  27.824  1.00  0.00    -0.014 A 
ATOM     72  C   UNL A   1      43.043  23.310  26.506  1.00  0.00     0.010 A 
ATOM     73  C   UNL A   1      42.060  22.516  28.575  1.00  0.00     0.010 A 
ATOM     74  C   UNL A   1      42.881  22.040  25.943  1.00  0.00     0.020 A 
ATOM     75  C   UNL A   1      41.924  21.237  28.026  1.00  0.00     0.020 A 
ATOM     76  C   UNL A   1      42.323  21.012  26.708  1.00  0.00     0.054 A 
BRANCH  76  77
ATOM     77  S   UNL A   1      42.163  19.361  25.973  1.00  0.00     0.124 S 
ATOM     78  O   UNL A   1      40.724  19.266  25.751  1.00  0.00    -0.237 OA
ATOM     79  O   UNL A   1      42.984  19.470  24.770  1.00  0.00    -0.237 OA
ATOM     80  O   UNL A   1      42.698  18.474  27.004  1.00  0.00    -0.744 OA
ENDBRANCH  76  77
ENDBRANCH  48  71
BRANCH  60  81
ATOM     81  C   UNL A   1      47.844  26.771  31.143  1.00  0.00    -0.014 A 
ATOM     82  C   UNL A   1      48.073  26.184  32.400  1.00  0.00     0.010 A 
ATOM     83  C   UNL A   1      48.916  26.909  30.243  1.00  0.00     0.010 A 
ATOM     84  C   UNL A   1      49.361  25.789  32.769  1.00  0.00     0.020 A 
ATOM     85  C   UNL A   1      50.199  26.485  30.597  1.00  0.00     0.020 A 
ATOM     86  C   UNL A   1      50.416  25.948  31.867  1.00  0.00     0.054 A 
BRANCH  86  87
ATOM     87  S   UNL A   1      52.077  25.417  32.365  1.00  0.00     0.124 S 
ATOM     88  O   UNL A   1      52.248  26.111  33.638  1.00  0.00    -0.237 OA
ATOM     89  O   UNL A   1      51.936  23.965  32.454  1.00  0.00    -0.237 OA
ATOM     90  O   UNL A   1      52.932  25.888  31.277  1.00  0.00    -0.744 OA
ENDBRANCH  86  87
ENDBRANCH  60  81
ENDBRANCH  34  35
ENDBRANCH  26  29
ENDBRANCH  24  25
ENDBRANCH   1  24
TORSDOF 17
ENDMDL
