MODEL 1
REMARK VINA RESULT:     -12.6      0.000      0.000
REMARK SMILES COC(=O)c1c(NC(=O)[C@@H]2C[C@@H]2C(=O)NCCCNC(=O)c2ccc(-c3c4nc(c(-c5ccc(S(=O)(=O)[O-])cc5)c5ccc([nH]5)c(-c5ccc(S(=O)(=O)[O-])cc5)c5nc(c(-c6ccc(S(=O)(=O)[O-])cc6)c6ccc3[nH]6)C=C5)C=C4)cc2)sc2c1CC[N@@H+](Cc1ccccc1)C2
REMARK SMILES IDX 16 1 15 2 13 3 14 4 12 6 10 7 11 8 8 9 7 10 9 12 6 13 5 14
REMARK SMILES IDX 84 15 82 16 83 17 85 18 95 19 86 20 87 21 3 23 4 24 2 25
REMARK SMILES IDX 1 26 88 27 89 28 90 29 94 30 91 31 93 32 92 33 17 34 18 35
REMARK SMILES IDX 19 36 20 37 21 39 22 40 23 41 81 42 24 43 80 44 25 45 26 46
REMARK SMILES IDX 27 47 74 48 28 49 79 50 73 51 75 52 29 53 78 54 72 55 71 56
REMARK SMILES IDX 30 58 60 59 41 60 59 61 42 62 45 63 58 64 76 65 43 66 44 67
REMARK SMILES IDX 57 69 77 70 46 71 31 72 32 73 40 74 33 75 39 76 34 77 35 78
REMARK SMILES IDX 36 79 37 80 38 81 61 82 62 83 70 84 63 85 69 86 64 87 65 88
REMARK SMILES IDX 66 89 67 90 68 91 47 92 48 93 56 94 49 95 55 96 50 97 51 98
REMARK SMILES IDX 52 99 53 100 54 101
REMARK H PARENT 15 5 7 11 87 22 19 38 75 57 45 68
REMARK Flexibility Score: inf
ROOT
ATOM      1  C   UNL A   1      37.967  21.403  25.177  1.00  0.00     0.117 C 
ENDROOT
BRANCH   1   2
ATOM      2  N   UNL A   1      37.468  22.113  24.018  1.00  0.00    -0.356 N 
ATOM      3  C   UNL A   1      36.483  23.046  24.052  1.00  0.00     0.223 C 
ATOM      4  O   UNL A   1      36.041  23.563  23.024  1.00  0.00    -0.275 OA
ATOM      5  H   UNL A   1      37.871  21.905  23.144  1.00  0.00     0.163 HD
BRANCH   3   6
ATOM      6  C   UNL A   1      36.056  23.482  25.397  1.00  0.00     0.091 C 
ATOM      7  C   UNL A   1      34.751  23.087  26.092  1.00  0.00     0.092 C 
ATOM      8  C   UNL A   1      34.926  24.424  25.496  1.00  0.00     0.028 C 
BRANCH   7   9
ATOM      9  C   UNL A   1      33.766  22.138  25.565  1.00  0.00     0.228 C 
ATOM     10  N   UNL A   1      32.576  22.474  25.000  1.00  0.00    -0.317 N 
ATOM     11  H   UNL A   1      32.067  21.657  24.797  1.00  0.00     0.170 HD
ATOM     12  O   UNL A   1      33.975  20.938  25.746  1.00  0.00    -0.274 OA
BRANCH  10  13
ATOM     13  C   UNL A   1      31.847  23.577  24.616  1.00  0.00     0.110 A 
ATOM     14  C   UNL A   1      30.931  24.546  25.024  1.00  0.00     0.098 A 
ATOM     15  C   UNL A   1      30.755  25.542  23.983  1.00  0.00    -0.006 A 
ATOM     16  S   UNL A   1      32.323  23.821  22.967  1.00  0.00    -0.116 S 
ATOM     17  C   UNL A   1      31.557  25.312  22.890  1.00  0.00     0.065 A 
ATOM     18  C   UNL A   1      29.945  26.805  24.076  1.00  0.00     0.099 C 
ATOM     19  C   UNL A   1      31.792  26.275  21.769  1.00  0.00     0.310 C 
ATOM     20  C   UNL A   1      30.123  27.698  22.826  1.00  0.00     0.267 C 
ATOM     21  N   UNL A   1      31.435  27.650  22.159  1.00  0.00    -0.326 N 
ATOM     22  H   UNL A   1      31.314  28.180  21.296  1.00  0.00     0.348 HD
BRANCH  14  23
ATOM     23  C   UNL A   1      30.239  24.717  26.298  1.00  0.00     0.341 C 
ATOM     24  O   UNL A   1      29.572  25.704  26.582  1.00  0.00    -0.246 OA
BRANCH  23  25
ATOM     25  O   UNL A   1      30.445  23.650  27.135  1.00  0.00    -0.465 OA
ATOM     26  C   UNL A   1      29.405  22.670  27.292  1.00  0.00     0.282 C 
ENDBRANCH  23  25
ENDBRANCH  14  23
BRANCH  21  27
ATOM     27  C   UNL A   1      32.523  28.411  22.807  1.00  0.00     0.299 C 
BRANCH  27  28
ATOM     28  C   UNL A   1      32.552  28.518  24.319  1.00  0.00     0.006 A 
ATOM     29  C   UNL A   1      33.303  27.614  25.087  1.00  0.00     0.009 A 
ATOM     30  C   UNL A   1      31.823  29.511  24.992  1.00  0.00     0.009 A 
ATOM     31  C   UNL A   1      33.377  27.745  26.477  1.00  0.00     0.001 A 
ATOM     32  C   UNL A   1      31.919  29.659  26.378  1.00  0.00     0.001 A 
ATOM     33  C   UNL A   1      32.701  28.780  27.119  1.00  0.00     0.000 A 
ENDBRANCH  27  28
ENDBRANCH  21  27
ENDBRANCH  10  13
ENDBRANCH   7   9
ENDBRANCH   3   6
ENDBRANCH   1   2
BRANCH   1  34
ATOM     34  C   UNL A   1      38.387  19.984  24.817  1.00  0.00     0.042 C 
BRANCH  34  35
ATOM     35  C   UNL A   1      39.003  19.289  26.005  1.00  0.00     0.118 C 
BRANCH  35  36
ATOM     36  N   UNL A   1      40.371  18.852  25.710  1.00  0.00    -0.352 N 
ATOM     37  C   UNL A   1      41.532  19.592  25.735  1.00  0.00     0.251 C 
ATOM     38  H   UNL A   1      40.472  17.904  25.463  1.00  0.00     0.163 HD
ATOM     39  O   UNL A   1      42.546  19.187  25.182  1.00  0.00    -0.269 OA
BRANCH  37  40
ATOM     40  C   UNL A   1      41.506  20.873  26.450  1.00  0.00     0.039 A 
ATOM     41  C   UNL A   1      41.095  20.971  27.778  1.00  0.00     0.014 A 
ATOM     42  C   UNL A   1      42.004  21.978  25.766  1.00  0.00     0.014 A 
ATOM     43  C   UNL A   1      41.241  22.197  28.419  1.00  0.00     0.010 A 
ATOM     44  C   UNL A   1      42.398  23.075  26.470  1.00  0.00     0.010 A 
ATOM     45  C   UNL A   1      41.907  23.239  27.752  1.00  0.00    -0.014 A 
BRANCH  45  46
ATOM     46  C   UNL A   1      42.211  24.506  28.392  1.00  0.00     0.031 A 
ATOM     47  C   UNL A   1      41.190  25.545  28.133  1.00  0.00     0.074 A 
ATOM     48  C   UNL A   1      43.199  24.645  29.305  1.00  0.00     0.049 A 
ATOM     49  N   UNL A   1      41.276  26.511  27.283  1.00  0.00    -0.248 NA
ATOM     50  C   UNL A   1      39.844  25.374  28.709  1.00  0.00     0.031 C 
ATOM     51  C   UNL A   1      44.074  23.617  29.889  1.00  0.00     0.029 A 
ATOM     52  N   UNL A   1      43.565  25.753  29.994  1.00  0.00    -0.354 N 
ATOM     53  C   UNL A   1      40.104  27.239  27.429  1.00  0.00     0.074 A 
ATOM     54  C   UNL A   1      39.181  26.370  28.113  1.00  0.00     0.031 C 
ATOM     55  C   UNL A   1      44.681  24.106  30.994  1.00  0.00     0.029 A 
ATOM     56  C   UNL A   1      44.386  25.523  31.094  1.00  0.00     0.049 A 
ATOM     57  H   UNL A   1      43.273  26.657  29.734  1.00  0.00     0.167 HD
ATOM     58  C   UNL A   1      40.102  28.590  27.254  1.00  0.00     0.031 A 
ATOM     59  C   UNL A   1      44.778  26.439  32.021  1.00  0.00     0.031 A 
ATOM     60  C   UNL A   1      41.337  29.041  26.655  1.00  0.00     0.049 A 
ATOM     61  C   UNL A   1      44.611  27.772  31.387  1.00  0.00     0.074 A 
ATOM     62  C   UNL A   1      42.003  28.761  25.478  1.00  0.00     0.029 A 
ATOM     63  N   UNL A   1      42.279  29.568  27.511  1.00  0.00    -0.354 N 
ATOM     64  N   UNL A   1      45.308  28.158  30.354  1.00  0.00    -0.248 NA
ATOM     65  C   UNL A   1      43.338  28.453  31.570  1.00  0.00     0.031 C 
ATOM     66  C   UNL A   1      43.379  28.679  25.848  1.00  0.00     0.029 A 
ATOM     67  C   UNL A   1      43.492  29.010  27.200  1.00  0.00     0.049 A 
ATOM     68  H   UNL A   1      42.110  30.228  28.221  1.00  0.00     0.167 HD
ATOM     69  C   UNL A   1      44.389  28.780  29.520  1.00  0.00     0.074 A 
ATOM     70  C   UNL A   1      43.211  29.007  30.359  1.00  0.00     0.031 C 
ATOM     71  C   UNL A   1      44.555  28.786  28.162  1.00  0.00     0.031 A 
BRANCH  58  72
ATOM     72  C   UNL A   1      39.209  29.531  28.023  1.00  0.00    -0.014 A 
ATOM     73  C   UNL A   1      39.657  30.005  29.272  1.00  0.00     0.010 A 
ATOM     74  C   UNL A   1      37.851  29.744  27.706  1.00  0.00     0.010 A 
ATOM     75  C   UNL A   1      38.774  30.594  30.185  1.00  0.00     0.020 A 
ATOM     76  C   UNL A   1      36.972  30.368  28.592  1.00  0.00     0.020 A 
ATOM     77  C   UNL A   1      37.432  30.760  29.840  1.00  0.00     0.054 A 
BRANCH  77  78
ATOM     78  S   UNL A   1      36.285  31.441  31.060  1.00  0.00     0.124 S 
ATOM     79  O   UNL A   1      36.043  30.288  31.921  1.00  0.00    -0.237 OA
ATOM     80  O   UNL A   1      37.072  32.521  31.650  1.00  0.00    -0.237 OA
ATOM     81  O   UNL A   1      35.147  31.874  30.253  1.00  0.00    -0.744 OA
ENDBRANCH  77  78
ENDBRANCH  58  72
BRANCH  59  82
ATOM     82  C   UNL A   1      44.942  26.264  33.491  1.00  0.00    -0.014 A 
ATOM     83  C   UNL A   1      46.220  26.241  34.086  1.00  0.00     0.010 A 
ATOM     84  C   UNL A   1      43.833  26.425  34.346  1.00  0.00     0.010 A 
ATOM     85  C   UNL A   1      46.385  26.444  35.471  1.00  0.00     0.020 A 
ATOM     86  C   UNL A   1      43.988  26.625  35.726  1.00  0.00     0.020 A 
ATOM     87  C   UNL A   1      45.265  26.660  36.279  1.00  0.00     0.054 A 
BRANCH  87  88
ATOM     88  S   UNL A   1      45.493  27.117  38.028  1.00  0.00     0.124 S 
ATOM     89  O   UNL A   1      45.422  25.824  38.701  1.00  0.00    -0.237 OA
ATOM     90  O   UNL A   1      46.806  27.756  38.024  1.00  0.00    -0.237 OA
ATOM     91  O   UNL A   1      44.373  28.018  38.297  1.00  0.00    -0.744 OA
ENDBRANCH  87  88
ENDBRANCH  59  82
BRANCH  71  92
ATOM     92  C   UNL A   1      45.887  28.344  27.594  1.00  0.00    -0.014 A 
ATOM     93  C   UNL A   1      46.182  27.031  27.172  1.00  0.00     0.010 A 
ATOM     94  C   UNL A   1      46.832  29.353  27.336  1.00  0.00     0.010 A 
ATOM     95  C   UNL A   1      47.402  26.737  26.537  1.00  0.00     0.020 A 
ATOM     96  C   UNL A   1      48.036  29.072  26.690  1.00  0.00     0.020 A 
ATOM     97  C   UNL A   1      48.324  27.763  26.303  1.00  0.00     0.054 A 
BRANCH  97  98
ATOM     98  S   UNL A   1      49.891  27.395  25.463  1.00  0.00     0.124 S 
ATOM     99  O   UNL A   1      49.980  25.942  25.579  1.00  0.00    -0.237 OA
ATOM    100  O   UNL A   1      49.665  27.906  24.113  1.00  0.00    -0.237 OA
ATOM    101  O   UNL A   1      50.885  28.137  26.238  1.00  0.00    -0.744 OA
ENDBRANCH  97  98
ENDBRANCH  71  92
ENDBRANCH  45  46
ENDBRANCH  37  40
ENDBRANCH  35  36
ENDBRANCH  34  35
ENDBRANCH   1  34
TORSDOF 19
ENDMDL
MODEL 2
REMARK VINA RESULT:     -11.6      3.947      9.533
REMARK SMILES COC(=O)c1c(NC(=O)[C@@H]2C[C@@H]2C(=O)NCCCNC(=O)c2ccc(-c3c4nc(c(-c5ccc(S(=O)(=O)[O-])cc5)c5ccc([nH]5)c(-c5ccc(S(=O)(=O)[O-])cc5)c5nc(c(-c6ccc(S(=O)(=O)[O-])cc6)c6ccc3[nH]6)C=C5)C=C4)cc2)sc2c1CC[N@@H+](Cc1ccccc1)C2
REMARK SMILES IDX 16 1 15 2 13 3 14 4 12 6 10 7 11 8 8 9 7 10 9 12 6 13 5 14
REMARK SMILES IDX 84 15 82 16 83 17 85 18 95 19 86 20 87 21 3 23 4 24 2 25
REMARK SMILES IDX 1 26 88 27 89 28 90 29 94 30 91 31 93 32 92 33 17 34 18 35
REMARK SMILES IDX 19 36 20 37 21 39 22 40 23 41 81 42 24 43 80 44 25 45 26 46
REMARK SMILES IDX 27 47 74 48 28 49 79 50 73 51 75 52 29 53 78 54 72 55 71 56
REMARK SMILES IDX 30 58 60 59 41 60 59 61 42 62 45 63 58 64 76 65 43 66 44 67
REMARK SMILES IDX 57 69 77 70 46 71 31 72 32 73 40 74 33 75 39 76 34 77 35 78
REMARK SMILES IDX 36 79 37 80 38 81 61 82 62 83 70 84 63 85 69 86 64 87 65 88
REMARK SMILES IDX 66 89 67 90 68 91 47 92 48 93 56 94 49 95 55 96 50 97 51 98
REMARK SMILES IDX 52 99 53 100 54 101
REMARK H PARENT 15 5 7 11 87 22 19 38 75 57 45 68
REMARK Flexibility Score: inf
ROOT
ATOM      1  C   UNL A   1      32.844  30.797  26.854  1.00  0.00     0.117 C 
ENDROOT
BRANCH   1   2
ATOM      2  N   UNL A   1      32.287  30.364  25.589  1.00  0.00    -0.356 N 
ATOM      3  C   UNL A   1      32.742  29.308  24.867  1.00  0.00     0.223 C 
ATOM      4  O   UNL A   1      32.282  29.032  23.758  1.00  0.00    -0.275 OA
ATOM      5  H   UNL A   1      31.524  30.871  25.227  1.00  0.00     0.163 HD
BRANCH   3   6
ATOM      6  C   UNL A   1      33.739  28.451  25.542  1.00  0.00     0.091 C 
ATOM      7  C   UNL A   1      33.426  27.328  26.533  1.00  0.00     0.092 C 
ATOM      8  C   UNL A   1      33.942  28.631  26.991  1.00  0.00     0.028 C 
BRANCH   7   9
ATOM      9  C   UNL A   1      32.083  26.867  26.893  1.00  0.00     0.228 C 
ATOM     10  N   UNL A   1      31.437  25.814  26.326  1.00  0.00    -0.317 N 
ATOM     11  H   UNL A   1      30.523  25.756  26.688  1.00  0.00     0.170 HD
ATOM     12  O   UNL A   1      31.439  27.549  27.691  1.00  0.00    -0.274 OA
BRANCH  10  13
ATOM     13  C   UNL A   1      31.635  24.799  25.416  1.00  0.00     0.110 A 
ATOM     14  C   UNL A   1      32.127  24.471  24.153  1.00  0.00     0.098 A 
ATOM     15  C   UNL A   1      32.110  23.032  23.966  1.00  0.00    -0.006 A 
ATOM     16  S   UNL A   1      31.039  23.396  26.240  1.00  0.00    -0.116 S 
ATOM     17  C   UNL A   1      31.665  22.359  25.080  1.00  0.00     0.065 A 
ATOM     18  C   UNL A   1      32.662  22.272  22.792  1.00  0.00     0.099 C 
ATOM     19  C   UNL A   1      31.761  20.881  25.295  1.00  0.00     0.310 C 
ATOM     20  C   UNL A   1      32.610  20.744  23.017  1.00  0.00     0.267 C 
ATOM     21  N   UNL A   1      32.763  20.273  24.404  1.00  0.00    -0.326 N 
ATOM     22  H   UNL A   1      32.560  19.274  24.369  1.00  0.00     0.348 HD
BRANCH  14  23
ATOM     23  C   UNL A   1      32.687  25.320  23.107  1.00  0.00     0.341 C 
ATOM     24  O   UNL A   1      33.889  25.505  22.953  1.00  0.00    -0.246 OA
BRANCH  23  25
ATOM     25  O   UNL A   1      31.707  25.892  22.337  1.00  0.00    -0.465 OA
ATOM     26  C   UNL A   1      31.895  25.984  20.914  1.00  0.00     0.282 C 
ENDBRANCH  23  25
ENDBRANCH  14  23
BRANCH  21  27
ATOM     27  C   UNL A   1      34.140  20.262  24.938  1.00  0.00     0.299 C 
BRANCH  27  28
ATOM     28  C   UNL A   1      34.881  21.575  25.103  1.00  0.00     0.006 A 
ATOM     29  C   UNL A   1      34.757  22.325  26.283  1.00  0.00     0.009 A 
ATOM     30  C   UNL A   1      35.698  22.082  24.080  1.00  0.00     0.009 A 
ATOM     31  C   UNL A   1      35.482  23.507  26.459  1.00  0.00     0.001 A 
ATOM     32  C   UNL A   1      36.443  23.248  24.266  1.00  0.00     0.001 A 
ATOM     33  C   UNL A   1      36.340  23.957  25.459  1.00  0.00     0.000 A 
ENDBRANCH  27  28
ENDBRANCH  21  27
ENDBRANCH  10  13
ENDBRANCH   7   9
ENDBRANCH   3   6
ENDBRANCH   1   2
BRANCH   1  34
ATOM     34  C   UNL A   1      32.158  32.061  27.356  1.00  0.00     0.042 C 
BRANCH  34  35
ATOM     35  C   UNL A   1      33.062  33.257  27.208  1.00  0.00     0.118 C 
BRANCH  35  36
ATOM     36  N   UNL A   1      32.676  34.329  28.130  1.00  0.00    -0.352 N 
ATOM     37  C   UNL A   1      33.190  34.618  29.374  1.00  0.00     0.251 C 
ATOM     38  H   UNL A   1      31.953  34.921  27.817  1.00  0.00     0.163 HD
ATOM     39  O   UNL A   1      32.581  35.340  30.153  1.00  0.00    -0.269 OA
BRANCH  37  40
ATOM     40  C   UNL A   1      34.491  34.036  29.724  1.00  0.00     0.039 A 
ATOM     41  C   UNL A   1      34.609  32.976  30.621  1.00  0.00     0.014 A 
ATOM     42  C   UNL A   1      35.598  34.532  29.044  1.00  0.00     0.014 A 
ATOM     43  C   UNL A   1      35.862  32.393  30.782  1.00  0.00     0.010 A 
ATOM     44  C   UNL A   1      36.738  33.789  28.996  1.00  0.00     0.010 A 
ATOM     45  C   UNL A   1      36.917  32.805  29.950  1.00  0.00    -0.014 A 
BRANCH  45  46
ATOM     46  C   UNL A   1      38.220  32.164  29.968  1.00  0.00     0.031 A 
ATOM     47  C   UNL A   1      38.192  30.782  29.441  1.00  0.00     0.074 A 
ATOM     48  C   UNL A   1      39.362  32.840  30.226  1.00  0.00     0.049 A 
ATOM     49  N   UNL A   1      38.190  29.696  30.136  1.00  0.00    -0.248 NA
ATOM     50  C   UNL A   1      37.913  30.576  28.009  1.00  0.00     0.031 C 
ATOM     51  C   UNL A   1      39.560  34.280  30.445  1.00  0.00     0.029 A 
ATOM     52  N   UNL A   1      40.635  32.374  30.245  1.00  0.00    -0.354 N 
ATOM     53  C   UNL A   1      38.201  28.664  29.208  1.00  0.00     0.074 A 
ATOM     54  C   UNL A   1      37.781  29.247  27.961  1.00  0.00     0.031 C 
ATOM     55  C   UNL A   1      40.872  34.586  30.330  1.00  0.00     0.029 A 
ATOM     56  C   UNL A   1      41.625  33.352  30.212  1.00  0.00     0.049 A 
ATOM     57  H   UNL A   1      40.845  31.412  30.279  1.00  0.00     0.167 HD
ATOM     58  C   UNL A   1      38.852  27.498  29.479  1.00  0.00     0.031 A 
ATOM     59  C   UNL A   1      42.964  33.148  30.085  1.00  0.00     0.031 A 
ATOM     60  C   UNL A   1      39.226  27.420  30.872  1.00  0.00     0.049 A 
ATOM     61  C   UNL A   1      43.214  31.742  30.496  1.00  0.00     0.074 A 
ATOM     62  C   UNL A   1      38.536  27.460  32.067  1.00  0.00     0.029 A 
ATOM     63  N   UNL A   1      40.532  27.738  31.175  1.00  0.00    -0.354 N 
ATOM     64  N   UNL A   1      43.017  31.313  31.712  1.00  0.00    -0.248 NA
ATOM     65  C   UNL A   1      43.180  30.720  29.461  1.00  0.00     0.031 C 
ATOM     66  C   UNL A   1      39.342  28.262  32.928  1.00  0.00     0.029 A 
ATOM     67  C   UNL A   1      40.522  28.584  32.254  1.00  0.00     0.049 A 
ATOM     68  H   UNL A   1      41.332  27.415  30.701  1.00  0.00     0.167 HD
ATOM     69  C   UNL A   1      42.394  30.083  31.557  1.00  0.00     0.074 A 
ATOM     70  C   UNL A   1      42.598  29.731  30.150  1.00  0.00     0.031 C 
ATOM     71  C   UNL A   1      41.523  29.605  32.497  1.00  0.00     0.031 A 
BRANCH  58  72
ATOM     72  C   UNL A   1      39.539  26.661  28.429  1.00  0.00    -0.014 A 
ATOM     73  C   UNL A   1      39.284  25.275  28.408  1.00  0.00     0.010 A 
ATOM     74  C   UNL A   1      40.621  27.125  27.653  1.00  0.00     0.010 A 
ATOM     75  C   UNL A   1      40.117  24.394  27.707  1.00  0.00     0.020 A 
ATOM     76  C   UNL A   1      41.431  26.259  26.916  1.00  0.00     0.020 A 
ATOM     77  C   UNL A   1      41.193  24.895  26.975  1.00  0.00     0.054 A 
BRANCH  77  78
ATOM     78  S   UNL A   1      42.310  23.741  26.146  1.00  0.00     0.124 S 
ATOM     79  O   UNL A   1      43.271  23.442  27.203  1.00  0.00    -0.237 OA
ATOM     80  O   UNL A   1      41.409  22.652  25.780  1.00  0.00    -0.237 OA
ATOM     81  O   UNL A   1      42.831  24.517  25.024  1.00  0.00    -0.744 OA
ENDBRANCH  77  78
ENDBRANCH  58  72
BRANCH  59  82
ATOM     82  C   UNL A   1      43.959  33.949  29.319  1.00  0.00    -0.014 A 
ATOM     83  C   UNL A   1      45.221  34.262  29.864  1.00  0.00     0.010 A 
ATOM     84  C   UNL A   1      43.786  34.146  27.934  1.00  0.00     0.010 A 
ATOM     85  C   UNL A   1      46.286  34.686  29.044  1.00  0.00     0.020 A 
ATOM     86  C   UNL A   1      44.840  34.569  27.111  1.00  0.00     0.020 A 
ATOM     87  C   UNL A   1      46.094  34.812  27.665  1.00  0.00     0.054 A 
BRANCH  87  88
ATOM     88  S   UNL A   1      47.518  35.167  26.586  1.00  0.00     0.124 S 
ATOM     89  O   UNL A   1      47.240  34.339  25.417  1.00  0.00    -0.237 OA
ATOM     90  O   UNL A   1      47.412  36.608  26.378  1.00  0.00    -0.237 OA
ATOM     91  O   UNL A   1      48.668  34.745  27.384  1.00  0.00    -0.744 OA
ENDBRANCH  87  88
ENDBRANCH  59  82
BRANCH  71  92
ATOM     92  C   UNL A   1      41.451  30.304  33.838  1.00  0.00    -0.014 A 
ATOM     93  C   UNL A   1      42.211  29.944  34.972  1.00  0.00     0.010 A 
ATOM     94  C   UNL A   1      40.685  31.481  33.899  1.00  0.00     0.010 A 
ATOM     95  C   UNL A   1      42.176  30.728  36.138  1.00  0.00     0.020 A 
ATOM     96  C   UNL A   1      40.662  32.274  35.047  1.00  0.00     0.020 A 
ATOM     97  C   UNL A   1      41.397  31.889  36.167  1.00  0.00     0.054 A 
BRANCH  97  98
ATOM     98  S   UNL A   1      41.367  32.920  37.663  1.00  0.00     0.124 S 
ATOM     99  O   UNL A   1      41.700  31.963  38.714  1.00  0.00    -0.237 OA
ATOM    100  O   UNL A   1      42.385  33.929  37.384  1.00  0.00    -0.237 OA
ATOM    101  O   UNL A   1      39.997  33.430  37.706  1.00  0.00    -0.744 OA
ENDBRANCH  97  98
ENDBRANCH  71  92
ENDBRANCH  45  46
ENDBRANCH  37  40
ENDBRANCH  35  36
ENDBRANCH  34  35
ENDBRANCH   1  34
TORSDOF 19
ENDMDL
MODEL 3
REMARK VINA RESULT:     -11.1      2.900      7.088
REMARK SMILES COC(=O)c1c(NC(=O)[C@@H]2C[C@@H]2C(=O)NCCCNC(=O)c2ccc(-c3c4nc(c(-c5ccc(S(=O)(=O)[O-])cc5)c5ccc([nH]5)c(-c5ccc(S(=O)(=O)[O-])cc5)c5nc(c(-c6ccc(S(=O)(=O)[O-])cc6)c6ccc3[nH]6)C=C5)C=C4)cc2)sc2c1CC[N@@H+](Cc1ccccc1)C2
REMARK SMILES IDX 16 1 15 2 13 3 14 4 12 6 10 7 11 8 8 9 7 10 9 12 6 13 5 14
REMARK SMILES IDX 84 15 82 16 83 17 85 18 95 19 86 20 87 21 3 23 4 24 2 25
REMARK SMILES IDX 1 26 88 27 89 28 90 29 94 30 91 31 93 32 92 33 17 34 18 35
REMARK SMILES IDX 19 36 20 37 21 39 22 40 23 41 81 42 24 43 80 44 25 45 26 46
REMARK SMILES IDX 27 47 74 48 28 49 79 50 73 51 75 52 29 53 78 54 72 55 71 56
REMARK SMILES IDX 30 58 60 59 41 60 59 61 42 62 45 63 58 64 76 65 43 66 44 67
REMARK SMILES IDX 57 69 77 70 46 71 31 72 32 73 40 74 33 75 39 76 34 77 35 78
REMARK SMILES IDX 36 79 37 80 38 81 61 82 62 83 70 84 63 85 69 86 64 87 65 88
REMARK SMILES IDX 66 89 67 90 68 91 47 92 48 93 56 94 49 95 55 96 50 97 51 98
REMARK SMILES IDX 52 99 53 100 54 101
REMARK H PARENT 15 5 7 11 87 22 19 38 75 57 45 68
REMARK Flexibility Score: inf
ROOT
ATOM      1  C   UNL A   1      38.605  22.406  26.309  1.00  0.00     0.117 C 
ENDROOT
BRANCH   1   2
ATOM      2  N   UNL A   1      37.962  23.028  25.170  1.00  0.00    -0.356 N 
ATOM      3  C   UNL A   1      36.624  23.224  25.052  1.00  0.00     0.223 C 
ATOM      4  O   UNL A   1      36.123  23.686  24.026  1.00  0.00    -0.275 OA
ATOM      5  H   UNL A   1      38.536  23.330  24.429  1.00  0.00     0.163 HD
BRANCH   3   6
ATOM      6  C   UNL A   1      35.826  22.955  26.266  1.00  0.00     0.091 C 
ATOM      7  C   UNL A   1      34.551  22.112  26.327  1.00  0.00     0.092 C 
ATOM      8  C   UNL A   1      34.497  23.584  26.376  1.00  0.00     0.028 C 
BRANCH   7   9
ATOM      9  C   UNL A   1      33.978  21.362  25.207  1.00  0.00     0.228 C 
ATOM     10  N   UNL A   1      33.048  21.839  24.337  1.00  0.00    -0.317 N 
ATOM     11  H   UNL A   1      32.772  21.120  23.724  1.00  0.00     0.170 HD
ATOM     12  O   UNL A   1      34.274  20.171  25.105  1.00  0.00    -0.274 OA
BRANCH  10  13
ATOM     13  C   UNL A   1      32.364  22.993  24.027  1.00  0.00     0.110 A 
ATOM     14  C   UNL A   1      31.471  23.957  24.493  1.00  0.00     0.098 A 
ATOM     15  C   UNL A   1      31.352  25.038  23.531  1.00  0.00    -0.006 A 
ATOM     16  S   UNL A   1      32.884  23.349  22.413  1.00  0.00    -0.116 S 
ATOM     17  C   UNL A   1      32.170  24.867  22.440  1.00  0.00     0.065 A 
ATOM     18  C   UNL A   1      30.581  26.317  23.708  1.00  0.00     0.099 C 
ATOM     19  C   UNL A   1      32.462  25.908  21.404  1.00  0.00     0.310 C 
ATOM     20  C   UNL A   1      30.817  27.299  22.538  1.00  0.00     0.267 C 
ATOM     21  N   UNL A   1      32.141  27.258  21.895  1.00  0.00    -0.326 N 
ATOM     22  H   UNL A   1      32.057  27.858  21.075  1.00  0.00     0.348 HD
BRANCH  14  23
ATOM     23  C   UNL A   1      30.757  24.051  25.763  1.00  0.00     0.341 C 
ATOM     24  O   UNL A   1      30.578  25.102  26.366  1.00  0.00    -0.246 OA
BRANCH  23  25
ATOM     25  O   UNL A   1      30.331  22.822  26.198  1.00  0.00    -0.465 OA
ATOM     26  C   UNL A   1      29.351  22.749  27.247  1.00  0.00     0.282 C 
ENDBRANCH  23  25
ENDBRANCH  14  23
BRANCH  21  27
ATOM     27  C   UNL A   1      33.238  27.928  22.623  1.00  0.00     0.299 C 
BRANCH  27  28
ATOM     28  C   UNL A   1      33.069  28.234  24.099  1.00  0.00     0.006 A 
ATOM     29  C   UNL A   1      33.633  27.395  25.073  1.00  0.00     0.009 A 
ATOM     30  C   UNL A   1      32.337  29.351  24.531  1.00  0.00     0.009 A 
ATOM     31  C   UNL A   1      33.527  27.705  26.432  1.00  0.00     0.001 A 
ATOM     32  C   UNL A   1      32.254  29.675  25.886  1.00  0.00     0.001 A 
ATOM     33  C   UNL A   1      32.855  28.856  26.836  1.00  0.00     0.000 A 
ENDBRANCH  27  28
ENDBRANCH  21  27
ENDBRANCH  10  13
ENDBRANCH   7   9
ENDBRANCH   3   6
ENDBRANCH   1   2
BRANCH   1  34
ATOM     34  C   UNL A   1      39.825  21.599  25.884  1.00  0.00     0.042 C 
BRANCH  34  35
ATOM     35  C   UNL A   1      41.072  22.121  26.550  1.00  0.00     0.118 C 
BRANCH  35  36
ATOM     36  N   UNL A   1      42.256  21.873  25.722  1.00  0.00    -0.352 N 
ATOM     37  C   UNL A   1      43.172  22.780  25.240  1.00  0.00     0.251 C 
ATOM     38  H   UNL A   1      42.417  20.932  25.479  1.00  0.00     0.163 HD
ATOM     39  O   UNL A   1      43.929  22.484  24.325  1.00  0.00    -0.269 OA
BRANCH  37  40
ATOM     40  C   UNL A   1      43.210  24.107  25.868  1.00  0.00     0.039 A 
ATOM     41  C   UNL A   1      42.561  25.207  25.310  1.00  0.00     0.014 A 
ATOM     42  C   UNL A   1      43.848  24.195  27.101  1.00  0.00     0.014 A 
ATOM     43  C   UNL A   1      42.527  26.388  26.045  1.00  0.00     0.010 A 
ATOM     44  C   UNL A   1      43.572  25.246  27.920  1.00  0.00     0.010 A 
ATOM     45  C   UNL A   1      43.029  26.387  27.358  1.00  0.00    -0.014 A 
BRANCH  45  46
ATOM     46  C   UNL A   1      42.921  27.539  28.235  1.00  0.00     0.031 A 
ATOM     47  C   UNL A   1      44.004  28.526  28.031  1.00  0.00     0.074 A 
ATOM     48  C   UNL A   1      41.825  27.781  28.990  1.00  0.00     0.049 A 
ATOM     49  N   UNL A   1      45.052  28.678  28.766  1.00  0.00    -0.248 NA
ATOM     50  C   UNL A   1      44.050  29.274  26.762  1.00  0.00     0.031 C 
ATOM     51  C   UNL A   1      40.551  27.050  29.037  1.00  0.00     0.029 A 
ATOM     52  N   UNL A   1      41.584  28.824  29.821  1.00  0.00    -0.354 N 
ATOM     53  C   UNL A   1      45.745  29.742  28.207  1.00  0.00     0.074 A 
ATOM     54  C   UNL A   1      45.230  29.892  26.871  1.00  0.00     0.031 C 
ATOM     55  C   UNL A   1      39.612  27.803  29.655  1.00  0.00     0.029 A 
ATOM     56  C   UNL A   1      40.255  28.981  30.205  1.00  0.00     0.049 A 
ATOM     57  H   UNL A   1      42.298  29.427  30.132  1.00  0.00     0.167 HD
ATOM     58  C   UNL A   1      46.454  30.596  28.996  1.00  0.00     0.031 A 
ATOM     59  C   UNL A   1      39.732  30.017  30.915  1.00  0.00     0.031 A 
ATOM     60  C   UNL A   1      46.593  30.077  30.337  1.00  0.00     0.049 A 
ATOM     61  C   UNL A   1      40.871  30.656  31.623  1.00  0.00     0.074 A 
ATOM     62  C   UNL A   1      47.128  28.927  30.882  1.00  0.00     0.029 A 
ATOM     63  N   UNL A   1      45.726  30.580  31.283  1.00  0.00    -0.354 N 
ATOM     64  N   UNL A   1      41.560  30.049  32.551  1.00  0.00    -0.248 NA
ATOM     65  C   UNL A   1      41.559  31.748  30.951  1.00  0.00     0.031 C 
ATOM     66  C   UNL A   1      46.207  28.542  31.901  1.00  0.00     0.029 A 
ATOM     67  C   UNL A   1      45.218  29.523  31.994  1.00  0.00     0.049 A 
ATOM     68  H   UNL A   1      45.508  31.529  31.422  1.00  0.00     0.167 HD
ATOM     69  C   UNL A   1      42.883  30.364  32.272  1.00  0.00     0.074 A 
ATOM     70  C   UNL A   1      42.814  31.481  31.329  1.00  0.00     0.031 C 
ATOM     71  C   UNL A   1      43.899  29.508  32.598  1.00  0.00     0.031 A 
BRANCH  58  72
ATOM     72  C   UNL A   1      46.620  32.066  28.698  1.00  0.00    -0.014 A 
ATOM     73  C   UNL A   1      45.530  32.759  28.135  1.00  0.00     0.010 A 
ATOM     74  C   UNL A   1      47.870  32.719  28.688  1.00  0.00     0.010 A 
ATOM     75  C   UNL A   1      45.701  34.009  27.526  1.00  0.00     0.020 A 
ATOM     76  C   UNL A   1      48.041  33.984  28.122  1.00  0.00     0.020 A 
ATOM     77  C   UNL A   1      46.961  34.606  27.515  1.00  0.00     0.054 A 
BRANCH  77  78
ATOM     78  S   UNL A   1      47.186  36.177  26.651  1.00  0.00     0.124 S 
ATOM     79  O   UNL A   1      48.086  36.890  27.552  1.00  0.00    -0.237 OA
ATOM     80  O   UNL A   1      47.765  35.749  25.381  1.00  0.00    -0.237 OA
ATOM     81  O   UNL A   1      45.830  36.715  26.562  1.00  0.00    -0.744 OA
ENDBRANCH  77  78
ENDBRANCH  58  72
BRANCH  59  82
ATOM     82  C   UNL A   1      38.413  30.689  30.746  1.00  0.00    -0.014 A 
ATOM     83  C   UNL A   1      37.255  30.196  31.382  1.00  0.00     0.010 A 
ATOM     84  C   UNL A   1      38.351  31.990  30.207  1.00  0.00     0.010 A 
ATOM     85  C   UNL A   1      36.108  31.000  31.536  1.00  0.00     0.020 A 
ATOM     86  C   UNL A   1      37.212  32.796  30.353  1.00  0.00     0.020 A 
ATOM     87  C   UNL A   1      36.104  32.307  31.040  1.00  0.00     0.054 A 
BRANCH  87  88
ATOM     88  S   UNL A   1      34.699  33.406  31.411  1.00  0.00     0.124 S 
ATOM     89  O   UNL A   1      34.014  33.483  30.125  1.00  0.00    -0.237 OA
ATOM     90  O   UNL A   1      33.992  32.679  32.461  1.00  0.00    -0.237 OA
ATOM     91  O   UNL A   1      35.339  34.647  31.847  1.00  0.00    -0.744 OA
ENDBRANCH  87  88
ENDBRANCH  59  82
BRANCH  71  92
ATOM     92  C   UNL A   1      43.594  28.336  33.507  1.00  0.00    -0.014 A 
ATOM     93  C   UNL A   1      43.176  28.452  34.850  1.00  0.00     0.010 A 
ATOM     94  C   UNL A   1      43.587  27.060  32.917  1.00  0.00     0.010 A 
ATOM     95  C   UNL A   1      42.791  27.315  35.583  1.00  0.00     0.020 A 
ATOM     96  C   UNL A   1      43.188  25.931  33.633  1.00  0.00     0.020 A 
ATOM     97  C   UNL A   1      42.803  26.060  34.967  1.00  0.00     0.054 A 
BRANCH  97  98
ATOM     98  S   UNL A   1      42.284  24.590  35.900  1.00  0.00     0.124 S 
ATOM     99  O   UNL A   1      42.538  23.507  34.954  1.00  0.00    -0.237 OA
ATOM    100  O   UNL A   1      43.157  24.623  37.071  1.00  0.00    -0.237 OA
ATOM    101  O   UNL A   1      40.871  24.840  36.186  1.00  0.00    -0.744 OA
ENDBRANCH  97  98
ENDBRANCH  71  92
ENDBRANCH  45  46
ENDBRANCH  37  40
ENDBRANCH  35  36
ENDBRANCH  34  35
ENDBRANCH   1  34
TORSDOF 19
ENDMDL
