MODEL 1
REMARK VINA RESULT:     -11.0      0.000      0.000
REMARK SMILES O=C(NCCCNC(=O)[C@H](Cc1ccc(O)cc1)NC(=O)c1ccc(Cl)s1)c1ccc(-c2c3nc(c(-c4ccc(S(=O)(=O)[O-])cc4)c4ccc([nH]4)c(-c4ccc(S(=O)(=O)[O-])cc4)c4nc(c(-c5ccc(S(=O)(=O)[O-])cc5)c5ccc2[nH]5)C=C4)C=C3)cc1
REMARK SMILES IDX 5 1 4 2 3 3 1 4 2 5 28 7 29 8 87 9 30 10 86 11 31 12 32 13
REMARK SMILES IDX 33 14 80 15 34 16 85 17 79 18 81 19 35 20 84 21 78 22 77 23
REMARK SMILES IDX 36 25 66 26 47 27 65 28 48 29 51 30 64 31 82 32 49 33 50 34
REMARK SMILES IDX 63 36 83 37 52 38 37 39 38 40 46 41 39 42 45 43 40 44 41 45
REMARK SMILES IDX 42 46 43 47 44 48 67 49 68 50 76 51 69 52 75 53 70 54 71 55
REMARK SMILES IDX 72 56 73 57 74 58 53 59 54 60 62 61 55 62 61 63 56 64 57 65
REMARK SMILES IDX 58 66 59 67 60 68 6 69 7 70 8 71 9 73 10 74 19 75 20 76
REMARK SMILES IDX 21 78 22 79 23 80 27 81 24 82 25 83 26 84 11 85 12 86 13 87
REMARK SMILES IDX 18 88 14 89 17 90 15 91 16 92
REMARK H PARENT 3 6 81 24 51 35 7 72 19 77 16 93
REMARK Flexibility Score: inf
ROOT
ATOM      1  C   UNL A   1      33.327  28.041  25.872  1.00  0.00     0.042 C 
ENDROOT
BRANCH   1   2
ATOM      2  C   UNL A   1      33.547  28.367  27.340  1.00  0.00     0.118 C 
BRANCH   2   3
ATOM      3  N   UNL A   1      33.544  29.802  27.606  1.00  0.00    -0.352 N 
ATOM      4  O   UNL A   1      34.248  31.765  28.452  1.00  0.00    -0.269 OA
ATOM      5  C   UNL A   1      34.525  30.613  28.128  1.00  0.00     0.251 C 
ATOM      6  H   UNL A   1      32.705  30.263  27.375  1.00  0.00     0.163 HD
BRANCH   5   7
ATOM      7  C   UNL A   1      35.893  30.090  28.326  1.00  0.00     0.039 A 
ATOM      8  C   UNL A   1      36.276  29.563  29.559  1.00  0.00     0.014 A 
ATOM      9  C   UNL A   1      36.812  30.135  27.274  1.00  0.00     0.014 A 
ATOM     10  C   UNL A   1      37.613  29.295  29.807  1.00  0.00     0.010 A 
ATOM     11  C   UNL A   1      38.135  29.736  27.490  1.00  0.00     0.010 A 
ATOM     12  C   UNL A   1      38.562  29.364  28.774  1.00  0.00    -0.014 A 
BRANCH  12  13
ATOM     13  C   UNL A   1      39.974  29.008  29.072  1.00  0.00     0.031 A 
ATOM     14  C   UNL A   1      40.873  29.945  29.837  1.00  0.00     0.074 A 
ATOM     15  C   UNL A   1      40.426  27.793  28.699  1.00  0.00     0.049 A 
ATOM     16  N   UNL A   1      42.106  29.756  30.234  1.00  0.00    -0.248 NA
ATOM     17  C   UNL A   1      40.327  31.263  30.194  1.00  0.00     0.031 C 
ATOM     18  C   UNL A   1      39.650  26.798  27.951  1.00  0.00     0.029 A 
ATOM     19  N   UNL A   1      41.625  27.171  28.924  1.00  0.00    -0.354 N 
ATOM     20  C   UNL A   1      42.494  30.938  30.857  1.00  0.00     0.074 A 
ATOM     21  C   UNL A   1      41.373  31.846  30.767  1.00  0.00     0.031 C 
ATOM     22  C   UNL A   1      40.363  25.668  27.848  1.00  0.00     0.029 A 
ATOM     23  C   UNL A   1      41.673  25.881  28.450  1.00  0.00     0.049 A 
ATOM     24  H   UNL A   1      42.381  27.605  29.382  1.00  0.00     0.167 HD
ATOM     25  C   UNL A   1      43.675  31.236  31.452  1.00  0.00     0.031 A 
ATOM     26  C   UNL A   1      42.661  24.969  28.481  1.00  0.00     0.031 A 
ATOM     27  C   UNL A   1      44.784  30.321  31.550  1.00  0.00     0.049 A 
ATOM     28  C   UNL A   1      43.962  25.331  29.135  1.00  0.00     0.074 A 
ATOM     29  C   UNL A   1      46.009  30.517  32.164  1.00  0.00     0.029 A 
ATOM     30  N   UNL A   1      44.806  29.040  31.017  1.00  0.00    -0.354 N 
ATOM     31  N   UNL A   1      44.297  26.445  29.741  1.00  0.00    -0.248 NA
ATOM     32  C   UNL A   1      45.018  24.311  29.111  1.00  0.00     0.031 C 
ATOM     33  C   UNL A   1      46.792  29.376  31.955  1.00  0.00     0.029 A 
ATOM     34  C   UNL A   1      46.031  28.443  31.268  1.00  0.00     0.049 A 
ATOM     35  H   UNL A   1      44.061  28.617  30.533  1.00  0.00     0.167 HD
ATOM     36  C   UNL A   1      45.595  26.250  30.196  1.00  0.00     0.074 A 
ATOM     37  C   UNL A   1      45.976  24.906  29.809  1.00  0.00     0.031 C 
ATOM     38  C   UNL A   1      46.397  27.106  30.874  1.00  0.00     0.031 A 
BRANCH  25  39
ATOM     39  C   UNL A   1      43.846  32.624  32.016  1.00  0.00    -0.014 A 
ATOM     40  C   UNL A   1      44.283  33.696  31.217  1.00  0.00     0.010 A 
ATOM     41  C   UNL A   1      43.520  32.868  33.364  1.00  0.00     0.010 A 
ATOM     42  C   UNL A   1      44.432  34.975  31.766  1.00  0.00     0.020 A 
ATOM     43  C   UNL A   1      43.640  34.149  33.909  1.00  0.00     0.020 A 
ATOM     44  C   UNL A   1      44.113  35.192  33.111  1.00  0.00     0.054 A 
BRANCH  44  45
ATOM     45  S   UNL A   1      44.302  36.862  33.794  1.00  0.00     0.124 S 
ATOM     46  O   UNL A   1      45.448  37.366  33.041  1.00  0.00    -0.237 OA
ATOM     47  O   UNL A   1      43.020  37.485  33.478  1.00  0.00    -0.237 OA
ATOM     48  O   UNL A   1      44.545  36.630  35.216  1.00  0.00    -0.744 OA
ENDBRANCH  44  45
ENDBRANCH  25  39
BRANCH  26  49
ATOM     49  C   UNL A   1      42.450  23.628  27.870  1.00  0.00    -0.014 A 
ATOM     50  C   UNL A   1      42.982  23.325  26.605  1.00  0.00     0.010 A 
ATOM     51  C   UNL A   1      41.733  22.638  28.566  1.00  0.00     0.010 A 
ATOM     52  C   UNL A   1      42.786  22.062  26.039  1.00  0.00     0.020 A 
ATOM     53  C   UNL A   1      41.563  21.364  28.020  1.00  0.00     0.020 A 
ATOM     54  C   UNL A   1      42.079  21.088  26.752  1.00  0.00     0.054 A 
BRANCH  54  55
ATOM     55  S   UNL A   1      41.878  19.440  26.022  1.00  0.00     0.124 S 
ATOM     56  O   UNL A   1      42.721  19.532  24.834  1.00  0.00    -0.237 OA
ATOM     57  O   UNL A   1      42.370  18.563  27.081  1.00  0.00    -0.237 OA
ATOM     58  O   UNL A   1      40.443  19.351  25.767  1.00  0.00    -0.744 OA
ENDBRANCH  54  55
ENDBRANCH  26  49
BRANCH  38  59
ATOM     59  C   UNL A   1      47.754  26.596  31.283  1.00  0.00    -0.014 A 
ATOM     60  C   UNL A   1      48.880  26.759  30.456  1.00  0.00     0.010 A 
ATOM     61  C   UNL A   1      47.903  25.960  32.529  1.00  0.00     0.010 A 
ATOM     62  C   UNL A   1      50.122  26.254  30.850  1.00  0.00     0.020 A 
ATOM     63  C   UNL A   1      49.150  25.482  32.939  1.00  0.00     0.020 A 
ATOM     64  C   UNL A   1      50.248  25.614  32.088  1.00  0.00     0.054 A 
BRANCH  64  65
ATOM     65  S   UNL A   1      51.874  24.985  32.586  1.00  0.00     0.124 S 
ATOM     66  O   UNL A   1      52.004  25.522  33.938  1.00  0.00    -0.237 OA
ATOM     67  O   UNL A   1      51.700  23.538  32.496  1.00  0.00    -0.237 OA
ATOM     68  O   UNL A   1      52.784  25.560  31.597  1.00  0.00    -0.744 OA
ENDBRANCH  64  65
ENDBRANCH  38  59
ENDBRANCH  12  13
ENDBRANCH   5   7
ENDBRANCH   2   3
ENDBRANCH   1   2
BRANCH   1  69
ATOM     69  C   UNL A   1      33.460  26.562  25.560  1.00  0.00     0.117 C 
BRANCH  69  70
ATOM     70  N   UNL A   1      32.649  25.740  26.442  1.00  0.00    -0.354 N 
ATOM     71  C   UNL A   1      31.855  24.662  26.187  1.00  0.00     0.242 C 
ATOM     72  H   UNL A   1      32.677  26.007  27.389  1.00  0.00     0.163 HD
ATOM     73  O   UNL A   1      31.234  24.172  27.135  1.00  0.00    -0.273 OA
BRANCH  71  74
ATOM     74  C   UNL A   1      31.716  24.078  24.774  1.00  0.00     0.176 C 
BRANCH  74  75
ATOM     75  N   UNL A   1      31.814  22.618  24.849  1.00  0.00    -0.339 N 
ATOM     76  C   UNL A   1      32.918  21.810  24.754  1.00  0.00     0.262 C 
ATOM     77  H   UNL A   1      30.961  22.146  24.987  1.00  0.00     0.164 HD
ATOM     78  O   UNL A   1      32.722  20.591  24.763  1.00  0.00    -0.268 OA
BRANCH  76  79
ATOM     79  C   UNL A   1      34.227  22.407  24.620  1.00  0.00     0.093 A 
ATOM     80  C   UNL A   1      34.902  22.821  23.484  1.00  0.00     0.027 A 
ATOM     81  S   UNL A   1      35.139  22.721  26.040  1.00  0.00    -0.118 S 
ATOM     82  C   UNL A   1      36.200  23.331  23.784  1.00  0.00     0.033 A 
ATOM     83  C   UNL A   1      36.437  23.315  25.134  1.00  0.00     0.094 A 
ATOM     84  Cl  UNL A   1      37.869  23.830  25.930  1.00  0.00    -0.072 Cl
ENDBRANCH  76  79
ENDBRANCH  74  75
BRANCH  74  85
ATOM     85  C   UNL A   1      30.442  24.563  24.067  1.00  0.00     0.070 C 
BRANCH  85  86
ATOM     86  C   UNL A   1      30.584  25.934  23.459  1.00  0.00    -0.045 A 
ATOM     87  C   UNL A   1      31.578  26.184  22.503  1.00  0.00     0.007 A 
ATOM     88  C   UNL A   1      29.736  26.976  23.860  1.00  0.00     0.007 A 
ATOM     89  C   UNL A   1      31.738  27.463  21.974  1.00  0.00     0.046 A 
ATOM     90  C   UNL A   1      29.892  28.252  23.325  1.00  0.00     0.046 A 
ATOM     91  C   UNL A   1      30.896  28.488  22.394  1.00  0.00     0.115 A 
BRANCH  91  92
ATOM     92  O   UNL A   1      31.033  29.757  21.915  1.00  0.00    -0.508 OA
ATOM     93  H   UNL A   1      30.995  30.486  22.502  1.00  0.00     0.293 HD
ENDBRANCH  91  92
ENDBRANCH  85  86
ENDBRANCH  74  85
ENDBRANCH  71  74
ENDBRANCH  69  70
ENDBRANCH   1  69
TORSDOF 18
ENDMDL
MODEL 2
REMARK VINA RESULT:     -10.7      0.686      8.186
REMARK SMILES O=C(NCCCNC(=O)[C@H](Cc1ccc(O)cc1)NC(=O)c1ccc(Cl)s1)c1ccc(-c2c3nc(c(-c4ccc(S(=O)(=O)[O-])cc4)c4ccc([nH]4)c(-c4ccc(S(=O)(=O)[O-])cc4)c4nc(c(-c5ccc(S(=O)(=O)[O-])cc5)c5ccc2[nH]5)C=C4)C=C3)cc1
REMARK SMILES IDX 5 1 4 2 3 3 1 4 2 5 28 7 29 8 87 9 30 10 86 11 31 12 32 13
REMARK SMILES IDX 33 14 80 15 34 16 85 17 79 18 81 19 35 20 84 21 78 22 77 23
REMARK SMILES IDX 36 25 66 26 47 27 65 28 48 29 51 30 64 31 82 32 49 33 50 34
REMARK SMILES IDX 63 36 83 37 52 38 37 39 38 40 46 41 39 42 45 43 40 44 41 45
REMARK SMILES IDX 42 46 43 47 44 48 67 49 68 50 76 51 69 52 75 53 70 54 71 55
REMARK SMILES IDX 72 56 73 57 74 58 53 59 54 60 62 61 55 62 61 63 56 64 57 65
REMARK SMILES IDX 58 66 59 67 60 68 6 69 7 70 8 71 9 73 10 74 19 75 20 76
REMARK SMILES IDX 21 78 22 79 23 80 27 81 24 82 25 83 26 84 11 85 12 86 13 87
REMARK SMILES IDX 18 88 14 89 17 90 15 91 16 92
REMARK H PARENT 3 6 81 24 51 35 7 72 19 77 16 93
REMARK Flexibility Score: inf
ROOT
ATOM      1  C   UNL A   1      32.625  27.769  26.456  1.00  0.00     0.042 C 
ENDROOT
BRANCH   1   2
ATOM      2  C   UNL A   1      33.920  28.565  26.467  1.00  0.00     0.118 C 
BRANCH   2   3
ATOM      3  N   UNL A   1      33.775  29.871  27.101  1.00  0.00    -0.352 N 
ATOM      4  O   UNL A   1      34.210  31.550  28.535  1.00  0.00    -0.269 OA
ATOM      5  C   UNL A   1      34.613  30.542  27.962  1.00  0.00     0.251 C 
ATOM      6  H   UNL A   1      32.943  30.348  26.878  1.00  0.00     0.163 HD
BRANCH   5   7
ATOM      7  C   UNL A   1      35.978  30.032  28.216  1.00  0.00     0.039 A 
ATOM      8  C   UNL A   1      36.298  29.456  29.443  1.00  0.00     0.014 A 
ATOM      9  C   UNL A   1      36.954  30.142  27.222  1.00  0.00     0.014 A 
ATOM     10  C   UNL A   1      37.624  29.199  29.757  1.00  0.00     0.010 A 
ATOM     11  C   UNL A   1      38.270  29.755  27.497  1.00  0.00     0.010 A 
ATOM     12  C   UNL A   1      38.629  29.331  28.786  1.00  0.00    -0.014 A 
BRANCH  12  13
ATOM     13  C   UNL A   1      40.028  28.985  29.150  1.00  0.00     0.031 A 
ATOM     14  C   UNL A   1      40.639  27.668  28.747  1.00  0.00     0.074 A 
ATOM     15  C   UNL A   1      40.772  29.904  29.799  1.00  0.00     0.049 A 
ATOM     16  N   UNL A   1      41.864  27.242  28.929  1.00  0.00    -0.248 NA
ATOM     17  C   UNL A   1      39.768  26.700  28.062  1.00  0.00     0.031 C 
ATOM     18  C   UNL A   1      40.292  31.217  30.244  1.00  0.00     0.029 A 
ATOM     19  N   UNL A   1      42.093  29.898  30.165  1.00  0.00    -0.354 N 
ATOM     20  C   UNL A   1      41.902  25.951  28.413  1.00  0.00     0.074 A 
ATOM     21  C   UNL A   1      40.572  25.653  27.930  1.00  0.00     0.031 C 
ATOM     22  C   UNL A   1      41.318  31.914  30.751  1.00  0.00     0.029 A 
ATOM     23  C   UNL A   1      42.509  31.075  30.741  1.00  0.00     0.049 A 
ATOM     24  H   UNL A   1      42.687  29.124  30.028  1.00  0.00     0.167 HD
ATOM     25  C   UNL A   1      42.951  25.094  28.347  1.00  0.00     0.031 A 
ATOM     26  C   UNL A   1      43.711  31.441  31.222  1.00  0.00     0.031 A 
ATOM     27  C   UNL A   1      44.276  25.402  28.818  1.00  0.00     0.049 A 
ATOM     28  C   UNL A   1      44.850  30.468  31.147  1.00  0.00     0.074 A 
ATOM     29  C   UNL A   1      45.414  24.614  28.763  1.00  0.00     0.029 A 
ATOM     30  N   UNL A   1      44.644  26.588  29.436  1.00  0.00    -0.354 N 
ATOM     31  N   UNL A   1      44.870  29.262  30.630  1.00  0.00    -0.248 NA
ATOM     32  C   UNL A   1      46.130  30.906  31.716  1.00  0.00     0.031 C 
ATOM     33  C   UNL A   1      46.454  25.301  29.397  1.00  0.00     0.029 A 
ATOM     34  C   UNL A   1      45.984  26.545  29.787  1.00  0.00     0.049 A 
ATOM     35  H   UNL A   1      44.043  27.350  29.599  1.00  0.00     0.167 HD
ATOM     36  C   UNL A   1      46.172  28.806  30.788  1.00  0.00     0.074 A 
ATOM     37  C   UNL A   1      46.912  29.873  31.432  1.00  0.00     0.031 C 
ATOM     38  C   UNL A   1      46.706  27.613  30.431  1.00  0.00     0.031 A 
BRANCH  25  39
ATOM     39  C   UNL A   1      42.700  23.722  27.772  1.00  0.00    -0.014 A 
ATOM     40  C   UNL A   1      42.794  23.471  26.392  1.00  0.00     0.010 A 
ATOM     41  C   UNL A   1      42.408  22.652  28.640  1.00  0.00     0.010 A 
ATOM     42  C   UNL A   1      42.558  22.188  25.886  1.00  0.00     0.020 A 
ATOM     43  C   UNL A   1      42.199  21.363  28.142  1.00  0.00     0.020 A 
ATOM     44  C   UNL A   1      42.258  21.142  26.765  1.00  0.00     0.054 A 
BRANCH  44  45
ATOM     45  S   UNL A   1      41.969  19.486  26.086  1.00  0.00     0.124 S 
ATOM     46  O   UNL A   1      42.817  19.496  24.896  1.00  0.00    -0.237 OA
ATOM     47  O   UNL A   1      42.416  18.612  27.167  1.00  0.00    -0.237 OA
ATOM     48  O   UNL A   1      40.532  19.462  25.825  1.00  0.00    -0.744 OA
ENDBRANCH  44  45
ENDBRANCH  25  39
BRANCH  26  49
ATOM     49  C   UNL A   1      43.889  32.794  31.818  1.00  0.00    -0.014 A 
ATOM     50  C   UNL A   1      43.702  33.001  33.195  1.00  0.00     0.010 A 
ATOM     51  C   UNL A   1      44.270  33.879  31.008  1.00  0.00     0.010 A 
ATOM     52  C   UNL A   1      43.876  34.272  33.749  1.00  0.00     0.020 A 
ATOM     53  C   UNL A   1      44.478  35.144  31.562  1.00  0.00     0.020 A 
ATOM     54  C   UNL A   1      44.267  35.336  32.929  1.00  0.00     0.054 A 
BRANCH  54  55
ATOM     55  S   UNL A   1      44.536  36.966  33.676  1.00  0.00     0.124 S 
ATOM     56  O   UNL A   1      44.675  36.630  35.090  1.00  0.00    -0.237 OA
ATOM     57  O   UNL A   1      45.753  37.421  33.010  1.00  0.00    -0.237 OA
ATOM     58  O   UNL A   1      43.328  37.707  33.324  1.00  0.00    -0.744 OA
ENDBRANCH  54  55
ENDBRANCH  26  49
BRANCH  38  59
ATOM     59  C   UNL A   1      48.178  27.417  30.687  1.00  0.00    -0.014 A 
ATOM     60  C   UNL A   1      49.140  27.713  29.704  1.00  0.00     0.010 A 
ATOM     61  C   UNL A   1      48.602  26.948  31.943  1.00  0.00     0.010 A 
ATOM     62  C   UNL A   1      50.497  27.499  29.961  1.00  0.00     0.020 A 
ATOM     63  C   UNL A   1      49.959  26.763  32.212  1.00  0.00     0.020 A 
ATOM     64  C   UNL A   1      50.897  27.021  31.212  1.00  0.00     0.054 A 
BRANCH  64  65
ATOM     65  S   UNL A   1      52.665  26.771  31.528  1.00  0.00     0.124 S 
ATOM     66  O   UNL A   1      53.140  28.143  31.690  1.00  0.00    -0.237 OA
ATOM     67  O   UNL A   1      52.664  25.958  32.741  1.00  0.00    -0.237 OA
ATOM     68  O   UNL A   1      53.137  26.085  30.327  1.00  0.00    -0.744 OA
ENDBRANCH  64  65
ENDBRANCH  38  59
ENDBRANCH  12  13
ENDBRANCH   5   7
ENDBRANCH   2   3
ENDBRANCH   1   2
BRANCH   1  69
ATOM     69  C   UNL A   1      32.844  26.270  26.378  1.00  0.00     0.117 C 
BRANCH  69  70
ATOM     70  N   UNL A   1      31.673  25.522  26.806  1.00  0.00    -0.354 N 
ATOM     71  C   UNL A   1      30.949  24.552  26.180  1.00  0.00     0.242 C 
ATOM     72  H   UNL A   1      31.346  25.756  27.704  1.00  0.00     0.163 HD
ATOM     73  O   UNL A   1      29.957  24.110  26.767  1.00  0.00    -0.273 OA
BRANCH  71  74
ATOM     74  C   UNL A   1      31.332  24.030  24.787  1.00  0.00     0.176 C 
BRANCH  74  75
ATOM     75  N   UNL A   1      31.461  22.572  24.842  1.00  0.00    -0.339 N 
ATOM     76  C   UNL A   1      32.580  21.789  24.730  1.00  0.00     0.262 C 
ATOM     77  H   UNL A   1      30.618  22.081  24.978  1.00  0.00     0.164 HD
ATOM     78  O   UNL A   1      32.410  20.566  24.724  1.00  0.00    -0.268 OA
BRANCH  76  79
ATOM     79  C   UNL A   1      33.876  22.415  24.598  1.00  0.00     0.093 A 
ATOM     80  C   UNL A   1      34.549  22.829  23.460  1.00  0.00     0.027 A 
ATOM     81  S   UNL A   1      34.770  22.768  26.020  1.00  0.00    -0.118 S 
ATOM     82  C   UNL A   1      35.833  23.374  23.763  1.00  0.00     0.033 A 
ATOM     83  C   UNL A   1      36.060  23.380  25.115  1.00  0.00     0.094 A 
ATOM     84  Cl  UNL A   1      37.474  23.940  25.913  1.00  0.00    -0.072 Cl
ENDBRANCH  76  79
ENDBRANCH  74  75
BRANCH  74  85
ATOM     85  C   UNL A   1      30.361  24.511  23.699  1.00  0.00     0.070 C 
BRANCH  85  86
ATOM     86  C   UNL A   1      30.597  25.940  23.280  1.00  0.00    -0.045 A 
ATOM     87  C   UNL A   1      29.598  26.905  23.465  1.00  0.00     0.007 A 
ATOM     88  C   UNL A   1      31.810  26.309  22.683  1.00  0.00     0.007 A 
ATOM     89  C   UNL A   1      29.800  28.216  23.036  1.00  0.00     0.046 A 
ATOM     90  C   UNL A   1      32.014  27.621  22.262  1.00  0.00     0.046 A 
ATOM     91  C   UNL A   1      31.006  28.562  22.433  1.00  0.00     0.115 A 
BRANCH  91  92
ATOM     92  O   UNL A   1      31.235  29.828  21.984  1.00  0.00    -0.508 OA
ATOM     93  H   UNL A   1      30.592  30.496  22.119  1.00  0.00     0.293 HD
ENDBRANCH  91  92
ENDBRANCH  85  86
ENDBRANCH  74  85
ENDBRANCH  71  74
ENDBRANCH  69  70
ENDBRANCH   1  69
TORSDOF 18
ENDMDL
MODEL 3
REMARK VINA RESULT:     -10.7      2.831      9.337
REMARK SMILES O=C(NCCCNC(=O)[C@H](Cc1ccc(O)cc1)NC(=O)c1ccc(Cl)s1)c1ccc(-c2c3nc(c(-c4ccc(S(=O)(=O)[O-])cc4)c4ccc([nH]4)c(-c4ccc(S(=O)(=O)[O-])cc4)c4nc(c(-c5ccc(S(=O)(=O)[O-])cc5)c5ccc2[nH]5)C=C4)C=C3)cc1
REMARK SMILES IDX 5 1 4 2 3 3 1 4 2 5 28 7 29 8 87 9 30 10 86 11 31 12 32 13
REMARK SMILES IDX 33 14 80 15 34 16 85 17 79 18 81 19 35 20 84 21 78 22 77 23
REMARK SMILES IDX 36 25 66 26 47 27 65 28 48 29 51 30 64 31 82 32 49 33 50 34
REMARK SMILES IDX 63 36 83 37 52 38 37 39 38 40 46 41 39 42 45 43 40 44 41 45
REMARK SMILES IDX 42 46 43 47 44 48 67 49 68 50 76 51 69 52 75 53 70 54 71 55
REMARK SMILES IDX 72 56 73 57 74 58 53 59 54 60 62 61 55 62 61 63 56 64 57 65
REMARK SMILES IDX 58 66 59 67 60 68 6 69 7 70 8 71 9 73 10 74 19 75 20 76
REMARK SMILES IDX 21 78 22 79 23 80 27 81 24 82 25 83 26 84 11 85 12 86 13 87
REMARK SMILES IDX 18 88 14 89 17 90 15 91 16 92
REMARK H PARENT 3 6 81 24 51 35 7 72 19 77 16 93
REMARK Flexibility Score: inf
ROOT
ATOM      1  C   UNL A   1      35.716  23.700  25.734  1.00  0.00     0.042 C 
ENDROOT
BRANCH   1   2
ATOM      2  C   UNL A   1      37.011  23.837  24.950  1.00  0.00     0.118 C 
BRANCH   2   3
ATOM      3  N   UNL A   1      38.015  22.853  25.343  1.00  0.00    -0.352 N 
ATOM      4  O   UNL A   1      39.966  22.079  26.153  1.00  0.00    -0.269 OA
ATOM      5  C   UNL A   1      39.152  22.996  26.104  1.00  0.00     0.251 C 
ATOM      6  H   UNL A   1      37.852  21.941  25.010  1.00  0.00     0.163 HD
BRANCH   5   7
ATOM      7  C   UNL A   1      39.404  24.259  26.832  1.00  0.00     0.039 A 
ATOM      8  C   UNL A   1      40.143  25.280  26.237  1.00  0.00     0.014 A 
ATOM      9  C   UNL A   1      38.909  24.423  28.128  1.00  0.00     0.014 A 
ATOM     10  C   UNL A   1      40.573  26.353  27.002  1.00  0.00     0.010 A 
ATOM     11  C   UNL A   1      39.234  25.573  28.855  1.00  0.00     0.010 A 
ATOM     12  C   UNL A   1      40.115  26.524  28.318  1.00  0.00    -0.014 A 
BRANCH  12  13
ATOM     13  C   UNL A   1      40.554  27.723  29.080  1.00  0.00     0.031 A 
ATOM     14  C   UNL A   1      41.949  27.827  29.639  1.00  0.00     0.074 A 
ATOM     15  C   UNL A   1      39.695  28.754  29.211  1.00  0.00     0.049 A 
ATOM     16  N   UNL A   1      42.507  28.830  30.270  1.00  0.00    -0.248 NA
ATOM     17  C   UNL A   1      42.829  26.659  29.484  1.00  0.00     0.031 C 
ATOM     18  C   UNL A   1      38.315  28.771  28.713  1.00  0.00     0.029 A 
ATOM     19  N   UNL A   1      39.858  29.998  29.763  1.00  0.00    -0.354 N 
ATOM     20  C   UNL A   1      43.786  28.406  30.612  1.00  0.00     0.074 A 
ATOM     21  C   UNL A   1      43.916  27.045  30.140  1.00  0.00     0.031 C 
ATOM     22  C   UNL A   1      37.788  29.987  28.914  1.00  0.00     0.029 A 
ATOM     23  C   UNL A   1      38.758  30.810  29.624  1.00  0.00     0.049 A 
ATOM     24  H   UNL A   1      40.685  30.282  30.217  1.00  0.00     0.167 HD
ATOM     25  C   UNL A   1      44.763  29.088  31.259  1.00  0.00     0.031 A 
ATOM     26  C   UNL A   1      38.542  32.075  30.029  1.00  0.00     0.031 A 
ATOM     27  C   UNL A   1      44.631  30.448  31.715  1.00  0.00     0.049 A 
ATOM     28  C   UNL A   1      39.636  32.801  30.754  1.00  0.00     0.074 A 
ATOM     29  C   UNL A   1      45.576  31.238  32.349  1.00  0.00     0.029 A 
ATOM     30  N   UNL A   1      43.485  31.219  31.593  1.00  0.00    -0.354 N 
ATOM     31  N   UNL A   1      40.847  32.388  31.043  1.00  0.00    -0.248 NA
ATOM     32  C   UNL A   1      39.336  34.166  31.203  1.00  0.00     0.031 C 
ATOM     33  C   UNL A   1      44.983  32.466  32.659  1.00  0.00     0.029 A 
ATOM     34  C   UNL A   1      43.690  32.467  32.159  1.00  0.00     0.049 A 
ATOM     35  H   UNL A   1      42.649  30.925  31.166  1.00  0.00     0.167 HD
ATOM     36  C   UNL A   1      41.465  33.454  31.687  1.00  0.00     0.074 A 
ATOM     37  C   UNL A   1      40.498  34.533  31.727  1.00  0.00     0.031 C 
ATOM     38  C   UNL A   1      42.718  33.531  32.195  1.00  0.00     0.031 A 
BRANCH  25  39
ATOM     39  C   UNL A   1      46.054  28.363  31.545  1.00  0.00    -0.014 A 
ATOM     40  C   UNL A   1      46.242  27.631  32.731  1.00  0.00     0.010 A 
ATOM     41  C   UNL A   1      47.084  28.380  30.585  1.00  0.00     0.010 A 
ATOM     42  C   UNL A   1      47.450  26.966  32.971  1.00  0.00     0.020 A 
ATOM     43  C   UNL A   1      48.281  27.694  30.808  1.00  0.00     0.020 A 
ATOM     44  C   UNL A   1      48.464  27.005  32.008  1.00  0.00     0.054 A 
BRANCH  44  45
ATOM     45  S   UNL A   1      50.015  26.125  32.337  1.00  0.00     0.124 S 
ATOM     46  O   UNL A   1      49.654  25.300  33.487  1.00  0.00    -0.237 OA
ATOM     47  O   UNL A   1      50.243  25.399  31.090  1.00  0.00    -0.237 OA
ATOM     48  O   UNL A   1      50.971  27.195  32.614  1.00  0.00    -0.744 OA
ENDBRANCH  44  45
ENDBRANCH  25  39
BRANCH  26  49
ATOM     49  C   UNL A   1      37.231  32.725  29.757  1.00  0.00    -0.014 A 
ATOM     50  C   UNL A   1      36.224  32.747  30.736  1.00  0.00     0.010 A 
ATOM     51  C   UNL A   1      36.995  33.349  28.518  1.00  0.00     0.010 A 
ATOM     52  C   UNL A   1      34.998  33.365  30.476  1.00  0.00     0.020 A 
ATOM     53  C   UNL A   1      35.784  33.997  28.265  1.00  0.00     0.020 A 
ATOM     54  C   UNL A   1      34.786  33.989  29.242  1.00  0.00     0.054 A 
BRANCH  54  55
ATOM     55  S   UNL A   1      33.207  34.829  28.944  1.00  0.00     0.124 S 
ATOM     56  O   UNL A   1      32.604  34.819  30.273  1.00  0.00    -0.237 OA
ATOM     57  O   UNL A   1      33.632  36.135  28.450  1.00  0.00    -0.237 OA
ATOM     58  O   UNL A   1      32.551  33.980  27.952  1.00  0.00    -0.744 OA
ENDBRANCH  54  55
ENDBRANCH  26  49
BRANCH  38  59
ATOM     59  C   UNL A   1      43.133  34.847  32.799  1.00  0.00    -0.014 A 
ATOM     60  C   UNL A   1      42.984  35.103  34.174  1.00  0.00     0.010 A 
ATOM     61  C   UNL A   1      43.701  35.834  31.975  1.00  0.00     0.010 A 
ATOM     62  C   UNL A   1      43.354  36.342  34.704  1.00  0.00     0.020 A 
ATOM     63  C   UNL A   1      44.101  37.061  32.507  1.00  0.00     0.020 A 
ATOM     64  C   UNL A   1      43.907  37.315  33.865  1.00  0.00     0.054 A 
BRANCH  64  65
ATOM     65  S   UNL A   1      44.399  38.907  34.580  1.00  0.00     0.124 S 
ATOM     66  O   UNL A   1      43.393  39.811  34.026  1.00  0.00    -0.237 OA
ATOM     67  O   UNL A   1      44.300  38.660  36.015  1.00  0.00    -0.237 OA
ATOM     68  O   UNL A   1      45.757  39.106  34.080  1.00  0.00    -0.744 OA
ENDBRANCH  64  65
ENDBRANCH  38  59
ENDBRANCH  12  13
ENDBRANCH   5   7
ENDBRANCH   2   3
ENDBRANCH   1   2
BRANCH   1  69
ATOM     69  C   UNL A   1      34.662  22.880  25.014  1.00  0.00     0.117 C 
BRANCH  69  70
ATOM     70  N   UNL A   1      34.540  23.250  23.614  1.00  0.00    -0.354 N 
ATOM     71  C   UNL A   1      33.527  23.068  22.722  1.00  0.00     0.242 C 
ATOM     72  H   UNL A   1      35.327  23.714  23.245  1.00  0.00     0.163 HD
ATOM     73  O   UNL A   1      33.710  23.450  21.563  1.00  0.00    -0.273 OA
BRANCH  71  74
ATOM     74  C   UNL A   1      32.206  22.396  23.126  1.00  0.00     0.176 C 
BRANCH  74  75
ATOM     75  N   UNL A   1      31.094  23.290  22.793  1.00  0.00    -0.339 N 
ATOM     76  C   UNL A   1      30.691  24.448  23.406  1.00  0.00     0.262 C 
ATOM     77  H   UNL A   1      30.557  23.019  22.014  1.00  0.00     0.164 HD
ATOM     78  O   UNL A   1      29.659  24.977  22.980  1.00  0.00    -0.268 OA
BRANCH  76  79
ATOM     79  C   UNL A   1      31.455  24.970  24.516  1.00  0.00     0.093 A 
ATOM     80  C   UNL A   1      31.542  24.519  25.822  1.00  0.00     0.027 A 
ATOM     81  S   UNL A   1      32.464  26.333  24.253  1.00  0.00    -0.118 S 
ATOM     82  C   UNL A   1      32.390  25.345  26.621  1.00  0.00     0.033 A 
ATOM     83  C   UNL A   1      32.932  26.361  25.877  1.00  0.00     0.094 A 
ATOM     84  Cl  UNL A   1      33.998  27.585  26.438  1.00  0.00    -0.072 Cl
ENDBRANCH  76  79
ENDBRANCH  74  75
BRANCH  74  85
ATOM     85  C   UNL A   1      32.057  20.994  22.519  1.00  0.00     0.070 C 
BRANCH  85  86
ATOM     86  C   UNL A   1      32.354  19.887  23.498  1.00  0.00    -0.045 A 
ATOM     87  C   UNL A   1      32.511  20.172  24.861  1.00  0.00     0.007 A 
ATOM     88  C   UNL A   1      32.498  18.567  23.048  1.00  0.00     0.007 A 
ATOM     89  C   UNL A   1      32.830  19.154  25.759  1.00  0.00     0.046 A 
ATOM     90  C   UNL A   1      32.810  17.550  23.948  1.00  0.00     0.046 A 
ATOM     91  C   UNL A   1      32.982  17.852  25.293  1.00  0.00     0.115 A 
BRANCH  91  92
ATOM     92  O   UNL A   1      33.313  16.833  26.136  1.00  0.00    -0.508 OA
ATOM     93  H   UNL A   1      32.695  16.534  26.774  1.00  0.00     0.293 HD
ENDBRANCH  91  92
ENDBRANCH  85  86
ENDBRANCH  74  85
ENDBRANCH  71  74
ENDBRANCH  69  70
ENDBRANCH   1  69
TORSDOF 18
ENDMDL
