MODEL 1
REMARK VINA RESULT:     -12.3      0.000      0.000
REMARK SMILES O=C(CC[N@@H+]1C[C@@H](c2ccccc2)[C@@H]2[C@H]1[C@H]1CC[N@H+]2CC1)NCCCNC(=O)c1ccc(-c2c3nc(c(-c4ccc(S(=O)(=O)[O-])cc4)c4ccc([nH]4)c(-c4ccc(S(=O)(=O)[O-])cc4)c4nc(c(-c5ccc(S(=O)(=O)[O-])cc5)c5ccc2[nH]5)C=C4)C=C3)cc1
REMARK SMILES IDX 24 1 23 2 22 3 1 4 2 5 3 7 4 8 5 9 6 10 15 11 7 13 14 14
REMARK SMILES IDX 16 15 19 16 17 17 21 18 18 19 20 20 8 22 9 23 13 24 10 25
REMARK SMILES IDX 12 26 11 27 25 28 26 29 27 30 28 32 29 33 30 34 88 35 31 36
REMARK SMILES IDX 87 37 32 38 33 39 34 40 81 41 35 42 86 43 80 44 82 45 36 46
REMARK SMILES IDX 85 47 79 48 78 49 37 51 67 52 48 53 66 54 49 55 52 56 65 57
REMARK SMILES IDX 83 58 50 59 51 60 64 62 84 63 53 64 38 65 39 66 47 67 40 68
REMARK SMILES IDX 46 69 41 70 42 71 43 72 44 73 45 74 68 75 69 76 77 77 70 78
REMARK SMILES IDX 76 79 71 80 72 81 73 82 74 83 75 84 54 85 55 86 63 87 56 88
REMARK SMILES IDX 62 89 57 90 58 91 59 92 60 93 61 94
REMARK H PARENT 22 6 5 12 19 21 26 31 82 50 52 61
REMARK Flexibility Score: inf
ROOT
ATOM      1  C   UNL A   1      32.967  28.656  27.256  1.00  0.00     0.042 C 
ENDROOT
BRANCH   1   2
ATOM      2  C   UNL A   1      33.179  27.486  26.291  1.00  0.00     0.117 C 
BRANCH   2   3
ATOM      3  N   UNL A   1      32.309  26.339  26.519  1.00  0.00    -0.356 N 
ATOM      4  O   UNL A   1      30.624  27.116  25.169  1.00  0.00    -0.275 OA
ATOM      5  C   UNL A   1      31.105  26.212  25.849  1.00  0.00     0.225 C 
ATOM      6  H   UNL A   1      32.581  25.644  27.161  1.00  0.00     0.163 HD
BRANCH   5   7
ATOM      7  C   UNL A   1      30.445  24.841  25.952  1.00  0.00     0.161 C 
BRANCH   7   8
ATOM      8  C   UNL A   1      31.440  23.722  26.349  1.00  0.00     0.272 C 
BRANCH   8   9
ATOM      9  N   UNL A   1      32.214  23.026  25.286  1.00  0.00    -0.326 N 
ATOM     10  C   UNL A   1      31.777  21.599  25.088  1.00  0.00     0.277 C 
ATOM     11  C   UNL A   1      33.666  23.100  25.538  1.00  0.00     0.247 C 
ATOM     12  H   UNL A   1      32.012  23.521  24.417  1.00  0.00     0.348 HD
ATOM     13  C   UNL A   1      32.836  20.515  25.484  1.00  0.00     0.139 C 
ATOM     14  C   UNL A   1      34.037  21.338  26.010  1.00  0.00     0.256 C 
ATOM     15  C   UNL A   1      34.884  23.645  24.285  1.00  0.00     0.065 C 
ATOM     16  N   UNL A   1      35.599  20.910  25.803  1.00  0.00    -0.327 N 
ATOM     17  C   UNL A   1      34.799  22.267  24.112  1.00  0.00     0.071 C 
ATOM     18  C   UNL A   1      36.551  23.009  23.946  1.00  0.00     0.071 C 
ATOM     19  C   UNL A   1      35.722  22.279  25.822  1.00  0.00     0.263 C 
ATOM     20  C   UNL A   1      36.635  21.188  24.542  1.00  0.00     0.263 C 
ATOM     21  H   UNL A   1      35.755  19.986  26.206  1.00  0.00     0.348 HD
BRANCH  13  22
ATOM     22  C   UNL A   1      33.289  19.436  24.503  1.00  0.00    -0.033 A 
ATOM     23  C   UNL A   1      34.284  18.488  24.782  1.00  0.00     0.004 A 
ATOM     24  C   UNL A   1      32.512  19.249  23.343  1.00  0.00     0.004 A 
ATOM     25  C   UNL A   1      34.393  17.323  24.016  1.00  0.00     0.000 A 
ATOM     26  C   UNL A   1      32.637  18.098  22.566  1.00  0.00     0.000 A 
ATOM     27  C   UNL A   1      33.555  17.117  22.922  1.00  0.00     0.000 A 
ENDBRANCH  13  22
ENDBRANCH   8   9
ENDBRANCH   7   8
ENDBRANCH   5   7
ENDBRANCH   2   3
ENDBRANCH   1   2
BRANCH   1  28
ATOM     28  C   UNL A   1      33.495  30.022  26.796  1.00  0.00     0.118 C 
BRANCH  28  29
ATOM     29  N   UNL A   1      33.645  30.991  27.869  1.00  0.00    -0.352 N 
ATOM     30  C   UNL A   1      34.700  31.235  28.724  1.00  0.00     0.251 C 
ATOM     31  H   UNL A   1      32.862  31.570  28.010  1.00  0.00     0.163 HD
ATOM     32  O   UNL A   1      34.582  32.163  29.526  1.00  0.00    -0.269 OA
BRANCH  30  33
ATOM     33  C   UNL A   1      35.924  30.381  28.776  1.00  0.00     0.039 A 
ATOM     34  C   UNL A   1      36.727  30.347  27.626  1.00  0.00     0.014 A 
ATOM     35  C   UNL A   1      36.328  29.650  29.895  1.00  0.00     0.014 A 
ATOM     36  C   UNL A   1      37.979  29.722  27.649  1.00  0.00     0.010 A 
ATOM     37  C   UNL A   1      37.604  29.071  29.941  1.00  0.00     0.010 A 
ATOM     38  C   UNL A   1      38.465  29.159  28.840  1.00  0.00    -0.014 A 
BRANCH  38  39
ATOM     39  C   UNL A   1      39.922  28.888  28.983  1.00  0.00     0.031 A 
ATOM     40  C   UNL A   1      40.548  27.574  28.620  1.00  0.00     0.074 A 
ATOM     41  C   UNL A   1      40.687  29.868  29.511  1.00  0.00     0.049 A 
ATOM     42  N   UNL A   1      41.815  27.239  28.641  1.00  0.00    -0.248 NA
ATOM     43  C   UNL A   1      39.646  26.494  28.198  1.00  0.00     0.031 C 
ATOM     44  C   UNL A   1      40.188  31.169  29.970  1.00  0.00     0.029 A 
ATOM     45  N   UNL A   1      42.038  29.935  29.746  1.00  0.00    -0.354 N 
ATOM     46  C   UNL A   1      41.869  25.912  28.228  1.00  0.00     0.074 A 
ATOM     47  C   UNL A   1      40.499  25.493  28.003  1.00  0.00     0.031 C 
ATOM     48  C   UNL A   1      41.219  31.917  30.389  1.00  0.00     0.029 A 
ATOM     49  C   UNL A   1      42.447  31.142  30.262  1.00  0.00     0.049 A 
ATOM     50  H   UNL A   1      42.655  29.190  29.562  1.00  0.00     0.167 HD
ATOM     51  C   UNL A   1      42.958  25.124  28.045  1.00  0.00     0.031 A 
ATOM     52  C   UNL A   1      43.673  31.591  30.591  1.00  0.00     0.031 A 
ATOM     53  C   UNL A   1      44.318  25.540  28.293  1.00  0.00     0.049 A 
ATOM     54  C   UNL A   1      44.861  30.702  30.371  1.00  0.00     0.074 A 
ATOM     55  C   UNL A   1      45.488  24.826  28.089  1.00  0.00     0.029 A 
ATOM     56  N   UNL A   1      44.693  26.772  28.811  1.00  0.00    -0.354 N 
ATOM     57  N   UNL A   1      44.897  29.482  29.892  1.00  0.00    -0.248 NA
ATOM     58  C   UNL A   1      46.177  31.257  30.717  1.00  0.00     0.031 C 
ATOM     59  C   UNL A   1      46.564  25.606  28.529  1.00  0.00     0.029 A 
ATOM     60  C   UNL A   1      46.072  26.828  28.956  1.00  0.00     0.049 A 
ATOM     61  H   UNL A   1      44.072  27.499  29.042  1.00  0.00     0.167 HD
ATOM     62  C   UNL A   1      46.240  29.130  29.858  1.00  0.00     0.074 A 
ATOM     63  C   UNL A   1      46.986  30.274  30.348  1.00  0.00     0.031 C 
ATOM     64  C   UNL A   1      46.805  27.964  29.458  1.00  0.00     0.031 A 
BRANCH  51  65
ATOM     65  C   UNL A   1      42.727  23.718  27.555  1.00  0.00    -0.014 A 
ATOM     66  C   UNL A   1      42.877  23.394  26.193  1.00  0.00     0.010 A 
ATOM     67  C   UNL A   1      42.417  22.693  28.469  1.00  0.00     0.010 A 
ATOM     68  C   UNL A   1      42.677  22.083  25.749  1.00  0.00     0.020 A 
ATOM     69  C   UNL A   1      42.241  21.376  28.032  1.00  0.00     0.020 A 
ATOM     70  C   UNL A   1      42.354  21.082  26.672  1.00  0.00     0.054 A 
BRANCH  70  71
ATOM     71  S   UNL A   1      42.112  19.388  26.069  1.00  0.00     0.124 S 
ATOM     72  O   UNL A   1      42.587  18.596  27.201  1.00  0.00    -0.237 OA
ATOM     73  O   UNL A   1      40.673  19.334  25.827  1.00  0.00    -0.237 OA
ATOM     74  O   UNL A   1      42.946  19.324  24.872  1.00  0.00    -0.744 OA
ENDBRANCH  70  71
ENDBRANCH  51  65
BRANCH  52  75
ATOM     75  C   UNL A   1      43.832  32.966  31.137  1.00  0.00    -0.014 A 
ATOM     76  C   UNL A   1      43.776  33.194  32.522  1.00  0.00     0.010 A 
ATOM     77  C   UNL A   1      44.070  34.050  30.272  1.00  0.00     0.010 A 
ATOM     78  C   UNL A   1      43.939  34.484  33.034  1.00  0.00     0.020 A 
ATOM     79  C   UNL A   1      44.261  35.337  30.782  1.00  0.00     0.020 A 
ATOM     80  C   UNL A   1      44.181  35.548  32.160  1.00  0.00     0.054 A 
BRANCH  80  81
ATOM     81  S   UNL A   1      44.445  37.206  32.847  1.00  0.00     0.124 S 
ATOM     82  O   UNL A   1      45.652  37.014  33.645  1.00  0.00    -0.237 OA
ATOM     83  O   UNL A   1      44.603  38.025  31.647  1.00  0.00    -0.237 OA
ATOM     84  O   UNL A   1      43.224  37.459  33.607  1.00  0.00    -0.744 OA
ENDBRANCH  80  81
ENDBRANCH  52  75
BRANCH  64  85
ATOM     85  C   UNL A   1      48.307  27.876  29.514  1.00  0.00    -0.014 A 
ATOM     86  C   UNL A   1      48.965  27.364  30.647  1.00  0.00     0.010 A 
ATOM     87  C   UNL A   1      49.071  28.296  28.409  1.00  0.00     0.010 A 
ATOM     88  C   UNL A   1      50.361  27.310  30.690  1.00  0.00     0.020 A 
ATOM     89  C   UNL A   1      50.465  28.220  28.438  1.00  0.00     0.020 A 
ATOM     90  C   UNL A   1      51.102  27.744  29.586  1.00  0.00     0.054 A 
BRANCH  90  91
ATOM     91  S   UNL A   1      52.913  27.642  29.655  1.00  0.00     0.124 S 
ATOM     92  O   UNL A   1      53.191  28.103  31.012  1.00  0.00    -0.237 OA
ATOM     93  O   UNL A   1      53.166  26.224  29.407  1.00  0.00    -0.237 OA
ATOM     94  O   UNL A   1      53.350  28.541  28.588  1.00  0.00    -0.744 OA
ENDBRANCH  90  91
ENDBRANCH  64  85
ENDBRANCH  38  39
ENDBRANCH  30  33
ENDBRANCH  28  29
ENDBRANCH   1  28
TORSDOF 16
ENDMDL
MODEL 2
REMARK VINA RESULT:     -12.2      2.859      8.588
REMARK SMILES O=C(CC[N@@H+]1C[C@@H](c2ccccc2)[C@@H]2[C@H]1[C@H]1CC[N@H+]2CC1)NCCCNC(=O)c1ccc(-c2c3nc(c(-c4ccc(S(=O)(=O)[O-])cc4)c4ccc([nH]4)c(-c4ccc(S(=O)(=O)[O-])cc4)c4nc(c(-c5ccc(S(=O)(=O)[O-])cc5)c5ccc2[nH]5)C=C4)C=C3)cc1
REMARK SMILES IDX 24 1 23 2 22 3 1 4 2 5 3 7 4 8 5 9 6 10 15 11 7 13 14 14
REMARK SMILES IDX 16 15 19 16 17 17 21 18 18 19 20 20 8 22 9 23 13 24 10 25
REMARK SMILES IDX 12 26 11 27 25 28 26 29 27 30 28 32 29 33 30 34 88 35 31 36
REMARK SMILES IDX 87 37 32 38 33 39 34 40 81 41 35 42 86 43 80 44 82 45 36 46
REMARK SMILES IDX 85 47 79 48 78 49 37 51 67 52 48 53 66 54 49 55 52 56 65 57
REMARK SMILES IDX 83 58 50 59 51 60 64 62 84 63 53 64 38 65 39 66 47 67 40 68
REMARK SMILES IDX 46 69 41 70 42 71 43 72 44 73 45 74 68 75 69 76 77 77 70 78
REMARK SMILES IDX 76 79 71 80 72 81 73 82 74 83 75 84 54 85 55 86 63 87 56 88
REMARK SMILES IDX 62 89 57 90 58 91 59 92 60 93 61 94
REMARK H PARENT 22 6 5 12 19 21 26 31 82 50 52 61
REMARK Flexibility Score: inf
ROOT
ATOM      1  C   UNL A   1      36.227  21.842  24.567  1.00  0.00     0.042 C 
ENDROOT
BRANCH   1   2
ATOM      2  C   UNL A   1      35.447  21.185  25.711  1.00  0.00     0.117 C 
BRANCH   2   3
ATOM      3  N   UNL A   1      33.997  21.223  25.563  1.00  0.00    -0.356 N 
ATOM      4  O   UNL A   1      33.692  22.840  27.162  1.00  0.00    -0.275 OA
ATOM      5  C   UNL A   1      33.231  22.138  26.264  1.00  0.00     0.225 C 
ATOM      6  H   UNL A   1      33.555  20.587  24.954  1.00  0.00     0.163 HD
BRANCH   5   7
ATOM      7  C   UNL A   1      31.785  22.269  25.798  1.00  0.00     0.161 C 
BRANCH   7   8
ATOM      8  C   UNL A   1      31.277  23.732  25.816  1.00  0.00     0.272 C 
BRANCH   8   9
ATOM      9  N   UNL A   1      32.239  24.839  25.569  1.00  0.00    -0.326 N 
ATOM     10  C   UNL A   1      32.234  25.871  26.665  1.00  0.00     0.277 C 
ATOM     11  C   UNL A   1      32.013  25.470  24.254  1.00  0.00     0.247 C 
ATOM     12  H   UNL A   1      33.167  24.415  25.567  1.00  0.00     0.348 HD
ATOM     13  C   UNL A   1      31.699  27.283  26.252  1.00  0.00     0.139 C 
ATOM     14  C   UNL A   1      31.303  27.113  24.765  1.00  0.00     0.256 C 
ATOM     15  C   UNL A   1      33.339  25.755  23.026  1.00  0.00     0.065 C 
ATOM     16  N   UNL A   1      31.462  28.284  23.637  1.00  0.00    -0.327 N 
ATOM     17  C   UNL A   1      33.318  26.916  23.791  1.00  0.00     0.071 C 
ATOM     18  C   UNL A   1      33.601  27.171  21.920  1.00  0.00     0.071 C 
ATOM     19  C   UNL A   1      31.634  27.167  22.855  1.00  0.00     0.263 C 
ATOM     20  C   UNL A   1      32.758  28.709  22.699  1.00  0.00     0.263 C 
ATOM     21  H   UNL A   1      30.935  29.109  23.927  1.00  0.00     0.348 HD
BRANCH  13  22
ATOM     22  C   UNL A   1      32.524  28.551  26.466  1.00  0.00    -0.033 A 
ATOM     23  C   UNL A   1      31.973  29.831  26.619  1.00  0.00     0.004 A 
ATOM     24  C   UNL A   1      33.896  28.390  26.741  1.00  0.00     0.004 A 
ATOM     25  C   UNL A   1      32.729  30.870  27.172  1.00  0.00     0.000 A 
ATOM     26  C   UNL A   1      34.656  29.433  27.270  1.00  0.00     0.000 A 
ATOM     27  C   UNL A   1      34.062  30.666  27.519  1.00  0.00     0.000 A 
ENDBRANCH  13  22
ENDBRANCH   8   9
ENDBRANCH   7   8
ENDBRANCH   5   7
ENDBRANCH   2   3
ENDBRANCH   1   2
BRANCH   1  28
ATOM     28  C   UNL A   1      37.324  22.835  24.974  1.00  0.00     0.118 C 
BRANCH  28  29
ATOM     29  N   UNL A   1      38.524  22.208  25.502  1.00  0.00    -0.352 N 
ATOM     30  C   UNL A   1      39.500  22.695  26.348  1.00  0.00     0.251 C 
ATOM     31  H   UNL A   1      38.665  21.280  25.206  1.00  0.00     0.163 HD
ATOM     32  O   UNL A   1      40.401  21.925  26.682  1.00  0.00    -0.269 OA
BRANCH  30  33
ATOM     33  C   UNL A   1      39.554  24.118  26.798  1.00  0.00     0.039 A 
ATOM     34  C   UNL A   1      38.925  24.426  28.013  1.00  0.00     0.014 A 
ATOM     35  C   UNL A   1      40.212  25.138  26.108  1.00  0.00     0.014 A 
ATOM     36  C   UNL A   1      39.082  25.688  28.597  1.00  0.00     0.010 A 
ATOM     37  C   UNL A   1      40.420  26.385  26.715  1.00  0.00     0.010 A 
ATOM     38  C   UNL A   1      39.910  26.648  27.993  1.00  0.00    -0.014 A 
BRANCH  38  39
ATOM     39  C   UNL A   1      40.415  27.794  28.798  1.00  0.00     0.031 A 
ATOM     40  C   UNL A   1      41.769  27.805  29.443  1.00  0.00     0.074 A 
ATOM     41  C   UNL A   1      39.580  28.839  28.981  1.00  0.00     0.049 A 
ATOM     42  N   UNL A   1      42.346  28.772  30.115  1.00  0.00    -0.248 NA
ATOM     43  C   UNL A   1      42.573  26.580  29.341  1.00  0.00     0.031 C 
ATOM     44  C   UNL A   1      38.210  28.921  28.464  1.00  0.00     0.029 A 
ATOM     45  N   UNL A   1      39.753  30.032  29.639  1.00  0.00    -0.354 N 
ATOM     46  C   UNL A   1      43.584  28.278  30.512  1.00  0.00     0.074 A 
ATOM     47  C   UNL A   1      43.655  26.910  30.038  1.00  0.00     0.031 C 
ATOM     48  C   UNL A   1      37.685  30.112  28.786  1.00  0.00     0.029 A 
ATOM     49  C   UNL A   1      38.663  30.867  29.559  1.00  0.00     0.049 A 
ATOM     50  H   UNL A   1      40.578  30.267  30.121  1.00  0.00     0.167 HD
ATOM     51  C   UNL A   1      44.570  28.911  31.197  1.00  0.00     0.031 A 
ATOM     52  C   UNL A   1      38.465  32.108  30.043  1.00  0.00     0.031 A 
ATOM     53  C   UNL A   1      44.483  30.266  31.686  1.00  0.00     0.049 A 
ATOM     54  C   UNL A   1      39.575  32.788  30.789  1.00  0.00     0.074 A 
ATOM     55  C   UNL A   1      45.451  31.008  32.347  1.00  0.00     0.029 A 
ATOM     56  N   UNL A   1      43.366  31.082  31.582  1.00  0.00    -0.354 N 
ATOM     57  N   UNL A   1      40.772  32.336  31.073  1.00  0.00    -0.248 NA
ATOM     58  C   UNL A   1      39.313  34.153  31.265  1.00  0.00     0.031 C 
ATOM     59  C   UNL A   1      44.901  32.249  32.685  1.00  0.00     0.029 A 
ATOM     60  C   UNL A   1      43.610  32.306  32.188  1.00  0.00     0.049 A 
ATOM     61  H   UNL A   1      42.522  30.829  31.144  1.00  0.00     0.167 HD
ATOM     62  C   UNL A   1      41.416  33.369  31.741  1.00  0.00     0.074 A 
ATOM     63  C   UNL A   1      40.481  34.475  31.802  1.00  0.00     0.031 C 
ATOM     64  C   UNL A   1      42.670  33.397  32.257  1.00  0.00     0.031 A 
BRANCH  51  65
ATOM     65  C   UNL A   1      45.837  28.141  31.467  1.00  0.00    -0.014 A 
ATOM     66  C   UNL A   1      45.982  27.378  32.640  1.00  0.00     0.010 A 
ATOM     67  C   UNL A   1      46.872  28.129  30.514  1.00  0.00     0.010 A 
ATOM     68  C   UNL A   1      47.155  26.653  32.875  1.00  0.00     0.020 A 
ATOM     69  C   UNL A   1      48.036  27.386  30.734  1.00  0.00     0.020 A 
ATOM     70  C   UNL A   1      48.178  26.666  31.922  1.00  0.00     0.054 A 
BRANCH  70  71
ATOM     71  S   UNL A   1      49.684  25.708  32.248  1.00  0.00     0.124 S 
ATOM     72  O   UNL A   1      50.593  26.738  32.747  1.00  0.00    -0.237 OA
ATOM     73  O   UNL A   1      49.238  24.733  33.238  1.00  0.00    -0.237 OA
ATOM     74  O   UNL A   1      50.031  25.153  30.942  1.00  0.00    -0.744 OA
ENDBRANCH  70  71
ENDBRANCH  51  65
BRANCH  52  75
ATOM     75  C   UNL A   1      37.166  32.793  29.803  1.00  0.00    -0.014 A 
ATOM     76  C   UNL A   1      36.218  32.905  30.835  1.00  0.00     0.010 A 
ATOM     77  C   UNL A   1      36.885  33.363  28.548  1.00  0.00     0.010 A 
ATOM     78  C   UNL A   1      35.004  33.560  30.612  1.00  0.00     0.020 A 
ATOM     79  C   UNL A   1      35.684  34.044  28.330  1.00  0.00     0.020 A 
ATOM     80  C   UNL A   1      34.745  34.127  29.361  1.00  0.00     0.054 A 
BRANCH  80  81
ATOM     81  S   UNL A   1      33.188  35.022  29.107  1.00  0.00     0.124 S 
ATOM     82  O   UNL A   1      32.551  34.230  28.060  1.00  0.00    -0.237 OA
ATOM     83  O   UNL A   1      32.562  34.949  30.425  1.00  0.00    -0.237 OA
ATOM     84  O   UNL A   1      33.624  36.358  28.707  1.00  0.00    -0.744 OA
ENDBRANCH  80  81
ENDBRANCH  52  75
BRANCH  64  85
ATOM     85  C   UNL A   1      43.109  34.678  32.917  1.00  0.00    -0.014 A 
ATOM     86  C   UNL A   1      43.723  35.705  32.177  1.00  0.00     0.010 A 
ATOM     87  C   UNL A   1      42.889  34.863  34.294  1.00  0.00     0.010 A 
ATOM     88  C   UNL A   1      44.145  36.878  32.810  1.00  0.00     0.020 A 
ATOM     89  C   UNL A   1      43.285  36.044  34.925  1.00  0.00     0.020 A 
ATOM     90  C   UNL A   1      43.927  37.037  34.182  1.00  0.00     0.054 A 
BRANCH  90  91
ATOM     91  S   UNL A   1      44.461  38.578  34.978  1.00  0.00     0.124 S 
ATOM     92  O   UNL A   1      45.882  38.614  34.648  1.00  0.00    -0.237 OA
ATOM     93  O   UNL A   1      43.635  39.586  34.316  1.00  0.00    -0.237 OA
ATOM     94  O   UNL A   1      44.153  38.362  36.391  1.00  0.00    -0.744 OA
ENDBRANCH  90  91
ENDBRANCH  64  85
ENDBRANCH  38  39
ENDBRANCH  30  33
ENDBRANCH  28  29
ENDBRANCH   1  28
TORSDOF 16
ENDMDL
MODEL 3
REMARK VINA RESULT:     -12.0      3.297      9.797
REMARK SMILES O=C(CC[N@@H+]1C[C@@H](c2ccccc2)[C@@H]2[C@H]1[C@H]1CC[N@H+]2CC1)NCCCNC(=O)c1ccc(-c2c3nc(c(-c4ccc(S(=O)(=O)[O-])cc4)c4ccc([nH]4)c(-c4ccc(S(=O)(=O)[O-])cc4)c4nc(c(-c5ccc(S(=O)(=O)[O-])cc5)c5ccc2[nH]5)C=C4)C=C3)cc1
REMARK SMILES IDX 24 1 23 2 22 3 1 4 2 5 3 7 4 8 5 9 6 10 15 11 7 13 14 14
REMARK SMILES IDX 16 15 19 16 17 17 21 18 18 19 20 20 8 22 9 23 13 24 10 25
REMARK SMILES IDX 12 26 11 27 25 28 26 29 27 30 28 32 29 33 30 34 88 35 31 36
REMARK SMILES IDX 87 37 32 38 33 39 34 40 81 41 35 42 86 43 80 44 82 45 36 46
REMARK SMILES IDX 85 47 79 48 78 49 37 51 67 52 48 53 66 54 49 55 52 56 65 57
REMARK SMILES IDX 83 58 50 59 51 60 64 62 84 63 53 64 38 65 39 66 47 67 40 68
REMARK SMILES IDX 46 69 41 70 42 71 43 72 44 73 45 74 68 75 69 76 77 77 70 78
REMARK SMILES IDX 76 79 71 80 72 81 73 82 74 83 75 84 54 85 55 86 63 87 56 88
REMARK SMILES IDX 62 89 57 90 58 91 59 92 60 93 61 94
REMARK H PARENT 22 6 5 12 19 21 26 31 82 50 52 61
REMARK Flexibility Score: inf
ROOT
ATOM      1  C   UNL A   1      36.975  21.513  24.830  1.00  0.00     0.042 C 
ENDROOT
BRANCH   1   2
ATOM      2  C   UNL A   1      35.532  21.302  25.297  1.00  0.00     0.117 C 
BRANCH   2   3
ATOM      3  N   UNL A   1      34.513  21.667  24.321  1.00  0.00    -0.356 N 
ATOM      4  O   UNL A   1      33.851  23.555  25.445  1.00  0.00    -0.275 OA
ATOM      5  C   UNL A   1      33.798  22.846  24.443  1.00  0.00     0.225 C 
ATOM      6  H   UNL A   1      34.330  21.066  23.563  1.00  0.00     0.163 HD
BRANCH   5   7
ATOM      7  C   UNL A   1      32.991  23.246  23.212  1.00  0.00     0.161 C 
BRANCH   7   8
ATOM      8  C   UNL A   1      33.046  24.767  22.924  1.00  0.00     0.272 C 
BRANCH   8   9
ATOM      9  N   UNL A   1      32.041  25.663  23.555  1.00  0.00    -0.326 N 
ATOM     10  C   UNL A   1      31.121  26.306  22.551  1.00  0.00     0.277 C 
ATOM     11  C   UNL A   1      32.684  26.684  24.405  1.00  0.00     0.247 C 
ATOM     12  H   UNL A   1      31.462  25.069  24.148  1.00  0.00     0.348 HD
ATOM     13  C   UNL A   1      31.269  27.858  22.406  1.00  0.00     0.139 C 
ATOM     14  C   UNL A   1      32.409  28.219  23.388  1.00  0.00     0.256 C 
ATOM     15  C   UNL A   1      32.185  27.022  26.133  1.00  0.00     0.065 C 
ATOM     16  N   UNL A   1      32.469  29.605  24.250  1.00  0.00    -0.327 N 
ATOM     17  C   UNL A   1      31.405  27.886  25.370  1.00  0.00     0.071 C 
ATOM     18  C   UNL A   1      32.068  28.609  27.009  1.00  0.00     0.071 C 
ATOM     19  C   UNL A   1      33.123  28.756  25.110  1.00  0.00     0.263 C 
ATOM     20  C   UNL A   1      31.795  29.996  25.711  1.00  0.00     0.263 C 
ATOM     21  H   UNL A   1      32.447  30.403  23.614  1.00  0.00     0.348 HD
BRANCH  13  22
ATOM     22  C   UNL A   1      30.077  28.799  22.568  1.00  0.00    -0.033 A 
ATOM     23  C   UNL A   1      30.004  30.079  22.001  1.00  0.00     0.004 A 
ATOM     24  C   UNL A   1      28.903  28.263  23.133  1.00  0.00     0.004 A 
ATOM     25  C   UNL A   1      28.772  30.730  21.869  1.00  0.00     0.000 A 
ATOM     26  C   UNL A   1      27.680  28.924  23.023  1.00  0.00     0.000 A 
ATOM     27  C   UNL A   1      27.608  30.143  22.359  1.00  0.00     0.000 A 
ENDBRANCH  13  22
ENDBRANCH   8   9
ENDBRANCH   7   8
ENDBRANCH   5   7
ENDBRANCH   2   3
ENDBRANCH   1   2
BRANCH   1  28
ATOM     28  C   UNL A   1      37.803  22.536  25.620  1.00  0.00     0.118 C 
BRANCH  28  29
ATOM     29  N   UNL A   1      39.206  22.182  25.760  1.00  0.00    -0.352 N 
ATOM     30  C   UNL A   1      40.254  22.860  26.348  1.00  0.00     0.251 C 
ATOM     31  H   UNL A   1      39.449  21.312  25.369  1.00  0.00     0.163 HD
ATOM     32  O   UNL A   1      41.352  22.302  26.371  1.00  0.00    -0.269 OA
BRANCH  30  33
ATOM     33  C   UNL A   1      40.134  24.253  26.871  1.00  0.00     0.039 A 
ATOM     34  C   UNL A   1      39.470  24.418  28.097  1.00  0.00     0.014 A 
ATOM     35  C   UNL A   1      40.663  25.380  26.241  1.00  0.00     0.014 A 
ATOM     36  C   UNL A   1      39.472  25.657  28.746  1.00  0.00     0.010 A 
ATOM     37  C   UNL A   1      40.716  26.610  26.913  1.00  0.00     0.010 A 
ATOM     38  C   UNL A   1      40.177  26.741  28.199  1.00  0.00    -0.014 A 
BRANCH  38  39
ATOM     39  C   UNL A   1      40.537  27.897  29.066  1.00  0.00     0.031 A 
ATOM     40  C   UNL A   1      39.638  29.083  29.258  1.00  0.00     0.074 A 
ATOM     41  C   UNL A   1      41.751  27.877  29.656  1.00  0.00     0.049 A 
ATOM     42  N   UNL A   1      39.813  30.122  30.038  1.00  0.00    -0.248 NA
ATOM     43  C   UNL A   1      38.399  29.123  28.471  1.00  0.00     0.031 C 
ATOM     44  C   UNL A   1      42.747  26.813  29.492  1.00  0.00     0.029 A 
ATOM     45  N   UNL A   1      42.355  28.763  30.514  1.00  0.00    -0.354 N 
ATOM     46  C   UNL A   1      38.705  30.940  29.844  1.00  0.00     0.074 A 
ATOM     47  C   UNL A   1      37.884  30.291  28.840  1.00  0.00     0.031 C 
ATOM     48  C   UNL A   1      43.816  27.085  30.256  1.00  0.00     0.029 A 
ATOM     49  C   UNL A   1      43.599  28.355  30.936  1.00  0.00     0.049 A 
ATOM     50  H   UNL A   1      41.939  29.608  30.799  1.00  0.00     0.167 HD
ATOM     51  C   UNL A   1      38.399  32.113  30.453  1.00  0.00     0.031 A 
ATOM     52  C   UNL A   1      44.474  28.929  31.785  1.00  0.00     0.031 A 
ATOM     53  C   UNL A   1      39.233  32.764  31.435  1.00  0.00     0.049 A 
ATOM     54  C   UNL A   1      44.106  30.222  32.452  1.00  0.00     0.074 A 
ATOM     55  C   UNL A   1      38.981  33.930  32.142  1.00  0.00     0.029 A 
ATOM     56  N   UNL A   1      40.483  32.320  31.842  1.00  0.00    -0.354 N 
ATOM     57  N   UNL A   1      43.011  30.930  32.323  1.00  0.00    -0.248 NA
ATOM     58  C   UNL A   1      45.084  30.782  33.393  1.00  0.00     0.031 C 
ATOM     59  C   UNL A   1      40.097  34.215  32.936  1.00  0.00     0.029 A 
ATOM     60  C   UNL A   1      41.024  33.199  32.769  1.00  0.00     0.049 A 
ATOM     61  H   UNL A   1      40.922  31.501  31.519  1.00  0.00     0.167 HD
ATOM     62  C   UNL A   1      43.158  32.010  33.184  1.00  0.00     0.074 A 
ATOM     63  C   UNL A   1      44.440  31.851  33.841  1.00  0.00     0.031 C 
ATOM     64  C   UNL A   1      42.306  33.042  33.408  1.00  0.00     0.031 A 
BRANCH  51  65
ATOM     65  C   UNL A   1      37.102  32.779  30.072  1.00  0.00    -0.014 A 
ATOM     66  C   UNL A   1      35.975  32.700  30.911  1.00  0.00     0.010 A 
ATOM     67  C   UNL A   1      37.021  33.545  28.893  1.00  0.00     0.010 A 
ATOM     68  C   UNL A   1      34.781  33.336  30.558  1.00  0.00     0.020 A 
ATOM     69  C   UNL A   1      35.836  34.202  28.549  1.00  0.00     0.020 A 
ATOM     70  C   UNL A   1      34.717  34.079  29.374  1.00  0.00     0.054 A 
BRANCH  70  71
ATOM     71  S   UNL A   1      33.158  34.902  28.946  1.00  0.00     0.124 S 
ATOM     72  O   UNL A   1      32.501  34.996  30.249  1.00  0.00    -0.237 OA
ATOM     73  O   UNL A   1      33.607  36.169  28.378  1.00  0.00    -0.237 OA
ATOM     74  O   UNL A   1      32.530  33.984  27.999  1.00  0.00    -0.744 OA
ENDBRANCH  70  71
ENDBRANCH  51  65
BRANCH  52  75
ATOM     75  C   UNL A   1      45.770  28.257  32.072  1.00  0.00    -0.014 A 
ATOM     76  C   UNL A   1      45.863  27.292  33.089  1.00  0.00     0.010 A 
ATOM     77  C   UNL A   1      46.912  28.561  31.307  1.00  0.00     0.010 A 
ATOM     78  C   UNL A   1      47.079  26.652  33.348  1.00  0.00     0.020 A 
ATOM     79  C   UNL A   1      48.121  27.903  31.545  1.00  0.00     0.020 A 
ATOM     80  C   UNL A   1      48.200  26.962  32.573  1.00  0.00     0.054 A 
BRANCH  80  81
ATOM     81  S   UNL A   1      49.755  26.081  32.888  1.00  0.00     0.124 S 
ATOM     82  O   UNL A   1      49.410  24.714  32.507  1.00  0.00    -0.237 OA
ATOM     83  O   UNL A   1      50.693  26.767  32.004  1.00  0.00    -0.237 OA
ATOM     84  O   UNL A   1      49.986  26.295  34.315  1.00  0.00    -0.744 OA
ENDBRANCH  80  81
ENDBRANCH  52  75
BRANCH  64  85
ATOM     85  C   UNL A   1      42.729  34.069  34.425  1.00  0.00    -0.014 A 
ATOM     86  C   UNL A   1      42.448  33.898  35.792  1.00  0.00     0.010 A 
ATOM     87  C   UNL A   1      43.432  35.214  34.007  1.00  0.00     0.010 A 
ATOM     88  C   UNL A   1      42.828  34.872  36.720  1.00  0.00     0.020 A 
ATOM     89  C   UNL A   1      43.836  36.177  34.934  1.00  0.00     0.020 A 
ATOM     90  C   UNL A   1      43.516  36.009  36.283  1.00  0.00     0.054 A 
BRANCH  90  91
ATOM     91  S   UNL A   1      44.021  37.249  37.507  1.00  0.00     0.124 S 
ATOM     92  O   UNL A   1      42.797  37.427  38.282  1.00  0.00    -0.237 OA
ATOM     93  O   UNL A   1      45.118  36.584  38.208  1.00  0.00    -0.237 OA
ATOM     94  O   UNL A   1      44.417  38.397  36.693  1.00  0.00    -0.744 OA
ENDBRANCH  90  91
ENDBRANCH  64  85
ENDBRANCH  38  39
ENDBRANCH  30  33
ENDBRANCH  28  29
ENDBRANCH   1  28
TORSDOF 16
ENDMDL
