MODEL 1
REMARK VINA RESULT:     -11.5      0.000      0.000
REMARK SMILES O=C(NCCCNC(=O)c1ccc(-c2c3nc(c(-c4ccc(S(=O)(=O)[O-])cc4)c4ccc([nH]4)c(-c4ccc(S(=O)(=O)[O-])cc4)c4nc(c(-c5ccc(S(=O)(=O)[O-])cc5)c5ccc2[nH]5)C=C4)C=C3)cc1)C1=Cc2cc(Cl)ccc2O[C@@H]1C(F)(F)F
REMARK SMILES IDX 6 1 5 2 4 3 3 4 1 5 2 6 70 8 71 9 80 10 72 11 79 12 73 13
REMARK SMILES IDX 78 14 74 15 77 16 75 17 76 18 81 19 82 20 83 21 84 22 7 23
REMARK SMILES IDX 8 24 9 26 10 27 11 28 69 29 12 30 68 31 13 32 14 33 15 34
REMARK SMILES IDX 62 35 16 36 67 37 61 38 63 39 17 40 66 41 60 42 59 43 18 45
REMARK SMILES IDX 48 46 29 47 47 48 30 49 33 50 46 51 64 52 31 53 32 54 45 56
REMARK SMILES IDX 65 57 34 58 19 59 20 60 28 61 21 62 27 63 22 64 23 65 24 66
REMARK SMILES IDX 25 67 26 68 49 69 50 70 58 71 51 72 57 73 52 74 53 75 54 76
REMARK SMILES IDX 55 77 56 78 35 79 36 80 44 81 37 82 43 83 38 84 39 85 40 86
REMARK SMILES IDX 41 87 42 88
REMARK H PARENT 3 7 7 25 63 44 33 55
REMARK Flexibility Score: inf
ROOT
ATOM      1  C   UNL A   1      33.261  28.592  27.270  1.00  0.00     0.118 C 
ENDROOT
BRANCH   1   2
ATOM      2  C   UNL A   1      31.929  27.903  27.545  1.00  0.00     0.042 C 
BRANCH   2   3
ATOM      3  C   UNL A   1      31.459  27.044  26.378  1.00  0.00     0.118 C 
BRANCH   3   4
ATOM      4  N   UNL A   1      31.399  25.615  26.696  1.00  0.00    -0.352 N 
ATOM      5  O   UNL A   1      32.153  23.483  26.846  1.00  0.00    -0.270 OA
ATOM      6  C   UNL A   1      32.210  24.578  26.304  1.00  0.00     0.251 C 
ATOM      7  H   UNL A   1      30.656  25.356  27.286  1.00  0.00     0.163 HD
BRANCH   6   8
ATOM      8  C   UNL A   1      33.216  24.863  25.267  1.00  0.00     0.067 C 
ATOM      9  C   UNL A   1      34.456  25.176  25.663  1.00  0.00     0.025 C 
ATOM     10  C   UNL A   1      32.899  24.419  23.874  1.00  0.00     0.314 C 
ATOM     11  C   UNL A   1      35.471  24.345  25.002  1.00  0.00     0.019 A 
ATOM     12  O   UNL A   1      33.872  23.484  23.349  1.00  0.00    -0.475 OA
ATOM     13  C   UNL A   1      36.673  24.133  25.687  1.00  0.00     0.032 A 
ATOM     14  C   UNL A   1      35.098  23.462  23.968  1.00  0.00     0.128 A 
ATOM     15  C   UNL A   1      37.439  23.005  25.402  1.00  0.00     0.041 A 
ATOM     16  C   UNL A   1      35.894  22.357  23.664  1.00  0.00     0.048 A 
ATOM     17  Cl  UNL A   1      38.811  22.649  26.375  1.00  0.00    -0.084 Cl
ATOM     18  C   UNL A   1      37.050  22.112  24.405  1.00  0.00     0.024 A 
BRANCH  10  19
ATOM     19  C   UNL A   1      32.750  25.628  22.936  1.00  0.00     0.429 C 
ATOM     20  F   UNL A   1      31.552  25.608  22.301  1.00  0.00    -0.167 F 
ATOM     21  F   UNL A   1      32.813  26.803  23.607  1.00  0.00    -0.167 F 
ATOM     22  F   UNL A   1      33.708  25.661  21.978  1.00  0.00    -0.167 F 
ENDBRANCH  10  19
ENDBRANCH   6   8
ENDBRANCH   3   4
ENDBRANCH   2   3
ENDBRANCH   1   2
BRANCH   1  23
ATOM     23  N   UNL A   1      33.300  29.998  27.654  1.00  0.00    -0.352 N 
ATOM     24  C   UNL A   1      34.340  30.761  28.155  1.00  0.00     0.251 C 
ATOM     25  H   UNL A   1      32.451  30.483  27.537  1.00  0.00     0.163 HD
ATOM     26  O   UNL A   1      34.133  31.919  28.473  1.00  0.00    -0.269 OA
BRANCH  24  27
ATOM     27  C   UNL A   1      35.683  30.157  28.351  1.00  0.00     0.039 A 
ATOM     28  C   UNL A   1      36.591  30.161  27.288  1.00  0.00     0.014 A 
ATOM     29  C   UNL A   1      36.065  29.623  29.579  1.00  0.00     0.014 A 
ATOM     30  C   UNL A   1      37.904  29.722  27.493  1.00  0.00     0.010 A 
ATOM     31  C   UNL A   1      37.399  29.320  29.819  1.00  0.00     0.010 A 
ATOM     32  C   UNL A   1      38.337  29.352  28.777  1.00  0.00    -0.014 A 
BRANCH  32  33
ATOM     33  C   UNL A   1      39.750  28.982  29.059  1.00  0.00     0.031 A 
ATOM     34  C   UNL A   1      40.686  29.993  29.675  1.00  0.00     0.074 A 
ATOM     35  C   UNL A   1      40.217  27.771  28.687  1.00  0.00     0.049 A 
ATOM     36  N   UNL A   1      41.971  29.898  29.906  1.00  0.00    -0.248 NA
ATOM     37  C   UNL A   1      40.115  31.303  30.032  1.00  0.00     0.031 C 
ATOM     38  C   UNL A   1      39.438  26.727  28.015  1.00  0.00     0.029 A 
ATOM     39  N   UNL A   1      41.465  27.215  28.817  1.00  0.00    -0.354 N 
ATOM     40  C   UNL A   1      42.361  31.140  30.395  1.00  0.00     0.074 A 
ATOM     41  C   UNL A   1      41.196  31.994  30.360  1.00  0.00     0.031 C 
ATOM     42  C   UNL A   1      40.209  25.642  27.840  1.00  0.00     0.029 A 
ATOM     43  C   UNL A   1      41.548  25.926  28.344  1.00  0.00     0.049 A 
ATOM     44  H   UNL A   1      42.229  27.693  29.214  1.00  0.00     0.167 HD
ATOM     45  C   UNL A   1      43.570  31.532  30.864  1.00  0.00     0.031 A 
ATOM     46  C   UNL A   1      42.586  25.066  28.322  1.00  0.00     0.031 A 
ATOM     47  C   UNL A   1      44.714  30.665  30.945  1.00  0.00     0.049 A 
ATOM     48  C   UNL A   1      43.905  25.503  28.897  1.00  0.00     0.074 A 
ATOM     49  C   UNL A   1      45.964  30.935  31.474  1.00  0.00     0.029 A 
ATOM     50  N   UNL A   1      44.741  29.353  30.498  1.00  0.00    -0.354 N 
ATOM     51  N   UNL A   1      44.235  26.663  29.414  1.00  0.00    -0.248 NA
ATOM     52  C   UNL A   1      44.986  24.508  28.904  1.00  0.00     0.031 C 
ATOM     53  C   UNL A   1      46.759  29.796  31.311  1.00  0.00     0.029 A 
ATOM     54  C   UNL A   1      45.989  28.801  30.730  1.00  0.00     0.049 A 
ATOM     55  H   UNL A   1      43.985  28.883  30.078  1.00  0.00     0.167 HD
ATOM     56  C   UNL A   1      45.553  26.529  29.831  1.00  0.00     0.074 A 
ATOM     57  C   UNL A   1      45.953  25.170  29.524  1.00  0.00     0.031 C 
ATOM     58  C   UNL A   1      46.364  27.447  30.415  1.00  0.00     0.031 A 
BRANCH  45  59
ATOM     59  C   UNL A   1      43.702  32.956  31.341  1.00  0.00    -0.014 A 
ATOM     60  C   UNL A   1      43.296  33.329  32.636  1.00  0.00     0.010 A 
ATOM     61  C   UNL A   1      44.256  33.932  30.493  1.00  0.00     0.010 A 
ATOM     62  C   UNL A   1      43.390  34.659  33.053  1.00  0.00     0.020 A 
ATOM     63  C   UNL A   1      44.383  35.258  30.918  1.00  0.00     0.020 A 
ATOM     64  C   UNL A   1      43.929  35.616  32.189  1.00  0.00     0.054 A 
BRANCH  64  65
ATOM     65  S   UNL A   1      44.054  37.332  32.764  1.00  0.00     0.124 S 
ATOM     66  O   UNL A   1      45.426  37.383  33.261  1.00  0.00    -0.237 OA
ATOM     67  O   UNL A   1      43.799  38.097  31.546  1.00  0.00    -0.237 OA
ATOM     68  O   UNL A   1      43.016  37.431  33.787  1.00  0.00    -0.744 OA
ENDBRANCH  64  65
ENDBRANCH  45  59
BRANCH  46  69
ATOM     69  C   UNL A   1      42.405  23.692  27.776  1.00  0.00    -0.014 A 
ATOM     70  C   UNL A   1      42.658  23.428  26.418  1.00  0.00     0.010 A 
ATOM     71  C   UNL A   1      41.992  22.637  28.610  1.00  0.00     0.010 A 
ATOM     72  C   UNL A   1      42.483  22.141  25.899  1.00  0.00     0.020 A 
ATOM     73  C   UNL A   1      41.842  21.342  28.101  1.00  0.00     0.020 A 
ATOM     74  C   UNL A   1      42.077  21.106  26.745  1.00  0.00     0.054 A 
BRANCH  74  75
ATOM     75  S   UNL A   1      41.903  19.434  26.061  1.00  0.00     0.124 S 
ATOM     76  O   UNL A   1      40.471  19.364  25.789  1.00  0.00    -0.237 OA
ATOM     77  O   UNL A   1      42.768  19.482  24.886  1.00  0.00    -0.237 OA
ATOM     78  O   UNL A   1      42.379  18.572  27.141  1.00  0.00    -0.744 OA
ENDBRANCH  74  75
ENDBRANCH  46  69
BRANCH  58  79
ATOM     79  C   UNL A   1      47.749  26.997  30.794  1.00  0.00    -0.014 A 
ATOM     80  C   UNL A   1      48.833  27.153  29.913  1.00  0.00     0.010 A 
ATOM     81  C   UNL A   1      47.970  26.440  32.066  1.00  0.00     0.010 A 
ATOM     82  C   UNL A   1      50.108  26.717  30.280  1.00  0.00     0.020 A 
ATOM     83  C   UNL A   1      49.250  26.030  32.449  1.00  0.00     0.020 A 
ATOM     84  C   UNL A   1      50.307  26.153  31.545  1.00  0.00     0.054 A 
BRANCH  84  85
ATOM     85  S   UNL A   1      51.974  25.612  32.009  1.00  0.00     0.124 S 
ATOM     86  O   UNL A   1      52.198  26.352  33.248  1.00  0.00    -0.237 OA
ATOM     87  O   UNL A   1      51.814  24.168  32.159  1.00  0.00    -0.237 OA
ATOM     88  O   UNL A   1      52.799  26.027  30.877  1.00  0.00    -0.744 OA
ENDBRANCH  84  85
ENDBRANCH  58  79
ENDBRANCH  32  33
ENDBRANCH  24  27
ENDBRANCH   1  23
TORSDOF 14
ENDMDL
MODEL 2
REMARK VINA RESULT:     -11.1      4.830     10.310
REMARK SMILES O=C(NCCCNC(=O)c1ccc(-c2c3nc(c(-c4ccc(S(=O)(=O)[O-])cc4)c4ccc([nH]4)c(-c4ccc(S(=O)(=O)[O-])cc4)c4nc(c(-c5ccc(S(=O)(=O)[O-])cc5)c5ccc2[nH]5)C=C4)C=C3)cc1)C1=Cc2cc(Cl)ccc2O[C@@H]1C(F)(F)F
REMARK SMILES IDX 6 1 5 2 4 3 3 4 1 5 2 6 70 8 71 9 80 10 72 11 79 12 73 13
REMARK SMILES IDX 78 14 74 15 77 16 75 17 76 18 81 19 82 20 83 21 84 22 7 23
REMARK SMILES IDX 8 24 9 26 10 27 11 28 69 29 12 30 68 31 13 32 14 33 15 34
REMARK SMILES IDX 62 35 16 36 67 37 61 38 63 39 17 40 66 41 60 42 59 43 18 45
REMARK SMILES IDX 48 46 29 47 47 48 30 49 33 50 46 51 64 52 31 53 32 54 45 56
REMARK SMILES IDX 65 57 34 58 19 59 20 60 28 61 21 62 27 63 22 64 23 65 24 66
REMARK SMILES IDX 25 67 26 68 49 69 50 70 58 71 51 72 57 73 52 74 53 75 54 76
REMARK SMILES IDX 55 77 56 78 35 79 36 80 44 81 37 82 43 83 38 84 39 85 40 86
REMARK SMILES IDX 41 87 42 88
REMARK H PARENT 3 7 7 25 63 44 33 55
REMARK Flexibility Score: inf
ROOT
ATOM      1  C   UNL A   1      38.380  23.944  26.425  1.00  0.00     0.118 C 
ENDROOT
BRANCH   1   2
ATOM      2  C   UNL A   1      37.496  23.234  25.407  1.00  0.00     0.042 C 
BRANCH   2   3
ATOM      3  C   UNL A   1      36.042  23.684  25.475  1.00  0.00     0.118 C 
BRANCH   3   4
ATOM      4  N   UNL A   1      35.321  23.145  26.632  1.00  0.00    -0.352 N 
ATOM      5  O   UNL A   1      34.148  21.618  27.827  1.00  0.00    -0.270 OA
ATOM      6  C   UNL A   1      34.482  22.063  26.738  1.00  0.00     0.251 C 
ATOM      7  H   UNL A   1      35.461  23.640  27.471  1.00  0.00     0.163 HD
BRANCH   6   8
ATOM      8  C   UNL A   1      34.075  21.402  25.487  1.00  0.00     0.067 C 
ATOM      9  C   UNL A   1      34.916  20.514  24.942  1.00  0.00     0.025 C 
ATOM     10  C   UNL A   1      32.625  21.471  25.123  1.00  0.00     0.314 C 
ATOM     11  C   UNL A   1      34.258  19.232  24.660  1.00  0.00     0.019 A 
ATOM     12  O   UNL A   1      32.012  20.164  25.010  1.00  0.00    -0.475 OA
ATOM     13  C   UNL A   1      35.060  18.085  24.655  1.00  0.00     0.032 A 
ATOM     14  C   UNL A   1      32.864  19.101  24.827  1.00  0.00     0.128 A 
ATOM     15  C   UNL A   1      34.486  16.841  24.905  1.00  0.00     0.041 A 
ATOM     16  C   UNL A   1      32.294  17.845  25.036  1.00  0.00     0.048 A 
ATOM     17  Cl  UNL A   1      35.499  15.464  25.086  1.00  0.00    -0.084 Cl
ATOM     18  C   UNL A   1      33.112  16.717  25.107  1.00  0.00     0.024 A 
BRANCH  10  19
ATOM     19  C   UNL A   1      32.425  22.276  23.829  1.00  0.00     0.429 C 
ATOM     20  F   UNL A   1      31.215  22.888  23.817  1.00  0.00    -0.167 F 
ATOM     21  F   UNL A   1      33.353  23.253  23.689  1.00  0.00    -0.167 F 
ATOM     22  F   UNL A   1      32.490  21.500  22.721  1.00  0.00    -0.167 F 
ENDBRANCH  10  19
ENDBRANCH   6   8
ENDBRANCH   3   4
ENDBRANCH   2   3
ENDBRANCH   1   2
BRANCH   1  23
ATOM     23  N   UNL A   1      39.804  23.913  26.111  1.00  0.00    -0.352 N 
ATOM     24  C   UNL A   1      40.835  24.726  26.547  1.00  0.00     0.251 C 
ATOM     25  H   UNL A   1      40.074  23.200  25.488  1.00  0.00     0.163 HD
ATOM     26  O   UNL A   1      41.957  24.559  26.101  1.00  0.00    -0.269 OA
BRANCH  24  27
ATOM     27  C   UNL A   1      40.566  25.822  27.512  1.00  0.00     0.039 A 
ATOM     28  C   UNL A   1      39.628  25.617  28.529  1.00  0.00     0.014 A 
ATOM     29  C   UNL A   1      41.255  27.031  27.446  1.00  0.00     0.014 A 
ATOM     30  C   UNL A   1      39.461  26.584  29.527  1.00  0.00     0.010 A 
ATOM     31  C   UNL A   1      41.191  27.924  28.507  1.00  0.00     0.010 A 
ATOM     32  C   UNL A   1      40.284  27.722  29.557  1.00  0.00    -0.014 A 
BRANCH  32  33
ATOM     33  C   UNL A   1      40.213  28.720  30.658  1.00  0.00     0.031 A 
ATOM     34  C   UNL A   1      41.118  28.586  31.858  1.00  0.00     0.074 A 
ATOM     35  C   UNL A   1      39.281  29.696  30.624  1.00  0.00     0.049 A 
ATOM     36  N   UNL A   1      41.141  29.291  32.961  1.00  0.00    -0.248 NA
ATOM     37  C   UNL A   1      42.093  27.482  31.840  1.00  0.00     0.031 C 
ATOM     38  C   UNL A   1      38.294  29.895  29.558  1.00  0.00     0.029 A 
ATOM     39  N   UNL A   1      39.008  30.704  31.514  1.00  0.00    -0.354 N 
ATOM     40  C   UNL A   1      42.099  28.693  33.773  1.00  0.00     0.074 A 
ATOM     41  C   UNL A   1      42.583  27.528  33.069  1.00  0.00     0.031 C 
ATOM     42  C   UNL A   1      37.561  30.987  29.831  1.00  0.00     0.029 A 
ATOM     43  C   UNL A   1      37.991  31.539  31.110  1.00  0.00     0.049 A 
ATOM     44  H   UNL A   1      39.494  30.820  32.362  1.00  0.00     0.167 HD
ATOM     45  C   UNL A   1      42.562  29.092  34.981  1.00  0.00     0.031 A 
ATOM     46  C   UNL A   1      37.468  32.631  31.701  1.00  0.00     0.031 A 
ATOM     47  C   UNL A   1      42.115  30.280  35.656  1.00  0.00     0.049 A 
ATOM     48  C   UNL A   1      38.034  33.089  33.017  1.00  0.00     0.074 A 
ATOM     49  C   UNL A   1      42.571  30.820  36.846  1.00  0.00     0.029 A 
ATOM     50  N   UNL A   1      41.117  31.123  35.189  1.00  0.00    -0.354 N 
ATOM     51  N   UNL A   1      38.985  32.543  33.739  1.00  0.00    -0.248 NA
ATOM     52  C   UNL A   1      37.470  34.318  33.589  1.00  0.00     0.031 C 
ATOM     53  C   UNL A   1      41.822  31.969  37.117  1.00  0.00     0.029 A 
ATOM     54  C   UNL A   1      40.936  32.174  36.071  1.00  0.00     0.049 A 
ATOM     55  H   UNL A   1      40.613  30.993  34.354  1.00  0.00     0.167 HD
ATOM     56  C   UNL A   1      39.151  33.378  34.837  1.00  0.00     0.074 A 
ATOM     57  C   UNL A   1      38.216  34.474  34.674  1.00  0.00     0.031 C 
ATOM     58  C   UNL A   1      39.999  33.252  35.889  1.00  0.00     0.031 A 
BRANCH  45  59
ATOM     59  C   UNL A   1      43.620  28.240  35.636  1.00  0.00    -0.014 A 
ATOM     60  C   UNL A   1      44.988  28.458  35.384  1.00  0.00     0.010 A 
ATOM     61  C   UNL A   1      43.246  27.221  36.530  1.00  0.00     0.010 A 
ATOM     62  C   UNL A   1      45.956  27.638  35.967  1.00  0.00     0.020 A 
ATOM     63  C   UNL A   1      44.215  26.420  37.143  1.00  0.00     0.020 A 
ATOM     64  C   UNL A   1      45.563  26.621  36.841  1.00  0.00     0.054 A 
BRANCH  64  65
ATOM     65  S   UNL A   1      46.844  25.583  37.597  1.00  0.00     0.124 S 
ATOM     66  O   UNL A   1      46.325  25.406  38.951  1.00  0.00    -0.237 OA
ATOM     67  O   UNL A   1      46.826  24.388  36.757  1.00  0.00    -0.237 OA
ATOM     68  O   UNL A   1      48.054  26.395  37.494  1.00  0.00    -0.744 OA
ENDBRANCH  64  65
ENDBRANCH  45  59
BRANCH  46  69
ATOM     69  C   UNL A   1      36.378  33.393  31.030  1.00  0.00    -0.014 A 
ATOM     70  C   UNL A   1      36.555  33.887  29.725  1.00  0.00     0.010 A 
ATOM     71  C   UNL A   1      35.152  33.618  31.683  1.00  0.00     0.010 A 
ATOM     72  C   UNL A   1      35.538  34.609  29.094  1.00  0.00     0.020 A 
ATOM     73  C   UNL A   1      34.122  34.316  31.044  1.00  0.00     0.020 A 
ATOM     74  C   UNL A   1      34.326  34.817  29.757  1.00  0.00     0.054 A 
BRANCH  74  75
ATOM     75  S   UNL A   1      33.002  35.715  28.900  1.00  0.00     0.124 S 
ATOM     76  O   UNL A   1      32.220  36.241  30.015  1.00  0.00    -0.237 OA
ATOM     77  O   UNL A   1      33.743  36.705  28.124  1.00  0.00    -0.237 OA
ATOM     78  O   UNL A   1      32.345  34.678  28.108  1.00  0.00    -0.744 OA
ENDBRANCH  74  75
ENDBRANCH  46  69
BRANCH  58  79
ATOM     79  C   UNL A   1      39.980  34.346  36.921  1.00  0.00    -0.014 A 
ATOM     80  C   UNL A   1      39.155  34.263  38.056  1.00  0.00     0.010 A 
ATOM     81  C   UNL A   1      40.827  35.458  36.766  1.00  0.00     0.010 A 
ATOM     82  C   UNL A   1      39.143  35.296  38.996  1.00  0.00     0.020 A 
ATOM     83  C   UNL A   1      40.840  36.479  37.719  1.00  0.00     0.020 A 
ATOM     84  C   UNL A   1      39.983  36.401  38.818  1.00  0.00     0.054 A 
BRANCH  84  85
ATOM     85  S   UNL A   1      39.966  37.720  40.061  1.00  0.00     0.124 S 
ATOM     86  O   UNL A   1      38.837  38.535  39.621  1.00  0.00    -0.237 OA
ATOM     87  O   UNL A   1      39.762  36.986  41.307  1.00  0.00    -0.237 OA
ATOM     88  O   UNL A   1      41.279  38.344  39.921  1.00  0.00    -0.744 OA
ENDBRANCH  84  85
ENDBRANCH  58  79
ENDBRANCH  32  33
ENDBRANCH  24  27
ENDBRANCH   1  23
TORSDOF 14
ENDMDL
MODEL 3
REMARK VINA RESULT:     -11.1      2.851      9.252
REMARK SMILES O=C(NCCCNC(=O)c1ccc(-c2c3nc(c(-c4ccc(S(=O)(=O)[O-])cc4)c4ccc([nH]4)c(-c4ccc(S(=O)(=O)[O-])cc4)c4nc(c(-c5ccc(S(=O)(=O)[O-])cc5)c5ccc2[nH]5)C=C4)C=C3)cc1)C1=Cc2cc(Cl)ccc2O[C@@H]1C(F)(F)F
REMARK SMILES IDX 6 1 5 2 4 3 3 4 1 5 2 6 70 8 71 9 80 10 72 11 79 12 73 13
REMARK SMILES IDX 78 14 74 15 77 16 75 17 76 18 81 19 82 20 83 21 84 22 7 23
REMARK SMILES IDX 8 24 9 26 10 27 11 28 69 29 12 30 68 31 13 32 14 33 15 34
REMARK SMILES IDX 62 35 16 36 67 37 61 38 63 39 17 40 66 41 60 42 59 43 18 45
REMARK SMILES IDX 48 46 29 47 47 48 30 49 33 50 46 51 64 52 31 53 32 54 45 56
REMARK SMILES IDX 65 57 34 58 19 59 20 60 28 61 21 62 27 63 22 64 23 65 24 66
REMARK SMILES IDX 25 67 26 68 49 69 50 70 58 71 51 72 57 73 52 74 53 75 54 76
REMARK SMILES IDX 55 77 56 78 35 79 36 80 44 81 37 82 43 83 38 84 39 85 40 86
REMARK SMILES IDX 41 87 42 88
REMARK H PARENT 3 7 7 25 63 44 33 55
REMARK Flexibility Score: inf
ROOT
ATOM      1  C   UNL A   1      36.981  23.570  24.908  1.00  0.00     0.118 C 
ENDROOT
BRANCH   1   2
ATOM      2  C   UNL A   1      36.369  23.318  23.535  1.00  0.00     0.042 C 
BRANCH   2   3
ATOM      3  C   UNL A   1      34.850  23.212  23.580  1.00  0.00     0.118 C 
BRANCH   3   4
ATOM      4  N   UNL A   1      34.172  24.278  22.837  1.00  0.00    -0.352 N 
ATOM      5  O   UNL A   1      33.164  26.284  22.530  1.00  0.00    -0.270 OA
ATOM      6  C   UNL A   1      33.469  25.370  23.283  1.00  0.00     0.251 C 
ATOM      7  H   UNL A   1      34.230  24.198  21.858  1.00  0.00     0.163 HD
BRANCH   6   8
ATOM      8  C   UNL A   1      33.176  25.440  24.725  1.00  0.00     0.067 C 
ATOM      9  C   UNL A   1      34.049  26.078  25.513  1.00  0.00     0.025 C 
ATOM     10  C   UNL A   1      31.772  25.141  25.148  1.00  0.00     0.314 C 
ATOM     11  C   UNL A   1      33.396  27.093  26.351  1.00  0.00     0.019 A 
ATOM     12  O   UNL A   1      31.147  26.250  25.838  1.00  0.00    -0.475 OA
ATOM     13  C   UNL A   1      34.171  28.185  26.758  1.00  0.00     0.032 A 
ATOM     14  C   UNL A   1      31.990  27.196  26.369  1.00  0.00     0.128 A 
ATOM     15  C   UNL A   1      33.549  29.386  27.090  1.00  0.00     0.041 A 
ATOM     16  C   UNL A   1      31.376  28.391  26.742  1.00  0.00     0.048 A 
ATOM     17  Cl  UNL A   1      34.510  30.776  27.405  1.00  0.00    -0.084 Cl
ATOM     18  C   UNL A   1      32.159  29.498  27.072  1.00  0.00     0.024 A 
BRANCH  10  19
ATOM     19  C   UNL A   1      31.721  23.869  26.009  1.00  0.00     0.429 C 
ATOM     20  F   UNL A   1      32.704  23.003  25.660  1.00  0.00    -0.167 F 
ATOM     21  F   UNL A   1      31.892  24.138  27.325  1.00  0.00    -0.167 F 
ATOM     22  F   UNL A   1      30.545  23.207  25.884  1.00  0.00    -0.167 F 
ENDBRANCH  10  19
ENDBRANCH   6   8
ENDBRANCH   3   4
ENDBRANCH   2   3
ENDBRANCH   1   2
BRANCH   1  23
ATOM     23  N   UNL A   1      38.072  22.666  25.256  1.00  0.00    -0.352 N 
ATOM     24  C   UNL A   1      39.186  22.871  26.050  1.00  0.00     0.251 C 
ATOM     25  H   UNL A   1      38.005  21.767  24.862  1.00  0.00     0.163 HD
ATOM     26  O   UNL A   1      40.016  21.986  26.155  1.00  0.00    -0.269 OA
BRANCH  24  27
ATOM     27  C   UNL A   1      39.391  24.177  26.728  1.00  0.00     0.039 A 
ATOM     28  C   UNL A   1      38.895  24.355  28.023  1.00  0.00     0.014 A 
ATOM     29  C   UNL A   1      40.097  25.209  26.114  1.00  0.00     0.014 A 
ATOM     30  C   UNL A   1      39.197  25.526  28.728  1.00  0.00     0.010 A 
ATOM     31  C   UNL A   1      40.511  26.305  26.859  1.00  0.00     0.010 A 
ATOM     32  C   UNL A   1      40.058  26.487  28.173  1.00  0.00    -0.014 A 
BRANCH  32  33
ATOM     33  C   UNL A   1      40.488  27.694  28.930  1.00  0.00     0.031 A 
ATOM     34  C   UNL A   1      41.842  27.723  29.597  1.00  0.00     0.074 A 
ATOM     35  C   UNL A   1      39.636  28.728  29.092  1.00  0.00     0.049 A 
ATOM     36  N   UNL A   1      42.360  28.635  30.380  1.00  0.00    -0.248 NA
ATOM     37  C   UNL A   1      42.709  26.548  29.400  1.00  0.00     0.031 C 
ATOM     38  C   UNL A   1      38.271  28.798  28.562  1.00  0.00     0.029 A 
ATOM     39  N   UNL A   1      39.792  29.921  29.753  1.00  0.00    -0.354 N 
ATOM     40  C   UNL A   1      43.586  28.127  30.794  1.00  0.00     0.074 A 
ATOM     41  C   UNL A   1      43.705  26.800  30.236  1.00  0.00     0.031 C 
ATOM     42  C   UNL A   1      37.735  29.989  28.875  1.00  0.00     0.029 A 
ATOM     43  C   UNL A   1      38.697  30.750  29.664  1.00  0.00     0.049 A 
ATOM     44  H   UNL A   1      40.610  30.161  30.244  1.00  0.00     0.167 HD
ATOM     45  C   UNL A   1      44.547  28.720  31.543  1.00  0.00     0.031 A 
ATOM     46  C   UNL A   1      38.492  31.987  30.158  1.00  0.00     0.031 A 
ATOM     47  C   UNL A   1      44.448  30.060  32.053  1.00  0.00     0.049 A 
ATOM     48  C   UNL A   1      39.593  32.648  30.942  1.00  0.00     0.074 A 
ATOM     49  C   UNL A   1      45.391  30.786  32.758  1.00  0.00     0.029 A 
ATOM     50  N   UNL A   1      43.340  30.881  31.900  1.00  0.00    -0.354 N 
ATOM     51  N   UNL A   1      40.772  32.174  31.268  1.00  0.00    -0.248 NA
ATOM     52  C   UNL A   1      39.343  34.019  31.407  1.00  0.00     0.031 C 
ATOM     53  C   UNL A   1      44.840  32.035  33.063  1.00  0.00     0.029 A 
ATOM     54  C   UNL A   1      43.574  32.105  32.504  1.00  0.00     0.049 A 
ATOM     55  H   UNL A   1      42.512  30.631  31.431  1.00  0.00     0.167 HD
ATOM     56  C   UNL A   1      41.414  33.197  31.954  1.00  0.00     0.074 A 
ATOM     57  C   UNL A   1      40.500  34.322  31.978  1.00  0.00     0.031 C 
ATOM     58  C   UNL A   1      42.649  33.208  32.516  1.00  0.00     0.031 A 
BRANCH  45  59
ATOM     59  C   UNL A   1      45.793  27.922  31.834  1.00  0.00    -0.014 A 
ATOM     60  C   UNL A   1      46.883  27.927  30.944  1.00  0.00     0.010 A 
ATOM     61  C   UNL A   1      45.884  27.172  33.021  1.00  0.00     0.010 A 
ATOM     62  C   UNL A   1      48.017  27.154  31.207  1.00  0.00     0.020 A 
ATOM     63  C   UNL A   1      47.031  26.424  33.304  1.00  0.00     0.020 A 
ATOM     64  C   UNL A   1      48.082  26.404  32.385  1.00  0.00     0.054 A 
BRANCH  64  65
ATOM     65  S   UNL A   1      49.573  25.424  32.708  1.00  0.00     0.124 S 
ATOM     66  O   UNL A   1      50.437  26.400  33.368  1.00  0.00    -0.237 OA
ATOM     67  O   UNL A   1      49.072  24.350  33.562  1.00  0.00    -0.237 OA
ATOM     68  O   UNL A   1      50.009  25.006  31.377  1.00  0.00    -0.744 OA
ENDBRANCH  64  65
ENDBRANCH  45  59
BRANCH  46  69
ATOM     69  C   UNL A   1      37.211  32.696  29.888  1.00  0.00    -0.014 A 
ATOM     70  C   UNL A   1      37.048  33.442  28.707  1.00  0.00     0.010 A 
ATOM     71  C   UNL A   1      36.143  32.621  30.800  1.00  0.00     0.010 A 
ATOM     72  C   UNL A   1      35.850  34.117  28.452  1.00  0.00     0.020 A 
ATOM     73  C   UNL A   1      34.933  33.271  30.536  1.00  0.00     0.020 A 
ATOM     74  C   UNL A   1      34.798  34.025  29.368  1.00  0.00     0.054 A 
BRANCH  74  75
ATOM     75  S   UNL A   1      33.235  34.868  28.994  1.00  0.00     0.124 S 
ATOM     76  O   UNL A   1      33.697  36.165  28.512  1.00  0.00    -0.237 OA
ATOM     77  O   UNL A   1      32.638  33.994  27.988  1.00  0.00    -0.237 OA
ATOM     78  O   UNL A   1      32.542  34.888  30.280  1.00  0.00    -0.744 OA
ENDBRANCH  74  75
ENDBRANCH  46  69
BRANCH  58  79
ATOM     79  C   UNL A   1      43.095  34.488  33.169  1.00  0.00    -0.014 A 
ATOM     80  C   UNL A   1      42.903  34.712  34.543  1.00  0.00     0.010 A 
ATOM     81  C   UNL A   1      43.744  35.468  32.396  1.00  0.00     0.010 A 
ATOM     82  C   UNL A   1      43.313  35.913  35.126  1.00  0.00     0.020 A 
ATOM     83  C   UNL A   1      44.183  36.658  32.981  1.00  0.00     0.020 A 
ATOM     84  C   UNL A   1      43.946  36.882  34.339  1.00  0.00     0.054 A 
BRANCH  84  85
ATOM     85  S   UNL A   1      44.488  38.425  35.121  1.00  0.00     0.124 S 
ATOM     86  O   UNL A   1      45.925  38.406  34.862  1.00  0.00    -0.237 OA
ATOM     87  O   UNL A   1      43.732  39.438  34.390  1.00  0.00    -0.237 OA
ATOM     88  O   UNL A   1      44.104  38.257  36.520  1.00  0.00    -0.744 OA
ENDBRANCH  84  85
ENDBRANCH  58  79
ENDBRANCH  32  33
ENDBRANCH  24  27
ENDBRANCH   1  23
TORSDOF 14
ENDMDL
