MODEL 1
REMARK VINA RESULT:     -10.2      0.000      0.000
REMARK SMILES C/C(C(=O)NCCCNC(=O)c1ccc(-c2c3nc(c(-c4ccc(S(=O)(=O)[O-])cc4)c4ccc([nH]4)c(-c4ccc(S(=O)(=O)[O-])cc4)c4nc(c(-c5ccc(S(=O)(=O)[O-])cc5)c5ccc2[nH]5)C=C4)C=C3)cc1)=C(\C)C(=O)NCc1cscc1C
REMARK SMILES IDX 7 1 6 2 5 3 3 4 4 5 2 7 1 8 72 9 73 10 74 11 75 12 76 13
REMARK SMILES IDX 77 15 78 16 79 17 82 18 80 19 81 20 83 21 8 22 9 23 10 24
REMARK SMILES IDX 11 26 12 27 13 28 71 29 14 30 70 31 15 32 16 33 17 34 64 35
REMARK SMILES IDX 18 36 69 37 63 38 65 39 19 40 68 41 62 42 61 43 20 45 50 46
REMARK SMILES IDX 31 47 49 48 32 49 35 50 48 51 66 52 33 53 34 54 47 56 67 57
REMARK SMILES IDX 36 58 21 59 22 60 30 61 23 62 29 63 24 64 25 65 26 66 27 67
REMARK SMILES IDX 28 68 51 69 52 70 60 71 53 72 59 73 54 74 55 75 56 76 57 77
REMARK SMILES IDX 58 78 37 79 38 80 46 81 39 82 45 83 40 84 41 85 42 86 43 87
REMARK SMILES IDX 44 88
REMARK H PARENT 5 6 76 14 9 25 65 44 35 55
REMARK Flexibility Score: inf
ROOT
ATOM      1  C   UNL A   1      35.133  23.066  26.457  1.00  0.00     0.042 C 
ENDROOT
BRANCH   1   2
ATOM      2  C   UNL A   1      33.879  23.365  25.626  1.00  0.00     0.118 C 
BRANCH   2   3
ATOM      3  N   UNL A   1      34.221  23.519  24.219  1.00  0.00    -0.352 N 
ATOM      4  C   UNL A   1      33.496  23.865  23.116  1.00  0.00     0.247 C 
ATOM      5  O   UNL A   1      33.956  23.571  22.013  1.00  0.00    -0.270 OA
ATOM      6  H   UNL A   1      35.168  23.338  24.023  1.00  0.00     0.163 HD
BRANCH   4   7
ATOM      7  C   UNL A   1      32.154  24.525  23.230  1.00  0.00     0.022 C 
ATOM      8  C   UNL A   1      30.955  23.625  23.333  1.00  0.00     0.051 C 
ATOM      9  C   UNL A   1      32.015  25.872  23.081  1.00  0.00     0.022 C 
ATOM     10  C   UNL A   1      30.671  26.528  23.182  1.00  0.00     0.051 C 
BRANCH   9  11
ATOM     11  C   UNL A   1      33.219  26.756  22.941  1.00  0.00     0.247 C 
ATOM     12  O   UNL A   1      33.793  26.871  21.857  1.00  0.00    -0.270 OA
ATOM     13  N   UNL A   1      33.754  27.434  23.991  1.00  0.00    -0.348 N 
ATOM     14  H   UNL A   1      34.265  28.229  23.714  1.00  0.00     0.164 HD
BRANCH  13  15
ATOM     15  C   UNL A   1      33.740  27.246  25.432  1.00  0.00     0.153 C 
BRANCH  15  16
ATOM     16  C   UNL A   1      33.664  28.607  26.097  1.00  0.00    -0.015 A 
ATOM     17  C   UNL A   1      34.661  29.110  26.924  1.00  0.00     0.070 A 
ATOM     18  C   UNL A   1      32.590  29.579  25.967  1.00  0.00    -0.035 A 
ATOM     19  S   UNL A   1      34.322  30.655  27.554  1.00  0.00    -0.152 S 
ATOM     20  C   UNL A   1      32.842  30.715  26.719  1.00  0.00     0.068 A 
ATOM     21  C   UNL A   1      31.347  29.440  25.147  1.00  0.00     0.045 C 
ENDBRANCH  15  16
ENDBRANCH  13  15
ENDBRANCH   9  11
ENDBRANCH   4   7
ENDBRANCH   2   3
ENDBRANCH   1   2
BRANCH   1  22
ATOM     22  C   UNL A   1      36.414  23.670  25.883  1.00  0.00     0.118 C 
BRANCH  22  23
ATOM     23  N   UNL A   1      37.522  22.728  25.910  1.00  0.00    -0.352 N 
ATOM     24  C   UNL A   1      38.842  22.927  26.238  1.00  0.00     0.251 C 
ATOM     25  H   UNL A   1      37.291  21.805  25.655  1.00  0.00     0.163 HD
ATOM     26  O   UNL A   1      39.662  22.052  25.974  1.00  0.00    -0.269 OA
BRANCH  24  27
ATOM     27  C   UNL A   1      39.286  24.179  26.894  1.00  0.00     0.039 A 
ATOM     28  C   UNL A   1      38.907  24.416  28.220  1.00  0.00     0.014 A 
ATOM     29  C   UNL A   1      40.015  25.147  26.199  1.00  0.00     0.014 A 
ATOM     30  C   UNL A   1      39.300  25.595  28.862  1.00  0.00     0.010 A 
ATOM     31  C   UNL A   1      40.460  26.295  26.858  1.00  0.00     0.010 A 
ATOM     32  C   UNL A   1      40.101  26.535  28.194  1.00  0.00    -0.014 A 
BRANCH  32  33
ATOM     33  C   UNL A   1      40.567  27.775  28.870  1.00  0.00     0.031 A 
ATOM     34  C   UNL A   1      41.941  27.832  29.486  1.00  0.00     0.074 A 
ATOM     35  C   UNL A   1      39.733  28.826  28.986  1.00  0.00     0.049 A 
ATOM     36  N   UNL A   1      42.492  28.792  30.184  1.00  0.00    -0.248 NA
ATOM     37  C   UNL A   1      42.798  26.648  29.313  1.00  0.00     0.031 C 
ATOM     38  C   UNL A   1      38.367  28.886  28.461  1.00  0.00     0.029 A 
ATOM     39  N   UNL A   1      39.907  30.045  29.595  1.00  0.00    -0.354 N 
ATOM     40  C   UNL A   1      43.748  28.321  30.553  1.00  0.00     0.074 A 
ATOM     41  C   UNL A   1      43.860  26.974  30.035  1.00  0.00     0.031 C 
ATOM     42  C   UNL A   1      37.835  30.084  28.754  1.00  0.00     0.029 A 
ATOM     43  C   UNL A   1      38.803  30.862  29.521  1.00  0.00     0.049 A 
ATOM     44  H   UNL A   1      40.743  30.309  30.043  1.00  0.00     0.167 HD
ATOM     45  C   UNL A   1      44.725  28.954  31.246  1.00  0.00     0.031 A 
ATOM     46  C   UNL A   1      38.587  32.094  30.023  1.00  0.00     0.031 A 
ATOM     47  C   UNL A   1      44.616  30.298  31.748  1.00  0.00     0.049 A 
ATOM     48  C   UNL A   1      39.685  32.776  30.793  1.00  0.00     0.074 A 
ATOM     49  C   UNL A   1      45.568  31.047  32.417  1.00  0.00     0.029 A 
ATOM     50  N   UNL A   1      43.487  31.097  31.636  1.00  0.00    -0.354 N 
ATOM     51  N   UNL A   1      40.883  32.333  31.085  1.00  0.00    -0.248 NA
ATOM     52  C   UNL A   1      39.403  34.130  31.291  1.00  0.00     0.031 C 
ATOM     53  C   UNL A   1      45.000  32.281  32.751  1.00  0.00     0.029 A 
ATOM     54  C   UNL A   1      43.712  32.323  32.241  1.00  0.00     0.049 A 
ATOM     55  H   UNL A   1      42.649  30.831  31.194  1.00  0.00     0.167 HD
ATOM     56  C   UNL A   1      41.510  33.363  31.777  1.00  0.00     0.074 A 
ATOM     57  C   UNL A   1      40.561  34.456  31.849  1.00  0.00     0.031 C 
ATOM     58  C   UNL A   1      42.759  33.402  32.302  1.00  0.00     0.031 A 
BRANCH  45  59
ATOM     59  C   UNL A   1      46.000  28.195  31.507  1.00  0.00    -0.014 A 
ATOM     60  C   UNL A   1      46.156  27.414  32.666  1.00  0.00     0.010 A 
ATOM     61  C   UNL A   1      47.044  28.234  30.564  1.00  0.00     0.010 A 
ATOM     62  C   UNL A   1      47.349  26.723  32.900  1.00  0.00     0.020 A 
ATOM     63  C   UNL A   1      48.228  27.521  30.781  1.00  0.00     0.020 A 
ATOM     64  C   UNL A   1      48.380  26.786  31.958  1.00  0.00     0.054 A 
BRANCH  64  65
ATOM     65  S   UNL A   1      49.910  25.867  32.280  1.00  0.00     0.124 S 
ATOM     66  O   UNL A   1      50.286  25.431  30.938  1.00  0.00    -0.237 OA
ATOM     67  O   UNL A   1      50.776  26.883  32.874  1.00  0.00    -0.237 OA
ATOM     68  O   UNL A   1      49.491  24.802  33.189  1.00  0.00    -0.744 OA
ENDBRANCH  64  65
ENDBRANCH  45  59
BRANCH  46  69
ATOM     69  C   UNL A   1      37.278  32.768  29.798  1.00  0.00    -0.014 A 
ATOM     70  C   UNL A   1      36.242  32.644  30.741  1.00  0.00     0.010 A 
ATOM     71  C   UNL A   1      37.069  33.552  28.649  1.00  0.00     0.010 A 
ATOM     72  C   UNL A   1      35.015  33.279  30.531  1.00  0.00     0.020 A 
ATOM     73  C   UNL A   1      35.851  34.211  28.450  1.00  0.00     0.020 A 
ATOM     74  C   UNL A   1      34.828  34.061  29.387  1.00  0.00     0.054 A 
BRANCH  74  75
ATOM     75  S   UNL A   1      33.246  34.923  29.164  1.00  0.00     0.124 S 
ATOM     76  O   UNL A   1      32.709  34.927  30.520  1.00  0.00    -0.237 OA
ATOM     77  O   UNL A   1      33.666  36.223  28.645  1.00  0.00    -0.237 OA
ATOM     78  O   UNL A   1      32.532  34.081  28.207  1.00  0.00    -0.744 OA
ENDBRANCH  74  75
ENDBRANCH  46  69
BRANCH  58  79
ATOM     79  C   UNL A   1      43.192  34.679  32.970  1.00  0.00    -0.014 A 
ATOM     80  C   UNL A   1      43.079  34.851  34.361  1.00  0.00     0.010 A 
ATOM     81  C   UNL A   1      43.774  35.701  32.196  1.00  0.00     0.010 A 
ATOM     82  C   UNL A   1      43.516  36.034  34.963  1.00  0.00     0.020 A 
ATOM     83  C   UNL A   1      44.237  36.873  32.799  1.00  0.00     0.020 A 
ATOM     84  C   UNL A   1      44.092  37.038  34.178  1.00  0.00     0.054 A 
BRANCH  84  85
ATOM     85  S   UNL A   1      44.697  38.543  34.990  1.00  0.00     0.124 S 
ATOM     86  O   UNL A   1      44.325  38.308  36.381  1.00  0.00    -0.237 OA
ATOM     87  O   UNL A   1      46.130  38.507  34.707  1.00  0.00    -0.237 OA
ATOM     88  O   UNL A   1      43.964  39.616  34.321  1.00  0.00    -0.744 OA
ENDBRANCH  84  85
ENDBRANCH  58  79
ENDBRANCH  32  33
ENDBRANCH  24  27
ENDBRANCH  22  23
ENDBRANCH   1  22
TORSDOF 16
ENDMDL
MODEL 2
REMARK VINA RESULT:     -10.1      3.362      4.280
REMARK SMILES C/C(C(=O)NCCCNC(=O)c1ccc(-c2c3nc(c(-c4ccc(S(=O)(=O)[O-])cc4)c4ccc([nH]4)c(-c4ccc(S(=O)(=O)[O-])cc4)c4nc(c(-c5ccc(S(=O)(=O)[O-])cc5)c5ccc2[nH]5)C=C4)C=C3)cc1)=C(\C)C(=O)NCc1cscc1C
REMARK SMILES IDX 7 1 6 2 5 3 3 4 4 5 2 7 1 8 72 9 73 10 74 11 75 12 76 13
REMARK SMILES IDX 77 15 78 16 79 17 82 18 80 19 81 20 83 21 8 22 9 23 10 24
REMARK SMILES IDX 11 26 12 27 13 28 71 29 14 30 70 31 15 32 16 33 17 34 64 35
REMARK SMILES IDX 18 36 69 37 63 38 65 39 19 40 68 41 62 42 61 43 20 45 50 46
REMARK SMILES IDX 31 47 49 48 32 49 35 50 48 51 66 52 33 53 34 54 47 56 67 57
REMARK SMILES IDX 36 58 21 59 22 60 30 61 23 62 29 63 24 64 25 65 26 66 27 67
REMARK SMILES IDX 28 68 51 69 52 70 60 71 53 72 59 73 54 74 55 75 56 76 57 77
REMARK SMILES IDX 58 78 37 79 38 80 46 81 39 82 45 83 40 84 41 85 42 86 43 87
REMARK SMILES IDX 44 88
REMARK H PARENT 5 6 76 14 9 25 65 44 35 55
REMARK Flexibility Score: inf
ROOT
ATOM      1  C   UNL A   1      37.549  23.046  25.837  1.00  0.00     0.042 C 
ENDROOT
BRANCH   1   2
ATOM      2  C   UNL A   1      36.614  23.532  24.722  1.00  0.00     0.118 C 
BRANCH   2   3
ATOM      3  N   UNL A   1      35.517  24.312  25.275  1.00  0.00    -0.352 N 
ATOM      4  C   UNL A   1      34.173  24.098  25.365  1.00  0.00     0.247 C 
ATOM      5  O   UNL A   1      33.448  25.073  25.558  1.00  0.00    -0.270 OA
ATOM      6  H   UNL A   1      35.803  25.170  25.664  1.00  0.00     0.163 HD
BRANCH   4   7
ATOM      7  C   UNL A   1      33.578  22.733  25.176  1.00  0.00     0.022 C 
ATOM      8  C   UNL A   1      33.656  21.785  26.339  1.00  0.00     0.051 C 
ATOM      9  C   UNL A   1      33.136  22.320  23.956  1.00  0.00     0.022 C 
ATOM     10  C   UNL A   1      32.555  20.951  23.765  1.00  0.00     0.051 C 
BRANCH   9  11
ATOM     11  C   UNL A   1      33.098  23.266  22.792  1.00  0.00     0.247 C 
ATOM     12  O   UNL A   1      34.082  23.409  22.065  1.00  0.00    -0.270 OA
ATOM     13  N   UNL A   1      32.011  24.031  22.507  1.00  0.00    -0.348 N 
ATOM     14  H   UNL A   1      31.968  24.300  21.561  1.00  0.00     0.164 HD
BRANCH  13  15
ATOM     15  C   UNL A   1      30.898  24.542  23.290  1.00  0.00     0.153 C 
BRANCH  15  16
ATOM     16  C   UNL A   1      30.921  26.058  23.231  1.00  0.00    -0.015 A 
ATOM     17  C   UNL A   1      32.043  26.792  22.868  1.00  0.00     0.070 A 
ATOM     18  C   UNL A   1      29.811  26.955  23.513  1.00  0.00    -0.035 A 
ATOM     19  S   UNL A   1      31.806  28.477  22.897  1.00  0.00    -0.152 S 
ATOM     20  C   UNL A   1      30.184  28.281  23.370  1.00  0.00     0.068 A 
ATOM     21  C   UNL A   1      28.422  26.569  23.909  1.00  0.00     0.045 C 
ENDBRANCH  15  16
ENDBRANCH  13  15
ENDBRANCH   9  11
ENDBRANCH   4   7
ENDBRANCH   2   3
ENDBRANCH   1   2
BRANCH   1  22
ATOM     22  C   UNL A   1      38.421  24.150  26.436  1.00  0.00     0.118 C 
BRANCH  22  23
ATOM     23  N   UNL A   1      39.826  23.978  26.100  1.00  0.00    -0.352 N 
ATOM     24  C   UNL A   1      40.921  24.715  26.484  1.00  0.00     0.251 C 
ATOM     25  H   UNL A   1      40.023  23.217  25.507  1.00  0.00     0.163 HD
ATOM     26  O   UNL A   1      41.990  24.542  25.904  1.00  0.00    -0.269 OA
BRANCH  24  27
ATOM     27  C   UNL A   1      40.827  25.712  27.575  1.00  0.00     0.039 A 
ATOM     28  C   UNL A   1      41.826  26.687  27.684  1.00  0.00     0.014 A 
ATOM     29  C   UNL A   1      39.805  25.661  28.525  1.00  0.00     0.014 A 
ATOM     30  C   UNL A   1      41.772  27.635  28.711  1.00  0.00     0.010 A 
ATOM     31  C   UNL A   1      39.716  26.643  29.512  1.00  0.00     0.010 A 
ATOM     32  C   UNL A   1      40.702  27.637  29.621  1.00  0.00    -0.014 A 
BRANCH  32  33
ATOM     33  C   UNL A   1      40.600  28.661  30.694  1.00  0.00     0.031 A 
ATOM     34  C   UNL A   1      41.481  28.571  31.914  1.00  0.00     0.074 A 
ATOM     35  C   UNL A   1      39.673  29.634  30.604  1.00  0.00     0.049 A 
ATOM     36  N   UNL A   1      41.481  29.320  32.987  1.00  0.00    -0.248 NA
ATOM     37  C   UNL A   1      42.474  27.485  31.939  1.00  0.00     0.031 C 
ATOM     38  C   UNL A   1      38.738  29.813  29.490  1.00  0.00     0.029 A 
ATOM     39  N   UNL A   1      39.354  30.651  31.470  1.00  0.00    -0.354 N 
ATOM     40  C   UNL A   1      42.456  28.784  33.824  1.00  0.00     0.074 A 
ATOM     41  C   UNL A   1      42.996  27.623  33.150  1.00  0.00     0.031 C 
ATOM     42  C   UNL A   1      37.966  30.884  29.732  1.00  0.00     0.029 A 
ATOM     43  C   UNL A   1      38.319  31.444  31.033  1.00  0.00     0.049 A 
ATOM     44  H   UNL A   1      39.822  30.799  32.324  1.00  0.00     0.167 HD
ATOM     45  C   UNL A   1      42.874  29.224  35.035  1.00  0.00     0.031 A 
ATOM     46  C   UNL A   1      37.714  32.498  31.616  1.00  0.00     0.031 A 
ATOM     47  C   UNL A   1      42.344  30.387  35.697  1.00  0.00     0.049 A 
ATOM     48  C   UNL A   1      38.192  32.967  32.963  1.00  0.00     0.074 A 
ATOM     49  C   UNL A   1      42.736  30.945  36.901  1.00  0.00     0.029 A 
ATOM     50  N   UNL A   1      41.308  31.173  35.211  1.00  0.00    -0.354 N 
ATOM     51  N   UNL A   1      39.149  32.477  33.713  1.00  0.00    -0.248 NA
ATOM     52  C   UNL A   1      37.513  34.137  33.537  1.00  0.00     0.031 C 
ATOM     53  C   UNL A   1      41.907  32.040  37.167  1.00  0.00     0.029 A 
ATOM     54  C   UNL A   1      41.035  32.198  36.101  1.00  0.00     0.049 A 
ATOM     55  H   UNL A   1      40.837  31.022  34.361  1.00  0.00     0.167 HD
ATOM     56  C   UNL A   1      39.208  33.297  34.835  1.00  0.00     0.074 A 
ATOM     57  C   UNL A   1      38.197  34.319  34.658  1.00  0.00     0.031 C 
ATOM     58  C   UNL A   1      40.027  33.211  35.911  1.00  0.00     0.031 A 
BRANCH  45  59
ATOM     59  C   UNL A   1      43.957  28.439  35.727  1.00  0.00    -0.014 A 
ATOM     60  C   UNL A   1      45.315  28.752  35.537  1.00  0.00     0.010 A 
ATOM     61  C   UNL A   1      43.613  27.396  36.606  1.00  0.00     0.010 A 
ATOM     62  C   UNL A   1      46.310  28.008  36.178  1.00  0.00     0.020 A 
ATOM     63  C   UNL A   1      44.605  26.667  37.271  1.00  0.00     0.020 A 
ATOM     64  C   UNL A   1      45.949  26.966  37.037  1.00  0.00     0.054 A 
BRANCH  64  65
ATOM     65  S   UNL A   1      47.260  26.028  37.867  1.00  0.00     0.124 S 
ATOM     66  O   UNL A   1      47.097  24.701  37.279  1.00  0.00    -0.237 OA
ATOM     67  O   UNL A   1      48.469  26.744  37.470  1.00  0.00    -0.237 OA
ATOM     68  O   UNL A   1      46.917  26.129  39.284  1.00  0.00    -0.744 OA
ENDBRANCH  64  65
ENDBRANCH  45  59
BRANCH  46  69
ATOM     69  C   UNL A   1      36.596  33.190  30.918  1.00  0.00    -0.014 A 
ATOM     70  C   UNL A   1      35.292  33.145  31.442  1.00  0.00     0.010 A 
ATOM     71  C   UNL A   1      36.833  33.914  29.735  1.00  0.00     0.010 A 
ATOM     72  C   UNL A   1      34.243  33.798  30.788  1.00  0.00     0.020 A 
ATOM     73  C   UNL A   1      35.791  34.591  29.094  1.00  0.00     0.020 A 
ATOM     74  C   UNL A   1      34.500  34.519  29.619  1.00  0.00     0.054 A 
BRANCH  74  75
ATOM     75  S   UNL A   1      33.134  35.407  28.818  1.00  0.00     0.124 S 
ATOM     76  O   UNL A   1      32.403  35.936  29.964  1.00  0.00    -0.237 OA
ATOM     77  O   UNL A   1      33.835  36.395  28.003  1.00  0.00    -0.237 OA
ATOM     78  O   UNL A   1      32.446  34.363  28.062  1.00  0.00    -0.744 OA
ENDBRANCH  74  75
ENDBRANCH  46  69
BRANCH  58  79
ATOM     79  C   UNL A   1      39.895  34.273  36.969  1.00  0.00    -0.014 A 
ATOM     80  C   UNL A   1      40.492  35.536  36.815  1.00  0.00     0.010 A 
ATOM     81  C   UNL A   1      39.112  34.017  38.111  1.00  0.00     0.010 A 
ATOM     82  C   UNL A   1      40.329  36.518  37.797  1.00  0.00     0.020 A 
ATOM     83  C   UNL A   1      38.925  35.005  39.081  1.00  0.00     0.020 A 
ATOM     84  C   UNL A   1      39.547  36.245  38.924  1.00  0.00     0.054 A 
BRANCH  84  85
ATOM     85  S   UNL A   1      39.310  37.552  40.161  1.00  0.00     0.124 S 
ATOM     86  O   UNL A   1      40.617  38.202  40.168  1.00  0.00    -0.237 OA
ATOM     87  O   UNL A   1      38.219  38.339  39.592  1.00  0.00    -0.237 OA
ATOM     88  O   UNL A   1      38.971  36.819  41.378  1.00  0.00    -0.744 OA
ENDBRANCH  84  85
ENDBRANCH  58  79
ENDBRANCH  32  33
ENDBRANCH  24  27
ENDBRANCH  22  23
ENDBRANCH   1  22
TORSDOF 16
ENDMDL
MODEL 3
REMARK VINA RESULT:     -10.0      2.838      9.324
REMARK SMILES C/C(C(=O)NCCCNC(=O)c1ccc(-c2c3nc(c(-c4ccc(S(=O)(=O)[O-])cc4)c4ccc([nH]4)c(-c4ccc(S(=O)(=O)[O-])cc4)c4nc(c(-c5ccc(S(=O)(=O)[O-])cc5)c5ccc2[nH]5)C=C4)C=C3)cc1)=C(\C)C(=O)NCc1cscc1C
REMARK SMILES IDX 7 1 6 2 5 3 3 4 4 5 2 7 1 8 72 9 73 10 74 11 75 12 76 13
REMARK SMILES IDX 77 15 78 16 79 17 82 18 80 19 81 20 83 21 8 22 9 23 10 24
REMARK SMILES IDX 11 26 12 27 13 28 71 29 14 30 70 31 15 32 16 33 17 34 64 35
REMARK SMILES IDX 18 36 69 37 63 38 65 39 19 40 68 41 62 42 61 43 20 45 50 46
REMARK SMILES IDX 31 47 49 48 32 49 35 50 48 51 66 52 33 53 34 54 47 56 67 57
REMARK SMILES IDX 36 58 21 59 22 60 30 61 23 62 29 63 24 64 25 65 26 66 27 67
REMARK SMILES IDX 28 68 51 69 52 70 60 71 53 72 59 73 54 74 55 75 56 76 57 77
REMARK SMILES IDX 58 78 37 79 38 80 46 81 39 82 45 83 40 84 41 85 42 86 43 87
REMARK SMILES IDX 44 88
REMARK H PARENT 5 6 76 14 9 25 65 44 35 55
REMARK Flexibility Score: inf
ROOT
ATOM      1  C   UNL A   1      33.307  27.996  25.210  1.00  0.00     0.042 C 
ENDROOT
BRANCH   1   2
ATOM      2  C   UNL A   1      34.104  26.917  24.467  1.00  0.00     0.118 C 
BRANCH   2   3
ATOM      3  N   UNL A   1      33.920  27.042  23.028  1.00  0.00    -0.352 N 
ATOM      4  C   UNL A   1      33.099  26.417  22.135  1.00  0.00     0.247 C 
ATOM      5  O   UNL A   1      33.404  26.466  20.944  1.00  0.00    -0.270 OA
ATOM      6  H   UNL A   1      34.507  27.714  22.615  1.00  0.00     0.163 HD
BRANCH   4   7
ATOM      7  C   UNL A   1      31.895  25.641  22.582  1.00  0.00     0.022 C 
ATOM      8  C   UNL A   1      30.696  26.431  23.023  1.00  0.00     0.051 C 
ATOM      9  C   UNL A   1      31.945  24.288  22.735  1.00  0.00     0.022 C 
ATOM     10  C   UNL A   1      30.745  23.516  23.194  1.00  0.00     0.051 C 
BRANCH   9  11
ATOM     11  C   UNL A   1      33.163  23.514  22.325  1.00  0.00     0.247 C 
ATOM     12  O   UNL A   1      33.433  23.349  21.135  1.00  0.00    -0.270 OA
ATOM     13  N   UNL A   1      33.996  22.930  23.228  1.00  0.00    -0.348 N 
ATOM     14  H   UNL A   1      34.906  22.794  22.878  1.00  0.00     0.164 HD
BRANCH  13  15
ATOM     15  C   UNL A   1      33.840  22.460  24.594  1.00  0.00     0.153 C 
BRANCH  15  16
ATOM     16  C   UNL A   1      33.676  20.952  24.571  1.00  0.00    -0.015 A 
ATOM     17  C   UNL A   1      32.459  20.318  24.355  1.00  0.00     0.070 A 
ATOM     18  C   UNL A   1      34.727  19.961  24.744  1.00  0.00    -0.035 A 
ATOM     19  S   UNL A   1      32.547  18.619  24.393  1.00  0.00    -0.152 S 
ATOM     20  C   UNL A   1      34.224  18.672  24.674  1.00  0.00     0.068 A 
ATOM     21  C   UNL A   1      36.182  20.224  24.971  1.00  0.00     0.045 C 
ENDBRANCH  15  16
ENDBRANCH  13  15
ENDBRANCH   9  11
ENDBRANCH   4   7
ENDBRANCH   2   3
ENDBRANCH   1   2
BRANCH   1  22
ATOM     22  C   UNL A   1      33.800  28.258  26.633  1.00  0.00     0.118 C 
BRANCH  22  23
ATOM     23  N   UNL A   1      33.556  29.630  27.051  1.00  0.00    -0.352 N 
ATOM     24  C   UNL A   1      34.322  30.465  27.829  1.00  0.00     0.251 C 
ATOM     25  H   UNL A   1      32.712  30.021  26.726  1.00  0.00     0.163 HD
ATOM     26  O   UNL A   1      33.828  31.505  28.255  1.00  0.00    -0.269 OA
BRANCH  24  27
ATOM     27  C   UNL A   1      35.724  30.124  28.165  1.00  0.00     0.039 A 
ATOM     28  C   UNL A   1      36.020  29.693  29.464  1.00  0.00     0.014 A 
ATOM     29  C   UNL A   1      36.756  30.283  27.237  1.00  0.00     0.014 A 
ATOM     30  C   UNL A   1      37.336  29.376  29.814  1.00  0.00     0.010 A 
ATOM     31  C   UNL A   1      38.059  29.908  27.568  1.00  0.00     0.010 A 
ATOM     32  C   UNL A   1      38.365  29.457  28.862  1.00  0.00    -0.014 A 
BRANCH  32  33
ATOM     33  C   UNL A   1      39.764  29.084  29.200  1.00  0.00     0.031 A 
ATOM     34  C   UNL A   1      40.683  30.090  29.843  1.00  0.00     0.074 A 
ATOM     35  C   UNL A   1      40.228  27.862  28.871  1.00  0.00     0.049 A 
ATOM     36  N   UNL A   1      41.954  29.976  30.136  1.00  0.00    -0.248 NA
ATOM     37  C   UNL A   1      40.105  31.401  30.178  1.00  0.00     0.031 C 
ATOM     38  C   UNL A   1      39.449  26.808  28.218  1.00  0.00     0.029 A 
ATOM     39  N   UNL A   1      41.473  27.303  29.030  1.00  0.00    -0.354 N 
ATOM     40  C   UNL A   1      42.332  31.205  30.669  1.00  0.00     0.074 A 
ATOM     41  C   UNL A   1      41.166  32.061  30.619  1.00  0.00     0.031 C 
ATOM     42  C   UNL A   1      40.227  25.726  28.050  1.00  0.00     0.029 A 
ATOM     43  C   UNL A   1      41.568  26.021  28.544  1.00  0.00     0.049 A 
ATOM     44  H   UNL A   1      42.225  27.776  29.453  1.00  0.00     0.167 HD
ATOM     45  C   UNL A   1      43.533  31.583  31.167  1.00  0.00     0.031 A 
ATOM     46  C   UNL A   1      42.619  25.179  28.490  1.00  0.00     0.031 A 
ATOM     47  C   UNL A   1      44.688  30.726  31.226  1.00  0.00     0.049 A 
ATOM     48  C   UNL A   1      43.945  25.621  29.045  1.00  0.00     0.074 A 
ATOM     49  C   UNL A   1      45.936  30.998  31.759  1.00  0.00     0.029 A 
ATOM     50  N   UNL A   1      44.737  29.428  30.739  1.00  0.00    -0.354 N 
ATOM     51  N   UNL A   1      44.267  26.769  29.591  1.00  0.00    -0.248 NA
ATOM     52  C   UNL A   1      45.047  24.651  28.985  1.00  0.00     0.031 C 
ATOM     53  C   UNL A   1      46.753  29.882  31.552  1.00  0.00     0.029 A 
ATOM     54  C   UNL A   1      45.999  28.894  30.940  1.00  0.00     0.049 A 
ATOM     55  H   UNL A   1      43.986  28.957  30.311  1.00  0.00     0.167 HD
ATOM     56  C   UNL A   1      45.600  26.649  29.967  1.00  0.00     0.074 A 
ATOM     57  C   UNL A   1      46.020  25.313  29.595  1.00  0.00     0.031 C 
ATOM     58  C   UNL A   1      46.402  27.562  30.567  1.00  0.00     0.031 A 
BRANCH  45  59
ATOM     59  C   UNL A   1      43.662  32.993  31.683  1.00  0.00    -0.014 A 
ATOM     60  C   UNL A   1      43.416  33.297  33.034  1.00  0.00     0.010 A 
ATOM     61  C   UNL A   1      44.069  34.022  30.815  1.00  0.00     0.010 A 
ATOM     62  C   UNL A   1      43.529  34.612  33.496  1.00  0.00     0.020 A 
ATOM     63  C   UNL A   1      44.211  35.334  31.280  1.00  0.00     0.020 A 
ATOM     64  C   UNL A   1      43.921  35.623  32.615  1.00  0.00     0.054 A 
BRANCH  64  65
ATOM     65  S   UNL A   1      44.075  37.316  33.246  1.00  0.00     0.124 S 
ATOM     66  O   UNL A   1      45.359  37.262  33.939  1.00  0.00    -0.237 OA
ATOM     67  O   UNL A   1      44.056  38.118  32.024  1.00  0.00    -0.237 OA
ATOM     68  O   UNL A   1      42.907  37.474  34.108  1.00  0.00    -0.744 OA
ENDBRANCH  64  65
ENDBRANCH  45  59
BRANCH  46  69
ATOM     69  C   UNL A   1      42.452  23.822  27.899  1.00  0.00    -0.014 A 
ATOM     70  C   UNL A   1      42.552  23.633  26.509  1.00  0.00     0.010 A 
ATOM     71  C   UNL A   1      42.213  22.709  28.725  1.00  0.00     0.010 A 
ATOM     72  C   UNL A   1      42.398  22.359  25.955  1.00  0.00     0.020 A 
ATOM     73  C   UNL A   1      42.086  21.429  28.176  1.00  0.00     0.020 A 
ATOM     74  C   UNL A   1      42.169  21.264  26.792  1.00  0.00     0.054 A 
BRANCH  74  75
ATOM     75  S   UNL A   1      42.030  19.611  26.056  1.00  0.00     0.124 S 
ATOM     76  O   UNL A   1      42.964  19.697  24.939  1.00  0.00    -0.237 OA
ATOM     77  O   UNL A   1      42.438  18.740  27.157  1.00  0.00    -0.237 OA
ATOM     78  O   UNL A   1      40.619  19.518  25.690  1.00  0.00    -0.744 OA
ENDBRANCH  74  75
ENDBRANCH  46  69
BRANCH  58  79
ATOM     79  C   UNL A   1      47.808  27.139  30.898  1.00  0.00    -0.014 A 
ATOM     80  C   UNL A   1      48.102  26.448  32.086  1.00  0.00     0.010 A 
ATOM     81  C   UNL A   1      48.840  27.388  29.974  1.00  0.00     0.010 A 
ATOM     82  C   UNL A   1      49.410  26.037  32.358  1.00  0.00     0.020 A 
ATOM     83  C   UNL A   1      50.144  26.955  30.231  1.00  0.00     0.020 A 
ATOM     84  C   UNL A   1      50.423  26.294  31.428  1.00  0.00     0.054 A 
BRANCH  84  85
ATOM     85  S   UNL A   1      52.103  25.707  31.781  1.00  0.00     0.124 S 
ATOM     86  O   UNL A   1      52.784  25.959  30.514  1.00  0.00    -0.237 OA
ATOM     87  O   UNL A   1      52.513  26.557  32.896  1.00  0.00    -0.237 OA
ATOM     88  O   UNL A   1      51.915  24.298  32.117  1.00  0.00    -0.744 OA
ENDBRANCH  84  85
ENDBRANCH  58  79
ENDBRANCH  32  33
ENDBRANCH  24  27
ENDBRANCH  22  23
ENDBRANCH   1  22
TORSDOF 16
ENDMDL
