MODEL 1
REMARK VINA RESULT:     -10.6      0.000      0.000
REMARK SMILES Cc1cc(C(=O)NCCCNC(=O)c2ccc(-c3c4nc(c(-c5ccc(S(=O)(=O)[O-])cc5)c5ccc([nH]5)c(-c5ccc(S(=O)(=O)[O-])cc5)c5nc(c(-c6ccc(S(=O)(=O)[O-])cc6)c6ccc3[nH]6)C=C5)C=C4)cc2)cc(C)c1OC[C@H]1C[N@@H+](C)CCO1
REMARK SMILES IDX 9 1 8 2 7 3 5 4 6 5 4 7 1 8 2 9 3 10 77 11 75 12 74 13 76 14
REMARK SMILES IDX 78 15 79 16 80 17 81 18 86 19 82 20 85 21 83 22 84 23 10 25
REMARK SMILES IDX 11 26 12 27 13 29 14 30 15 31 73 32 16 33 72 34 17 35 18 36
REMARK SMILES IDX 19 37 66 38 20 39 71 40 65 41 67 42 21 43 70 44 64 45 63 46
REMARK SMILES IDX 22 48 52 49 33 50 51 51 34 52 37 53 50 54 68 55 35 56 36 57
REMARK SMILES IDX 49 59 69 60 38 61 23 62 24 63 32 64 25 65 31 66 26 67 27 68
REMARK SMILES IDX 28 69 29 70 30 71 53 72 54 73 62 74 55 75 61 76 56 77 57 78
REMARK SMILES IDX 58 79 59 80 60 81 39 82 40 83 48 84 41 85 47 86 42 87 43 88
REMARK SMILES IDX 44 89 45 90 46 91
REMARK H PARENT 7 6 82 24 11 28 67 47 37 58
REMARK Flexibility Score: inf
ROOT
ATOM      1  C   UNL A   1      41.694  21.319  26.400  1.00  0.00     0.042 C 
ENDROOT
BRANCH   1   2
ATOM      2  C   UNL A   1      42.177  22.633  25.808  1.00  0.00     0.118 C 
BRANCH   2   3
ATOM      3  N   UNL A   1      43.253  22.473  24.843  1.00  0.00    -0.352 N 
ATOM      4  C   UNL A   1      44.251  23.317  24.431  1.00  0.00     0.251 C 
ATOM      5  O   UNL A   1      44.983  22.951  23.509  1.00  0.00    -0.269 OA
ATOM      6  H   UNL A   1      43.266  21.593  24.400  1.00  0.00     0.163 HD
BRANCH   4   7
ATOM      7  C   UNL A   1      44.450  24.664  25.018  1.00  0.00     0.040 A 
ATOM      8  C   UNL A   1      47.407  26.318  26.641  1.00  0.00     0.048 C 
ATOM      9  C   UNL A   1      45.999  26.201  26.147  1.00  0.00    -0.008 A 
ATOM     10  C   UNL A   1      45.681  24.931  25.614  1.00  0.00     0.021 A 
ATOM     11  C   UNL A   1      45.028  27.217  26.116  1.00  0.00     0.125 A 
ATOM     12  C   UNL A   1      43.793  26.956  25.477  1.00  0.00    -0.008 A 
ATOM     13  C   UNL A   1      43.491  25.667  25.000  1.00  0.00     0.021 A 
ATOM     14  C   UNL A   1      42.814  28.054  25.138  1.00  0.00     0.048 C 
BRANCH  11  15
ATOM     15  O   UNL A   1      45.151  28.498  26.574  1.00  0.00    -0.490 OA
BRANCH  15  16
ATOM     16  C   UNL A   1      46.356  29.269  26.458  1.00  0.00     0.267 C 
BRANCH  16  17
ATOM     17  C   UNL A   1      46.209  30.802  26.382  1.00  0.00     0.210 C 
ATOM     18  C   UNL A   1      45.279  31.307  27.503  1.00  0.00     0.298 C 
ATOM     19  O   UNL A   1      47.494  31.446  26.595  1.00  0.00    -0.363 OA
ATOM     20  N   UNL A   1      45.000  32.728  27.249  1.00  0.00    -0.333 N 
ATOM     21  C   UNL A   1      47.364  32.880  26.501  1.00  0.00     0.222 C 
ATOM     22  C   UNL A   1      43.917  33.227  28.081  1.00  0.00     0.332 C 
ATOM     23  C   UNL A   1      46.262  33.463  27.420  1.00  0.00     0.290 C 
ATOM     24  H   UNL A   1      44.664  32.867  26.296  1.00  0.00     0.348 HD
ENDBRANCH  16  17
ENDBRANCH  15  16
ENDBRANCH  11  15
ENDBRANCH   4   7
ENDBRANCH   2   3
ENDBRANCH   1   2
BRANCH   1  25
ATOM     25  C   UNL A   1      40.393  21.415  27.180  1.00  0.00     0.118 C 
BRANCH  25  26
ATOM     26  N   UNL A   1      39.262  21.805  26.346  1.00  0.00    -0.352 N 
ATOM     27  C   UNL A   1      38.589  22.995  26.246  1.00  0.00     0.251 C 
ATOM     28  H   UNL A   1      38.926  21.094  25.754  1.00  0.00     0.163 HD
ATOM     29  O   UNL A   1      37.516  23.025  25.630  1.00  0.00    -0.269 OA
BRANCH  27  30
ATOM     30  C   UNL A   1      39.110  24.227  26.872  1.00  0.00     0.039 A 
ATOM     31  C   UNL A   1      39.855  25.125  26.101  1.00  0.00     0.014 A 
ATOM     32  C   UNL A   1      38.904  24.488  28.227  1.00  0.00     0.014 A 
ATOM     33  C   UNL A   1      40.332  26.307  26.675  1.00  0.00     0.010 A 
ATOM     34  C   UNL A   1      39.275  25.714  28.766  1.00  0.00     0.010 A 
ATOM     35  C   UNL A   1      40.015  26.629  28.005  1.00  0.00    -0.014 A 
BRANCH  35  36
ATOM     36  C   UNL A   1      40.477  27.892  28.635  1.00  0.00     0.031 A 
ATOM     37  C   UNL A   1      41.879  27.990  29.182  1.00  0.00     0.074 A 
ATOM     38  C   UNL A   1      39.620  28.922  28.780  1.00  0.00     0.049 A 
ATOM     39  N   UNL A   1      42.444  28.973  29.835  1.00  0.00    -0.248 NA
ATOM     40  C   UNL A   1      42.750  26.814  29.004  1.00  0.00     0.031 C 
ATOM     41  C   UNL A   1      38.221  28.932  28.341  1.00  0.00     0.029 A 
ATOM     42  N   UNL A   1      39.798  30.161  29.342  1.00  0.00    -0.354 N 
ATOM     43  C   UNL A   1      43.717  28.523  30.169  1.00  0.00     0.074 A 
ATOM     44  C   UNL A   1      43.822  27.160  29.699  1.00  0.00     0.031 C 
ATOM     45  C   UNL A   1      37.682  30.131  28.618  1.00  0.00     0.029 A 
ATOM     46  C   UNL A   1      38.678  30.958  29.290  1.00  0.00     0.049 A 
ATOM     47  H   UNL A   1      40.648  30.453  29.745  1.00  0.00     0.167 HD
ATOM     48  C   UNL A   1      44.721  29.191  30.785  1.00  0.00     0.031 A 
ATOM     49  C   UNL A   1      38.476  32.213  29.734  1.00  0.00     0.031 A 
ATOM     50  C   UNL A   1      44.624  30.557  31.223  1.00  0.00     0.049 A 
ATOM     51  C   UNL A   1      39.613  32.945  30.394  1.00  0.00     0.074 A 
ATOM     52  C   UNL A   1      45.599  31.349  31.801  1.00  0.00     0.029 A 
ATOM     53  N   UNL A   1      43.481  31.338  31.122  1.00  0.00    -0.354 N 
ATOM     54  N   UNL A   1      40.829  32.522  30.646  1.00  0.00    -0.248 NA
ATOM     55  C   UNL A   1      39.354  34.328  30.815  1.00  0.00     0.031 C 
ATOM     56  C   UNL A   1      45.035  32.596  32.090  1.00  0.00     0.029 A 
ATOM     57  C   UNL A   1      43.724  32.598  31.641  1.00  0.00     0.049 A 
ATOM     58  H   UNL A   1      42.625  31.040  30.739  1.00  0.00     0.167 HD
ATOM     59  C   UNL A   1      41.490  33.598  31.227  1.00  0.00     0.074 A 
ATOM     60  C   UNL A   1      40.542  34.694  31.276  1.00  0.00     0.031 C 
ATOM     61  C   UNL A   1      42.767  33.674  31.679  1.00  0.00     0.031 A 
BRANCH  48  62
ATOM     62  C   UNL A   1      46.013  28.449  31.018  1.00  0.00    -0.014 A 
ATOM     63  C   UNL A   1      46.252  27.768  32.226  1.00  0.00     0.010 A 
ATOM     64  C   UNL A   1      46.989  28.408  30.007  1.00  0.00     0.010 A 
ATOM     65  C   UNL A   1      47.462  27.103  32.438  1.00  0.00     0.020 A 
ATOM     66  C   UNL A   1      48.189  27.717  30.203  1.00  0.00     0.020 A 
ATOM     67  C   UNL A   1      48.426  27.084  31.425  1.00  0.00     0.054 A 
BRANCH  67  68
ATOM     68  S   UNL A   1      49.979  26.194  31.720  1.00  0.00     0.124 S 
ATOM     69  O   UNL A   1      50.626  26.281  30.412  1.00  0.00    -0.237 OA
ATOM     70  O   UNL A   1      50.601  26.979  32.782  1.00  0.00    -0.237 OA
ATOM     71  O   UNL A   1      49.543  24.856  32.110  1.00  0.00    -0.744 OA
ENDBRANCH  67  68
ENDBRANCH  48  62
BRANCH  49  72
ATOM     72  C   UNL A   1      37.153  32.868  29.538  1.00  0.00    -0.014 A 
ATOM     73  C   UNL A   1      36.331  33.158  30.643  1.00  0.00     0.010 A 
ATOM     74  C   UNL A   1      36.714  33.221  28.249  1.00  0.00     0.010 A 
ATOM     75  C   UNL A   1      35.088  33.769  30.461  1.00  0.00     0.020 A 
ATOM     76  C   UNL A   1      35.483  33.858  28.066  1.00  0.00     0.020 A 
ATOM     77  C   UNL A   1      34.672  34.117  29.173  1.00  0.00     0.054 A 
BRANCH  77  78
ATOM     78  S   UNL A   1      33.076  34.955  28.964  1.00  0.00     0.124 S 
ATOM     79  O   UNL A   1      32.552  34.952  30.326  1.00  0.00    -0.237 OA
ATOM     80  O   UNL A   1      33.472  36.261  28.440  1.00  0.00    -0.237 OA
ATOM     81  O   UNL A   1      32.364  34.103  28.015  1.00  0.00    -0.744 OA
ENDBRANCH  77  78
ENDBRANCH  49  72
BRANCH  61  82
ATOM     82  C   UNL A   1      43.224  34.999  32.229  1.00  0.00    -0.014 A 
ATOM     83  C   UNL A   1      43.085  35.314  33.592  1.00  0.00     0.010 A 
ATOM     84  C   UNL A   1      43.845  35.925  31.369  1.00  0.00     0.010 A 
ATOM     85  C   UNL A   1      43.521  36.548  34.077  1.00  0.00     0.020 A 
ATOM     86  C   UNL A   1      44.308  37.149  31.858  1.00  0.00     0.020 A 
ATOM     87  C   UNL A   1      44.127  37.459  33.207  1.00  0.00     0.054 A 
BRANCH  87  88
ATOM     88  S   UNL A   1      44.711  39.044  33.867  1.00  0.00     0.124 S 
ATOM     89  O   UNL A   1      45.421  38.626  35.074  1.00  0.00    -0.237 OA
ATOM     90  O   UNL A   1      45.552  39.551  32.787  1.00  0.00    -0.237 OA
ATOM     91  O   UNL A   1      43.481  39.797  34.097  1.00  0.00    -0.744 OA
ENDBRANCH  87  88
ENDBRANCH  61  82
ENDBRANCH  35  36
ENDBRANCH  27  30
ENDBRANCH  25  26
ENDBRANCH   1  25
TORSDOF 16
ENDMDL
MODEL 2
REMARK VINA RESULT:     -10.6      4.516     11.857
REMARK SMILES Cc1cc(C(=O)NCCCNC(=O)c2ccc(-c3c4nc(c(-c5ccc(S(=O)(=O)[O-])cc5)c5ccc([nH]5)c(-c5ccc(S(=O)(=O)[O-])cc5)c5nc(c(-c6ccc(S(=O)(=O)[O-])cc6)c6ccc3[nH]6)C=C5)C=C4)cc2)cc(C)c1OC[C@H]1C[N@@H+](C)CCO1
REMARK SMILES IDX 9 1 8 2 7 3 5 4 6 5 4 7 1 8 2 9 3 10 77 11 75 12 74 13 76 14
REMARK SMILES IDX 78 15 79 16 80 17 81 18 86 19 82 20 85 21 83 22 84 23 10 25
REMARK SMILES IDX 11 26 12 27 13 29 14 30 15 31 73 32 16 33 72 34 17 35 18 36
REMARK SMILES IDX 19 37 66 38 20 39 71 40 65 41 67 42 21 43 70 44 64 45 63 46
REMARK SMILES IDX 22 48 52 49 33 50 51 51 34 52 37 53 50 54 68 55 35 56 36 57
REMARK SMILES IDX 49 59 69 60 38 61 23 62 24 63 32 64 25 65 31 66 26 67 27 68
REMARK SMILES IDX 28 69 29 70 30 71 53 72 54 73 62 74 55 75 61 76 56 77 57 78
REMARK SMILES IDX 58 79 59 80 60 81 39 82 40 83 48 84 41 85 47 86 42 87 43 88
REMARK SMILES IDX 44 89 45 90 46 91
REMARK H PARENT 7 6 82 24 11 28 67 47 37 58
REMARK Flexibility Score: inf
ROOT
ATOM      1  C   UNL A   1      32.317  27.779  26.433  1.00  0.00     0.042 C 
ENDROOT
BRANCH   1   2
ATOM      2  C   UNL A   1      32.099  27.787  24.928  1.00  0.00     0.118 C 
BRANCH   2   3
ATOM      3  N   UNL A   1      30.737  27.459  24.540  1.00  0.00    -0.352 N 
ATOM      4  C   UNL A   1      30.101  26.260  24.341  1.00  0.00     0.251 C 
ATOM      5  O   UNL A   1      28.946  26.274  23.912  1.00  0.00    -0.269 OA
ATOM      6  H   UNL A   1      30.163  28.244  24.390  1.00  0.00     0.163 HD
BRANCH   4   7
ATOM      7  C   UNL A   1      30.766  24.956  24.576  1.00  0.00     0.040 A 
ATOM      8  C   UNL A   1      32.511  22.543  22.284  1.00  0.00     0.048 C 
ATOM      9  C   UNL A   1      31.967  23.057  23.581  1.00  0.00    -0.008 A 
ATOM     10  C   UNL A   1      31.260  24.276  23.464  1.00  0.00     0.021 A 
ATOM     11  C   UNL A   1      32.140  22.487  24.854  1.00  0.00     0.125 A 
ATOM     12  C   UNL A   1      31.671  23.197  25.985  1.00  0.00    -0.008 A 
ATOM     13  C   UNL A   1      30.930  24.383  25.829  1.00  0.00     0.021 A 
ATOM     14  C   UNL A   1      32.062  22.818  27.393  1.00  0.00     0.048 C 
BRANCH  11  15
ATOM     15  O   UNL A   1      32.792  21.328  25.164  1.00  0.00    -0.490 OA
BRANCH  15  16
ATOM     16  C   UNL A   1      32.238  20.023  24.936  1.00  0.00     0.267 C 
BRANCH  16  17
ATOM     17  C   UNL A   1      33.147  18.810  25.222  1.00  0.00     0.210 C 
ATOM     18  C   UNL A   1      32.365  17.496  25.028  1.00  0.00     0.298 C 
ATOM     19  O   UNL A   1      34.253  18.772  24.279  1.00  0.00    -0.363 OA
ATOM     20  N   UNL A   1      33.205  16.396  25.524  1.00  0.00    -0.333 N 
ATOM     21  C   UNL A   1      35.119  17.652  24.560  1.00  0.00     0.222 C 
ATOM     22  C   UNL A   1      32.459  15.155  25.647  1.00  0.00     0.332 C 
ATOM     23  C   UNL A   1      34.373  16.297  24.636  1.00  0.00     0.290 C 
ATOM     24  H   UNL A   1      33.527  16.586  26.473  1.00  0.00     0.348 HD
ENDBRANCH  16  17
ENDBRANCH  15  16
ENDBRANCH  11  15
ENDBRANCH   4   7
ENDBRANCH   2   3
ENDBRANCH   1   2
BRANCH   1  25
ATOM     25  C   UNL A   1      33.636  28.386  26.885  1.00  0.00     0.118 C 
BRANCH  25  26
ATOM     26  N   UNL A   1      33.511  29.788  27.266  1.00  0.00    -0.352 N 
ATOM     27  C   UNL A   1      34.353  30.603  27.977  1.00  0.00     0.251 C 
ATOM     28  H   UNL A   1      32.683  30.223  26.961  1.00  0.00     0.163 HD
ATOM     29  O   UNL A   1      33.935  31.699  28.370  1.00  0.00    -0.269 OA
BRANCH  27  30
ATOM     30  C   UNL A   1      35.736  30.189  28.295  1.00  0.00     0.039 A 
ATOM     31  C   UNL A   1      36.719  30.265  27.304  1.00  0.00     0.014 A 
ATOM     32  C   UNL A   1      36.065  29.688  29.555  1.00  0.00     0.014 A 
ATOM     33  C   UNL A   1      38.035  29.901  27.599  1.00  0.00     0.010 A 
ATOM     34  C   UNL A   1      37.392  29.439  29.882  1.00  0.00     0.010 A 
ATOM     35  C   UNL A   1      38.391  29.518  28.902  1.00  0.00    -0.014 A 
BRANCH  35  36
ATOM     36  C   UNL A   1      39.787  29.158  29.258  1.00  0.00     0.031 A 
ATOM     37  C   UNL A   1      40.671  30.166  29.949  1.00  0.00     0.074 A 
ATOM     38  C   UNL A   1      40.283  27.957  28.900  1.00  0.00     0.049 A 
ATOM     39  N   UNL A   1      41.935  30.073  30.272  1.00  0.00    -0.248 NA
ATOM     40  C   UNL A   1      40.063  31.465  30.290  1.00  0.00     0.031 C 
ATOM     41  C   UNL A   1      39.546  26.914  28.180  1.00  0.00     0.029 A 
ATOM     42  N   UNL A   1      41.527  27.410  29.089  1.00  0.00    -0.354 N 
ATOM     43  C   UNL A   1      42.277  31.304  30.823  1.00  0.00     0.074 A 
ATOM     44  C   UNL A   1      41.107  32.147  30.737  1.00  0.00     0.031 C 
ATOM     45  C   UNL A   1      40.340  25.843  28.022  1.00  0.00     0.029 A 
ATOM     46  C   UNL A   1      41.652  26.135  28.589  1.00  0.00     0.049 A 
ATOM     47  H   UNL A   1      42.261  27.886  29.541  1.00  0.00     0.167 HD
ATOM     48  C   UNL A   1      43.451  31.691  31.376  1.00  0.00     0.031 A 
ATOM     49  C   UNL A   1      42.706  25.296  28.586  1.00  0.00     0.031 A 
ATOM     50  C   UNL A   1      44.604  30.839  31.488  1.00  0.00     0.049 A 
ATOM     51  C   UNL A   1      43.993  25.739  29.228  1.00  0.00     0.074 A 
ATOM     52  C   UNL A   1      45.821  31.110  32.087  1.00  0.00     0.029 A 
ATOM     53  N   UNL A   1      44.678  29.544  30.997  1.00  0.00    -0.354 N 
ATOM     54  N   UNL A   1      44.277  26.886  29.797  1.00  0.00    -0.248 NA
ATOM     55  C   UNL A   1      45.094  24.768  29.241  1.00  0.00     0.031 C 
ATOM     56  C   UNL A   1      46.647  29.994  31.919  1.00  0.00     0.029 A 
ATOM     57  C   UNL A   1      45.925  29.008  31.266  1.00  0.00     0.049 A 
ATOM     58  H   UNL A   1      43.951  29.076  30.526  1.00  0.00     0.167 HD
ATOM     59  C   UNL A   1      45.580  26.763  30.264  1.00  0.00     0.074 A 
ATOM     60  C   UNL A   1      46.022  25.426  29.922  1.00  0.00     0.031 C 
ATOM     61  C   UNL A   1      46.344  27.674  30.917  1.00  0.00     0.031 A 
BRANCH  48  62
ATOM     62  C   UNL A   1      43.541  33.100  31.905  1.00  0.00    -0.014 A 
ATOM     63  C   UNL A   1      43.878  34.174  31.060  1.00  0.00     0.010 A 
ATOM     64  C   UNL A   1      43.258  33.360  33.258  1.00  0.00     0.010 A 
ATOM     65  C   UNL A   1      43.980  35.471  31.567  1.00  0.00     0.020 A 
ATOM     66  C   UNL A   1      43.328  34.663  33.762  1.00  0.00     0.020 A 
ATOM     67  C   UNL A   1      43.707  35.707  32.917  1.00  0.00     0.054 A 
BRANCH  67  68
ATOM     68  S   UNL A   1      43.825  37.406  33.544  1.00  0.00     0.124 S 
ATOM     69  O   UNL A   1      44.923  37.296  34.502  1.00  0.00    -0.237 OA
ATOM     70  O   UNL A   1      44.120  38.173  32.337  1.00  0.00    -0.237 OA
ATOM     71  O   UNL A   1      42.510  37.652  34.130  1.00  0.00    -0.744 OA
ENDBRANCH  67  68
ENDBRANCH  48  62
BRANCH  49  72
ATOM     72  C   UNL A   1      42.576  23.941  27.982  1.00  0.00    -0.014 A 
ATOM     73  C   UNL A   1      42.292  22.825  28.791  1.00  0.00     0.010 A 
ATOM     74  C   UNL A   1      42.718  23.760  26.595  1.00  0.00     0.010 A 
ATOM     75  C   UNL A   1      42.173  21.552  28.227  1.00  0.00     0.020 A 
ATOM     76  C   UNL A   1      42.572  22.493  26.023  1.00  0.00     0.020 A 
ATOM     77  C   UNL A   1      42.312  21.394  26.845  1.00  0.00     0.054 A 
BRANCH  77  78
ATOM     78  S   UNL A   1      42.103  19.740  26.128  1.00  0.00     0.124 S 
ATOM     79  O   UNL A   1      42.407  18.876  27.264  1.00  0.00    -0.237 OA
ATOM     80  O   UNL A   1      40.706  19.757  25.699  1.00  0.00    -0.237 OA
ATOM     81  O   UNL A   1      43.079  19.714  25.041  1.00  0.00    -0.744 OA
ENDBRANCH  77  78
ENDBRANCH  49  72
BRANCH  61  82
ATOM     82  C   UNL A   1      47.722  27.240  31.341  1.00  0.00    -0.014 A 
ATOM     83  C   UNL A   1      48.843  27.461  30.523  1.00  0.00     0.010 A 
ATOM     84  C   UNL A   1      47.899  26.639  32.602  1.00  0.00     0.010 A 
ATOM     85  C   UNL A   1      50.111  27.052  30.941  1.00  0.00     0.020 A 
ATOM     86  C   UNL A   1      49.169  26.255  33.035  1.00  0.00     0.020 A 
ATOM     87  C   UNL A   1      50.266  26.449  32.193  1.00  0.00     0.054 A 
BRANCH  87  88
ATOM     88  S   UNL A   1      51.927  25.953  32.725  1.00  0.00     0.124 S 
ATOM     89  O   UNL A   1      51.717  25.661  34.141  1.00  0.00    -0.237 OA
ATOM     90  O   UNL A   1      52.202  24.794  31.879  1.00  0.00    -0.237 OA
ATOM     91  O   UNL A   1      52.746  27.129  32.446  1.00  0.00    -0.744 OA
ENDBRANCH  87  88
ENDBRANCH  61  82
ENDBRANCH  35  36
ENDBRANCH  27  30
ENDBRANCH  25  26
ENDBRANCH   1  25
TORSDOF 16
ENDMDL
MODEL 3
REMARK VINA RESULT:     -10.6      4.038     11.230
REMARK SMILES Cc1cc(C(=O)NCCCNC(=O)c2ccc(-c3c4nc(c(-c5ccc(S(=O)(=O)[O-])cc5)c5ccc([nH]5)c(-c5ccc(S(=O)(=O)[O-])cc5)c5nc(c(-c6ccc(S(=O)(=O)[O-])cc6)c6ccc3[nH]6)C=C5)C=C4)cc2)cc(C)c1OC[C@H]1C[N@@H+](C)CCO1
REMARK SMILES IDX 9 1 8 2 7 3 5 4 6 5 4 7 1 8 2 9 3 10 77 11 75 12 74 13 76 14
REMARK SMILES IDX 78 15 79 16 80 17 81 18 86 19 82 20 85 21 83 22 84 23 10 25
REMARK SMILES IDX 11 26 12 27 13 29 14 30 15 31 73 32 16 33 72 34 17 35 18 36
REMARK SMILES IDX 19 37 66 38 20 39 71 40 65 41 67 42 21 43 70 44 64 45 63 46
REMARK SMILES IDX 22 48 52 49 33 50 51 51 34 52 37 53 50 54 68 55 35 56 36 57
REMARK SMILES IDX 49 59 69 60 38 61 23 62 24 63 32 64 25 65 31 66 26 67 27 68
REMARK SMILES IDX 28 69 29 70 30 71 53 72 54 73 62 74 55 75 61 76 56 77 57 78
REMARK SMILES IDX 58 79 59 80 60 81 39 82 40 83 48 84 41 85 47 86 42 87 43 88
REMARK SMILES IDX 44 89 45 90 46 91
REMARK H PARENT 7 6 82 24 11 28 67 47 37 58
REMARK Flexibility Score: inf
ROOT
ATOM      1  C   UNL A   1      33.176  27.818  25.620  1.00  0.00     0.042 C 
ENDROOT
BRANCH   1   2
ATOM      2  C   UNL A   1      31.680  27.794  25.889  1.00  0.00     0.118 C 
BRANCH   2   3
ATOM      3  N   UNL A   1      30.874  27.778  24.678  1.00  0.00    -0.352 N 
ATOM      4  C   UNL A   1      30.640  26.803  23.743  1.00  0.00     0.251 C 
ATOM      5  O   UNL A   1      29.980  27.096  22.745  1.00  0.00    -0.269 OA
ATOM      6  H   UNL A   1      30.411  28.627  24.495  1.00  0.00     0.163 HD
BRANCH   4   7
ATOM      7  C   UNL A   1      31.190  25.432  23.866  1.00  0.00     0.040 A 
ATOM      8  C   UNL A   1      30.452  22.600  26.223  1.00  0.00     0.048 C 
ATOM      9  C   UNL A   1      31.141  23.305  25.097  1.00  0.00    -0.008 A 
ATOM     10  C   UNL A   1      30.732  24.647  24.924  1.00  0.00     0.021 A 
ATOM     11  C   UNL A   1      32.075  22.755  24.202  1.00  0.00     0.125 A 
ATOM     12  C   UNL A   1      32.511  23.541  23.108  1.00  0.00    -0.008 A 
ATOM     13  C   UNL A   1      32.121  24.887  22.992  1.00  0.00     0.021 A 
ATOM     14  C   UNL A   1      33.273  22.951  21.946  1.00  0.00     0.048 C 
BRANCH  11  15
ATOM     15  O   UNL A   1      32.583  21.487  24.205  1.00  0.00    -0.490 OA
BRANCH  15  16
ATOM     16  C   UNL A   1      33.564  21.030  25.148  1.00  0.00     0.267 C 
BRANCH  16  17
ATOM     17  C   UNL A   1      35.039  21.375  24.857  1.00  0.00     0.210 C 
ATOM     18  C   UNL A   1      35.562  22.400  25.882  1.00  0.00     0.298 C 
ATOM     19  O   UNL A   1      35.873  20.193  24.997  1.00  0.00    -0.363 OA
ATOM     20  N   UNL A   1      36.884  22.855  25.427  1.00  0.00    -0.333 N 
ATOM     21  C   UNL A   1      37.250  20.508  24.701  1.00  0.00     0.222 C 
ATOM     22  C   UNL A   1      37.342  24.021  26.165  1.00  0.00     0.332 C 
ATOM     23  C   UNL A   1      37.799  21.706  25.513  1.00  0.00     0.290 C 
ATOM     24  H   UNL A   1      36.845  23.175  24.459  1.00  0.00     0.348 HD
ENDBRANCH  16  17
ENDBRANCH  15  16
ENDBRANCH  11  15
ENDBRANCH   4   7
ENDBRANCH   2   3
ENDBRANCH   1   2
BRANCH   1  25
ATOM     25  C   UNL A   1      34.028  28.228  26.810  1.00  0.00     0.118 C 
BRANCH  25  26
ATOM     26  N   UNL A   1      33.815  29.615  27.207  1.00  0.00    -0.352 N 
ATOM     27  C   UNL A   1      34.591  30.466  27.949  1.00  0.00     0.251 C 
ATOM     28  H   UNL A   1      32.970  30.007  26.887  1.00  0.00     0.163 HD
ATOM     29  O   UNL A   1      34.102  31.531  28.346  1.00  0.00    -0.269 OA
BRANCH  27  30
ATOM     30  C   UNL A   1      35.987  30.127  28.295  1.00  0.00     0.039 A 
ATOM     31  C   UNL A   1      36.281  29.667  29.583  1.00  0.00     0.014 A 
ATOM     32  C   UNL A   1      37.019  30.296  27.371  1.00  0.00     0.014 A 
ATOM     33  C   UNL A   1      37.593  29.319  29.915  1.00  0.00     0.010 A 
ATOM     34  C   UNL A   1      38.299  29.839  27.663  1.00  0.00     0.010 A 
ATOM     35  C   UNL A   1      38.609  29.368  28.947  1.00  0.00    -0.014 A 
BRANCH  35  36
ATOM     36  C   UNL A   1      40.006  28.973  29.257  1.00  0.00     0.031 A 
ATOM     37  C   UNL A   1      40.937  29.958  29.918  1.00  0.00     0.074 A 
ATOM     38  C   UNL A   1      40.459  27.760  28.883  1.00  0.00     0.049 A 
ATOM     39  N   UNL A   1      42.208  29.833  30.200  1.00  0.00    -0.248 NA
ATOM     40  C   UNL A   1      40.373  31.272  30.278  1.00  0.00     0.031 C 
ATOM     41  C   UNL A   1      39.673  26.736  28.188  1.00  0.00     0.029 A 
ATOM     42  N   UNL A   1      41.695  27.182  29.031  1.00  0.00    -0.354 N 
ATOM     43  C   UNL A   1      42.599  31.055  30.738  1.00  0.00     0.074 A 
ATOM     44  C   UNL A   1      41.447  31.927  30.690  1.00  0.00     0.031 C 
ATOM     45  C   UNL A   1      40.434  25.645  28.004  1.00  0.00     0.029 A 
ATOM     46  C   UNL A   1      41.772  25.905  28.527  1.00  0.00     0.049 A 
ATOM     47  H   UNL A   1      42.455  27.639  29.458  1.00  0.00     0.167 HD
ATOM     48  C   UNL A   1      43.800  31.412  31.252  1.00  0.00     0.031 A 
ATOM     49  C   UNL A   1      42.803  25.040  28.490  1.00  0.00     0.031 A 
ATOM     50  C   UNL A   1      44.934  30.532  31.326  1.00  0.00     0.049 A 
ATOM     51  C   UNL A   1      44.121  25.449  29.088  1.00  0.00     0.074 A 
ATOM     52  C   UNL A   1      46.176  30.771  31.884  1.00  0.00     0.029 A 
ATOM     53  N   UNL A   1      44.959  29.235  30.833  1.00  0.00    -0.354 N 
ATOM     54  N   UNL A   1      44.453  26.589  29.648  1.00  0.00    -0.248 NA
ATOM     55  C   UNL A   1      45.198  24.451  29.066  1.00  0.00     0.031 C 
ATOM     56  C   UNL A   1      46.969  29.636  31.690  1.00  0.00     0.029 A 
ATOM     57  C   UNL A   1      46.201  28.668  31.061  1.00  0.00     0.049 A 
ATOM     58  H   UNL A   1      44.206  28.786  30.387  1.00  0.00     0.167 HD
ATOM     59  C   UNL A   1      45.767  26.433  30.072  1.00  0.00     0.074 A 
ATOM     60  C   UNL A   1      46.164  25.085  29.716  1.00  0.00     0.031 C 
ATOM     61  C   UNL A   1      46.575  27.324  30.699  1.00  0.00     0.031 A 
BRANCH  48  62
ATOM     62  C   UNL A   1      43.942  32.818  31.778  1.00  0.00    -0.014 A 
ATOM     63  C   UNL A   1      44.184  33.898  30.908  1.00  0.00     0.010 A 
ATOM     64  C   UNL A   1      43.805  33.069  33.154  1.00  0.00     0.010 A 
ATOM     65  C   UNL A   1      44.336  35.193  31.410  1.00  0.00     0.020 A 
ATOM     66  C   UNL A   1      43.925  34.369  33.657  1.00  0.00     0.020 A 
ATOM     67  C   UNL A   1      44.209  35.420  32.783  1.00  0.00     0.054 A 
BRANCH  67  68
ATOM     68  S   UNL A   1      44.390  37.115  33.405  1.00  0.00     0.124 S 
ATOM     69  O   UNL A   1      43.002  37.486  33.669  1.00  0.00    -0.237 OA
ATOM     70  O   UNL A   1      45.228  36.935  34.586  1.00  0.00    -0.237 OA
ATOM     71  O   UNL A   1      45.023  37.825  32.296  1.00  0.00    -0.744 OA
ENDBRANCH  67  68
ENDBRANCH  48  62
BRANCH  49  72
ATOM     72  C   UNL A   1      42.620  23.688  27.891  1.00  0.00    -0.014 A 
ATOM     73  C   UNL A   1      42.229  22.601  28.693  1.00  0.00     0.010 A 
ATOM     74  C   UNL A   1      42.817  23.484  26.513  1.00  0.00     0.010 A 
ATOM     75  C   UNL A   1      42.060  21.331  28.134  1.00  0.00     0.020 A 
ATOM     76  C   UNL A   1      42.621  22.222  25.945  1.00  0.00     0.020 A 
ATOM     77  C   UNL A   1      42.255  21.151  26.762  1.00  0.00     0.054 A 
BRANCH  77  78
ATOM     78  S   UNL A   1      41.980  19.505  26.048  1.00  0.00     0.124 S 
ATOM     79  O   UNL A   1      42.480  18.629  27.102  1.00  0.00    -0.237 OA
ATOM     80  O   UNL A   1      40.533  19.488  25.843  1.00  0.00    -0.237 OA
ATOM     81  O   UNL A   1      42.774  19.527  24.822  1.00  0.00    -0.744 OA
ENDBRANCH  77  78
ENDBRANCH  49  72
BRANCH  61  82
ATOM     82  C   UNL A   1      47.954  26.856  31.078  1.00  0.00    -0.014 A 
ATOM     83  C   UNL A   1      48.199  26.216  32.305  1.00  0.00     0.010 A 
ATOM     84  C   UNL A   1      49.014  27.022  30.166  1.00  0.00     0.010 A 
ATOM     85  C   UNL A   1      49.488  25.787  32.631  1.00  0.00     0.020 A 
ATOM     86  C   UNL A   1      50.297  26.568  30.477  1.00  0.00     0.020 A 
ATOM     87  C   UNL A   1      50.529  25.969  31.716  1.00  0.00     0.054 A 
BRANCH  87  88
ATOM     88  S   UNL A   1      52.187  25.378  32.151  1.00  0.00     0.124 S 
ATOM     89  O   UNL A   1      52.454  26.105  33.390  1.00  0.00    -0.237 OA
ATOM     90  O   UNL A   1      51.987  23.939  32.298  1.00  0.00    -0.237 OA
ATOM     91  O   UNL A   1      53.007  25.773  31.008  1.00  0.00    -0.744 OA
ENDBRANCH  87  88
ENDBRANCH  61  82
ENDBRANCH  35  36
ENDBRANCH  27  30
ENDBRANCH  25  26
ENDBRANCH   1  25
TORSDOF 16
ENDMDL
