MODEL 1
REMARK VINA RESULT:     -10.0      0.000      0.000
REMARK SMILES N#CCCNC(=O)COc1ccc(C(=O)NCCCNC(=O)c2ccc(-c3c4nc(c(-c5ccc(S(=O)(=O)[O-])cc5)c5ccc([nH]5)c(-c5ccc(S(=O)(=O)[O-])cc5)c5nc(c(-c6ccc(S(=O)(=O)[O-])cc6)c6ccc3[nH]6)C=C5)C=C4)cc2)nc1
REMARK SMILES IDX 14 1 15 2 16 3 13 5 10 6 11 7 84 8 12 9 83 10 9 11 8 12 6 13
REMARK SMILES IDX 5 14 7 16 4 17 3 18 2 19 1 20 17 21 18 22 19 23 20 24 21 25
REMARK SMILES IDX 22 27 23 28 24 29 82 30 25 31 81 32 26 33 27 34 28 35 75 36
REMARK SMILES IDX 29 37 80 38 74 39 76 40 30 41 79 42 73 43 72 44 31 46 61 47
REMARK SMILES IDX 42 48 60 49 43 50 46 51 59 52 77 53 44 54 45 55 58 57 78 58
REMARK SMILES IDX 47 59 32 60 33 61 41 62 34 63 40 64 35 65 36 66 37 67 38 68
REMARK SMILES IDX 39 69 62 70 63 71 71 72 64 73 70 74 65 75 66 76 67 77 68 78
REMARK SMILES IDX 69 79 48 80 49 81 57 82 50 83 56 84 51 85 52 86 53 87 54 88
REMARK SMILES IDX 55 89
REMARK H PARENT 16 4 5 15 20 26 76 45 46 56
REMARK Flexibility Score: inf
ROOT
ATOM      1  C   UNL A   1      34.331  19.954  25.072  1.00  0.00     0.269 C 
ATOM      2  O   UNL A   1      33.640  19.031  24.636  1.00  0.00    -0.268 OA
ATOM      3  N   UNL A   1      35.694  19.824  24.911  1.00  0.00    -0.351 N 
ATOM      4  H   UNL A   1      35.964  18.960  24.523  1.00  0.00     0.163 HD
ENDROOT
BRANCH   1   5
ATOM      5  C   UNL A   1      33.672  21.139  25.729  1.00  0.00     0.128 A 
ATOM      6  C   UNL A   1      32.299  23.306  26.781  1.00  0.00     0.138 A 
ATOM      7  C   UNL A   1      33.070  22.507  27.611  1.00  0.00     0.050 A 
ATOM      8  C   UNL A   1      32.257  22.963  25.438  1.00  0.00     0.158 A 
ATOM      9  C   UNL A   1      33.726  21.395  27.090  1.00  0.00     0.038 A 
ATOM     10  N   UNL A   1      32.938  21.926  24.895  1.00  0.00    -0.247 NA
BRANCH   6  11
ATOM     11  O   UNL A   1      31.469  24.293  27.220  1.00  0.00    -0.482 OA
BRANCH  11  12
ATOM     12  C   UNL A   1      31.194  25.332  26.294  1.00  0.00     0.329 C 
BRANCH  12  13
ATOM     13  C   UNL A   1      31.722  26.752  26.537  1.00  0.00     0.257 C 
ATOM     14  N   UNL A   1      32.731  27.263  25.772  1.00  0.00    -0.352 N 
ATOM     15  H   UNL A   1      32.973  28.197  25.967  1.00  0.00     0.163 HD
ATOM     16  O   UNL A   1      31.247  27.458  27.429  1.00  0.00    -0.271 OA
BRANCH  14  17
ATOM     17  C   UNL A   1      33.505  26.631  24.710  1.00  0.00     0.131 C 
BRANCH  17  18
ATOM     18  C   UNL A   1      33.640  27.487  23.447  1.00  0.00     0.141 C 
BRANCH  18  19
ATOM     19  C   UNL A   1      33.448  26.641  22.199  1.00  0.00     0.064 C 
ATOM     20  N   UNL A   1      33.288  25.939  21.164  1.00  0.00    -0.198 NA
ENDBRANCH  18  19
ENDBRANCH  17  18
ENDBRANCH  14  17
ENDBRANCH  12  13
ENDBRANCH  11  12
ENDBRANCH   6  11
ENDBRANCH   1   5
BRANCH   3  21
ATOM     21  C   UNL A   1      36.810  20.707  25.199  1.00  0.00     0.118 C 
BRANCH  21  22
ATOM     22  C   UNL A   1      38.152  20.024  24.931  1.00  0.00     0.042 C 
BRANCH  22  23
ATOM     23  C   UNL A   1      39.256  20.463  25.888  1.00  0.00     0.118 C 
BRANCH  23  24
ATOM     24  N   UNL A   1      40.293  19.449  26.010  1.00  0.00    -0.352 N 
ATOM     25  C   UNL A   1      41.653  19.582  26.114  1.00  0.00     0.251 C 
ATOM     26  H   UNL A   1      39.966  18.521  26.019  1.00  0.00     0.163 HD
ATOM     27  O   UNL A   1      42.360  18.590  25.958  1.00  0.00    -0.269 OA
BRANCH  25  28
ATOM     28  C   UNL A   1      42.271  20.894  26.409  1.00  0.00     0.039 A 
ATOM     29  C   UNL A   1      42.358  21.310  27.742  1.00  0.00     0.014 A 
ATOM     30  C   UNL A   1      42.699  21.744  25.386  1.00  0.00     0.014 A 
ATOM     31  C   UNL A   1      42.896  22.561  28.048  1.00  0.00     0.010 A 
ATOM     32  C   UNL A   1      43.305  22.959  25.697  1.00  0.00     0.010 A 
ATOM     33  C   UNL A   1      43.389  23.390  27.028  1.00  0.00    -0.014 A 
BRANCH  33  34
ATOM     34  C   UNL A   1      43.964  24.723  27.331  1.00  0.00     0.031 A 
ATOM     35  C   UNL A   1      43.067  25.853  27.760  1.00  0.00     0.074 A 
ATOM     36  C   UNL A   1      45.284  24.934  27.165  1.00  0.00     0.049 A 
ATOM     37  N   UNL A   1      43.370  27.101  28.010  1.00  0.00    -0.248 NA
ATOM     38  C   UNL A   1      41.633  25.545  27.896  1.00  0.00     0.031 C 
ATOM     39  C   UNL A   1      46.250  23.932  26.710  1.00  0.00     0.029 A 
ATOM     40  N   UNL A   1      46.039  26.064  27.349  1.00  0.00    -0.354 N 
ATOM     41  C   UNL A   1      42.166  27.730  28.312  1.00  0.00     0.074 A 
ATOM     42  C   UNL A   1      41.124  26.739  28.159  1.00  0.00     0.031 C 
ATOM     43  C   UNL A   1      47.471  24.487  26.667  1.00  0.00     0.029 A 
ATOM     44  C   UNL A   1      47.371  25.890  27.056  1.00  0.00     0.049 A 
ATOM     45  H   UNL A   1      45.662  26.919  27.661  1.00  0.00     0.167 HD
ATOM     46  C   UNL A   1      41.950  29.009  28.703  1.00  0.00     0.031 A 
ATOM     47  C   UNL A   1      48.396  26.763  27.092  1.00  0.00     0.031 A 
ATOM     48  C   UNL A   1      42.993  29.989  28.857  1.00  0.00     0.049 A 
ATOM     49  C   UNL A   1      48.140  28.173  27.543  1.00  0.00     0.074 A 
ATOM     50  C   UNL A   1      42.889  31.300  29.287  1.00  0.00     0.029 A 
ATOM     51  N   UNL A   1      44.335  29.763  28.585  1.00  0.00    -0.354 N 
ATOM     52  N   UNL A   1      47.003  28.736  27.880  1.00  0.00    -0.248 NA
ATOM     53  C   UNL A   1      49.307  29.061  27.638  1.00  0.00     0.031 C 
ATOM     54  C   UNL A   1      44.162  31.879  29.235  1.00  0.00     0.029 A 
ATOM     55  C   UNL A   1      45.067  30.912  28.825  1.00  0.00     0.049 A 
ATOM     56  H   UNL A   1      44.709  28.910  28.267  1.00  0.00     0.167 HD
ATOM     57  C   UNL A   1      47.321  30.039  28.250  1.00  0.00     0.074 A 
ATOM     58  C   UNL A   1      48.757  30.174  28.108  1.00  0.00     0.031 C 
ATOM     59  C   UNL A   1      46.497  31.031  28.672  1.00  0.00     0.031 A 
BRANCH  46  60
ATOM     60  C   UNL A   1      40.523  29.411  28.978  1.00  0.00    -0.014 A 
ATOM     61  C   UNL A   1      40.057  29.584  30.295  1.00  0.00     0.010 A 
ATOM     62  C   UNL A   1      39.631  29.610  27.908  1.00  0.00     0.010 A 
ATOM     63  C   UNL A   1      38.713  29.880  30.539  1.00  0.00     0.020 A 
ATOM     64  C   UNL A   1      38.292  29.938  28.148  1.00  0.00     0.020 A 
ATOM     65  C   UNL A   1      37.836  30.043  29.463  1.00  0.00     0.054 A 
BRANCH  65  66
ATOM     66  S   UNL A   1      36.092  30.405  29.809  1.00  0.00     0.124 S 
ATOM     67  O   UNL A   1      35.423  29.748  28.689  1.00  0.00    -0.237 OA
ATOM     68  O   UNL A   1      35.887  29.783  31.114  1.00  0.00    -0.237 OA
ATOM     69  O   UNL A   1      36.032  31.864  29.801  1.00  0.00    -0.744 OA
ENDBRANCH  65  66
ENDBRANCH  46  60
BRANCH  47  70
ATOM     70  C   UNL A   1      49.759  26.303  26.713  1.00  0.00    -0.014 A 
ATOM     71  C   UNL A   1      50.189  26.366  25.376  1.00  0.00     0.010 A 
ATOM     72  C   UNL A   1      50.656  25.853  27.700  1.00  0.00     0.010 A 
ATOM     73  C   UNL A   1      51.490  25.986  25.033  1.00  0.00     0.020 A 
ATOM     74  C   UNL A   1      51.966  25.496  27.364  1.00  0.00     0.020 A 
ATOM     75  C   UNL A   1      52.373  25.560  26.030  1.00  0.00     0.054 A 
BRANCH  75  76
ATOM     76  S   UNL A   1      54.079  25.150  25.570  1.00  0.00     0.124 S 
ATOM     77  O   UNL A   1      54.510  26.363  24.884  1.00  0.00    -0.237 OA
ATOM     78  O   UNL A   1      54.704  24.900  26.867  1.00  0.00    -0.237 OA
ATOM     79  O   UNL A   1      53.931  23.969  24.721  1.00  0.00    -0.744 OA
ENDBRANCH  75  76
ENDBRANCH  47  70
BRANCH  59  80
ATOM     80  C   UNL A   1      47.134  32.344  29.043  1.00  0.00    -0.014 A 
ATOM     81  C   UNL A   1      47.626  32.577  30.339  1.00  0.00     0.010 A 
ATOM     82  C   UNL A   1      47.287  33.339  28.061  1.00  0.00     0.010 A 
ATOM     83  C   UNL A   1      48.229  33.797  30.655  1.00  0.00     0.020 A 
ATOM     84  C   UNL A   1      47.915  34.549  28.366  1.00  0.00     0.020 A 
ATOM     85  C   UNL A   1      48.369  34.776  29.667  1.00  0.00     0.054 A 
BRANCH  85  86
ATOM     86  S   UNL A   1      49.189  36.337  30.091  1.00  0.00     0.124 S 
ATOM     87  O   UNL A   1      49.711  36.769  28.798  1.00  0.00    -0.237 OA
ATOM     88  O   UNL A   1      48.092  37.141  30.627  1.00  0.00    -0.237 OA
ATOM     89  O   UNL A   1      50.199  35.942  31.072  1.00  0.00    -0.744 OA
ENDBRANCH  85  86
ENDBRANCH  59  80
ENDBRANCH  33  34
ENDBRANCH  25  28
ENDBRANCH  23  24
ENDBRANCH  22  23
ENDBRANCH  21  22
ENDBRANCH   3  21
TORSDOF 19
ENDMDL
MODEL 2
REMARK VINA RESULT:     -10.0      6.288     11.014
REMARK SMILES N#CCCNC(=O)COc1ccc(C(=O)NCCCNC(=O)c2ccc(-c3c4nc(c(-c5ccc(S(=O)(=O)[O-])cc5)c5ccc([nH]5)c(-c5ccc(S(=O)(=O)[O-])cc5)c5nc(c(-c6ccc(S(=O)(=O)[O-])cc6)c6ccc3[nH]6)C=C5)C=C4)cc2)nc1
REMARK SMILES IDX 14 1 15 2 16 3 13 5 10 6 11 7 84 8 12 9 83 10 9 11 8 12 6 13
REMARK SMILES IDX 5 14 7 16 4 17 3 18 2 19 1 20 17 21 18 22 19 23 20 24 21 25
REMARK SMILES IDX 22 27 23 28 24 29 82 30 25 31 81 32 26 33 27 34 28 35 75 36
REMARK SMILES IDX 29 37 80 38 74 39 76 40 30 41 79 42 73 43 72 44 31 46 61 47
REMARK SMILES IDX 42 48 60 49 43 50 46 51 59 52 77 53 44 54 45 55 58 57 78 58
REMARK SMILES IDX 47 59 32 60 33 61 41 62 34 63 40 64 35 65 36 66 37 67 38 68
REMARK SMILES IDX 39 69 62 70 63 71 71 72 64 73 70 74 65 75 66 76 67 77 68 78
REMARK SMILES IDX 69 79 48 80 49 81 57 82 50 83 56 84 51 85 52 86 53 87 54 88
REMARK SMILES IDX 55 89
REMARK H PARENT 16 4 5 15 20 26 76 45 46 56
REMARK Flexibility Score: inf
ROOT
ATOM      1  C   UNL A   1      36.431  23.028  23.700  1.00  0.00     0.269 C 
ATOM      2  O   UNL A   1      36.649  23.019  22.487  1.00  0.00    -0.268 OA
ATOM      3  N   UNL A   1      37.408  22.474  24.500  1.00  0.00    -0.351 N 
ATOM      4  H   UNL A   1      38.146  22.064  23.993  1.00  0.00     0.163 HD
ENDROOT
BRANCH   1   5
ATOM      5  C   UNL A   1      35.155  23.631  24.228  1.00  0.00     0.128 A 
ATOM      6  C   UNL A   1      32.707  24.546  25.153  1.00  0.00     0.138 A 
ATOM      7  C   UNL A   1      33.880  25.062  25.678  1.00  0.00     0.050 A 
ATOM      8  C   UNL A   1      32.829  23.575  24.171  1.00  0.00     0.158 A 
ATOM      9  C   UNL A   1      35.110  24.573  25.243  1.00  0.00     0.038 A 
ATOM     10  N   UNL A   1      34.012  23.130  23.683  1.00  0.00    -0.247 NA
BRANCH   6  11
ATOM     11  O   UNL A   1      31.464  24.813  25.642  1.00  0.00    -0.482 OA
BRANCH  11  12
ATOM     12  C   UNL A   1      31.016  26.152  25.505  1.00  0.00     0.329 C 
BRANCH  12  13
ATOM     13  C   UNL A   1      30.628  26.707  24.127  1.00  0.00     0.257 C 
ATOM     14  N   UNL A   1      31.384  27.670  23.524  1.00  0.00    -0.352 N 
ATOM     15  H   UNL A   1      31.088  27.932  22.623  1.00  0.00     0.163 HD
ATOM     16  O   UNL A   1      29.625  26.294  23.541  1.00  0.00    -0.271 OA
BRANCH  14  17
ATOM     17  C   UNL A   1      32.564  28.370  24.016  1.00  0.00     0.131 C 
BRANCH  17  18
ATOM     18  C   UNL A   1      33.870  27.933  23.345  1.00  0.00     0.141 C 
BRANCH  18  19
ATOM     19  C   UNL A   1      33.606  26.869  22.293  1.00  0.00     0.064 C 
ATOM     20  N   UNL A   1      33.387  25.986  21.419  1.00  0.00    -0.198 NA
ENDBRANCH  18  19
ENDBRANCH  17  18
ENDBRANCH  14  17
ENDBRANCH  12  13
ENDBRANCH  11  12
ENDBRANCH   6  11
ENDBRANCH   1   5
BRANCH   3  21
ATOM     21  C   UNL A   1      37.564  22.374  25.940  1.00  0.00     0.118 C 
BRANCH  21  22
ATOM     22  C   UNL A   1      38.990  22.717  26.376  1.00  0.00     0.042 C 
BRANCH  22  23
ATOM     23  C   UNL A   1      39.231  24.214  26.534  1.00  0.00     0.118 C 
BRANCH  23  24
ATOM     24  N   UNL A   1      40.384  24.654  25.763  1.00  0.00    -0.352 N 
ATOM     25  C   UNL A   1      41.145  25.788  25.878  1.00  0.00     0.251 C 
ATOM     26  H   UNL A   1      40.660  24.041  25.045  1.00  0.00     0.163 HD
ATOM     27  O   UNL A   1      41.918  26.080  24.969  1.00  0.00    -0.269 OA
BRANCH  25  28
ATOM     28  C   UNL A   1      41.049  26.655  27.074  1.00  0.00     0.039 A 
ATOM     29  C   UNL A   1      40.193  26.273  28.112  1.00  0.00     0.014 A 
ATOM     30  C   UNL A   1      41.735  27.870  27.150  1.00  0.00     0.014 A 
ATOM     31  C   UNL A   1      40.048  27.092  29.233  1.00  0.00     0.010 A 
ATOM     32  C   UNL A   1      41.648  28.649  28.301  1.00  0.00     0.010 A 
ATOM     33  C   UNL A   1      40.786  28.281  29.343  1.00  0.00    -0.014 A 
BRANCH  33  34
ATOM     34  C   UNL A   1      40.647  29.166  30.525  1.00  0.00     0.031 A 
ATOM     35  C   UNL A   1      41.511  28.948  31.738  1.00  0.00     0.074 A 
ATOM     36  C   UNL A   1      39.703  30.127  30.532  1.00  0.00     0.049 A 
ATOM     37  N   UNL A   1      41.497  29.574  32.887  1.00  0.00    -0.248 NA
ATOM     38  C   UNL A   1      42.502  27.862  31.659  1.00  0.00     0.031 C 
ATOM     39  C   UNL A   1      38.774  30.407  29.436  1.00  0.00     0.029 A 
ATOM     40  N   UNL A   1      39.364  31.041  31.497  1.00  0.00    -0.354 N 
ATOM     41  C   UNL A   1      42.460  28.947  33.672  1.00  0.00     0.074 A 
ATOM     42  C   UNL A   1      42.997  27.857  32.888  1.00  0.00     0.031 C 
ATOM     43  C   UNL A   1      37.981  31.433  29.783  1.00  0.00     0.029 A 
ATOM     44  C   UNL A   1      38.321  31.861  31.136  1.00  0.00     0.049 A 
ATOM     45  H   UNL A   1      39.823  31.102  32.366  1.00  0.00     0.167 HD
ATOM     46  C   UNL A   1      42.875  29.262  34.923  1.00  0.00     0.031 A 
ATOM     47  C   UNL A   1      37.704  32.844  31.819  1.00  0.00     0.031 A 
ATOM     48  C   UNL A   1      42.339  30.351  35.696  1.00  0.00     0.049 A 
ATOM     49  C   UNL A   1      38.188  33.190  33.199  1.00  0.00     0.074 A 
ATOM     50  C   UNL A   1      42.715  30.784  36.955  1.00  0.00     0.029 A 
ATOM     51  N   UNL A   1      41.307  31.181  35.280  1.00  0.00    -0.354 N 
ATOM     52  N   UNL A   1      39.139  32.622  33.905  1.00  0.00    -0.248 NA
ATOM     53  C   UNL A   1      37.531  34.321  33.868  1.00  0.00     0.031 C 
ATOM     54  C   UNL A   1      41.883  31.849  37.318  1.00  0.00     0.029 A 
ATOM     55  C   UNL A   1      41.026  32.115  36.262  1.00  0.00     0.049 A 
ATOM     56  H   UNL A   1      40.844  31.115  34.414  1.00  0.00     0.167 HD
ATOM     57  C   UNL A   1      39.210  33.343  35.092  1.00  0.00     0.074 A 
ATOM     58  C   UNL A   1      38.217  34.394  35.002  1.00  0.00     0.031 C 
ATOM     59  C   UNL A   1      40.028  33.152  36.158  1.00  0.00     0.031 A 
BRANCH  46  60
ATOM     60  C   UNL A   1      43.957  28.402  35.525  1.00  0.00    -0.014 A 
ATOM     61  C   UNL A   1      43.640  27.263  36.289  1.00  0.00     0.010 A 
ATOM     62  C   UNL A   1      45.309  28.739  35.333  1.00  0.00     0.010 A 
ATOM     63  C   UNL A   1      44.649  26.519  36.907  1.00  0.00     0.020 A 
ATOM     64  C   UNL A   1      46.324  27.977  35.923  1.00  0.00     0.020 A 
ATOM     65  C   UNL A   1      45.985  26.889  36.728  1.00  0.00     0.054 A 
BRANCH  65  66
ATOM     66  S   UNL A   1      47.275  25.919  37.559  1.00  0.00     0.124 S 
ATOM     67  O   UNL A   1      47.033  24.581  37.027  1.00  0.00    -0.237 OA
ATOM     68  O   UNL A   1      48.504  26.562  37.104  1.00  0.00    -0.237 OA
ATOM     69  O   UNL A   1      46.976  26.089  38.978  1.00  0.00    -0.744 OA
ENDBRANCH  65  66
ENDBRANCH  46  60
BRANCH  47  70
ATOM     70  C   UNL A   1      36.580  33.581  31.182  1.00  0.00    -0.014 A 
ATOM     71  C   UNL A   1      36.680  34.024  29.852  1.00  0.00     0.010 A 
ATOM     72  C   UNL A   1      35.379  33.790  31.885  1.00  0.00     0.010 A 
ATOM     73  C   UNL A   1      35.600  34.666  29.237  1.00  0.00     0.020 A 
ATOM     74  C   UNL A   1      34.289  34.409  31.265  1.00  0.00     0.020 A 
ATOM     75  C   UNL A   1      34.409  34.849  29.945  1.00  0.00     0.054 A 
BRANCH  75  76
ATOM     76  S   UNL A   1      32.997  35.612  29.099  1.00  0.00     0.124 S 
ATOM     77  O   UNL A   1      33.634  36.700  28.365  1.00  0.00    -0.237 OA
ATOM     78  O   UNL A   1      32.487  34.512  28.283  1.00  0.00    -0.237 OA
ATOM     79  O   UNL A   1      32.122  36.023  30.195  1.00  0.00    -0.744 OA
ENDBRANCH  75  76
ENDBRANCH  47  70
BRANCH  59  80
ATOM     80  C   UNL A   1      39.904  34.122  37.303  1.00  0.00    -0.014 A 
ATOM     81  C   UNL A   1      40.593  35.347  37.300  1.00  0.00     0.010 A 
ATOM     82  C   UNL A   1      39.043  33.820  38.374  1.00  0.00     0.010 A 
ATOM     83  C   UNL A   1      40.448  36.240  38.366  1.00  0.00     0.020 A 
ATOM     84  C   UNL A   1      38.875  34.722  39.428  1.00  0.00     0.020 A 
ATOM     85  C   UNL A   1      39.591  35.921  39.424  1.00  0.00     0.054 A 
BRANCH  85  86
ATOM     86  S   UNL A   1      39.392  37.112  40.778  1.00  0.00     0.124 S 
ATOM     87  O   UNL A   1      40.775  37.476  41.068  1.00  0.00    -0.237 OA
ATOM     88  O   UNL A   1      38.580  38.161  40.165  1.00  0.00    -0.237 OA
ATOM     89  O   UNL A   1      38.717  36.341  41.820  1.00  0.00    -0.744 OA
ENDBRANCH  85  86
ENDBRANCH  59  80
ENDBRANCH  33  34
ENDBRANCH  25  28
ENDBRANCH  23  24
ENDBRANCH  22  23
ENDBRANCH  21  22
ENDBRANCH   3  21
TORSDOF 19
ENDMDL
MODEL 3
REMARK VINA RESULT:     -10.0      3.563      8.681
REMARK SMILES N#CCCNC(=O)COc1ccc(C(=O)NCCCNC(=O)c2ccc(-c3c4nc(c(-c5ccc(S(=O)(=O)[O-])cc5)c5ccc([nH]5)c(-c5ccc(S(=O)(=O)[O-])cc5)c5nc(c(-c6ccc(S(=O)(=O)[O-])cc6)c6ccc3[nH]6)C=C5)C=C4)cc2)nc1
REMARK SMILES IDX 14 1 15 2 16 3 13 5 10 6 11 7 84 8 12 9 83 10 9 11 8 12 6 13
REMARK SMILES IDX 5 14 7 16 4 17 3 18 2 19 1 20 17 21 18 22 19 23 20 24 21 25
REMARK SMILES IDX 22 27 23 28 24 29 82 30 25 31 81 32 26 33 27 34 28 35 75 36
REMARK SMILES IDX 29 37 80 38 74 39 76 40 30 41 79 42 73 43 72 44 31 46 61 47
REMARK SMILES IDX 42 48 60 49 43 50 46 51 59 52 77 53 44 54 45 55 58 57 78 58
REMARK SMILES IDX 47 59 32 60 33 61 41 62 34 63 40 64 35 65 36 66 37 67 38 68
REMARK SMILES IDX 39 69 62 70 63 71 71 72 64 73 70 74 65 75 66 76 67 77 68 78
REMARK SMILES IDX 69 79 48 80 49 81 57 82 50 83 56 84 51 85 52 86 53 87 54 88
REMARK SMILES IDX 55 89
REMARK H PARENT 16 4 5 15 20 26 76 45 46 56
REMARK Flexibility Score: inf
ROOT
ATOM      1  C   UNL A   1      31.521  26.257  25.927  1.00  0.00     0.269 C 
ATOM      2  O   UNL A   1      30.832  26.217  26.949  1.00  0.00    -0.268 OA
ATOM      3  N   UNL A   1      31.825  27.512  25.446  1.00  0.00    -0.351 N 
ATOM      4  H   UNL A   1      31.389  28.242  25.944  1.00  0.00     0.163 HD
ENDROOT
BRANCH   1   5
ATOM      5  C   UNL A   1      31.984  24.975  25.284  1.00  0.00     0.128 A 
ATOM      6  C   UNL A   1      32.664  22.636  23.960  1.00  0.00     0.138 A 
ATOM      7  C   UNL A   1      33.649  23.393  24.576  1.00  0.00     0.050 A 
ATOM      8  C   UNL A   1      31.363  23.107  24.043  1.00  0.00     0.158 A 
ATOM      9  C   UNL A   1      33.313  24.589  25.205  1.00  0.00     0.038 A 
ATOM     10  N   UNL A   1      31.001  24.232  24.706  1.00  0.00    -0.247 NA
BRANCH   6  11
ATOM     11  O   UNL A   1      32.910  21.562  23.159  1.00  0.00    -0.482 OA
BRANCH  11  12
ATOM     12  C   UNL A   1      32.840  20.291  23.785  1.00  0.00     0.329 C 
BRANCH  12  13
ATOM     13  C   UNL A   1      33.961  19.819  24.720  1.00  0.00     0.257 C 
ATOM     14  N   UNL A   1      33.772  18.758  25.558  1.00  0.00    -0.352 N 
ATOM     15  H   UNL A   1      34.559  18.496  26.087  1.00  0.00     0.163 HD
ATOM     16  O   UNL A   1      35.053  20.391  24.735  1.00  0.00    -0.271 OA
BRANCH  14  17
ATOM     17  C   UNL A   1      32.577  17.955  25.787  1.00  0.00     0.131 C 
BRANCH  17  18
ATOM     18  C   UNL A   1      32.466  16.731  24.872  1.00  0.00     0.141 C 
BRANCH  18  19
ATOM     19  C   UNL A   1      33.670  15.819  25.043  1.00  0.00     0.064 C 
ATOM     20  N   UNL A   1      34.669  15.063  25.185  1.00  0.00    -0.198 NA
ENDBRANCH  18  19
ENDBRANCH  17  18
ENDBRANCH  14  17
ENDBRANCH  12  13
ENDBRANCH  11  12
ENDBRANCH   6  11
ENDBRANCH   1   5
BRANCH   3  21
ATOM     21  C   UNL A   1      32.661  27.973  24.352  1.00  0.00     0.118 C 
BRANCH  21  22
ATOM     22  C   UNL A   1      33.785  28.886  24.847  1.00  0.00     0.042 C 
BRANCH  22  23
ATOM     23  C   UNL A   1      34.003  28.814  26.355  1.00  0.00     0.118 C 
BRANCH  23  24
ATOM     24  N   UNL A   1      33.855  30.119  26.980  1.00  0.00    -0.352 N 
ATOM     25  C   UNL A   1      34.631  30.742  27.922  1.00  0.00     0.251 C 
ATOM     26  H   UNL A   1      33.074  30.637  26.678  1.00  0.00     0.163 HD
ATOM     27  O   UNL A   1      34.190  31.738  28.491  1.00  0.00    -0.269 OA
BRANCH  25  28
ATOM     28  C   UNL A   1      35.981  30.236  28.257  1.00  0.00     0.039 A 
ATOM     29  C   UNL A   1      36.212  29.743  29.545  1.00  0.00     0.014 A 
ATOM     30  C   UNL A   1      37.033  30.308  27.341  1.00  0.00     0.014 A 
ATOM     31  C   UNL A   1      37.486  29.300  29.904  1.00  0.00     0.010 A 
ATOM     32  C   UNL A   1      38.284  29.795  27.674  1.00  0.00     0.010 A 
ATOM     33  C   UNL A   1      38.530  29.308  28.965  1.00  0.00    -0.014 A 
BRANCH  33  34
ATOM     34  C   UNL A   1      39.891  28.841  29.326  1.00  0.00     0.031 A 
ATOM     35  C   UNL A   1      40.843  29.767  30.036  1.00  0.00     0.074 A 
ATOM     36  C   UNL A   1      40.293  27.608  28.962  1.00  0.00     0.049 A 
ATOM     37  N   UNL A   1      42.089  29.566  30.380  1.00  0.00    -0.248 NA
ATOM     38  C   UNL A   1      40.334  31.106  30.378  1.00  0.00     0.031 C 
ATOM     39  C   UNL A   1      39.479  26.636  28.230  1.00  0.00     0.029 A 
ATOM     40  N   UNL A   1      41.490  26.966  29.151  1.00  0.00    -0.354 N 
ATOM     41  C   UNL A   1      42.518  30.756  30.959  1.00  0.00     0.074 A 
ATOM     42  C   UNL A   1      41.417  31.690  30.868  1.00  0.00     0.031 C 
ATOM     43  C   UNL A   1      40.194  25.515  28.046  1.00  0.00     0.029 A 
ATOM     44  C   UNL A   1      41.525  25.700  28.614  1.00  0.00     0.049 A 
ATOM     45  H   UNL A   1      42.251  27.372  29.624  1.00  0.00     0.167 HD
ATOM     46  C   UNL A   1      43.712  31.041  31.534  1.00  0.00     0.031 A 
ATOM     47  C   UNL A   1      42.519  24.792  28.579  1.00  0.00     0.031 A 
ATOM     48  C   UNL A   1      44.802  30.105  31.625  1.00  0.00     0.049 A 
ATOM     49  C   UNL A   1      43.831  25.119  29.237  1.00  0.00     0.074 A 
ATOM     50  C   UNL A   1      46.038  30.275  32.223  1.00  0.00     0.029 A 
ATOM     51  N   UNL A   1      44.786  28.820  31.101  1.00  0.00    -0.354 N 
ATOM     52  N   UNL A   1      44.200  26.230  29.829  1.00  0.00    -0.248 NA
ATOM     53  C   UNL A   1      44.852  24.063  29.237  1.00  0.00     0.031 C 
ATOM     54  C   UNL A   1      46.785  29.109  32.024  1.00  0.00     0.029 A 
ATOM     55  C   UNL A   1      45.993  28.191  31.351  1.00  0.00     0.049 A 
ATOM     56  H   UNL A   1      44.026  28.417  30.622  1.00  0.00     0.167 HD
ATOM     57  C   UNL A   1      45.490  25.999  30.295  1.00  0.00     0.074 A 
ATOM     58  C   UNL A   1      45.829  24.639  29.927  1.00  0.00     0.031 C 
ATOM     59  C   UNL A   1      46.316  26.838  30.970  1.00  0.00     0.031 A 
BRANCH  46  60
ATOM     60  C   UNL A   1      43.890  32.428  32.097  1.00  0.00    -0.014 A 
ATOM     61  C   UNL A   1      43.582  32.713  33.440  1.00  0.00     0.010 A 
ATOM     62  C   UNL A   1      44.363  33.465  31.272  1.00  0.00     0.010 A 
ATOM     63  C   UNL A   1      43.676  34.019  33.928  1.00  0.00     0.020 A 
ATOM     64  C   UNL A   1      44.490  34.767  31.766  1.00  0.00     0.020 A 
ATOM     65  C   UNL A   1      44.119  35.041  33.084  1.00  0.00     0.054 A 
BRANCH  65  66
ATOM     66  S   UNL A   1      44.212  36.731  33.736  1.00  0.00     0.124 S 
ATOM     67  O   UNL A   1      42.894  37.257  33.393  1.00  0.00    -0.237 OA
ATOM     68  O   UNL A   1      44.448  36.514  35.161  1.00  0.00    -0.237 OA
ATOM     69  O   UNL A   1      45.329  37.324  33.006  1.00  0.00    -0.744 OA
ENDBRANCH  65  66
ENDBRANCH  46  60
BRANCH  47  70
ATOM     70  C   UNL A   1      42.285  23.480  27.919  1.00  0.00    -0.014 A 
ATOM     71  C   UNL A   1      42.536  23.315  26.546  1.00  0.00     0.010 A 
ATOM     72  C   UNL A   1      41.866  22.370  28.676  1.00  0.00     0.010 A 
ATOM     73  C   UNL A   1      42.370  22.066  25.941  1.00  0.00     0.020 A 
ATOM     74  C   UNL A   1      41.723  21.113  28.079  1.00  0.00     0.020 A 
ATOM     75  C   UNL A   1      41.971  20.970  26.712  1.00  0.00     0.054 A 
BRANCH  75  76
ATOM     76  S   UNL A   1      41.840  19.344  25.919  1.00  0.00     0.124 S 
ATOM     77  O   UNL A   1      42.743  19.486  24.782  1.00  0.00    -0.237 OA
ATOM     78  O   UNL A   1      42.291  18.441  26.976  1.00  0.00    -0.237 OA
ATOM     79  O   UNL A   1      40.421  19.239  25.584  1.00  0.00    -0.744 OA
ENDBRANCH  75  76
ENDBRANCH  47  70
BRANCH  59  80
ATOM     80  C   UNL A   1      47.659  26.297  31.384  1.00  0.00    -0.014 A 
ATOM     81  C   UNL A   1      47.850  25.697  32.641  1.00  0.00     0.010 A 
ATOM     82  C   UNL A   1      48.732  26.344  30.475  1.00  0.00     0.010 A 
ATOM     83  C   UNL A   1      49.101  25.185  32.995  1.00  0.00     0.020 A 
ATOM     84  C   UNL A   1      49.977  25.809  30.815  1.00  0.00     0.020 A 
ATOM     85  C   UNL A   1      50.157  25.246  32.081  1.00  0.00     0.054 A 
BRANCH  85  86
ATOM     86  S   UNL A   1      51.762  24.542  32.550  1.00  0.00     0.124 S 
ATOM     87  O   UNL A   1      51.854  24.908  33.960  1.00  0.00    -0.237 OA
ATOM     88  O   UNL A   1      51.578  23.117  32.280  1.00  0.00    -0.237 OA
ATOM     89  O   UNL A   1      52.709  25.219  31.665  1.00  0.00    -0.744 OA
ENDBRANCH  85  86
ENDBRANCH  59  80
ENDBRANCH  33  34
ENDBRANCH  25  28
ENDBRANCH  23  24
ENDBRANCH  22  23
ENDBRANCH  21  22
ENDBRANCH   3  21
TORSDOF 19
ENDMDL
