MODEL 1
REMARK VINA RESULT:     -10.0      0.000      0.000
REMARK SMILES O=C(CCCS(=O)(=O)Nc1ccc(Cl)cc1F)NCCCNC(=O)c1ccc(-c2c3nc(c(-c4ccc(S(=O)(=O)[O-])cc4)c4ccc([nH]4)c(-c4ccc(S(=O)(=O)[O-])cc4)c4nc(c(-c5ccc(S(=O)(=O)[O-])cc5)c5ccc2[nH]5)C=C4)C=C3)cc1
REMARK SMILES IDX 19 1 18 2 1 3 2 4 3 6 4 7 5 8 6 9 7 10 8 11 9 12 10 14 11 15
REMARK SMILES IDX 16 16 12 17 15 18 17 19 13 20 14 21 20 22 21 23 22 24 23 25
REMARK SMILES IDX 24 27 25 28 26 29 84 30 27 31 83 32 28 33 29 34 30 35 77 36
REMARK SMILES IDX 31 37 82 38 76 39 78 40 32 41 81 42 75 43 74 44 33 46 63 47
REMARK SMILES IDX 44 48 62 49 45 50 48 51 61 52 79 53 46 54 47 55 60 57 80 58
REMARK SMILES IDX 49 59 34 60 35 61 43 62 36 63 42 64 37 65 38 66 39 67 40 68
REMARK SMILES IDX 41 69 64 70 65 71 73 72 66 73 72 74 67 75 68 76 69 77 70 78
REMARK SMILES IDX 71 79 50 80 51 81 59 82 52 83 58 84 53 85 54 86 55 87 56 88
REMARK SMILES IDX 57 89
REMARK H PARENT 18 5 9 13 22 26 78 45 48 56
REMARK Flexibility Score: inf
ROOT
ATOM      1  C   UNL A   1      31.799  27.700  26.669  1.00  0.00     0.117 C 
ENDROOT
BRANCH   1   2
ATOM      2  N   UNL A   1      31.486  26.670  25.697  1.00  0.00    -0.356 N 
ATOM      3  O   UNL A   1      31.418  24.981  27.240  1.00  0.00    -0.275 OA
ATOM      4  C   UNL A   1      31.297  25.362  26.081  1.00  0.00     0.220 C 
ATOM      5  H   UNL A   1      31.406  26.910  24.746  1.00  0.00     0.163 HD
BRANCH   4   6
ATOM      6  C   UNL A   1      30.957  24.403  24.957  1.00  0.00     0.101 C 
BRANCH   6   7
ATOM      7  C   UNL A   1      32.112  23.998  24.051  1.00  0.00     0.028 C 
BRANCH   7   8
ATOM      8  C   UNL A   1      32.083  24.453  22.593  1.00  0.00     0.160 C 
BRANCH   8   9
ATOM      9  S   UNL A   1      32.630  26.133  22.241  1.00  0.00     0.232 S 
ATOM     10  O   UNL A   1      33.193  26.731  23.422  1.00  0.00    -0.207 OA
ATOM     11  O   UNL A   1      33.431  26.026  21.033  1.00  0.00    -0.207 OA
BRANCH   9  12
ATOM     12  N   UNL A   1      31.278  26.951  21.704  1.00  0.00    -0.281 N 
ATOM     13  H   UNL A   1      31.014  26.765  20.775  1.00  0.00     0.180 HD
BRANCH  12  14
ATOM     14  C   UNL A   1      30.450  27.885  22.399  1.00  0.00     0.084 A 
ATOM     15  C   UNL A   1      30.794  29.232  22.216  1.00  0.00     0.031 A 
ATOM     16  C   UNL A   1      29.298  27.603  23.137  1.00  0.00     0.148 A 
ATOM     17  C   UNL A   1      29.903  30.252  22.571  1.00  0.00     0.023 A 
ATOM     18  C   UNL A   1      28.402  28.614  23.490  1.00  0.00     0.062 A 
ATOM     19  F   UNL A   1      28.940  26.353  23.441  1.00  0.00    -0.205 F 
ATOM     20  C   UNL A   1      28.685  29.931  23.158  1.00  0.00     0.044 A 
ATOM     21  Cl  UNL A   1      27.513  31.156  23.430  1.00  0.00    -0.084 Cl
ENDBRANCH  12  14
ENDBRANCH   9  12
ENDBRANCH   8   9
ENDBRANCH   7   8
ENDBRANCH   6   7
ENDBRANCH   4   6
ENDBRANCH   1   2
BRANCH   1  22
ATOM     22  C   UNL A   1      33.289  27.849  26.965  1.00  0.00     0.042 C 
BRANCH  22  23
ATOM     23  C   UNL A   1      34.025  28.894  26.131  1.00  0.00     0.118 C 
BRANCH  23  24
ATOM     24  N   UNL A   1      33.711  30.252  26.529  1.00  0.00    -0.352 N 
ATOM     25  C   UNL A   1      34.266  31.035  27.512  1.00  0.00     0.251 C 
ATOM     26  H   UNL A   1      32.988  30.678  26.015  1.00  0.00     0.163 HD
ATOM     27  O   UNL A   1      33.713  32.089  27.816  1.00  0.00    -0.269 OA
BRANCH  25  28
ATOM     28  C   UNL A   1      35.504  30.622  28.216  1.00  0.00     0.039 A 
ATOM     29  C   UNL A   1      36.727  31.135  27.773  1.00  0.00     0.014 A 
ATOM     30  C   UNL A   1      35.483  29.694  29.262  1.00  0.00     0.014 A 
ATOM     31  C   UNL A   1      37.916  30.752  28.400  1.00  0.00     0.010 A 
ATOM     32  C   UNL A   1      36.663  29.370  29.935  1.00  0.00     0.010 A 
ATOM     33  C   UNL A   1      37.896  29.883  29.503  1.00  0.00    -0.014 A 
BRANCH  33  34
ATOM     34  C   UNL A   1      39.159  29.485  30.188  1.00  0.00     0.031 A 
ATOM     35  C   UNL A   1      39.606  30.200  31.439  1.00  0.00     0.074 A 
ATOM     36  C   UNL A   1      39.923  28.500  29.673  1.00  0.00     0.049 A 
ATOM     37  N   UNL A   1      40.685  30.011  32.156  1.00  0.00    -0.248 NA
ATOM     38  C   UNL A   1      38.739  31.280  31.937  1.00  0.00     0.031 C 
ATOM     39  C   UNL A   1      39.622  27.743  28.456  1.00  0.00     0.029 A 
ATOM     40  N   UNL A   1      41.111  27.966  30.109  1.00  0.00    -0.354 N 
ATOM     41  C   UNL A   1      40.634  30.954  33.177  1.00  0.00     0.074 A 
ATOM     42  C   UNL A   1      39.447  31.749  32.954  1.00  0.00     0.031 C 
ATOM     43  C   UNL A   1      40.582  26.824  28.261  1.00  0.00     0.029 A 
ATOM     44  C   UNL A   1      41.589  26.952  29.310  1.00  0.00     0.049 A 
ATOM     45  H   UNL A   1      41.578  28.279  30.918  1.00  0.00     0.167 HD
ATOM     46  C   UNL A   1      41.483  31.131  34.219  1.00  0.00     0.031 A 
ATOM     47  C   UNL A   1      42.712  26.212  29.403  1.00  0.00     0.031 A 
ATOM     48  C   UNL A   1      42.661  30.334  34.446  1.00  0.00     0.049 A 
ATOM     49  C   UNL A   1      43.654  26.444  30.553  1.00  0.00     0.074 A 
ATOM     50  C   UNL A   1      43.558  30.407  35.498  1.00  0.00     0.029 A 
ATOM     51  N   UNL A   1      43.110  29.324  33.608  1.00  0.00    -0.354 N 
ATOM     52  N   UNL A   1      43.554  27.303  31.541  1.00  0.00    -0.248 NA
ATOM     53  C   UNL A   1      44.855  25.598  30.609  1.00  0.00     0.031 C 
ATOM     54  C   UNL A   1      44.582  29.484  35.265  1.00  0.00     0.029 A 
ATOM     55  C   UNL A   1      44.286  28.785  34.106  1.00  0.00     0.049 A 
ATOM     56  H   UNL A   1      42.660  29.032  32.783  1.00  0.00     0.167 HD
ATOM     57  C   UNL A   1      44.660  27.075  32.353  1.00  0.00     0.074 A 
ATOM     58  C   UNL A   1      45.408  25.991  31.749  1.00  0.00     0.031 C 
ATOM     59  C   UNL A   1      45.023  27.706  33.498  1.00  0.00     0.031 A 
BRANCH  46  60
ATOM     60  C   UNL A   1      41.175  32.242  35.192  1.00  0.00    -0.014 A 
ATOM     61  C   UNL A   1      41.682  33.540  35.001  1.00  0.00     0.010 A 
ATOM     62  C   UNL A   1      40.327  31.995  36.288  1.00  0.00     0.010 A 
ATOM     63  C   UNL A   1      41.386  34.558  35.914  1.00  0.00     0.020 A 
ATOM     64  C   UNL A   1      40.002  33.018  37.184  1.00  0.00     0.020 A 
ATOM     65  C   UNL A   1      40.550  34.289  37.001  1.00  0.00     0.054 A 
BRANCH  65  66
ATOM     66  S   UNL A   1      40.168  35.635  38.155  1.00  0.00     0.124 S 
ATOM     67  O   UNL A   1      39.921  36.750  37.244  1.00  0.00    -0.237 OA
ATOM     68  O   UNL A   1      38.993  35.127  38.860  1.00  0.00    -0.237 OA
ATOM     69  O   UNL A   1      41.377  35.751  38.966  1.00  0.00    -0.744 OA
ENDBRANCH  65  66
ENDBRANCH  46  60
BRANCH  47  70
ATOM     70  C   UNL A   1      43.004  25.170  28.379  1.00  0.00    -0.014 A 
ATOM     71  C   UNL A   1      43.714  25.492  27.208  1.00  0.00     0.010 A 
ATOM     72  C   UNL A   1      42.575  23.844  28.572  1.00  0.00     0.010 A 
ATOM     73  C   UNL A   1      43.969  24.514  26.241  1.00  0.00     0.020 A 
ATOM     74  C   UNL A   1      42.856  22.856  27.624  1.00  0.00     0.020 A 
ATOM     75  C   UNL A   1      43.541  23.202  26.457  1.00  0.00     0.054 A 
BRANCH  75  76
ATOM     76  S   UNL A   1      43.927  21.940  25.212  1.00  0.00     0.124 S 
ATOM     77  O   UNL A   1      42.878  20.953  25.445  1.00  0.00    -0.237 OA
ATOM     78  O   UNL A   1      43.826  22.690  23.963  1.00  0.00    -0.237 OA
ATOM     79  O   UNL A   1      45.279  21.513  25.566  1.00  0.00    -0.744 OA
ENDBRANCH  75  76
ENDBRANCH  47  70
BRANCH  59  80
ATOM     80  C   UNL A   1      46.259  27.214  34.206  1.00  0.00    -0.014 A 
ATOM     81  C   UNL A   1      47.527  27.765  33.942  1.00  0.00     0.010 A 
ATOM     82  C   UNL A   1      46.140  26.217  35.192  1.00  0.00     0.010 A 
ATOM     83  C   UNL A   1      48.654  27.304  34.626  1.00  0.00     0.020 A 
ATOM     84  C   UNL A   1      47.260  25.777  35.903  1.00  0.00     0.020 A 
ATOM     85  C   UNL A   1      48.514  26.313  35.604  1.00  0.00     0.054 A 
BRANCH  85  86
ATOM     86  S   UNL A   1      49.987  25.762  36.507  1.00  0.00     0.124 S 
ATOM     87  O   UNL A   1      49.585  25.963  37.896  1.00  0.00    -0.237 OA
ATOM     88  O   UNL A   1      50.117  24.370  36.086  1.00  0.00    -0.237 OA
ATOM     89  O   UNL A   1      51.041  26.654  36.029  1.00  0.00    -0.744 OA
ENDBRANCH  85  86
ENDBRANCH  59  80
ENDBRANCH  33  34
ENDBRANCH  25  28
ENDBRANCH  23  24
ENDBRANCH  22  23
ENDBRANCH   1  22
TORSDOF 18
ENDMDL
MODEL 2
REMARK VINA RESULT:      -9.8      2.024      3.004
REMARK SMILES O=C(CCCS(=O)(=O)Nc1ccc(Cl)cc1F)NCCCNC(=O)c1ccc(-c2c3nc(c(-c4ccc(S(=O)(=O)[O-])cc4)c4ccc([nH]4)c(-c4ccc(S(=O)(=O)[O-])cc4)c4nc(c(-c5ccc(S(=O)(=O)[O-])cc5)c5ccc2[nH]5)C=C4)C=C3)cc1
REMARK SMILES IDX 19 1 18 2 1 3 2 4 3 6 4 7 5 8 6 9 7 10 8 11 9 12 10 14 11 15
REMARK SMILES IDX 16 16 12 17 15 18 17 19 13 20 14 21 20 22 21 23 22 24 23 25
REMARK SMILES IDX 24 27 25 28 26 29 84 30 27 31 83 32 28 33 29 34 30 35 77 36
REMARK SMILES IDX 31 37 82 38 76 39 78 40 32 41 81 42 75 43 74 44 33 46 63 47
REMARK SMILES IDX 44 48 62 49 45 50 48 51 61 52 79 53 46 54 47 55 60 57 80 58
REMARK SMILES IDX 49 59 34 60 35 61 43 62 36 63 42 64 37 65 38 66 39 67 40 68
REMARK SMILES IDX 41 69 64 70 65 71 73 72 66 73 72 74 67 75 68 76 69 77 70 78
REMARK SMILES IDX 71 79 50 80 51 81 59 82 52 83 58 84 53 85 54 86 55 87 56 88
REMARK SMILES IDX 57 89
REMARK H PARENT 18 5 9 13 22 26 78 45 48 56
REMARK Flexibility Score: inf
ROOT
ATOM      1  C   UNL A   1      31.850  28.298  26.755  1.00  0.00     0.117 C 
ENDROOT
BRANCH   1   2
ATOM      2  N   UNL A   1      31.103  27.720  25.654  1.00  0.00    -0.356 N 
ATOM      3  O   UNL A   1      30.865  25.674  26.654  1.00  0.00    -0.275 OA
ATOM      4  C   UNL A   1      30.643  26.424  25.709  1.00  0.00     0.220 C 
ATOM      5  H   UNL A   1      30.922  28.263  24.855  1.00  0.00     0.163 HD
BRANCH   4   6
ATOM      6  C   UNL A   1      29.863  25.965  24.493  1.00  0.00     0.101 C 
BRANCH   6   7
ATOM      7  C   UNL A   1      30.568  24.970  23.581  1.00  0.00     0.028 C 
BRANCH   7   8
ATOM      8  C   UNL A   1      31.379  25.513  22.406  1.00  0.00     0.160 C 
BRANCH   8   9
ATOM      9  S   UNL A   1      33.082  26.003  22.733  1.00  0.00     0.232 S 
ATOM     10  O   UNL A   1      33.893  25.795  21.563  1.00  0.00    -0.207 OA
ATOM     11  O   UNL A   1      32.988  27.329  23.321  1.00  0.00    -0.207 OA
BRANCH   9  12
ATOM     12  N   UNL A   1      33.587  25.073  24.023  1.00  0.00    -0.281 N 
ATOM     13  H   UNL A   1      33.452  25.475  24.911  1.00  0.00     0.180 HD
BRANCH  12  14
ATOM     14  C   UNL A   1      34.188  23.777  24.024  1.00  0.00     0.084 A 
ATOM     15  C   UNL A   1      35.561  23.762  23.742  1.00  0.00     0.031 A 
ATOM     16  C   UNL A   1      33.584  22.568  24.374  1.00  0.00     0.148 A 
ATOM     17  C   UNL A   1      36.335  22.626  24.011  1.00  0.00     0.023 A 
ATOM     18  C   UNL A   1      34.348  21.432  24.650  1.00  0.00     0.062 A 
ATOM     19  F   UNL A   1      32.267  22.466  24.572  1.00  0.00    -0.205 F 
ATOM     20  C   UNL A   1      35.728  21.483  24.517  1.00  0.00     0.044 A 
ATOM     21  Cl  UNL A   1      36.688  20.151  25.020  1.00  0.00    -0.084 Cl
ENDBRANCH  12  14
ENDBRANCH   9  12
ENDBRANCH   8   9
ENDBRANCH   7   8
ENDBRANCH   6   7
ENDBRANCH   4   6
ENDBRANCH   1   2
BRANCH   1  22
ATOM     22  C   UNL A   1      33.347  28.001  26.720  1.00  0.00     0.042 C 
BRANCH  22  23
ATOM     23  C   UNL A   1      34.221  29.097  26.119  1.00  0.00     0.118 C 
BRANCH  23  24
ATOM     24  N   UNL A   1      33.871  30.420  26.595  1.00  0.00    -0.352 N 
ATOM     25  C   UNL A   1      34.394  31.152  27.633  1.00  0.00     0.251 C 
ATOM     26  H   UNL A   1      33.146  30.862  26.096  1.00  0.00     0.163 HD
ATOM     27  O   UNL A   1      33.812  32.173  27.993  1.00  0.00    -0.269 OA
BRANCH  25  28
ATOM     28  C   UNL A   1      35.630  30.723  28.331  1.00  0.00     0.039 A 
ATOM     29  C   UNL A   1      36.825  31.386  28.039  1.00  0.00     0.014 A 
ATOM     30  C   UNL A   1      35.639  29.642  29.218  1.00  0.00     0.014 A 
ATOM     31  C   UNL A   1      38.014  30.995  28.662  1.00  0.00     0.010 A 
ATOM     32  C   UNL A   1      36.812  29.301  29.895  1.00  0.00     0.010 A 
ATOM     33  C   UNL A   1      38.017  29.963  29.615  1.00  0.00    -0.014 A 
BRANCH  33  34
ATOM     34  C   UNL A   1      39.277  29.553  30.297  1.00  0.00     0.031 A 
ATOM     35  C   UNL A   1      39.729  30.257  31.553  1.00  0.00     0.074 A 
ATOM     36  C   UNL A   1      40.036  28.567  29.775  1.00  0.00     0.049 A 
ATOM     37  N   UNL A   1      40.806  30.057  32.268  1.00  0.00    -0.248 NA
ATOM     38  C   UNL A   1      38.868  31.339  32.058  1.00  0.00     0.031 C 
ATOM     39  C   UNL A   1      39.730  27.820  28.554  1.00  0.00     0.029 A 
ATOM     40  N   UNL A   1      41.221  28.024  30.207  1.00  0.00    -0.354 N 
ATOM     41  C   UNL A   1      40.762  30.993  33.295  1.00  0.00     0.074 A 
ATOM     42  C   UNL A   1      39.579  31.797  33.078  1.00  0.00     0.031 C 
ATOM     43  C   UNL A   1      40.684  26.896  28.352  1.00  0.00     0.029 A 
ATOM     44  C   UNL A   1      41.693  27.012  29.402  1.00  0.00     0.049 A 
ATOM     45  H   UNL A   1      41.689  28.328  31.018  1.00  0.00     0.167 HD
ATOM     46  C   UNL A   1      41.612  31.159  34.338  1.00  0.00     0.031 A 
ATOM     47  C   UNL A   1      42.811  26.265  29.490  1.00  0.00     0.031 A 
ATOM     48  C   UNL A   1      42.785  30.354  34.560  1.00  0.00     0.049 A 
ATOM     49  C   UNL A   1      43.755  26.483  30.641  1.00  0.00     0.074 A 
ATOM     50  C   UNL A   1      43.682  30.414  35.612  1.00  0.00     0.029 A 
ATOM     51  N   UNL A   1      43.228  29.347  33.715  1.00  0.00    -0.354 N 
ATOM     52  N   UNL A   1      43.660  27.336  31.634  1.00  0.00    -0.248 NA
ATOM     53  C   UNL A   1      44.951  25.630  30.691  1.00  0.00     0.031 C 
ATOM     54  C   UNL A   1      44.702  29.487  35.373  1.00  0.00     0.029 A 
ATOM     55  C   UNL A   1      44.401  28.798  34.209  1.00  0.00     0.049 A 
ATOM     56  H   UNL A   1      42.777  29.063  32.888  1.00  0.00     0.167 HD
ATOM     57  C   UNL A   1      44.765  27.097  32.445  1.00  0.00     0.074 A 
ATOM     58  C   UNL A   1      45.506  26.013  31.834  1.00  0.00     0.031 C 
ATOM     59  C   UNL A   1      45.131  27.718  33.594  1.00  0.00     0.031 A 
BRANCH  46  60
ATOM     60  C   UNL A   1      41.310  32.265  35.318  1.00  0.00    -0.014 A 
ATOM     61  C   UNL A   1      41.799  33.569  35.121  1.00  0.00     0.010 A 
ATOM     62  C   UNL A   1      40.486  32.008  36.430  1.00  0.00     0.010 A 
ATOM     63  C   UNL A   1      41.511  34.582  36.040  1.00  0.00     0.020 A 
ATOM     64  C   UNL A   1      40.168  33.026  37.333  1.00  0.00     0.020 A 
ATOM     65  C   UNL A   1      40.698  34.303  37.142  1.00  0.00     0.054 A 
BRANCH  65  66
ATOM     66  S   UNL A   1      40.323  35.643  38.305  1.00  0.00     0.124 S 
ATOM     67  O   UNL A   1      40.112  36.773  37.404  1.00  0.00    -0.237 OA
ATOM     68  O   UNL A   1      39.128  35.150  38.986  1.00  0.00    -0.237 OA
ATOM     69  O   UNL A   1      41.522  35.727  39.137  1.00  0.00    -0.744 OA
ENDBRANCH  65  66
ENDBRANCH  46  60
BRANCH  47  70
ATOM     70  C   UNL A   1      43.097  25.228  28.459  1.00  0.00    -0.014 A 
ATOM     71  C   UNL A   1      42.674  23.899  28.640  1.00  0.00     0.010 A 
ATOM     72  C   UNL A   1      43.793  25.567  27.283  1.00  0.00     0.010 A 
ATOM     73  C   UNL A   1      42.961  22.925  27.678  1.00  0.00     0.020 A 
ATOM     74  C   UNL A   1      44.053  24.604  26.304  1.00  0.00     0.020 A 
ATOM     75  C   UNL A   1      43.646  23.285  26.514  1.00  0.00     0.054 A 
BRANCH  75  76
ATOM     76  S   UNL A   1      43.963  22.016  25.257  1.00  0.00     0.124 S 
ATOM     77  O   UNL A   1      42.832  21.114  25.443  1.00  0.00    -0.237 OA
ATOM     78  O   UNL A   1      43.958  22.793  24.019  1.00  0.00    -0.237 OA
ATOM     79  O   UNL A   1      45.266  21.476  25.639  1.00  0.00    -0.744 OA
ENDBRANCH  75  76
ENDBRANCH  47  70
BRANCH  59  80
ATOM     80  C   UNL A   1      46.365  27.215  34.298  1.00  0.00    -0.014 A 
ATOM     81  C   UNL A   1      47.628  27.792  34.073  1.00  0.00     0.010 A 
ATOM     82  C   UNL A   1      46.247  26.178  35.243  1.00  0.00     0.010 A 
ATOM     83  C   UNL A   1      48.753  27.318  34.754  1.00  0.00     0.020 A 
ATOM     84  C   UNL A   1      47.363  25.724  35.950  1.00  0.00     0.020 A 
ATOM     85  C   UNL A   1      48.613  26.288  35.689  1.00  0.00     0.054 A 
BRANCH  85  86
ATOM     86  S   UNL A   1      50.082  25.721  36.590  1.00  0.00     0.124 S 
ATOM     87  O   UNL A   1      49.719  24.349  36.930  1.00  0.00    -0.237 OA
ATOM     88  O   UNL A   1      51.141  25.861  35.593  1.00  0.00    -0.237 OA
ATOM     89  O   UNL A   1      50.173  26.640  37.721  1.00  0.00    -0.744 OA
ENDBRANCH  85  86
ENDBRANCH  59  80
ENDBRANCH  33  34
ENDBRANCH  25  28
ENDBRANCH  23  24
ENDBRANCH  22  23
ENDBRANCH   1  22
TORSDOF 18
ENDMDL
MODEL 3
REMARK VINA RESULT:      -9.6      4.987      7.117
REMARK SMILES O=C(CCCS(=O)(=O)Nc1ccc(Cl)cc1F)NCCCNC(=O)c1ccc(-c2c3nc(c(-c4ccc(S(=O)(=O)[O-])cc4)c4ccc([nH]4)c(-c4ccc(S(=O)(=O)[O-])cc4)c4nc(c(-c5ccc(S(=O)(=O)[O-])cc5)c5ccc2[nH]5)C=C4)C=C3)cc1
REMARK SMILES IDX 19 1 18 2 1 3 2 4 3 6 4 7 5 8 6 9 7 10 8 11 9 12 10 14 11 15
REMARK SMILES IDX 16 16 12 17 15 18 17 19 13 20 14 21 20 22 21 23 22 24 23 25
REMARK SMILES IDX 24 27 25 28 26 29 84 30 27 31 83 32 28 33 29 34 30 35 77 36
REMARK SMILES IDX 31 37 82 38 76 39 78 40 32 41 81 42 75 43 74 44 33 46 63 47
REMARK SMILES IDX 44 48 62 49 45 50 48 51 61 52 79 53 46 54 47 55 60 57 80 58
REMARK SMILES IDX 49 59 34 60 35 61 43 62 36 63 42 64 37 65 38 66 39 67 40 68
REMARK SMILES IDX 41 69 64 70 65 71 73 72 66 73 72 74 67 75 68 76 69 77 70 78
REMARK SMILES IDX 71 79 50 80 51 81 59 82 52 83 58 84 53 85 54 86 55 87 56 88
REMARK SMILES IDX 57 89
REMARK H PARENT 18 5 9 13 22 26 78 45 48 56
REMARK Flexibility Score: inf
ROOT
ATOM      1  C   UNL A   1      36.121  22.756  23.730  1.00  0.00     0.117 C 
ENDROOT
BRANCH   1   2
ATOM      2  N   UNL A   1      34.784  22.195  23.735  1.00  0.00    -0.356 N 
ATOM      3  O   UNL A   1      35.340  20.419  25.068  1.00  0.00    -0.275 OA
ATOM      4  C   UNL A   1      34.495  21.050  24.442  1.00  0.00     0.220 C 
ATOM      5  H   UNL A   1      34.070  22.640  23.224  1.00  0.00     0.163 HD
BRANCH   4   6
ATOM      6  C   UNL A   1      33.051  20.594  24.367  1.00  0.00     0.101 C 
BRANCH   6   7
ATOM      7  C   UNL A   1      32.190  20.895  25.586  1.00  0.00     0.028 C 
BRANCH   7   8
ATOM      8  C   UNL A   1      31.402  22.203  25.611  1.00  0.00     0.160 C 
BRANCH   8   9
ATOM      9  S   UNL A   1      31.838  23.408  26.879  1.00  0.00     0.232 S 
ATOM     10  O   UNL A   1      30.705  24.240  27.184  1.00  0.00    -0.207 OA
ATOM     11  O   UNL A   1      32.471  22.635  27.933  1.00  0.00    -0.207 OA
BRANCH   9  12
ATOM     12  N   UNL A   1      33.114  24.284  26.258  1.00  0.00    -0.281 N 
ATOM     13  H   UNL A   1      34.006  24.006  26.568  1.00  0.00     0.180 HD
BRANCH  12  14
ATOM     14  C   UNL A   1      33.099  25.381  25.343  1.00  0.00     0.084 A 
ATOM     15  C   UNL A   1      33.413  26.626  25.906  1.00  0.00     0.031 A 
ATOM     16  C   UNL A   1      32.913  25.323  23.960  1.00  0.00     0.148 A 
ATOM     17  C   UNL A   1      33.740  27.718  25.093  1.00  0.00     0.023 A 
ATOM     18  C   UNL A   1      33.242  26.405  23.141  1.00  0.00     0.062 A 
ATOM     19  F   UNL A   1      32.524  24.203  23.345  1.00  0.00    -0.205 F 
ATOM     20  C   UNL A   1      33.704  27.582  23.710  1.00  0.00     0.044 A 
ATOM     21  Cl  UNL A   1      34.276  28.854  22.707  1.00  0.00    -0.084 Cl
ENDBRANCH  12  14
ENDBRANCH   9  12
ENDBRANCH   8   9
ENDBRANCH   7   8
ENDBRANCH   6   7
ENDBRANCH   4   6
ENDBRANCH   1   2
BRANCH   1  22
ATOM     22  C   UNL A   1      36.328  23.892  24.729  1.00  0.00     0.042 C 
BRANCH  22  23
ATOM     23  C   UNL A   1      36.728  23.464  26.137  1.00  0.00     0.118 C 
BRANCH  23  24
ATOM     24  N   UNL A   1      37.638  22.336  26.145  1.00  0.00    -0.352 N 
ATOM     25  C   UNL A   1      38.999  22.301  26.328  1.00  0.00     0.251 C 
ATOM     26  H   UNL A   1      37.215  21.460  25.996  1.00  0.00     0.163 HD
ATOM     27  O   UNL A   1      39.604  21.257  26.094  1.00  0.00    -0.269 OA
BRANCH  25  28
ATOM     28  C   UNL A   1      39.745  23.499  26.783  1.00  0.00     0.039 A 
ATOM     29  C   UNL A   1      39.744  24.635  25.968  1.00  0.00     0.014 A 
ATOM     30  C   UNL A   1      40.491  23.499  27.966  1.00  0.00     0.014 A 
ATOM     31  C   UNL A   1      40.454  25.776  26.355  1.00  0.00     0.010 A 
ATOM     32  C   UNL A   1      41.137  24.663  28.388  1.00  0.00     0.010 A 
ATOM     33  C   UNL A   1      41.139  25.811  27.580  1.00  0.00    -0.014 A 
BRANCH  33  34
ATOM     34  C   UNL A   1      41.881  27.031  28.009  1.00  0.00     0.031 A 
ATOM     35  C   UNL A   1      41.145  28.197  28.621  1.00  0.00     0.074 A 
ATOM     36  C   UNL A   1      43.215  27.108  27.821  1.00  0.00     0.049 A 
ATOM     37  N   UNL A   1      41.617  29.348  29.028  1.00  0.00    -0.248 NA
ATOM     38  C   UNL A   1      39.688  28.059  28.776  1.00  0.00     0.031 C 
ATOM     39  C   UNL A   1      44.047  26.064  27.219  1.00  0.00     0.029 A 
ATOM     40  N   UNL A   1      44.106  28.109  28.120  1.00  0.00    -0.354 N 
ATOM     41  C   UNL A   1      40.518  30.074  29.473  1.00  0.00     0.074 A 
ATOM     42  C   UNL A   1      39.350  29.256  29.234  1.00  0.00     0.031 C 
ATOM     43  C   UNL A   1      45.329  26.467  27.221  1.00  0.00     0.029 A 
ATOM     44  C   UNL A   1      45.407  27.812  27.783  1.00  0.00     0.049 A 
ATOM     45  H   UNL A   1      43.840  28.961  28.538  1.00  0.00     0.167 HD
ATOM     46  C   UNL A   1      40.481  31.301  30.048  1.00  0.00     0.031 A 
ATOM     47  C   UNL A   1      46.536  28.539  27.904  1.00  0.00     0.031 A 
ATOM     48  C   UNL A   1      41.644  32.114  30.294  1.00  0.00     0.049 A 
ATOM     49  C   UNL A   1      46.469  29.910  28.521  1.00  0.00     0.074 A 
ATOM     50  C   UNL A   1      41.714  33.349  30.914  1.00  0.00     0.029 A 
ATOM     51  N   UNL A   1      42.939  31.777  29.930  1.00  0.00    -0.354 N 
ATOM     52  N   UNL A   1      45.424  30.552  28.990  1.00  0.00    -0.248 NA
ATOM     53  C   UNL A   1      47.733  30.649  28.639  1.00  0.00     0.031 C 
ATOM     54  C   UNL A   1      43.041  33.789  30.869  1.00  0.00     0.029 A 
ATOM     55  C   UNL A   1      43.810  32.794  30.287  1.00  0.00     0.049 A 
ATOM     56  H   UNL A   1      43.202  30.940  29.484  1.00  0.00     0.167 HD
ATOM     57  C   UNL A   1      45.913  31.755  29.489  1.00  0.00     0.074 A 
ATOM     58  C   UNL A   1      47.346  31.745  29.277  1.00  0.00     0.031 C 
ATOM     59  C   UNL A   1      45.236  32.775  30.072  1.00  0.00     0.031 A 
BRANCH  46  60
ATOM     60  C   UNL A   1      39.132  31.849  30.444  1.00  0.00    -0.014 A 
ATOM     61  C   UNL A   1      38.643  31.707  31.756  1.00  0.00     0.010 A 
ATOM     62  C   UNL A   1      38.361  32.555  29.502  1.00  0.00     0.010 A 
ATOM     63  C   UNL A   1      37.390  32.220  32.105  1.00  0.00     0.020 A 
ATOM     64  C   UNL A   1      37.123  33.098  29.856  1.00  0.00     0.020 A 
ATOM     65  C   UNL A   1      36.637  32.910  31.152  1.00  0.00     0.054 A 
BRANCH  65  66
ATOM     66  S   UNL A   1      35.025  33.582  31.641  1.00  0.00     0.124 S 
ATOM     67  O   UNL A   1      34.686  34.416  30.490  1.00  0.00    -0.237 OA
ATOM     68  O   UNL A   1      34.214  32.378  31.805  1.00  0.00    -0.237 OA
ATOM     69  O   UNL A   1      35.312  34.312  32.874  1.00  0.00    -0.744 OA
ENDBRANCH  65  66
ENDBRANCH  46  60
BRANCH  47  70
ATOM     70  C   UNL A   1      47.836  27.978  27.437  1.00  0.00    -0.014 A 
ATOM     71  C   UNL A   1      48.625  27.187  28.292  1.00  0.00     0.010 A 
ATOM     72  C   UNL A   1      48.291  28.230  26.130  1.00  0.00     0.010 A 
ATOM     73  C   UNL A   1      49.853  26.679  27.856  1.00  0.00     0.020 A 
ATOM     74  C   UNL A   1      49.501  27.697  25.679  1.00  0.00     0.020 A 
ATOM     75  C   UNL A   1      50.281  26.935  26.551  1.00  0.00     0.054 A 
BRANCH  75  76
ATOM     76  S   UNL A   1      51.853  26.223  25.990  1.00  0.00     0.124 S 
ATOM     77  O   UNL A   1      51.756  26.373  24.542  1.00  0.00    -0.237 OA
ATOM     78  O   UNL A   1      52.837  27.078  26.651  1.00  0.00    -0.237 OA
ATOM     79  O   UNL A   1      51.801  24.849  26.484  1.00  0.00    -0.744 OA
ENDBRANCH  75  76
ENDBRANCH  47  70
BRANCH  59  80
ATOM     80  C   UNL A   1      46.036  33.952  30.569  1.00  0.00    -0.014 A 
ATOM     81  C   UNL A   1      46.274  35.076  29.757  1.00  0.00     0.010 A 
ATOM     82  C   UNL A   1      46.512  33.953  31.894  1.00  0.00     0.010 A 
ATOM     83  C   UNL A   1      47.004  36.161  30.249  1.00  0.00     0.020 A 
ATOM     84  C   UNL A   1      47.213  35.051  32.400  1.00  0.00     0.020 A 
ATOM     85  C   UNL A   1      47.467  36.143  31.569  1.00  0.00     0.054 A 
BRANCH  85  86
ATOM     86  S   UNL A   1      48.374  37.583  32.196  1.00  0.00     0.124 S 
ATOM     87  O   UNL A   1      49.642  36.988  32.608  1.00  0.00    -0.237 OA
ATOM     88  O   UNL A   1      48.441  38.453  31.024  1.00  0.00    -0.237 OA
ATOM     89  O   UNL A   1      47.534  38.076  33.284  1.00  0.00    -0.744 OA
ENDBRANCH  85  86
ENDBRANCH  59  80
ENDBRANCH  33  34
ENDBRANCH  25  28
ENDBRANCH  23  24
ENDBRANCH  22  23
ENDBRANCH   1  22
TORSDOF 18
ENDMDL
