MODEL 1
REMARK VINA RESULT:     -11.7      0.000      0.000
REMARK SMILES Cc1c(C(=O)NCCCNC(=O)c2ccc(-c3c4nc(c(-c5ccc(S(=O)(=O)[O-])cc5)c5ccc([nH]5)c(-c5ccc(S(=O)(=O)[O-])cc5)c5nc(c(-c6ccc(S(=O)(=O)[O-])cc6)c6ccc3[nH]6)C=C5)C=C4)cc2)ccc2c1N[C@@H](c1ccc(S(=O)(=O)N3CCOCC3)cc1)[C@@H]1CC=C[C@H]21
REMARK SMILES IDX 8 1 7 2 6 3 4 4 5 5 3 7 1 8 2 9 76 10 73 11 75 12 77 13
REMARK SMILES IDX 74 14 98 15 78 16 94 18 97 19 95 20 96 21 79 22 80 23 93 24
REMARK SMILES IDX 81 25 92 26 82 27 83 28 84 29 85 30 86 31 87 32 91 33 88 34
REMARK SMILES IDX 90 35 89 36 9 37 10 38 11 39 12 41 13 42 14 43 72 44 15 45
REMARK SMILES IDX 71 46 16 47 17 48 18 49 65 50 19 51 70 52 64 53 66 54 20 55
REMARK SMILES IDX 69 56 63 57 62 58 21 60 51 61 32 62 50 63 33 64 36 65 49 66
REMARK SMILES IDX 67 67 34 68 35 69 48 71 68 72 37 73 22 74 23 75 31 76 24 77
REMARK SMILES IDX 30 78 25 79 26 80 27 81 28 82 29 83 52 84 53 85 61 86 54 87
REMARK SMILES IDX 60 88 55 89 56 90 57 91 58 92 59 93 38 94 39 95 47 96 40 97
REMARK SMILES IDX 46 98 41 99 42 100 43 101 44 102 45 103
REMARK H PARENT 6 6 77 17 10 40 66 59 36 70
REMARK Flexibility Score: inf
ROOT
ATOM      1  C   UNL A   1      34.373  31.269  27.252  1.00  0.00     0.042 C 
ENDROOT
BRANCH   1   2
ATOM      2  C   UNL A   1      33.544  32.003  28.294  1.00  0.00     0.118 C 
BRANCH   2   3
ATOM      3  N   UNL A   1      33.632  33.454  28.221  1.00  0.00    -0.352 N 
ATOM      4  C   UNL A   1      34.645  34.302  28.595  1.00  0.00     0.251 C 
ATOM      5  O   UNL A   1      34.510  35.512  28.412  1.00  0.00    -0.269 OA
ATOM      6  H   UNL A   1      32.839  33.898  27.843  1.00  0.00     0.163 HD
BRANCH   4   7
ATOM      7  C   UNL A   1      35.855  33.801  29.291  1.00  0.00     0.044 A 
ATOM      8  C   UNL A   1      34.658  33.198  31.463  1.00  0.00     0.047 C 
ATOM      9  C   UNL A   1      35.903  33.454  30.650  1.00  0.00    -0.015 A 
ATOM     10  C   UNL A   1      37.159  33.247  31.254  1.00  0.00     0.042 A 
ATOM     11  C   UNL A   1      37.000  33.660  28.498  1.00  0.00     0.014 A 
ATOM     12  C   UNL A   1      38.270  33.003  30.449  1.00  0.00    -0.017 A 
ATOM     13  N   UNL A   1      37.263  33.213  32.635  1.00  0.00    -0.377 N 
ATOM     14  C   UNL A   1      38.185  33.206  29.064  1.00  0.00     0.007 A 
ATOM     15  C   UNL A   1      39.522  32.450  31.055  1.00  0.00     0.049 C 
ATOM     16  C   UNL A   1      38.559  33.180  33.323  1.00  0.00     0.114 C 
ATOM     17  H   UNL A   1      36.438  33.211  33.173  1.00  0.00     0.161 HD
ATOM     18  C   UNL A   1      39.485  32.159  32.587  1.00  0.00     0.031 C 
ATOM     19  C   UNL A   1      40.726  33.341  30.910  1.00  0.00    -0.023 C 
ATOM     20  C   UNL A   1      40.996  32.202  32.916  1.00  0.00     0.034 C 
ATOM     21  C   UNL A   1      41.554  33.188  31.946  1.00  0.00    -0.030 C 
BRANCH  16  22
ATOM     22  C   UNL A   1      38.280  32.935  34.829  1.00  0.00    -0.025 A 
ATOM     23  C   UNL A   1      38.795  31.829  35.553  1.00  0.00     0.007 A 
ATOM     24  C   UNL A   1      37.388  33.749  35.531  1.00  0.00     0.007 A 
ATOM     25  C   UNL A   1      38.415  31.548  36.876  1.00  0.00     0.022 A 
ATOM     26  C   UNL A   1      37.076  33.530  36.871  1.00  0.00     0.022 A 
ATOM     27  C   UNL A   1      37.553  32.413  37.535  1.00  0.00     0.082 A 
BRANCH  27  28
ATOM     28  S   UNL A   1      36.976  32.032  39.172  1.00  0.00     0.243 S 
ATOM     29  O   UNL A   1      35.612  32.505  39.254  1.00  0.00    -0.207 OA
ATOM     30  O   UNL A   1      37.320  30.646  39.412  1.00  0.00    -0.207 OA
BRANCH  28  31
ATOM     31  N   UNL A   1      37.911  33.001  40.171  1.00  0.00    -0.193 NA
ATOM     32  C   UNL A   1      37.580  33.202  41.596  1.00  0.00     0.131 C 
ATOM     33  C   UNL A   1      39.089  33.741  39.680  1.00  0.00     0.131 C 
ATOM     34  C   UNL A   1      37.596  34.698  41.940  1.00  0.00     0.177 C 
ATOM     35  C   UNL A   1      39.076  35.199  40.158  1.00  0.00     0.177 C 
ATOM     36  O   UNL A   1      38.839  35.312  41.566  1.00  0.00    -0.379 OA
ENDBRANCH  28  31
ENDBRANCH  27  28
ENDBRANCH  16  22
ENDBRANCH   4   7
ENDBRANCH   2   3
ENDBRANCH   1   2
BRANCH   1  37
ATOM     37  C   UNL A   1      35.356  30.260  27.833  1.00  0.00     0.118 C 
BRANCH  37  38
ATOM     38  N   UNL A   1      35.396  30.252  29.289  1.00  0.00    -0.352 N 
ATOM     39  C   UNL A   1      36.374  29.859  30.172  1.00  0.00     0.251 C 
ATOM     40  H   UNL A   1      34.575  30.586  29.718  1.00  0.00     0.163 HD
ATOM     41  O   UNL A   1      36.109  29.802  31.371  1.00  0.00    -0.269 OA
BRANCH  39  42
ATOM     42  C   UNL A   1      37.719  29.462  29.699  1.00  0.00     0.039 A 
ATOM     43  C   UNL A   1      38.037  29.632  28.348  1.00  0.00     0.014 A 
ATOM     44  C   UNL A   1      38.658  28.898  30.561  1.00  0.00     0.014 A 
ATOM     45  C   UNL A   1      39.321  29.323  27.887  1.00  0.00     0.010 A 
ATOM     46  C   UNL A   1      39.963  28.680  30.127  1.00  0.00     0.010 A 
ATOM     47  C   UNL A   1      40.309  28.890  28.784  1.00  0.00    -0.014 A 
BRANCH  47  48
ATOM     48  C   UNL A   1      41.703  28.620  28.349  1.00  0.00     0.031 A 
ATOM     49  C   UNL A   1      42.096  27.231  27.917  1.00  0.00     0.074 A 
ATOM     50  C   UNL A   1      42.631  29.597  28.407  1.00  0.00     0.049 A 
ATOM     51  N   UNL A   1      43.285  26.760  27.644  1.00  0.00    -0.248 NA
ATOM     52  C   UNL A   1      41.015  26.235  27.801  1.00  0.00     0.031 C 
ATOM     53  C   UNL A   1      42.387  30.982  28.820  1.00  0.00     0.029 A 
ATOM     54  N   UNL A   1      43.972  29.573  28.114  1.00  0.00    -0.354 N 
ATOM     55  C   UNL A   1      43.100  25.414  27.355  1.00  0.00     0.074 A 
ATOM     56  C   UNL A   1      41.691  25.131  27.517  1.00  0.00     0.031 C 
ATOM     57  C   UNL A   1      43.528  31.682  28.711  1.00  0.00     0.029 A 
ATOM     58  C   UNL A   1      44.594  30.790  28.268  1.00  0.00     0.049 A 
ATOM     59  H   UNL A   1      44.445  28.761  27.822  1.00  0.00     0.167 HD
ATOM     60  C   UNL A   1      44.016  24.498  26.967  1.00  0.00     0.031 A 
ATOM     61  C   UNL A   1      45.879  31.148  28.075  1.00  0.00     0.031 A 
ATOM     62  C   UNL A   1      45.406  24.788  26.748  1.00  0.00     0.049 A 
ATOM     63  C   UNL A   1      46.877  30.112  27.642  1.00  0.00     0.074 A 
ATOM     64  C   UNL A   1      46.401  23.932  26.311  1.00  0.00     0.029 A 
ATOM     65  N   UNL A   1      45.990  26.032  26.917  1.00  0.00    -0.354 N 
ATOM     66  N   UNL A   1      46.681  28.840  27.389  1.00  0.00    -0.248 NA
ATOM     67  C   UNL A   1      48.268  30.555  27.471  1.00  0.00     0.031 C 
ATOM     68  C   UNL A   1      47.594  24.656  26.234  1.00  0.00     0.029 A 
ATOM     69  C   UNL A   1      47.332  25.968  26.593  1.00  0.00     0.049 A 
ATOM     70  H   UNL A   1      45.519  26.841  27.224  1.00  0.00     0.167 HD
ATOM     71  C   UNL A   1      47.918  28.339  27.004  1.00  0.00     0.074 A 
ATOM     72  C   UNL A   1      48.857  29.440  27.057  1.00  0.00     0.031 C 
ATOM     73  C   UNL A   1      48.245  27.077  26.636  1.00  0.00     0.031 A 
BRANCH  60  74
ATOM     74  C   UNL A   1      43.548  23.093  26.720  1.00  0.00    -0.014 A 
ATOM     75  C   UNL A   1      43.853  22.442  25.512  1.00  0.00     0.010 A 
ATOM     76  C   UNL A   1      42.885  22.385  27.738  1.00  0.00     0.010 A 
ATOM     77  C   UNL A   1      43.497  21.105  25.324  1.00  0.00     0.020 A 
ATOM     78  C   UNL A   1      42.542  21.042  27.559  1.00  0.00     0.020 A 
ATOM     79  C   UNL A   1      42.852  20.411  26.353  1.00  0.00     0.054 A 
BRANCH  79  80
ATOM     80  S   UNL A   1      42.458  18.660  26.095  1.00  0.00     0.124 S 
ATOM     81  O   UNL A   1      42.739  18.087  27.410  1.00  0.00    -0.237 OA
ATOM     82  O   UNL A   1      41.049  18.707  25.717  1.00  0.00    -0.237 OA
ATOM     83  O   UNL A   1      43.375  18.249  25.033  1.00  0.00    -0.744 OA
ENDBRANCH  79  80
ENDBRANCH  60  74
BRANCH  61  84
ATOM     84  C   UNL A   1      46.293  32.564  28.256  1.00  0.00    -0.014 A 
ATOM     85  C   UNL A   1      46.225  33.456  27.171  1.00  0.00     0.010 A 
ATOM     86  C   UNL A   1      46.751  33.030  29.500  1.00  0.00     0.010 A 
ATOM     87  C   UNL A   1      46.617  34.788  27.323  1.00  0.00     0.020 A 
ATOM     88  C   UNL A   1      47.127  34.368  29.661  1.00  0.00     0.020 A 
ATOM     89  C   UNL A   1      47.062  35.237  28.571  1.00  0.00     0.054 A 
BRANCH  89  90
ATOM     90  S   UNL A   1      47.532  36.980  28.747  1.00  0.00     0.124 S 
ATOM     91  O   UNL A   1      48.990  36.905  28.764  1.00  0.00    -0.237 OA
ATOM     92  O   UNL A   1      46.943  37.581  27.553  1.00  0.00    -0.237 OA
ATOM     93  O   UNL A   1      46.912  37.379  30.008  1.00  0.00    -0.744 OA
ENDBRANCH  89  90
ENDBRANCH  61  84
BRANCH  73  94
ATOM     94  C   UNL A   1      49.664  26.811  26.223  1.00  0.00    -0.014 A 
ATOM     95  C   UNL A   1      50.574  26.227  27.120  1.00  0.00     0.010 A 
ATOM     96  C   UNL A   1      50.050  27.035  24.890  1.00  0.00     0.010 A 
ATOM     97  C   UNL A   1      51.851  25.868  26.686  1.00  0.00     0.020 A 
ATOM     98  C   UNL A   1      51.321  26.662  24.449  1.00  0.00     0.020 A 
ATOM     99  C   UNL A   1      52.213  26.078  25.351  1.00  0.00     0.054 A 
BRANCH  99 100
ATOM    100  S   UNL A   1      53.852  25.529  24.803  1.00  0.00     0.124 S 
ATOM    101  O   UNL A   1      53.971  26.171  23.497  1.00  0.00    -0.237 OA
ATOM    102  O   UNL A   1      54.726  26.058  25.846  1.00  0.00    -0.237 OA
ATOM    103  O   UNL A   1      53.739  24.072  24.770  1.00  0.00    -0.744 OA
ENDBRANCH  99 100
ENDBRANCH  73  94
ENDBRANCH  47  48
ENDBRANCH  39  42
ENDBRANCH  37  38
ENDBRANCH   1  37
TORSDOF 16
ENDMDL
MODEL 2
REMARK VINA RESULT:     -11.7      0.442      7.719
REMARK SMILES Cc1c(C(=O)NCCCNC(=O)c2ccc(-c3c4nc(c(-c5ccc(S(=O)(=O)[O-])cc5)c5ccc([nH]5)c(-c5ccc(S(=O)(=O)[O-])cc5)c5nc(c(-c6ccc(S(=O)(=O)[O-])cc6)c6ccc3[nH]6)C=C5)C=C4)cc2)ccc2c1N[C@@H](c1ccc(S(=O)(=O)N3CCOCC3)cc1)[C@@H]1CC=C[C@H]21
REMARK SMILES IDX 8 1 7 2 6 3 4 4 5 5 3 7 1 8 2 9 76 10 73 11 75 12 77 13
REMARK SMILES IDX 74 14 98 15 78 16 94 18 97 19 95 20 96 21 79 22 80 23 93 24
REMARK SMILES IDX 81 25 92 26 82 27 83 28 84 29 85 30 86 31 87 32 91 33 88 34
REMARK SMILES IDX 90 35 89 36 9 37 10 38 11 39 12 41 13 42 14 43 72 44 15 45
REMARK SMILES IDX 71 46 16 47 17 48 18 49 65 50 19 51 70 52 64 53 66 54 20 55
REMARK SMILES IDX 69 56 63 57 62 58 21 60 51 61 32 62 50 63 33 64 36 65 49 66
REMARK SMILES IDX 67 67 34 68 35 69 48 71 68 72 37 73 22 74 23 75 31 76 24 77
REMARK SMILES IDX 30 78 25 79 26 80 27 81 28 82 29 83 52 84 53 85 61 86 54 87
REMARK SMILES IDX 60 88 55 89 56 90 57 91 58 92 59 93 38 94 39 95 47 96 40 97
REMARK SMILES IDX 46 98 41 99 42 100 43 101 44 102 45 103
REMARK H PARENT 6 6 77 17 10 40 66 59 36 70
REMARK Flexibility Score: inf
ROOT
ATOM      1  C   UNL A   1      34.680  31.214  27.275  1.00  0.00     0.042 C 
ENDROOT
BRANCH   1   2
ATOM      2  C   UNL A   1      33.679  31.872  28.211  1.00  0.00     0.118 C 
BRANCH   2   3
ATOM      3  N   UNL A   1      33.685  33.327  28.173  1.00  0.00    -0.352 N 
ATOM      4  C   UNL A   1      34.645  34.223  28.579  1.00  0.00     0.251 C 
ATOM      5  O   UNL A   1      34.442  35.426  28.422  1.00  0.00    -0.269 OA
ATOM      6  H   UNL A   1      32.873  33.735  27.796  1.00  0.00     0.163 HD
BRANCH   4   7
ATOM      7  C   UNL A   1      35.874  33.774  29.277  1.00  0.00     0.044 A 
ATOM      8  C   UNL A   1      34.690  33.055  31.421  1.00  0.00     0.047 C 
ATOM      9  C   UNL A   1      35.927  33.399  30.628  1.00  0.00    -0.015 A 
ATOM     10  C   UNL A   1      37.187  33.249  31.242  1.00  0.00     0.042 A 
ATOM     11  C   UNL A   1      37.033  33.716  28.495  1.00  0.00     0.014 A 
ATOM     12  C   UNL A   1      38.318  33.086  30.445  1.00  0.00    -0.017 A 
ATOM     13  N   UNL A   1      37.278  33.188  32.624  1.00  0.00    -0.377 N 
ATOM     14  C   UNL A   1      38.236  33.317  29.064  1.00  0.00     0.007 A 
ATOM     15  C   UNL A   1      39.593  32.591  31.053  1.00  0.00     0.049 C 
ATOM     16  C   UNL A   1      38.566  33.212  33.326  1.00  0.00     0.114 C 
ATOM     17  H   UNL A   1      36.449  33.128  33.151  1.00  0.00     0.161 HD
ATOM     18  C   UNL A   1      39.556  32.263  32.577  1.00  0.00     0.031 C 
ATOM     19  C   UNL A   1      40.746  33.551  30.942  1.00  0.00    -0.023 C 
ATOM     20  C   UNL A   1      41.059  32.383  32.925  1.00  0.00     0.034 C 
ATOM     21  C   UNL A   1      41.570  33.421  31.984  1.00  0.00    -0.030 C 
BRANCH  16  22
ATOM     22  C   UNL A   1      38.287  32.918  34.823  1.00  0.00    -0.025 A 
ATOM     23  C   UNL A   1      38.670  31.716  35.470  1.00  0.00     0.007 A 
ATOM     24  C   UNL A   1      37.518  33.795  35.591  1.00  0.00     0.007 A 
ATOM     25  C   UNL A   1      38.282  31.409  36.785  1.00  0.00     0.022 A 
ATOM     26  C   UNL A   1      37.205  33.539  36.923  1.00  0.00     0.022 A 
ATOM     27  C   UNL A   1      37.548  32.335  37.513  1.00  0.00     0.082 A 
BRANCH  27  28
ATOM     28  S   UNL A   1      36.958  31.935  39.140  1.00  0.00     0.243 S 
ATOM     29  O   UNL A   1      35.601  32.428  39.224  1.00  0.00    -0.207 OA
ATOM     30  O   UNL A   1      37.279  30.540  39.358  1.00  0.00    -0.207 OA
BRANCH  28  31
ATOM     31  N   UNL A   1      37.903  32.873  40.160  1.00  0.00    -0.193 NA
ATOM     32  C   UNL A   1      39.344  33.084  39.912  1.00  0.00     0.131 C 
ATOM     33  C   UNL A   1      37.366  33.503  41.380  1.00  0.00     0.131 C 
ATOM     34  C   UNL A   1      40.148  32.810  41.191  1.00  0.00     0.177 C 
ATOM     35  C   UNL A   1      38.287  33.267  42.585  1.00  0.00     0.177 C 
ATOM     36  O   UNL A   1      39.655  33.579  42.299  1.00  0.00    -0.379 OA
ENDBRANCH  28  31
ENDBRANCH  27  28
ENDBRANCH  16  22
ENDBRANCH   4   7
ENDBRANCH   2   3
ENDBRANCH   1   2
BRANCH   1  37
ATOM     37  C   UNL A   1      35.500  30.102  27.917  1.00  0.00     0.118 C 
BRANCH  37  38
ATOM     38  N   UNL A   1      35.458  30.109  29.374  1.00  0.00    -0.352 N 
ATOM     39  C   UNL A   1      36.421  29.830  30.315  1.00  0.00     0.251 C 
ATOM     40  H   UNL A   1      34.584  30.358  29.752  1.00  0.00     0.163 HD
ATOM     41  O   UNL A   1      36.096  29.755  31.498  1.00  0.00    -0.269 OA
BRANCH  39  42
ATOM     42  C   UNL A   1      37.825  29.574  29.922  1.00  0.00     0.039 A 
ATOM     43  C   UNL A   1      38.723  29.109  30.888  1.00  0.00     0.014 A 
ATOM     44  C   UNL A   1      38.273  29.816  28.624  1.00  0.00     0.014 A 
ATOM     45  C   UNL A   1      40.039  28.801  30.528  1.00  0.00     0.010 A 
ATOM     46  C   UNL A   1      39.552  29.420  28.243  1.00  0.00     0.010 A 
ATOM     47  C   UNL A   1      40.450  28.908  29.191  1.00  0.00    -0.014 A 
BRANCH  47  48
ATOM     48  C   UNL A   1      41.817  28.524  28.755  1.00  0.00     0.031 A 
ATOM     49  C   UNL A   1      42.913  29.557  28.731  1.00  0.00     0.074 A 
ATOM     50  C   UNL A   1      42.059  27.272  28.317  1.00  0.00     0.049 A 
ATOM     51  N   UNL A   1      44.125  29.460  28.250  1.00  0.00    -0.248 NA
ATOM     52  C   UNL A   1      42.598  30.880  29.300  1.00  0.00     0.031 C 
ATOM     53  C   UNL A   1      41.084  26.178  28.274  1.00  0.00     0.029 A 
ATOM     54  N   UNL A   1      43.208  26.705  27.821  1.00  0.00    -0.354 N 
ATOM     55  C   UNL A   1      44.703  30.709  28.428  1.00  0.00     0.074 A 
ATOM     56  C   UNL A   1      43.703  31.562  29.033  1.00  0.00     0.031 C 
ATOM     57  C   UNL A   1      41.687  25.066  27.823  1.00  0.00     0.029 A 
ATOM     58  C   UNL A   1      43.075  25.375  27.499  1.00  0.00     0.049 A 
ATOM     59  H   UNL A   1      44.048  27.205  27.707  1.00  0.00     0.167 HD
ATOM     60  C   UNL A   1      45.963  31.109  28.138  1.00  0.00     0.031 A 
ATOM     61  C   UNL A   1      43.970  24.501  26.998  1.00  0.00     0.031 A 
ATOM     62  C   UNL A   1      46.977  30.249  27.593  1.00  0.00     0.049 A 
ATOM     63  C   UNL A   1      45.364  24.970  26.686  1.00  0.00     0.074 A 
ATOM     64  C   UNL A   1      48.295  30.556  27.306  1.00  0.00     0.029 A 
ATOM     65  N   UNL A   1      46.797  28.913  27.282  1.00  0.00    -0.354 N 
ATOM     66  N   UNL A   1      45.884  26.162  26.850  1.00  0.00    -0.248 NA
ATOM     67  C   UNL A   1      46.289  23.978  26.118  1.00  0.00     0.031 C 
ATOM     68  C   UNL A   1      48.909  29.406  26.804  1.00  0.00     0.029 A 
ATOM     69  C   UNL A   1      47.980  28.378  26.808  1.00  0.00     0.049 A 
ATOM     70  H   UNL A   1      45.952  28.417  27.383  1.00  0.00     0.167 HD
ATOM     71  C   UNL A   1      47.204  26.056  26.430  1.00  0.00     0.074 A 
ATOM     72  C   UNL A   1      47.406  24.688  26.005  1.00  0.00     0.031 C 
ATOM     73  C   UNL A   1      48.165  27.011  26.405  1.00  0.00     0.031 A 
BRANCH  60  74
ATOM     74  C   UNL A   1      46.336  32.533  28.431  1.00  0.00    -0.014 A 
ATOM     75  C   UNL A   1      46.972  32.869  29.638  1.00  0.00     0.010 A 
ATOM     76  C   UNL A   1      46.139  33.525  27.454  1.00  0.00     0.010 A 
ATOM     77  C   UNL A   1      47.402  34.178  29.866  1.00  0.00     0.020 A 
ATOM     78  C   UNL A   1      46.584  34.832  27.672  1.00  0.00     0.020 A 
ATOM     79  C   UNL A   1      47.213  35.149  28.877  1.00  0.00     0.054 A 
BRANCH  79  80
ATOM     80  S   UNL A   1      47.837  36.824  29.185  1.00  0.00     0.124 S 
ATOM     81  O   UNL A   1      47.312  37.560  28.038  1.00  0.00    -0.237 OA
ATOM     82  O   UNL A   1      47.233  37.152  30.473  1.00  0.00    -0.237 OA
ATOM     83  O   UNL A   1      49.288  36.657  29.203  1.00  0.00    -0.744 OA
ENDBRANCH  79  80
ENDBRANCH  60  74
BRANCH  61  84
ATOM     84  C   UNL A   1      43.589  23.080  26.791  1.00  0.00    -0.014 A 
ATOM     85  C   UNL A   1      43.627  22.528  25.498  1.00  0.00     0.010 A 
ATOM     86  C   UNL A   1      43.194  22.272  27.871  1.00  0.00     0.010 A 
ATOM     87  C   UNL A   1      43.266  21.196  25.285  1.00  0.00     0.020 A 
ATOM     88  C   UNL A   1      42.849  20.932  27.664  1.00  0.00     0.020 A 
ATOM     89  C   UNL A   1      42.883  20.404  26.372  1.00  0.00     0.054 A 
BRANCH  89  90
ATOM     90  S   UNL A   1      42.451  18.668  26.070  1.00  0.00     0.124 S 
ATOM     91  O   UNL A   1      43.365  18.308  24.990  1.00  0.00    -0.237 OA
ATOM     92  O   UNL A   1      42.727  18.051  27.365  1.00  0.00    -0.237 OA
ATOM     93  O   UNL A   1      41.038  18.723  25.702  1.00  0.00    -0.744 OA
ENDBRANCH  89  90
ENDBRANCH  61  84
BRANCH  73  94
ATOM     94  C   UNL A   1      49.536  26.616  25.937  1.00  0.00    -0.014 A 
ATOM     95  C   UNL A   1      49.972  26.938  24.642  1.00  0.00     0.010 A 
ATOM     96  C   UNL A   1      50.432  26.026  26.845  1.00  0.00     0.010 A 
ATOM     97  C   UNL A   1      51.290  26.679  24.263  1.00  0.00     0.020 A 
ATOM     98  C   UNL A   1      51.756  25.780  26.474  1.00  0.00     0.020 A 
ATOM     99  C   UNL A   1      52.176  26.111  25.184  1.00  0.00     0.054 A 
BRANCH  99 100
ATOM    100  S   UNL A   1      53.901  25.860  24.683  1.00  0.00     0.124 S 
ATOM    101  O   UNL A   1      54.120  24.457  25.025  1.00  0.00    -0.237 OA
ATOM    102  O   UNL A   1      53.860  26.160  23.254  1.00  0.00    -0.237 OA
ATOM    103  O   UNL A   1      54.645  26.820  25.497  1.00  0.00    -0.744 OA
ENDBRANCH  99 100
ENDBRANCH  73  94
ENDBRANCH  47  48
ENDBRANCH  39  42
ENDBRANCH  37  38
ENDBRANCH   1  37
TORSDOF 16
ENDMDL
MODEL 3
REMARK VINA RESULT:     -11.4      2.358      8.578
REMARK SMILES Cc1c(C(=O)NCCCNC(=O)c2ccc(-c3c4nc(c(-c5ccc(S(=O)(=O)[O-])cc5)c5ccc([nH]5)c(-c5ccc(S(=O)(=O)[O-])cc5)c5nc(c(-c6ccc(S(=O)(=O)[O-])cc6)c6ccc3[nH]6)C=C5)C=C4)cc2)ccc2c1N[C@@H](c1ccc(S(=O)(=O)N3CCOCC3)cc1)[C@@H]1CC=C[C@H]21
REMARK SMILES IDX 8 1 7 2 6 3 4 4 5 5 3 7 1 8 2 9 76 10 73 11 75 12 77 13
REMARK SMILES IDX 74 14 98 15 78 16 94 18 97 19 95 20 96 21 79 22 80 23 93 24
REMARK SMILES IDX 81 25 92 26 82 27 83 28 84 29 85 30 86 31 87 32 91 33 88 34
REMARK SMILES IDX 90 35 89 36 9 37 10 38 11 39 12 41 13 42 14 43 72 44 15 45
REMARK SMILES IDX 71 46 16 47 17 48 18 49 65 50 19 51 70 52 64 53 66 54 20 55
REMARK SMILES IDX 69 56 63 57 62 58 21 60 51 61 32 62 50 63 33 64 36 65 49 66
REMARK SMILES IDX 67 67 34 68 35 69 48 71 68 72 37 73 22 74 23 75 31 76 24 77
REMARK SMILES IDX 30 78 25 79 26 80 27 81 28 82 29 83 52 84 53 85 61 86 54 87
REMARK SMILES IDX 60 88 55 89 56 90 57 91 58 92 59 93 38 94 39 95 47 96 40 97
REMARK SMILES IDX 46 98 41 99 42 100 43 101 44 102 45 103
REMARK H PARENT 6 6 77 17 10 40 66 59 36 70
REMARK Flexibility Score: inf
ROOT
ATOM      1  C   UNL A   1      34.531  30.697  27.456  1.00  0.00     0.042 C 
ENDROOT
BRANCH   1   2
ATOM      2  C   UNL A   1      33.876  31.776  28.305  1.00  0.00     0.118 C 
BRANCH   2   3
ATOM      3  N   UNL A   1      33.931  33.111  27.730  1.00  0.00    -0.352 N 
ATOM      4  C   UNL A   1      34.478  34.270  28.226  1.00  0.00     0.251 C 
ATOM      5  O   UNL A   1      34.432  35.292  27.542  1.00  0.00    -0.269 OA
ATOM      6  H   UNL A   1      33.511  33.199  26.845  1.00  0.00     0.163 HD
BRANCH   4   7
ATOM      7  C   UNL A   1      35.041  34.333  29.596  1.00  0.00     0.044 A 
ATOM      8  C   UNL A   1      37.337  33.416  28.961  1.00  0.00     0.047 C 
ATOM      9  C   UNL A   1      36.280  33.791  29.970  1.00  0.00    -0.015 A 
ATOM     10  C   UNL A   1      36.586  33.679  31.342  1.00  0.00     0.042 A 
ATOM     11  C   UNL A   1      34.262  35.004  30.546  1.00  0.00     0.014 A 
ATOM     12  C   UNL A   1      35.868  34.437  32.264  1.00  0.00    -0.017 A 
ATOM     13  N   UNL A   1      37.642  32.880  31.750  1.00  0.00    -0.377 N 
ATOM     14  C   UNL A   1      34.703  35.106  31.859  1.00  0.00     0.007 A 
ATOM     15  C   UNL A   1      36.384  34.599  33.660  1.00  0.00     0.049 C 
ATOM     16  C   UNL A   1      37.898  32.582  33.164  1.00  0.00     0.114 C 
ATOM     17  H   UNL A   1      38.240  32.499  31.067  1.00  0.00     0.161 HD
ATOM     18  C   UNL A   1      37.741  33.902  33.985  1.00  0.00     0.031 C 
ATOM     19  C   UNL A   1      35.466  34.064  34.725  1.00  0.00    -0.023 C 
ATOM     20  C   UNL A   1      37.629  33.776  35.523  1.00  0.00     0.034 C 
ATOM     21  C   UNL A   1      36.166  33.618  35.770  1.00  0.00    -0.030 C 
BRANCH  16  22
ATOM     22  C   UNL A   1      39.261  31.847  33.245  1.00  0.00    -0.025 A 
ATOM     23  C   UNL A   1      39.522  30.775  34.137  1.00  0.00     0.007 A 
ATOM     24  C   UNL A   1      40.360  32.298  32.510  1.00  0.00     0.007 A 
ATOM     25  C   UNL A   1      40.804  30.220  34.296  1.00  0.00     0.022 A 
ATOM     26  C   UNL A   1      41.612  31.694  32.596  1.00  0.00     0.022 A 
ATOM     27  C   UNL A   1      41.850  30.685  33.512  1.00  0.00     0.082 A 
BRANCH  27  28
ATOM     28  S   UNL A   1      43.500  30.073  33.761  1.00  0.00     0.243 S 
ATOM     29  O   UNL A   1      44.299  30.574  32.666  1.00  0.00    -0.207 OA
ATOM     30  O   UNL A   1      43.833  30.353  35.142  1.00  0.00    -0.207 OA
BRANCH  28  31
ATOM     31  N   UNL A   1      43.354  28.414  33.567  1.00  0.00    -0.193 NA
ATOM     32  C   UNL A   1      43.307  27.494  34.722  1.00  0.00     0.131 C 
ATOM     33  C   UNL A   1      43.308  27.773  32.239  1.00  0.00     0.131 C 
ATOM     34  C   UNL A   1      44.300  26.341  34.524  1.00  0.00     0.177 C 
ATOM     35  C   UNL A   1      44.253  26.566  32.165  1.00  0.00     0.177 C 
ATOM     36  O   UNL A   1      44.089  25.671  33.271  1.00  0.00    -0.379 OA
ENDBRANCH  28  31
ENDBRANCH  27  28
ENDBRANCH  16  22
ENDBRANCH   4   7
ENDBRANCH   2   3
ENDBRANCH   1   2
BRANCH   1  37
ATOM     37  C   UNL A   1      35.581  29.874  28.192  1.00  0.00     0.118 C 
BRANCH  37  38
ATOM     38  N   UNL A   1      35.575  30.071  29.635  1.00  0.00    -0.352 N 
ATOM     39  C   UNL A   1      36.567  29.938  30.578  1.00  0.00     0.251 C 
ATOM     40  H   UNL A   1      34.705  30.350  30.002  1.00  0.00     0.163 HD
ATOM     41  O   UNL A   1      36.274  30.012  31.769  1.00  0.00    -0.269 OA
BRANCH  39  42
ATOM     42  C   UNL A   1      37.967  29.661  30.183  1.00  0.00     0.039 A 
ATOM     43  C   UNL A   1      38.810  29.014  31.091  1.00  0.00     0.014 A 
ATOM     44  C   UNL A   1      38.466  30.059  28.943  1.00  0.00     0.014 A 
ATOM     45  C   UNL A   1      40.118  28.686  30.719  1.00  0.00     0.010 A 
ATOM     46  C   UNL A   1      39.733  29.650  28.537  1.00  0.00     0.010 A 
ATOM     47  C   UNL A   1      40.574  28.959  29.421  1.00  0.00    -0.014 A 
BRANCH  47  48
ATOM     48  C   UNL A   1      41.930  28.563  28.964  1.00  0.00     0.031 A 
ATOM     49  C   UNL A   1      43.040  29.582  28.944  1.00  0.00     0.074 A 
ATOM     50  C   UNL A   1      42.152  27.315  28.502  1.00  0.00     0.049 A 
ATOM     51  N   UNL A   1      44.245  29.477  28.447  1.00  0.00    -0.248 NA
ATOM     52  C   UNL A   1      42.749  30.900  29.536  1.00  0.00     0.031 C 
ATOM     53  C   UNL A   1      41.161  26.236  28.453  1.00  0.00     0.029 A 
ATOM     54  N   UNL A   1      43.287  26.742  27.985  1.00  0.00    -0.354 N 
ATOM     55  C   UNL A   1      44.842  30.716  28.639  1.00  0.00     0.074 A 
ATOM     56  C   UNL A   1      43.860  31.572  29.268  1.00  0.00     0.031 C 
ATOM     57  C   UNL A   1      41.745  25.123  27.978  1.00  0.00     0.029 A 
ATOM     58  C   UNL A   1      43.133  25.419  27.644  1.00  0.00     0.049 A 
ATOM     59  H   UNL A   1      44.132  27.232  27.869  1.00  0.00     0.167 HD
ATOM     60  C   UNL A   1      46.103  31.103  28.341  1.00  0.00     0.031 A 
ATOM     61  C   UNL A   1      44.011  24.542  27.120  1.00  0.00     0.031 A 
ATOM     62  C   UNL A   1      47.100  30.240  27.772  1.00  0.00     0.049 A 
ATOM     63  C   UNL A   1      45.407  24.997  26.799  1.00  0.00     0.074 A 
ATOM     64  C   UNL A   1      48.419  30.534  27.475  1.00  0.00     0.029 A 
ATOM     65  N   UNL A   1      46.899  28.911  27.441  1.00  0.00    -0.354 N 
ATOM     66  N   UNL A   1      45.945  26.179  26.976  1.00  0.00    -0.248 NA
ATOM     67  C   UNL A   1      46.314  24.002  26.206  1.00  0.00     0.031 C 
ATOM     68  C   UNL A   1      49.012  29.384  26.948  1.00  0.00     0.029 A 
ATOM     69  C   UNL A   1      48.070  28.368  26.946  1.00  0.00     0.049 A 
ATOM     70  H   UNL A   1      46.048  28.424  27.544  1.00  0.00     0.167 HD
ATOM     71  C   UNL A   1      47.259  26.063  26.540  1.00  0.00     0.074 A 
ATOM     72  C   UNL A   1      47.438  24.699  26.091  1.00  0.00     0.031 C 
ATOM     73  C   UNL A   1      48.232  27.005  26.519  1.00  0.00     0.031 A 
BRANCH  60  74
ATOM     74  C   UNL A   1      46.498  32.518  28.652  1.00  0.00    -0.014 A 
ATOM     75  C   UNL A   1      46.288  33.540  27.710  1.00  0.00     0.010 A 
ATOM     76  C   UNL A   1      46.989  32.844  29.929  1.00  0.00     0.010 A 
ATOM     77  C   UNL A   1      46.569  34.867  28.039  1.00  0.00     0.020 A 
ATOM     78  C   UNL A   1      47.255  34.175  30.266  1.00  0.00     0.020 A 
ATOM     79  C   UNL A   1      47.042  35.177  29.318  1.00  0.00     0.054 A 
BRANCH  79  80
ATOM     80  S   UNL A   1      47.339  36.919  29.727  1.00  0.00     0.124 S 
ATOM     81  O   UNL A   1      48.674  36.869  30.320  1.00  0.00    -0.237 OA
ATOM     82  O   UNL A   1      47.255  37.567  28.422  1.00  0.00    -0.237 OA
ATOM     83  O   UNL A   1      46.261  37.248  30.657  1.00  0.00    -0.744 OA
ENDBRANCH  79  80
ENDBRANCH  60  74
BRANCH  61  84
ATOM     84  C   UNL A   1      43.609  23.128  26.894  1.00  0.00    -0.014 A 
ATOM     85  C   UNL A   1      43.560  22.617  25.585  1.00  0.00     0.010 A 
ATOM     86  C   UNL A   1      43.279  22.290  27.972  1.00  0.00     0.010 A 
ATOM     87  C   UNL A   1      43.179  21.293  25.356  1.00  0.00     0.020 A 
ATOM     88  C   UNL A   1      42.913  20.958  27.747  1.00  0.00     0.020 A 
ATOM     89  C   UNL A   1      42.861  20.470  26.440  1.00  0.00     0.054 A 
BRANCH  89  90
ATOM     90  S   UNL A   1      42.401  18.745  26.114  1.00  0.00     0.124 S 
ATOM     91  O   UNL A   1      42.527  18.138  27.435  1.00  0.00    -0.237 OA
ATOM     92  O   UNL A   1      41.038  18.880  25.606  1.00  0.00    -0.237 OA
ATOM     93  O   UNL A   1      43.386  18.307  25.127  1.00  0.00    -0.744 OA
ENDBRANCH  89  90
ENDBRANCH  61  84
BRANCH  73  94
ATOM     94  C   UNL A   1      49.592  26.600  26.030  1.00  0.00    -0.014 A 
ATOM     95  C   UNL A   1      49.998  26.889  24.717  1.00  0.00     0.010 A 
ATOM     96  C   UNL A   1      50.511  26.035  26.932  1.00  0.00     0.010 A 
ATOM     97  C   UNL A   1      51.307  26.622  24.314  1.00  0.00     0.020 A 
ATOM     98  C   UNL A   1      51.826  25.781  26.537  1.00  0.00     0.020 A 
ATOM     99  C   UNL A   1      52.216  26.079  25.230  1.00  0.00     0.054 A 
BRANCH  99 100
ATOM    100  S   UNL A   1      53.929  25.817  24.695  1.00  0.00     0.124 S 
ATOM    101  O   UNL A   1      54.120  24.393  24.962  1.00  0.00    -0.237 OA
ATOM    102  O   UNL A   1      53.879  26.191  23.284  1.00  0.00    -0.237 OA
ATOM    103  O   UNL A   1      54.702  26.717  25.548  1.00  0.00    -0.744 OA
ENDBRANCH  99 100
ENDBRANCH  73  94
ENDBRANCH  47  48
ENDBRANCH  39  42
ENDBRANCH  37  38
ENDBRANCH   1  37
TORSDOF 16
ENDMDL
