MODEL 1
REMARK VINA RESULT:     -10.4      0.000      0.000
REMARK SMILES O=C(NCCCNC(=O)[C@@H](CO)NC(=O)[C@H]1CCCc2ccccc21)c1ccc(-c2c3nc(c(-c4ccc(S(=O)(=O)[O-])cc4)c4ccc([nH]4)c(-c4ccc(S(=O)(=O)[O-])cc4)c4nc(c(-c5ccc(S(=O)(=O)[O-])cc5)c5ccc2[nH]5)C=C4)C=C3)cc1
REMARK SMILES IDX 4 1 3 2 1 3 2 4 26 6 27 7 85 8 28 9 84 10 29 11 30 12 31 13
REMARK SMILES IDX 78 14 32 15 83 16 77 17 79 18 33 19 82 20 76 21 75 22 34 24
REMARK SMILES IDX 64 25 45 26 63 27 46 28 49 29 62 30 80 31 47 32 48 33 61 35
REMARK SMILES IDX 81 36 50 37 35 38 36 39 44 40 37 41 43 42 38 43 39 44 40 45
REMARK SMILES IDX 41 46 42 47 65 48 66 49 74 50 67 51 73 52 68 53 69 54 70 55
REMARK SMILES IDX 71 56 72 57 51 58 52 59 60 60 53 61 59 62 54 63 55 64 56 65
REMARK SMILES IDX 57 66 58 67 5 68 6 69 7 70 8 71 9 73 10 74 11 75 12 76 13 78
REMARK SMILES IDX 14 79 15 81 16 82 17 83 25 84 18 85 20 86 24 87 19 88 21 89
REMARK SMILES IDX 23 90 22 91
REMARK H PARENT 3 5 79 23 49 34 7 72 12 77 13 80
REMARK Flexibility Score: inf
ROOT
ATOM      1  C   UNL A   1      34.764  32.762  28.068  1.00  0.00     0.118 C 
ENDROOT
BRANCH   1   2
ATOM      2  N   UNL A   1      33.968  31.558  27.896  1.00  0.00    -0.352 N 
ATOM      3  O   UNL A   1      33.610  29.393  27.389  1.00  0.00    -0.269 OA
ATOM      4  C   UNL A   1      34.388  30.254  27.778  1.00  0.00     0.251 C 
ATOM      5  H   UNL A   1      32.994  31.694  27.859  1.00  0.00     0.163 HD
BRANCH   4   6
ATOM      6  C   UNL A   1      35.788  29.911  28.109  1.00  0.00     0.039 A 
ATOM      7  C   UNL A   1      36.798  30.090  27.161  1.00  0.00     0.014 A 
ATOM      8  C   UNL A   1      36.094  29.421  29.380  1.00  0.00     0.014 A 
ATOM      9  C   UNL A   1      38.080  29.633  27.424  1.00  0.00     0.010 A 
ATOM     10  C   UNL A   1      37.414  29.077  29.685  1.00  0.00     0.010 A 
ATOM     11  C   UNL A   1      38.414  29.165  28.704  1.00  0.00    -0.014 A 
BRANCH  11  12
ATOM     12  C   UNL A   1      39.836  28.888  29.021  1.00  0.00     0.031 A 
ATOM     13  C   UNL A   1      40.481  27.582  28.661  1.00  0.00     0.074 A 
ATOM     14  C   UNL A   1      40.540  29.845  29.658  1.00  0.00     0.049 A 
ATOM     15  N   UNL A   1      41.701  27.178  28.901  1.00  0.00    -0.248 NA
ATOM     16  C   UNL A   1      39.650  26.597  27.950  1.00  0.00     0.031 C 
ATOM     17  C   UNL A   1      40.008  31.150  30.069  1.00  0.00     0.029 A 
ATOM     18  N   UNL A   1      41.846  29.879  30.069  1.00  0.00    -0.354 N 
ATOM     19  C   UNL A   1      41.781  25.883  28.402  1.00  0.00     0.074 A 
ATOM     20  C   UNL A   1      40.476  25.563  27.861  1.00  0.00     0.031 C 
ATOM     21  C   UNL A   1      40.985  31.866  30.638  1.00  0.00     0.029 A 
ATOM     22  C   UNL A   1      42.186  31.045  30.712  1.00  0.00     0.049 A 
ATOM     23  H   UNL A   1      42.480  29.141  29.919  1.00  0.00     0.167 HD
ATOM     24  C   UNL A   1      42.845  25.044  28.400  1.00  0.00     0.031 A 
ATOM     25  C   UNL A   1      43.322  31.408  31.335  1.00  0.00     0.031 A 
ATOM     26  C   UNL A   1      44.131  25.376  28.957  1.00  0.00     0.049 A 
ATOM     27  C   UNL A   1      44.473  30.448  31.351  1.00  0.00     0.074 A 
ATOM     28  C   UNL A   1      45.286  24.612  28.972  1.00  0.00     0.029 A 
ATOM     29  N   UNL A   1      44.430  26.562  29.615  1.00  0.00    -0.354 N 
ATOM     30  N   UNL A   1      44.544  29.247  30.829  1.00  0.00    -0.248 NA
ATOM     31  C   UNL A   1      45.694  30.889  32.033  1.00  0.00     0.031 C 
ATOM     32  C   UNL A   1      46.260  25.307  29.696  1.00  0.00     0.029 A 
ATOM     33  C   UNL A   1      45.740  26.536  30.070  1.00  0.00     0.049 A 
ATOM     34  H   UNL A   1      43.804  27.312  29.739  1.00  0.00     0.167 HD
ATOM     35  C   UNL A   1      45.827  28.791  31.106  1.00  0.00     0.074 A 
ATOM     36  C   UNL A   1      46.499  29.856  31.824  1.00  0.00     0.031 C 
ATOM     37  C   UNL A   1      46.393  27.601  30.792  1.00  0.00     0.031 A 
BRANCH  24  38
ATOM     38  C   UNL A   1      42.645  23.665  27.818  1.00  0.00    -0.014 A 
ATOM     39  C   UNL A   1      42.166  22.597  28.599  1.00  0.00     0.010 A 
ATOM     40  C   UNL A   1      42.923  23.441  26.457  1.00  0.00     0.010 A 
ATOM     41  C   UNL A   1      42.024  21.321  28.044  1.00  0.00     0.020 A 
ATOM     42  C   UNL A   1      42.752  22.175  25.890  1.00  0.00     0.020 A 
ATOM     43  C   UNL A   1      42.325  21.117  26.694  1.00  0.00     0.054 A 
BRANCH  43  44
ATOM     44  S   UNL A   1      42.143  19.449  26.006  1.00  0.00     0.124 S 
ATOM     45  O   UNL A   1      40.698  19.365  25.801  1.00  0.00    -0.237 OA
ATOM     46  O   UNL A   1      42.945  19.516  24.786  1.00  0.00    -0.237 OA
ATOM     47  O   UNL A   1      42.674  18.580  27.052  1.00  0.00    -0.744 OA
ENDBRANCH  43  44
ENDBRANCH  24  38
BRANCH  25  48
ATOM     48  C   UNL A   1      43.386  32.728  32.017  1.00  0.00    -0.014 A 
ATOM     49  C   UNL A   1      43.382  33.922  31.279  1.00  0.00     0.010 A 
ATOM     50  C   UNL A   1      43.379  32.791  33.424  1.00  0.00     0.010 A 
ATOM     51  C   UNL A   1      43.371  35.157  31.936  1.00  0.00     0.020 A 
ATOM     52  C   UNL A   1      43.334  34.021  34.084  1.00  0.00     0.020 A 
ATOM     53  C   UNL A   1      43.339  35.198  33.334  1.00  0.00     0.054 A 
BRANCH  53  54
ATOM     54  S   UNL A   1      43.244  36.810  34.160  1.00  0.00     0.124 S 
ATOM     55  O   UNL A   1      43.476  37.731  33.052  1.00  0.00    -0.237 OA
ATOM     56  O   UNL A   1      41.891  36.804  34.708  1.00  0.00    -0.237 OA
ATOM     57  O   UNL A   1      44.312  36.747  35.157  1.00  0.00    -0.744 OA
ENDBRANCH  53  54
ENDBRANCH  25  48
BRANCH  37  58
ATOM     58  C   UNL A   1      47.827  27.393  31.198  1.00  0.00    -0.014 A 
ATOM     59  C   UNL A   1      48.160  26.809  32.433  1.00  0.00     0.010 A 
ATOM     60  C   UNL A   1      48.855  27.733  30.299  1.00  0.00     0.010 A 
ATOM     61  C   UNL A   1      49.499  26.589  32.770  1.00  0.00     0.020 A 
ATOM     62  C   UNL A   1      50.191  27.486  30.620  1.00  0.00     0.020 A 
ATOM     63  C   UNL A   1      50.505  26.925  31.859  1.00  0.00     0.054 A 
BRANCH  63  64
ATOM     64  S   UNL A   1      52.230  26.572  32.296  1.00  0.00     0.124 S 
ATOM     65  O   UNL A   1      52.937  27.682  31.663  1.00  0.00    -0.237 OA
ATOM     66  O   UNL A   1      52.201  26.596  33.756  1.00  0.00    -0.237 OA
ATOM     67  O   UNL A   1      52.475  25.259  31.704  1.00  0.00    -0.744 OA
ENDBRANCH  63  64
ENDBRANCH  37  58
ENDBRANCH  11  12
ENDBRANCH   4   6
ENDBRANCH   1   2
BRANCH   1  68
ATOM     68  C   UNL A   1      33.911  33.969  28.414  1.00  0.00     0.042 C 
BRANCH  68  69
ATOM     69  C   UNL A   1      34.339  34.672  29.697  1.00  0.00     0.117 C 
BRANCH  69  70
ATOM     70  N   UNL A   1      33.213  34.894  30.591  1.00  0.00    -0.354 N 
ATOM     71  C   UNL A   1      33.155  35.222  31.906  1.00  0.00     0.244 C 
ATOM     72  H   UNL A   1      32.333  34.787  30.163  1.00  0.00     0.163 HD
ATOM     73  O   UNL A   1      32.097  34.965  32.495  1.00  0.00    -0.273 OA
BRANCH  71  74
ATOM     74  C   UNL A   1      34.342  35.791  32.696  1.00  0.00     0.197 C 
BRANCH  74  75
ATOM     75  C   UNL A   1      34.188  37.306  32.930  1.00  0.00     0.191 C 
BRANCH  75  76
ATOM     76  O   UNL A   1      32.980  37.834  32.398  1.00  0.00    -0.394 OA
ATOM     77  H   UNL A   1      32.829  38.722  32.759  1.00  0.00     0.210 HD
ENDBRANCH  75  76
ENDBRANCH  74  75
BRANCH  74  78
ATOM     78  N   UNL A   1      34.662  35.032  33.904  1.00  0.00    -0.342 N 
ATOM     79  C   UNL A   1      35.728  34.271  34.267  1.00  0.00     0.228 C 
ATOM     80  H   UNL A   1      33.963  35.081  34.594  1.00  0.00     0.164 HD
ATOM     81  O   UNL A   1      35.587  33.694  35.351  1.00  0.00    -0.274 OA
BRANCH  79  82
ATOM     82  C   UNL A   1      36.980  34.064  33.359  1.00  0.00     0.109 C 
ATOM     83  C   UNL A   1      38.164  34.942  33.806  1.00  0.00     0.018 C 
ATOM     84  C   UNL A   1      37.388  32.579  33.268  1.00  0.00    -0.032 A 
ATOM     85  C   UNL A   1      39.519  34.456  33.328  1.00  0.00     0.006 C 
ATOM     86  C   UNL A   1      38.693  32.137  33.578  1.00  0.00    -0.044 A 
ATOM     87  C   UNL A   1      36.451  31.616  32.845  1.00  0.00     0.005 A 
ATOM     88  C   UNL A   1      39.788  33.099  33.944  1.00  0.00     0.036 C 
ATOM     89  C   UNL A   1      38.994  30.766  33.574  1.00  0.00     0.004 A 
ATOM     90  C   UNL A   1      36.767  30.256  32.828  1.00  0.00     0.000 A 
ATOM     91  C   UNL A   1      38.034  29.829  33.208  1.00  0.00     0.000 A 
ENDBRANCH  79  82
ENDBRANCH  74  78
ENDBRANCH  71  74
ENDBRANCH  69  70
ENDBRANCH  68  69
ENDBRANCH   1  68
TORSDOF 17
ENDMDL
MODEL 2
REMARK VINA RESULT:     -10.4      3.241      8.870
REMARK SMILES O=C(NCCCNC(=O)[C@@H](CO)NC(=O)[C@H]1CCCc2ccccc21)c1ccc(-c2c3nc(c(-c4ccc(S(=O)(=O)[O-])cc4)c4ccc([nH]4)c(-c4ccc(S(=O)(=O)[O-])cc4)c4nc(c(-c5ccc(S(=O)(=O)[O-])cc5)c5ccc2[nH]5)C=C4)C=C3)cc1
REMARK SMILES IDX 4 1 3 2 1 3 2 4 26 6 27 7 85 8 28 9 84 10 29 11 30 12 31 13
REMARK SMILES IDX 78 14 32 15 83 16 77 17 79 18 33 19 82 20 76 21 75 22 34 24
REMARK SMILES IDX 64 25 45 26 63 27 46 28 49 29 62 30 80 31 47 32 48 33 61 35
REMARK SMILES IDX 81 36 50 37 35 38 36 39 44 40 37 41 43 42 38 43 39 44 40 45
REMARK SMILES IDX 41 46 42 47 65 48 66 49 74 50 67 51 73 52 68 53 69 54 70 55
REMARK SMILES IDX 71 56 72 57 51 58 52 59 60 60 53 61 59 62 54 63 55 64 56 65
REMARK SMILES IDX 57 66 58 67 5 68 6 69 7 70 8 71 9 73 10 74 11 75 12 76 13 78
REMARK SMILES IDX 14 79 15 81 16 82 17 83 25 84 18 85 20 86 24 87 19 88 21 89
REMARK SMILES IDX 23 90 22 91
REMARK H PARENT 3 5 79 23 49 34 7 72 12 77 13 80
REMARK Flexibility Score: inf
ROOT
ATOM      1  C   UNL A   1      36.002  31.764  28.199  1.00  0.00     0.118 C 
ENDROOT
BRANCH   1   2
ATOM      2  N   UNL A   1      35.667  31.171  29.484  1.00  0.00    -0.352 N 
ATOM      3  O   UNL A   1      35.818  29.656  31.143  1.00  0.00    -0.269 OA
ATOM      4  C   UNL A   1      36.360  30.229  30.207  1.00  0.00     0.251 C 
ATOM      5  H   UNL A   1      34.830  31.488  29.892  1.00  0.00     0.163 HD
BRANCH   4   6
ATOM      6  C   UNL A   1      37.754  29.908  29.832  1.00  0.00     0.039 A 
ATOM      7  C   UNL A   1      38.713  29.681  30.821  1.00  0.00     0.014 A 
ATOM      8  C   UNL A   1      38.101  29.820  28.483  1.00  0.00     0.014 A 
ATOM      9  C   UNL A   1      40.045  29.525  30.469  1.00  0.00     0.010 A 
ATOM     10  C   UNL A   1      39.422  29.538  28.129  1.00  0.00     0.010 A 
ATOM     11  C   UNL A   1      40.408  29.404  29.120  1.00  0.00    -0.014 A 
BRANCH  11  12
ATOM     12  C   UNL A   1      41.800  29.021  28.780  1.00  0.00     0.031 A 
ATOM     13  C   UNL A   1      42.918  30.021  28.809  1.00  0.00     0.074 A 
ATOM     14  C   UNL A   1      42.037  27.741  28.431  1.00  0.00     0.049 A 
ATOM     15  N   UNL A   1      44.179  29.849  28.505  1.00  0.00    -0.248 NA
ATOM     16  C   UNL A   1      42.581  31.394  29.219  1.00  0.00     0.031 C 
ATOM     17  C   UNL A   1      41.020  26.686  28.356  1.00  0.00     0.029 A 
ATOM     18  N   UNL A   1      43.198  27.104  28.078  1.00  0.00    -0.354 N 
ATOM     19  C   UNL A   1      44.782  31.092  28.657  1.00  0.00     0.074 A 
ATOM     20  C   UNL A   1      43.743  32.015  29.061  1.00  0.00     0.031 C 
ATOM     21  C   UNL A   1      41.605  25.531  28.018  1.00  0.00     0.029 A 
ATOM     22  C   UNL A   1      43.019  25.778  27.767  1.00  0.00     0.049 A 
ATOM     23  H   UNL A   1      44.074  27.552  28.050  1.00  0.00     0.167 HD
ATOM     24  C   UNL A   1      46.082  31.427  28.471  1.00  0.00     0.031 A 
ATOM     25  C   UNL A   1      43.881  24.862  27.289  1.00  0.00     0.031 A 
ATOM     26  C   UNL A   1      47.100  30.496  28.053  1.00  0.00     0.049 A 
ATOM     27  C   UNL A   1      45.305  25.265  27.058  1.00  0.00     0.074 A 
ATOM     28  C   UNL A   1      48.453  30.724  27.873  1.00  0.00     0.029 A 
ATOM     29  N   UNL A   1      46.875  29.164  27.731  1.00  0.00    -0.354 N 
ATOM     30  N   UNL A   1      45.867  26.434  27.254  1.00  0.00    -0.248 NA
ATOM     31  C   UNL A   1      46.212  24.232  26.545  1.00  0.00     0.031 C 
ATOM     32  C   UNL A   1      49.032  29.551  27.379  1.00  0.00     0.029 A 
ATOM     33  C   UNL A   1      48.057  28.568  27.321  1.00  0.00     0.049 A 
ATOM     34  H   UNL A   1      46.003  28.709  27.787  1.00  0.00     0.167 HD
ATOM     35  C   UNL A   1      47.202  26.274  26.903  1.00  0.00     0.074 A 
ATOM     36  C   UNL A   1      47.363  24.890  26.503  1.00  0.00     0.031 C 
ATOM     37  C   UNL A   1      48.200  27.190  26.915  1.00  0.00     0.031 A 
BRANCH  24  38
ATOM     38  C   UNL A   1      46.467  32.873  28.672  1.00  0.00    -0.014 A 
ATOM     39  C   UNL A   1      46.522  33.778  27.595  1.00  0.00     0.010 A 
ATOM     40  C   UNL A   1      46.758  33.338  29.968  1.00  0.00     0.010 A 
ATOM     41  C   UNL A   1      46.915  35.104  27.804  1.00  0.00     0.020 A 
ATOM     42  C   UNL A   1      47.120  34.671  30.185  1.00  0.00     0.020 A 
ATOM     43  C   UNL A   1      47.219  35.539  29.097  1.00  0.00     0.054 A 
BRANCH  43  44
ATOM     44  S   UNL A   1      47.738  37.261  29.335  1.00  0.00     0.124 S 
ATOM     45  O   UNL A   1      48.694  37.440  28.245  1.00  0.00    -0.237 OA
ATOM     46  O   UNL A   1      46.483  37.996  29.194  1.00  0.00    -0.237 OA
ATOM     47  O   UNL A   1      48.315  37.269  30.676  1.00  0.00    -0.744 OA
ENDBRANCH  43  44
ENDBRANCH  24  38
BRANCH  25  48
ATOM     48  C   UNL A   1      43.386  23.495  26.972  1.00  0.00    -0.014 A 
ATOM     49  C   UNL A   1      43.372  23.022  25.650  1.00  0.00     0.010 A 
ATOM     50  C   UNL A   1      42.994  22.632  28.014  1.00  0.00     0.010 A 
ATOM     51  C   UNL A   1      42.972  21.711  25.375  1.00  0.00     0.020 A 
ATOM     52  C   UNL A   1      42.626  21.312  27.747  1.00  0.00     0.020 A 
ATOM     53  C   UNL A   1      42.610  20.861  26.426  1.00  0.00     0.054 A 
BRANCH  53  54
ATOM     54  S   UNL A   1      42.171  19.142  26.050  1.00  0.00     0.124 S 
ATOM     55  O   UNL A   1      40.732  19.239  25.827  1.00  0.00    -0.237 OA
ATOM     56  O   UNL A   1      42.979  18.863  24.866  1.00  0.00    -0.237 OA
ATOM     57  O   UNL A   1      42.572  18.415  27.254  1.00  0.00    -0.744 OA
ENDBRANCH  53  54
ENDBRANCH  25  48
BRANCH  37  58
ATOM     58  C   UNL A   1      49.570  26.720  26.508  1.00  0.00    -0.014 A 
ATOM     59  C   UNL A   1      50.452  26.144  27.441  1.00  0.00     0.010 A 
ATOM     60  C   UNL A   1      49.956  26.802  25.158  1.00  0.00     0.010 A 
ATOM     61  C   UNL A   1      51.705  25.678  27.031  1.00  0.00     0.020 A 
ATOM     62  C   UNL A   1      51.194  26.309  24.740  1.00  0.00     0.020 A 
ATOM     63  C   UNL A   1      52.065  25.759  25.682  1.00  0.00     0.054 A 
BRANCH  63  64
ATOM     64  S   UNL A   1      53.670  25.091  25.168  1.00  0.00     0.124 S 
ATOM     65  O   UNL A   1      53.862  25.726  23.867  1.00  0.00    -0.237 OA
ATOM     66  O   UNL A   1      54.562  25.549  26.229  1.00  0.00    -0.237 OA
ATOM     67  O   UNL A   1      53.448  23.647  25.128  1.00  0.00    -0.744 OA
ENDBRANCH  63  64
ENDBRANCH  37  58
ENDBRANCH  11  12
ENDBRANCH   4   6
ENDBRANCH   1   2
BRANCH   1  68
ATOM     68  C   UNL A   1      35.457  33.173  28.058  1.00  0.00     0.042 C 
BRANCH  68  69
ATOM     69  C   UNL A   1      33.945  33.264  28.234  1.00  0.00     0.117 C 
BRANCH  69  70
ATOM     70  N   UNL A   1      33.472  34.634  28.121  1.00  0.00    -0.354 N 
ATOM     71  C   UNL A   1      33.219  35.583  29.058  1.00  0.00     0.244 C 
ATOM     72  H   UNL A   1      33.305  34.927  27.196  1.00  0.00     0.163 HD
ATOM     73  O   UNL A   1      32.468  36.507  28.722  1.00  0.00    -0.273 OA
BRANCH  71  74
ATOM     74  C   UNL A   1      33.732  35.511  30.503  1.00  0.00     0.197 C 
BRANCH  74  75
ATOM     75  C   UNL A   1      33.054  36.567  31.395  1.00  0.00     0.191 C 
BRANCH  75  76
ATOM     76  O   UNL A   1      33.283  37.900  30.957  1.00  0.00    -0.394 OA
ATOM     77  H   UNL A   1      33.255  37.931  29.988  1.00  0.00     0.210 HD
ENDBRANCH  75  76
ENDBRANCH  74  75
BRANCH  74  78
ATOM     78  N   UNL A   1      33.719  34.161  31.064  1.00  0.00    -0.342 N 
ATOM     79  C   UNL A   1      34.478  33.537  32.003  1.00  0.00     0.228 C 
ATOM     80  H   UNL A   1      33.016  33.586  30.684  1.00  0.00     0.164 HD
ATOM     81  O   UNL A   1      34.222  32.335  32.138  1.00  0.00    -0.274 OA
BRANCH  79  82
ATOM     82  C   UNL A   1      35.634  34.245  32.775  1.00  0.00     0.109 C 
ATOM     83  C   UNL A   1      35.570  33.964  34.288  1.00  0.00     0.018 C 
ATOM     84  C   UNL A   1      37.019  33.885  32.197  1.00  0.00    -0.032 A 
ATOM     85  C   UNL A   1      36.882  34.174  35.019  1.00  0.00     0.006 C 
ATOM     86  C   UNL A   1      38.055  33.358  32.999  1.00  0.00    -0.044 A 
ATOM     87  C   UNL A   1      37.289  34.099  30.832  1.00  0.00     0.005 A 
ATOM     88  C   UNL A   1      37.895  33.184  34.485  1.00  0.00     0.036 C 
ATOM     89  C   UNL A   1      39.266  32.955  32.415  1.00  0.00     0.004 A 
ATOM     90  C   UNL A   1      38.506  33.712  30.264  1.00  0.00     0.000 A 
ATOM     91  C   UNL A   1      39.488  33.124  31.053  1.00  0.00     0.000 A 
ENDBRANCH  79  82
ENDBRANCH  74  78
ENDBRANCH  71  74
ENDBRANCH  69  70
ENDBRANCH  68  69
ENDBRANCH   1  68
TORSDOF 17
ENDMDL
MODEL 3
REMARK VINA RESULT:     -10.4      3.759     10.866
REMARK SMILES O=C(NCCCNC(=O)[C@@H](CO)NC(=O)[C@H]1CCCc2ccccc21)c1ccc(-c2c3nc(c(-c4ccc(S(=O)(=O)[O-])cc4)c4ccc([nH]4)c(-c4ccc(S(=O)(=O)[O-])cc4)c4nc(c(-c5ccc(S(=O)(=O)[O-])cc5)c5ccc2[nH]5)C=C4)C=C3)cc1
REMARK SMILES IDX 4 1 3 2 1 3 2 4 26 6 27 7 85 8 28 9 84 10 29 11 30 12 31 13
REMARK SMILES IDX 78 14 32 15 83 16 77 17 79 18 33 19 82 20 76 21 75 22 34 24
REMARK SMILES IDX 64 25 45 26 63 27 46 28 49 29 62 30 80 31 47 32 48 33 61 35
REMARK SMILES IDX 81 36 50 37 35 38 36 39 44 40 37 41 43 42 38 43 39 44 40 45
REMARK SMILES IDX 41 46 42 47 65 48 66 49 74 50 67 51 73 52 68 53 69 54 70 55
REMARK SMILES IDX 71 56 72 57 51 58 52 59 60 60 53 61 59 62 54 63 55 64 56 65
REMARK SMILES IDX 57 66 58 67 5 68 6 69 7 70 8 71 9 73 10 74 11 75 12 76 13 78
REMARK SMILES IDX 14 79 15 81 16 82 17 83 25 84 18 85 20 86 24 87 19 88 21 89
REMARK SMILES IDX 23 90 22 91
REMARK H PARENT 3 5 79 23 49 34 7 72 12 77 13 80
REMARK Flexibility Score: inf
ROOT
ATOM      1  C   UNL A   1      33.752  28.139  26.724  1.00  0.00     0.118 C 
ENDROOT
BRANCH   1   2
ATOM      2  N   UNL A   1      33.506  29.536  27.039  1.00  0.00    -0.352 N 
ATOM      3  O   UNL A   1      33.805  31.468  28.156  1.00  0.00    -0.269 OA
ATOM      4  C   UNL A   1      34.275  30.404  27.778  1.00  0.00     0.251 C 
ATOM      5  H   UNL A   1      32.674  29.914  26.672  1.00  0.00     0.163 HD
BRANCH   4   6
ATOM      6  C   UNL A   1      35.663  30.029  28.122  1.00  0.00     0.039 A 
ATOM      7  C   UNL A   1      36.670  30.101  27.156  1.00  0.00     0.014 A 
ATOM      8  C   UNL A   1      35.963  29.615  29.421  1.00  0.00     0.014 A 
ATOM      9  C   UNL A   1      37.936  29.613  27.440  1.00  0.00     0.010 A 
ATOM     10  C   UNL A   1      37.271  29.240  29.738  1.00  0.00     0.010 A 
ATOM     11  C   UNL A   1      38.264  29.220  28.746  1.00  0.00    -0.014 A 
BRANCH  11  12
ATOM     12  C   UNL A   1      39.677  28.909  29.071  1.00  0.00     0.031 A 
ATOM     13  C   UNL A   1      40.580  29.930  29.700  1.00  0.00     0.074 A 
ATOM     14  C   UNL A   1      40.139  27.679  28.775  1.00  0.00     0.049 A 
ATOM     15  N   UNL A   1      41.845  29.821  30.012  1.00  0.00    -0.248 NA
ATOM     16  C   UNL A   1      39.994  31.244  30.009  1.00  0.00     0.031 C 
ATOM     17  C   UNL A   1      39.351  26.611  28.148  1.00  0.00     0.029 A 
ATOM     18  N   UNL A   1      41.372  27.111  28.960  1.00  0.00    -0.354 N 
ATOM     19  C   UNL A   1      42.220  31.058  30.526  1.00  0.00     0.074 A 
ATOM     20  C   UNL A   1      41.049  31.908  30.465  1.00  0.00     0.031 C 
ATOM     21  C   UNL A   1      40.106  25.512  28.035  1.00  0.00     0.029 A 
ATOM     22  C   UNL A   1      41.453  25.819  28.498  1.00  0.00     0.049 A 
ATOM     23  H   UNL A   1      42.127  27.582  29.382  1.00  0.00     0.167 HD
ATOM     24  C   UNL A   1      43.430  31.443  31.000  1.00  0.00     0.031 A 
ATOM     25  C   UNL A   1      42.500  24.979  28.412  1.00  0.00     0.031 A 
ATOM     26  C   UNL A   1      44.587  30.586  31.038  1.00  0.00     0.049 A 
ATOM     27  C   UNL A   1      43.836  25.440  28.909  1.00  0.00     0.074 A 
ATOM     28  C   UNL A   1      45.849  30.866  31.533  1.00  0.00     0.029 A 
ATOM     29  N   UNL A   1      44.633  29.289  30.544  1.00  0.00    -0.354 N 
ATOM     30  N   UNL A   1      44.158  26.597  29.438  1.00  0.00    -0.248 NA
ATOM     31  C   UNL A   1      44.947  24.488  28.804  1.00  0.00     0.031 C 
ATOM     32  C   UNL A   1      46.673  29.765  31.279  1.00  0.00     0.029 A 
ATOM     33  C   UNL A   1      45.909  28.768  30.692  1.00  0.00     0.049 A 
ATOM     34  H   UNL A   1      43.870  28.808  30.149  1.00  0.00     0.167 HD
ATOM     35  C   UNL A   1      45.510  26.508  29.743  1.00  0.00     0.074 A 
ATOM     36  C   UNL A   1      45.936  25.177  29.359  1.00  0.00     0.031 C 
ATOM     37  C   UNL A   1      46.321  27.443  30.294  1.00  0.00     0.031 A 
BRANCH  24  38
ATOM     38  C   UNL A   1      43.573  32.870  31.470  1.00  0.00    -0.014 A 
ATOM     39  C   UNL A   1      43.872  33.915  30.576  1.00  0.00     0.010 A 
ATOM     40  C   UNL A   1      43.385  33.172  32.832  1.00  0.00     0.010 A 
ATOM     41  C   UNL A   1      44.034  35.223  31.044  1.00  0.00     0.020 A 
ATOM     42  C   UNL A   1      43.515  34.484  33.298  1.00  0.00     0.020 A 
ATOM     43  C   UNL A   1      43.861  35.497  32.404  1.00  0.00     0.054 A 
BRANCH  43  44
ATOM     44  S   UNL A   1      44.090  37.201  32.983  1.00  0.00     0.124 S 
ATOM     45  O   UNL A   1      45.396  37.123  33.636  1.00  0.00    -0.237 OA
ATOM     46  O   UNL A   1      44.056  37.969  31.741  1.00  0.00    -0.237 OA
ATOM     47  O   UNL A   1      42.959  37.419  33.880  1.00  0.00    -0.744 OA
ENDBRANCH  43  44
ENDBRANCH  24  38
BRANCH  25  48
ATOM     48  C   UNL A   1      42.308  23.640  27.794  1.00  0.00    -0.014 A 
ATOM     49  C   UNL A   1      42.585  23.427  26.434  1.00  0.00     0.010 A 
ATOM     50  C   UNL A   1      41.912  22.549  28.592  1.00  0.00     0.010 A 
ATOM     51  C   UNL A   1      42.467  22.147  25.883  1.00  0.00     0.020 A 
ATOM     52  C   UNL A   1      41.827  21.263  28.054  1.00  0.00     0.020 A 
ATOM     53  C   UNL A   1      42.098  21.072  26.698  1.00  0.00     0.054 A 
BRANCH  53  54
ATOM     54  S   UNL A   1      42.031  19.409  25.977  1.00  0.00     0.124 S 
ATOM     55  O   UNL A   1      40.603  19.247  25.724  1.00  0.00    -0.237 OA
ATOM     56  O   UNL A   1      42.873  19.546  24.792  1.00  0.00    -0.237 OA
ATOM     57  O   UNL A   1      42.583  18.556  27.029  1.00  0.00    -0.744 OA
ENDBRANCH  53  54
ENDBRANCH  25  48
BRANCH  37  58
ATOM     58  C   UNL A   1      47.752  27.052  30.544  1.00  0.00    -0.014 A 
ATOM     59  C   UNL A   1      48.763  27.341  29.610  1.00  0.00     0.010 A 
ATOM     60  C   UNL A   1      48.098  26.440  31.763  1.00  0.00     0.010 A 
ATOM     61  C   UNL A   1      50.092  27.004  29.882  1.00  0.00     0.020 A 
ATOM     62  C   UNL A   1      49.429  26.129  32.051  1.00  0.00     0.020 A 
ATOM     63  C   UNL A   1      50.416  26.404  31.103  1.00  0.00     0.054 A 
BRANCH  63  64
ATOM     64  S   UNL A   1      52.156  26.034  31.457  1.00  0.00     0.124 S 
ATOM     65  O   UNL A   1      52.515  27.108  32.378  1.00  0.00    -0.237 OA
ATOM     66  O   UNL A   1      52.085  24.699  32.045  1.00  0.00    -0.237 OA
ATOM     67  O   UNL A   1      52.798  26.098  30.145  1.00  0.00    -0.744 OA
ENDBRANCH  63  64
ENDBRANCH  37  58
ENDBRANCH  11  12
ENDBRANCH   4   6
ENDBRANCH   1   2
BRANCH   1  68
ATOM     68  C   UNL A   1      32.476  27.397  26.373  1.00  0.00     0.042 C 
BRANCH  68  69
ATOM     69  C   UNL A   1      32.689  25.915  26.086  1.00  0.00     0.117 C 
BRANCH  69  70
ATOM     70  N   UNL A   1      31.724  25.085  26.790  1.00  0.00    -0.354 N 
ATOM     71  C   UNL A   1      31.645  23.742  26.967  1.00  0.00     0.244 C 
ATOM     72  H   UNL A   1      30.995  25.591  27.217  1.00  0.00     0.163 HD
ATOM     73  O   UNL A   1      30.534  23.286  27.264  1.00  0.00    -0.273 OA
BRANCH  71  74
ATOM     74  C   UNL A   1      32.818  22.782  26.726  1.00  0.00     0.197 C 
BRANCH  74  75
ATOM     75  C   UNL A   1      33.807  22.793  27.907  1.00  0.00     0.191 C 
BRANCH  75  76
ATOM     76  O   UNL A   1      34.785  21.764  27.828  1.00  0.00    -0.394 OA
ATOM     77  H   UNL A   1      35.154  21.738  26.931  1.00  0.00     0.210 HD
ENDBRANCH  75  76
ENDBRANCH  74  75
BRANCH  74  78
ATOM     78  N   UNL A   1      32.404  21.442  26.310  1.00  0.00    -0.342 N 
ATOM     79  C   UNL A   1      32.564  20.736  25.159  1.00  0.00     0.228 C 
ATOM     80  H   UNL A   1      31.909  20.952  27.004  1.00  0.00     0.164 HD
ATOM     81  O   UNL A   1      31.972  19.651  25.150  1.00  0.00    -0.274 OA
BRANCH  79  82
ATOM     82  C   UNL A   1      33.341  21.282  23.922  1.00  0.00     0.109 C 
ATOM     83  C   UNL A   1      32.637  22.500  23.293  1.00  0.00     0.018 C 
ATOM     84  C   UNL A   1      34.813  21.600  24.259  1.00  0.00    -0.032 A 
ATOM     85  C   UNL A   1      33.539  23.374  22.444  1.00  0.00     0.006 C 
ATOM     86  C   UNL A   1      35.385  22.867  24.011  1.00  0.00    -0.044 A 
ATOM     87  C   UNL A   1      35.638  20.604  24.815  1.00  0.00     0.005 A 
ATOM     88  C   UNL A   1      34.613  23.965  23.333  1.00  0.00     0.036 C 
ATOM     89  C   UNL A   1      36.699  23.143  24.422  1.00  0.00     0.004 A 
ATOM     90  C   UNL A   1      36.951  20.883  25.203  1.00  0.00     0.000 A 
ATOM     91  C   UNL A   1      37.476  22.158  25.022  1.00  0.00     0.000 A 
ENDBRANCH  79  82
ENDBRANCH  74  78
ENDBRANCH  71  74
ENDBRANCH  69  70
ENDBRANCH  68  69
ENDBRANCH   1  68
TORSDOF 17
ENDMDL
