MODEL 1
REMARK VINA RESULT:     -11.8      0.000      0.000
REMARK SMILES Cc1c(C)c2c(c(C)c1O)CC[C@@](C)(C(=O)NCCCNC(=O)c1ccc(-c3c4nc(c(-c5ccc(S(=O)(=O)[O-])cc5)c5ccc([nH]5)c(-c5ccc(S(=O)(=O)[O-])cc5)c5nc(c(-c6ccc(S(=O)(=O)[O-])cc6)c6ccc3[nH]6)C=C5)C=C4)cc1)O2
REMARK SMILES IDX 20 1 19 2 18 3 17 4 15 5 16 6 13 8 1 9 2 10 3 11 9 12 4 13
REMARK SMILES IDX 5 14 7 15 6 16 84 17 8 18 11 19 12 20 14 21 10 22 21 24
REMARK SMILES IDX 22 25 23 27 24 28 25 29 83 30 26 31 82 32 27 33 28 34 29 35
REMARK SMILES IDX 76 36 30 37 81 38 75 39 77 40 31 41 80 42 74 43 73 44 32 46
REMARK SMILES IDX 62 47 43 48 61 49 44 50 47 51 60 52 78 53 45 54 46 55 59 57
REMARK SMILES IDX 79 58 48 59 33 60 34 61 42 62 35 63 41 64 36 65 37 66 38 67
REMARK SMILES IDX 39 68 40 69 63 70 64 71 72 72 65 73 71 74 66 75 67 76 68 77
REMARK SMILES IDX 69 78 70 79 49 80 50 81 58 82 51 83 57 84 52 85 53 86 54 87
REMARK SMILES IDX 55 88 56 89
REMARK H PARENT 17 7 10 23 21 26 77 45 47 56
REMARK Flexibility Score: inf
ROOT
ATOM      1  C   UNL A   1      33.670  28.453  26.962  1.00  0.00     0.118 C 
ENDROOT
BRANCH   1   2
ATOM      2  C   UNL A   1      33.776  28.286  25.455  1.00  0.00     0.042 C 
BRANCH   2   3
ATOM      3  C   UNL A   1      33.092  27.030  24.930  1.00  0.00     0.118 C 
BRANCH   3   4
ATOM      4  N   UNL A   1      31.812  26.771  25.573  1.00  0.00    -0.353 N 
ATOM      5  C   UNL A   1      31.137  25.600  25.813  1.00  0.00     0.263 C 
ATOM      6  O   UNL A   1      30.066  25.696  26.419  1.00  0.00    -0.270 OA
ATOM      7  H   UNL A   1      31.348  27.578  25.893  1.00  0.00     0.163 HD
BRANCH   5   8
ATOM      8  C   UNL A   1      31.716  24.232  25.351  1.00  0.00     0.184 C 
ATOM      9  C   UNL A   1      37.247  21.587  24.942  1.00  0.00     0.049 C 
ATOM     10  C   UNL A   1      35.754  21.659  25.136  1.00  0.00    -0.002 A 
ATOM     11  C   UNL A   1      35.108  22.892  25.400  1.00  0.00    -0.002 A 
ATOM     12  C   UNL A   1      34.979  20.482  25.076  1.00  0.00     0.122 A 
ATOM     13  C   UNL A   1      35.900  24.174  25.490  1.00  0.00     0.049 C 
ATOM     14  C   UNL A   1      33.708  22.916  25.541  1.00  0.00     0.127 A 
ATOM     15  C   UNL A   1      33.588  20.499  25.233  1.00  0.00    -0.002 A 
ATOM     16  C   UNL A   1      32.952  21.728  25.492  1.00  0.00     0.001 A 
ATOM     17  O   UNL A   1      33.117  24.154  25.707  1.00  0.00    -0.477 OA
ATOM     18  C   UNL A   1      32.773  19.231  25.137  1.00  0.00     0.049 C 
ATOM     19  C   UNL A   1      31.460  21.769  25.671  1.00  0.00     0.044 C 
ATOM     20  C   UNL A   1      31.010  23.130  26.144  1.00  0.00     0.063 C 
ATOM     21  C   UNL A   1      31.658  24.200  23.808  1.00  0.00     0.067 C 
BRANCH  12  22
ATOM     22  O   UNL A   1      35.562  19.261  24.853  1.00  0.00    -0.507 OA
ATOM     23  H   UNL A   1      35.272  18.509  25.331  1.00  0.00     0.293 HD
ENDBRANCH  12  22
ENDBRANCH   5   8
ENDBRANCH   3   4
ENDBRANCH   2   3
ENDBRANCH   1   2
BRANCH   1  24
ATOM     24  N   UNL A   1      33.613  29.853  27.360  1.00  0.00    -0.352 N 
ATOM     25  C   UNL A   1      34.521  30.609  28.058  1.00  0.00     0.251 C 
ATOM     26  H   UNL A   1      32.797  30.330  27.086  1.00  0.00     0.163 HD
ATOM     27  O   UNL A   1      34.187  31.717  28.476  1.00  0.00    -0.269 OA
BRANCH  25  28
ATOM     28  C   UNL A   1      35.881  30.094  28.320  1.00  0.00     0.039 A 
ATOM     29  C   UNL A   1      36.839  30.161  27.305  1.00  0.00     0.014 A 
ATOM     30  C   UNL A   1      36.210  29.533  29.557  1.00  0.00     0.014 A 
ATOM     31  C   UNL A   1      38.145  29.733  27.556  1.00  0.00     0.010 A 
ATOM     32  C   UNL A   1      37.529  29.189  29.833  1.00  0.00     0.010 A 
ATOM     33  C   UNL A   1      38.508  29.282  28.835  1.00  0.00    -0.014 A 
BRANCH  33  34
ATOM     34  C   UNL A   1      39.905  28.901  29.158  1.00  0.00     0.031 A 
ATOM     35  C   UNL A   1      40.823  29.894  29.817  1.00  0.00     0.074 A 
ATOM     36  C   UNL A   1      40.363  27.686  28.799  1.00  0.00     0.049 A 
ATOM     37  N   UNL A   1      42.096  29.781  30.095  1.00  0.00    -0.248 NA
ATOM     38  C   UNL A   1      40.240  31.194  30.193  1.00  0.00     0.031 C 
ATOM     39  C   UNL A   1      39.573  26.643  28.140  1.00  0.00     0.029 A 
ATOM     40  N   UNL A   1      41.607  27.122  28.934  1.00  0.00    -0.354 N 
ATOM     41  C   UNL A   1      42.466  30.990  30.672  1.00  0.00     0.074 A 
ATOM     42  C   UNL A   1      41.299  31.844  30.653  1.00  0.00     0.031 C 
ATOM     43  C   UNL A   1      40.342  25.557  27.958  1.00  0.00     0.029 A 
ATOM     44  C   UNL A   1      41.690  25.844  28.437  1.00  0.00     0.049 A 
ATOM     45  H   UNL A   1      42.369  27.591  29.346  1.00  0.00     0.167 HD
ATOM     46  C   UNL A   1      43.665  31.350  31.189  1.00  0.00     0.031 A 
ATOM     47  C   UNL A   1      42.735  24.996  28.368  1.00  0.00     0.031 A 
ATOM     48  C   UNL A   1      44.824  30.496  31.201  1.00  0.00     0.049 A 
ATOM     49  C   UNL A   1      44.068  25.435  28.909  1.00  0.00     0.074 A 
ATOM     50  C   UNL A   1      46.079  30.761  31.720  1.00  0.00     0.029 A 
ATOM     51  N   UNL A   1      44.870  29.213  30.676  1.00  0.00    -0.354 N 
ATOM     52  N   UNL A   1      44.394  26.577  29.467  1.00  0.00    -0.248 NA
ATOM     53  C   UNL A   1      45.169  24.467  28.823  1.00  0.00     0.031 C 
ATOM     54  C   UNL A   1      46.900  29.658  31.459  1.00  0.00     0.029 A 
ATOM     55  C   UNL A   1      46.136  28.679  30.844  1.00  0.00     0.049 A 
ATOM     56  H   UNL A   1      44.114  28.752  30.247  1.00  0.00     0.167 HD
ATOM     57  C   UNL A   1      45.730  26.450  29.833  1.00  0.00     0.074 A 
ATOM     58  C   UNL A   1      46.145  25.119  29.441  1.00  0.00     0.031 C 
ATOM     59  C   UNL A   1      46.536  27.352  30.446  1.00  0.00     0.031 A 
BRANCH  46  60
ATOM     60  C   UNL A   1      43.784  32.728  31.786  1.00  0.00    -0.014 A 
ATOM     61  C   UNL A   1      44.175  33.827  30.999  1.00  0.00     0.010 A 
ATOM     62  C   UNL A   1      43.442  32.941  33.134  1.00  0.00     0.010 A 
ATOM     63  C   UNL A   1      44.250  35.106  31.555  1.00  0.00     0.020 A 
ATOM     64  C   UNL A   1      43.487  34.225  33.687  1.00  0.00     0.020 A 
ATOM     65  C   UNL A   1      43.902  35.298  32.895  1.00  0.00     0.054 A 
BRANCH  65  66
ATOM     66  S   UNL A   1      43.970  36.978  33.575  1.00  0.00     0.124 S 
ATOM     67  O   UNL A   1      45.224  36.950  34.325  1.00  0.00    -0.237 OA
ATOM     68  O   UNL A   1      43.977  37.807  32.373  1.00  0.00    -0.237 OA
ATOM     69  O   UNL A   1      42.761  37.074  34.388  1.00  0.00    -0.744 OA
ENDBRANCH  65  66
ENDBRANCH  46  60
BRANCH  47  70
ATOM     70  C   UNL A   1      42.550  23.637  27.788  1.00  0.00    -0.014 A 
ATOM     71  C   UNL A   1      42.906  23.381  26.452  1.00  0.00     0.010 A 
ATOM     72  C   UNL A   1      42.048  22.584  28.576  1.00  0.00     0.010 A 
ATOM     73  C   UNL A   1      42.754  22.100  25.911  1.00  0.00     0.020 A 
ATOM     74  C   UNL A   1      41.923  21.296  28.047  1.00  0.00     0.020 A 
ATOM     75  C   UNL A   1      42.270  21.064  26.715  1.00  0.00     0.054 A 
BRANCH  75  76
ATOM     76  S   UNL A   1      42.144  19.399  26.006  1.00  0.00     0.124 S 
ATOM     77  O   UNL A   1      40.706  19.264  25.799  1.00  0.00    -0.237 OA
ATOM     78  O   UNL A   1      42.952  19.513  24.794  1.00  0.00    -0.237 OA
ATOM     79  O   UNL A   1      42.710  18.541  27.045  1.00  0.00    -0.744 OA
ENDBRANCH  75  76
ENDBRANCH  47  70
BRANCH  59  80
ATOM     80  C   UNL A   1      47.938  26.916  30.780  1.00  0.00    -0.014 A 
ATOM     81  C   UNL A   1      49.015  27.167  29.911  1.00  0.00     0.010 A 
ATOM     82  C   UNL A   1      48.188  26.285  32.014  1.00  0.00     0.010 A 
ATOM     83  C   UNL A   1      50.306  26.756  30.251  1.00  0.00     0.020 A 
ATOM     84  C   UNL A   1      49.483  25.903  32.372  1.00  0.00     0.020 A 
ATOM     85  C   UNL A   1      50.531  26.126  31.480  1.00  0.00     0.054 A 
BRANCH  85  86
ATOM     86  S   UNL A   1      52.222  25.626  31.905  1.00  0.00     0.124 S 
ATOM     87  O   UNL A   1      52.528  26.511  33.025  1.00  0.00    -0.237 OA
ATOM     88  O   UNL A   1      52.060  24.214  32.245  1.00  0.00    -0.237 OA
ATOM     89  O   UNL A   1      52.979  25.883  30.683  1.00  0.00    -0.744 OA
ENDBRANCH  85  86
ENDBRANCH  59  80
ENDBRANCH  33  34
ENDBRANCH  25  28
ENDBRANCH   1  24
TORSDOF 14
ENDMDL
MODEL 2
REMARK VINA RESULT:     -11.6      3.347      6.910
REMARK SMILES Cc1c(C)c2c(c(C)c1O)CC[C@@](C)(C(=O)NCCCNC(=O)c1ccc(-c3c4nc(c(-c5ccc(S(=O)(=O)[O-])cc5)c5ccc([nH]5)c(-c5ccc(S(=O)(=O)[O-])cc5)c5nc(c(-c6ccc(S(=O)(=O)[O-])cc6)c6ccc3[nH]6)C=C5)C=C4)cc1)O2
REMARK SMILES IDX 20 1 19 2 18 3 17 4 15 5 16 6 13 8 1 9 2 10 3 11 9 12 4 13
REMARK SMILES IDX 5 14 7 15 6 16 84 17 8 18 11 19 12 20 14 21 10 22 21 24
REMARK SMILES IDX 22 25 23 27 24 28 25 29 83 30 26 31 82 32 27 33 28 34 29 35
REMARK SMILES IDX 76 36 30 37 81 38 75 39 77 40 31 41 80 42 74 43 73 44 32 46
REMARK SMILES IDX 62 47 43 48 61 49 44 50 47 51 60 52 78 53 45 54 46 55 59 57
REMARK SMILES IDX 79 58 48 59 33 60 34 61 42 62 35 63 41 64 36 65 37 66 38 67
REMARK SMILES IDX 39 68 40 69 63 70 64 71 72 72 65 73 71 74 66 75 67 76 68 77
REMARK SMILES IDX 69 78 70 79 49 80 50 81 58 82 51 83 57 84 52 85 53 86 54 87
REMARK SMILES IDX 55 88 56 89
REMARK H PARENT 17 7 10 23 21 26 77 45 47 56
REMARK Flexibility Score: inf
ROOT
ATOM      1  C   UNL A   1      34.429  32.609  28.161  1.00  0.00     0.118 C 
ENDROOT
BRANCH   1   2
ATOM      2  C   UNL A   1      34.442  33.021  29.624  1.00  0.00     0.042 C 
BRANCH   2   3
ATOM      3  C   UNL A   1      35.512  34.051  29.960  1.00  0.00     0.118 C 
BRANCH   3   4
ATOM      4  N   UNL A   1      35.252  34.750  31.211  1.00  0.00    -0.353 N 
ATOM      5  C   UNL A   1      35.914  34.737  32.414  1.00  0.00     0.263 C 
ATOM      6  O   UNL A   1      35.466  35.473  33.296  1.00  0.00    -0.270 OA
ATOM      7  H   UNL A   1      34.462  35.336  31.191  1.00  0.00     0.163 HD
BRANCH   5   8
ATOM      8  C   UNL A   1      37.171  33.845  32.626  1.00  0.00     0.184 C 
ATOM      9  C   UNL A   1      41.732  33.386  36.718  1.00  0.00     0.049 C 
ATOM     10  C   UNL A   1      40.728  32.909  35.699  1.00  0.00    -0.002 A 
ATOM     11  C   UNL A   1      39.633  33.722  35.315  1.00  0.00    -0.002 A 
ATOM     12  C   UNL A   1      40.861  31.628  35.126  1.00  0.00     0.122 A 
ATOM     13  C   UNL A   1      39.442  35.094  35.915  1.00  0.00     0.049 C 
ATOM     14  C   UNL A   1      38.740  33.250  34.334  1.00  0.00     0.127 A 
ATOM     15  C   UNL A   1      39.966  31.146  34.164  1.00  0.00    -0.002 A 
ATOM     16  C   UNL A   1      38.881  31.960  33.784  1.00  0.00     0.001 A 
ATOM     17  O   UNL A   1      37.741  34.114  33.930  1.00  0.00    -0.477 OA
ATOM     18  C   UNL A   1      40.142  29.782  33.541  1.00  0.00     0.049 C 
ATOM     19  C   UNL A   1      37.903  31.462  32.758  1.00  0.00     0.044 C 
ATOM     20  C   UNL A   1      36.714  32.385  32.651  1.00  0.00     0.063 C 
ATOM     21  C   UNL A   1      38.231  34.281  31.591  1.00  0.00     0.067 C 
BRANCH  12  22
ATOM     22  O   UNL A   1      41.888  30.794  35.488  1.00  0.00    -0.507 OA
ATOM     23  H   UNL A   1      42.607  30.655  34.902  1.00  0.00     0.293 HD
ENDBRANCH  12  22
ENDBRANCH   5   8
ENDBRANCH   3   4
ENDBRANCH   2   3
ENDBRANCH   1   2
BRANCH   1  24
ATOM     24  N   UNL A   1      33.795  31.314  27.957  1.00  0.00    -0.352 N 
ATOM     25  C   UNL A   1      34.353  30.063  27.864  1.00  0.00     0.251 C 
ATOM     26  H   UNL A   1      32.815  31.339  27.872  1.00  0.00     0.163 HD
ATOM     27  O   UNL A   1      33.661  29.122  27.477  1.00  0.00    -0.269 OA
BRANCH  25  28
ATOM     28  C   UNL A   1      35.774  29.850  28.210  1.00  0.00     0.039 A 
ATOM     29  C   UNL A   1      36.104  29.458  29.510  1.00  0.00     0.014 A 
ATOM     30  C   UNL A   1      36.781  30.047  27.262  1.00  0.00     0.014 A 
ATOM     31  C   UNL A   1      37.436  29.195  29.837  1.00  0.00     0.010 A 
ATOM     32  C   UNL A   1      38.094  29.701  27.562  1.00  0.00     0.010 A 
ATOM     33  C   UNL A   1      38.435  29.275  28.853  1.00  0.00    -0.014 A 
BRANCH  33  34
ATOM     34  C   UNL A   1      39.846  28.919  29.145  1.00  0.00     0.031 A 
ATOM     35  C   UNL A   1      40.765  29.934  29.769  1.00  0.00     0.074 A 
ATOM     36  C   UNL A   1      40.313  27.707  28.789  1.00  0.00     0.049 A 
ATOM     37  N   UNL A   1      42.046  29.844  30.016  1.00  0.00    -0.248 NA
ATOM     38  C   UNL A   1      40.171  31.229  30.145  1.00  0.00     0.031 C 
ATOM     39  C   UNL A   1      39.523  26.645  28.162  1.00  0.00     0.029 A 
ATOM     40  N   UNL A   1      41.569  27.164  28.898  1.00  0.00    -0.354 N 
ATOM     41  C   UNL A   1      42.412  31.065  30.569  1.00  0.00     0.074 A 
ATOM     42  C   UNL A   1      41.231  31.900  30.570  1.00  0.00     0.031 C 
ATOM     43  C   UNL A   1      40.304  25.569  27.973  1.00  0.00     0.029 A 
ATOM     44  C   UNL A   1      41.659  25.881  28.414  1.00  0.00     0.049 A 
ATOM     45  H   UNL A   1      42.333  27.649  29.285  1.00  0.00     0.167 HD
ATOM     46  C   UNL A   1      43.618  31.449  31.051  1.00  0.00     0.031 A 
ATOM     47  C   UNL A   1      42.715  25.049  28.328  1.00  0.00     0.031 A 
ATOM     48  C   UNL A   1      44.790  30.613  31.043  1.00  0.00     0.049 A 
ATOM     49  C   UNL A   1      44.054  25.514  28.830  1.00  0.00     0.074 A 
ATOM     50  C   UNL A   1      46.053  30.903  31.527  1.00  0.00     0.029 A 
ATOM     51  N   UNL A   1      44.842  29.325  30.532  1.00  0.00    -0.354 N 
ATOM     52  N   UNL A   1      44.377  26.668  29.366  1.00  0.00    -0.248 NA
ATOM     53  C   UNL A   1      45.167  24.562  28.727  1.00  0.00     0.031 C 
ATOM     54  C   UNL A   1      46.884  29.809  31.258  1.00  0.00     0.029 A 
ATOM     55  C   UNL A   1      46.120  28.812  30.674  1.00  0.00     0.049 A 
ATOM     56  H   UNL A   1      44.082  28.847  30.128  1.00  0.00     0.167 HD
ATOM     57  C   UNL A   1      45.723  26.566  29.700  1.00  0.00     0.074 A 
ATOM     58  C   UNL A   1      46.149  25.236  29.312  1.00  0.00     0.031 C 
ATOM     59  C   UNL A   1      46.530  27.487  30.281  1.00  0.00     0.031 A 
BRANCH  46  60
ATOM     60  C   UNL A   1      43.731  32.836  31.629  1.00  0.00    -0.014 A 
ATOM     61  C   UNL A   1      44.110  33.927  30.825  1.00  0.00     0.010 A 
ATOM     62  C   UNL A   1      43.393  33.065  32.976  1.00  0.00     0.010 A 
ATOM     63  C   UNL A   1      44.180  35.214  31.363  1.00  0.00     0.020 A 
ATOM     64  C   UNL A   1      43.433  34.356  33.511  1.00  0.00     0.020 A 
ATOM     65  C   UNL A   1      43.837  35.421  32.703  1.00  0.00     0.054 A 
BRANCH  65  66
ATOM     66  S   UNL A   1      43.897  37.111  33.360  1.00  0.00     0.124 S 
ATOM     67  O   UNL A   1      45.179  37.117  34.059  1.00  0.00    -0.237 OA
ATOM     68  O   UNL A   1      43.839  37.924  32.148  1.00  0.00    -0.237 OA
ATOM     69  O   UNL A   1      42.719  37.192  34.219  1.00  0.00    -0.744 OA
ENDBRANCH  65  66
ENDBRANCH  46  60
BRANCH  47  70
ATOM     70  C   UNL A   1      42.537  23.680  27.769  1.00  0.00    -0.014 A 
ATOM     71  C   UNL A   1      42.812  23.425  26.414  1.00  0.00     0.010 A 
ATOM     72  C   UNL A   1      42.121  22.618  28.593  1.00  0.00     0.010 A 
ATOM     73  C   UNL A   1      42.666  22.137  25.890  1.00  0.00     0.020 A 
ATOM     74  C   UNL A   1      42.003  21.322  28.081  1.00  0.00     0.020 A 
ATOM     75  C   UNL A   1      42.270  21.092  26.730  1.00  0.00     0.054 A 
BRANCH  75  76
ATOM     76  S   UNL A   1      42.152  19.419  26.039  1.00  0.00     0.124 S 
ATOM     77  O   UNL A   1      42.995  19.517  24.852  1.00  0.00    -0.237 OA
ATOM     78  O   UNL A   1      42.677  18.595  27.125  1.00  0.00    -0.237 OA
ATOM     79  O   UNL A   1      40.722  19.256  25.780  1.00  0.00    -0.744 OA
ENDBRANCH  75  76
ENDBRANCH  47  70
BRANCH  59  80
ATOM     80  C   UNL A   1      47.947  27.076  30.584  1.00  0.00    -0.014 A 
ATOM     81  C   UNL A   1      48.997  27.329  29.684  1.00  0.00     0.010 A 
ATOM     82  C   UNL A   1      48.238  26.467  31.820  1.00  0.00     0.010 A 
ATOM     83  C   UNL A   1      50.303  26.943  29.996  1.00  0.00     0.020 A 
ATOM     84  C   UNL A   1      49.548  26.109  32.150  1.00  0.00     0.020 A 
ATOM     85  C   UNL A   1      50.569  26.334  31.227  1.00  0.00     0.054 A 
BRANCH  85  86
ATOM     86  S   UNL A   1      52.278  25.865  31.614  1.00  0.00     0.124 S 
ATOM     87  O   UNL A   1      52.617  26.805  32.679  1.00  0.00    -0.237 OA
ATOM     88  O   UNL A   1      52.138  24.470  32.028  1.00  0.00    -0.237 OA
ATOM     89  O   UNL A   1      52.989  26.067  30.355  1.00  0.00    -0.744 OA
ENDBRANCH  85  86
ENDBRANCH  59  80
ENDBRANCH  33  34
ENDBRANCH  25  28
ENDBRANCH   1  24
TORSDOF 14
ENDMDL
MODEL 3
REMARK VINA RESULT:     -11.6      2.785      9.445
REMARK SMILES Cc1c(C)c2c(c(C)c1O)CC[C@@](C)(C(=O)NCCCNC(=O)c1ccc(-c3c4nc(c(-c5ccc(S(=O)(=O)[O-])cc5)c5ccc([nH]5)c(-c5ccc(S(=O)(=O)[O-])cc5)c5nc(c(-c6ccc(S(=O)(=O)[O-])cc6)c6ccc3[nH]6)C=C5)C=C4)cc1)O2
REMARK SMILES IDX 20 1 19 2 18 3 17 4 15 5 16 6 13 8 1 9 2 10 3 11 9 12 4 13
REMARK SMILES IDX 5 14 7 15 6 16 84 17 8 18 11 19 12 20 14 21 10 22 21 24
REMARK SMILES IDX 22 25 23 27 24 28 25 29 83 30 26 31 82 32 27 33 28 34 29 35
REMARK SMILES IDX 76 36 30 37 81 38 75 39 77 40 31 41 80 42 74 43 73 44 32 46
REMARK SMILES IDX 62 47 43 48 61 49 44 50 47 51 60 52 78 53 45 54 46 55 59 57
REMARK SMILES IDX 79 58 48 59 33 60 34 61 42 62 35 63 41 64 36 65 37 66 38 67
REMARK SMILES IDX 39 68 40 69 63 70 64 71 72 72 65 73 71 74 66 75 67 76 68 77
REMARK SMILES IDX 69 78 70 79 49 80 50 81 58 82 51 83 57 84 52 85 53 86 54 87
REMARK SMILES IDX 55 88 56 89
REMARK H PARENT 17 7 10 23 21 26 77 45 47 56
REMARK Flexibility Score: inf
ROOT
ATOM      1  C   UNL A   1      36.782  23.701  25.170  1.00  0.00     0.118 C 
ENDROOT
BRANCH   1   2
ATOM      2  C   UNL A   1      35.641  23.703  26.173  1.00  0.00     0.042 C 
BRANCH   2   3
ATOM      3  C   UNL A   1      34.269  23.509  25.540  1.00  0.00     0.118 C 
BRANCH   3   4
ATOM      4  N   UNL A   1      34.338  23.236  24.112  1.00  0.00    -0.353 N 
ATOM      5  C   UNL A   1      33.720  23.836  23.041  1.00  0.00     0.263 C 
ATOM      6  O   UNL A   1      34.006  23.396  21.924  1.00  0.00    -0.270 OA
ATOM      7  H   UNL A   1      34.932  22.490  23.869  1.00  0.00     0.163 HD
BRANCH   5   8
ATOM      8  C   UNL A   1      32.729  25.017  23.247  1.00  0.00     0.184 C 
ATOM      9  C   UNL A   1      32.438  30.114  26.666  1.00  0.00     0.049 C 
ATOM     10  C   UNL A   1      32.200  29.232  25.467  1.00  0.00    -0.002 A 
ATOM     11  C   UNL A   1      32.944  28.041  25.276  1.00  0.00    -0.002 A 
ATOM     12  C   UNL A   1      31.237  29.597  24.504  1.00  0.00     0.122 A 
ATOM     13  C   UNL A   1      33.995  27.618  26.273  1.00  0.00     0.049 C 
ATOM     14  C   UNL A   1      32.664  27.229  24.160  1.00  0.00     0.127 A 
ATOM     15  C   UNL A   1      30.968  28.803  23.382  1.00  0.00    -0.002 A 
ATOM     16  C   UNL A   1      31.708  27.619  23.200  1.00  0.00     0.001 A 
ATOM     17  O   UNL A   1      33.352  26.035  24.066  1.00  0.00    -0.477 OA
ATOM     18  C   UNL A   1      29.914  29.198  22.377  1.00  0.00     0.049 C 
ATOM     19  C   UNL A   1      31.442  26.755  22.000  1.00  0.00     0.044 C 
ATOM     20  C   UNL A   1      32.473  25.660  21.883  1.00  0.00     0.063 C 
ATOM     21  C   UNL A   1      31.530  24.481  24.059  1.00  0.00     0.067 C 
BRANCH  12  22
ATOM     22  O   UNL A   1      30.514  30.755  24.630  1.00  0.00    -0.507 OA
ATOM     23  H   UNL A   1      29.701  30.852  24.173  1.00  0.00     0.293 HD
ENDBRANCH  12  22
ENDBRANCH   5   8
ENDBRANCH   3   4
ENDBRANCH   2   3
ENDBRANCH   1   2
BRANCH   1  24
ATOM     24  N   UNL A   1      37.820  22.740  25.515  1.00  0.00    -0.352 N 
ATOM     25  C   UNL A   1      39.026  22.931  26.142  1.00  0.00     0.251 C 
ATOM     26  H   UNL A   1      37.628  21.810  25.258  1.00  0.00     0.163 HD
ATOM     27  O   UNL A   1      39.853  22.020  26.148  1.00  0.00    -0.269 OA
BRANCH  25  28
ATOM     28  C   UNL A   1      39.336  24.223  26.791  1.00  0.00     0.039 A 
ATOM     29  C   UNL A   1      38.929  24.434  28.111  1.00  0.00     0.014 A 
ATOM     30  C   UNL A   1      40.015  25.229  26.098  1.00  0.00     0.014 A 
ATOM     31  C   UNL A   1      39.265  25.625  28.757  1.00  0.00     0.010 A 
ATOM     32  C   UNL A   1      40.425  26.376  26.768  1.00  0.00     0.010 A 
ATOM     33  C   UNL A   1      40.052  26.587  28.103  1.00  0.00    -0.014 A 
BRANCH  33  34
ATOM     34  C   UNL A   1      40.500  27.825  28.789  1.00  0.00     0.031 A 
ATOM     35  C   UNL A   1      41.873  27.892  29.399  1.00  0.00     0.074 A 
ATOM     36  C   UNL A   1      39.646  28.859  28.918  1.00  0.00     0.049 A 
ATOM     37  N   UNL A   1      42.411  28.846  30.114  1.00  0.00    -0.248 NA
ATOM     38  C   UNL A   1      42.750  26.726  29.197  1.00  0.00     0.031 C 
ATOM     39  C   UNL A   1      38.283  28.905  28.384  1.00  0.00     0.029 A 
ATOM     40  N   UNL A   1      39.797  30.070  29.544  1.00  0.00    -0.354 N 
ATOM     41  C   UNL A   1      43.682  28.396  30.451  1.00  0.00     0.074 A 
ATOM     42  C   UNL A   1      43.815  27.061  29.910  1.00  0.00     0.031 C 
ATOM     43  C   UNL A   1      37.736  30.096  28.677  1.00  0.00     0.029 A 
ATOM     44  C   UNL A   1      38.685  30.876  29.464  1.00  0.00     0.049 A 
ATOM     45  H   UNL A   1      40.623  30.338  30.009  1.00  0.00     0.167 HD
ATOM     46  C   UNL A   1      44.656  29.044  31.132  1.00  0.00     0.031 A 
ATOM     47  C   UNL A   1      38.452  32.102  29.971  1.00  0.00     0.031 A 
ATOM     48  C   UNL A   1      44.515  30.371  31.670  1.00  0.00     0.049 A 
ATOM     49  C   UNL A   1      39.535  32.782  30.761  1.00  0.00     0.074 A 
ATOM     50  C   UNL A   1      45.452  31.123  32.358  1.00  0.00     0.029 A 
ATOM     51  N   UNL A   1      43.369  31.147  31.578  1.00  0.00    -0.354 N 
ATOM     52  N   UNL A   1      40.738  32.348  31.054  1.00  0.00    -0.248 NA
ATOM     53  C   UNL A   1      39.235  34.125  31.277  1.00  0.00     0.031 C 
ATOM     54  C   UNL A   1      44.853  32.331  32.729  1.00  0.00     0.029 A 
ATOM     55  C   UNL A   1      43.569  32.363  32.210  1.00  0.00     0.049 A 
ATOM     56  H   UNL A   1      42.537  30.873  31.130  1.00  0.00     0.167 HD
ATOM     57  C   UNL A   1      41.352  33.379  31.758  1.00  0.00     0.074 A 
ATOM     58  C   UNL A   1      40.390  34.460  31.837  1.00  0.00     0.031 C 
ATOM     59  C   UNL A   1      42.601  33.428  32.283  1.00  0.00     0.031 A 
BRANCH  46  60
ATOM     60  C   UNL A   1      45.966  28.325  31.333  1.00  0.00    -0.014 A 
ATOM     61  C   UNL A   1      46.999  28.423  30.382  1.00  0.00     0.010 A 
ATOM     62  C   UNL A   1      46.192  27.595  32.514  1.00  0.00     0.010 A 
ATOM     63  C   UNL A   1      48.220  27.780  30.594  1.00  0.00     0.020 A 
ATOM     64  C   UNL A   1      47.423  26.975  32.744  1.00  0.00     0.020 A 
ATOM     65  C   UNL A   1      48.426  27.062  31.777  1.00  0.00     0.054 A 
BRANCH  65  66
ATOM     66  S   UNL A   1      50.039  26.274  32.041  1.00  0.00     0.124 S 
ATOM     67  O   UNL A   1      50.936  27.175  31.321  1.00  0.00    -0.237 OA
ATOM     68  O   UNL A   1      50.166  26.291  33.496  1.00  0.00    -0.237 OA
ATOM     69  O   UNL A   1      49.880  24.950  31.447  1.00  0.00    -0.744 OA
ENDBRANCH  65  66
ENDBRANCH  46  60
BRANCH  47  70
ATOM     70  C   UNL A   1      37.147  32.772  29.718  1.00  0.00    -0.014 A 
ATOM     71  C   UNL A   1      36.174  32.837  30.732  1.00  0.00     0.010 A 
ATOM     72  C   UNL A   1      36.880  33.376  28.476  1.00  0.00     0.010 A 
ATOM     73  C   UNL A   1      34.956  33.485  30.505  1.00  0.00     0.020 A 
ATOM     74  C   UNL A   1      35.675  34.051  28.255  1.00  0.00     0.020 A 
ATOM     75  C   UNL A   1      34.718  34.095  29.270  1.00  0.00     0.054 A 
BRANCH  75  76
ATOM     76  S   UNL A   1      33.156  34.984  29.025  1.00  0.00     0.124 S 
ATOM     77  O   UNL A   1      33.617  36.301  28.598  1.00  0.00    -0.237 OA
ATOM     78  O   UNL A   1      32.495  34.179  28.001  1.00  0.00    -0.237 OA
ATOM     79  O   UNL A   1      32.526  34.938  30.344  1.00  0.00    -0.744 OA
ENDBRANCH  75  76
ENDBRANCH  47  70
BRANCH  59  80
ATOM     80  C   UNL A   1      43.024  34.712  32.948  1.00  0.00    -0.014 A 
ATOM     81  C   UNL A   1      42.813  34.936  34.319  1.00  0.00     0.010 A 
ATOM     82  C   UNL A   1      43.692  35.693  32.189  1.00  0.00     0.010 A 
ATOM     83  C   UNL A   1      43.224  36.134  34.910  1.00  0.00     0.020 A 
ATOM     84  C   UNL A   1      44.133  36.877  32.783  1.00  0.00     0.020 A 
ATOM     85  C   UNL A   1      43.880  37.097  34.137  1.00  0.00     0.054 A 
BRANCH  85  86
ATOM     86  S   UNL A   1      44.422  38.633  34.935  1.00  0.00     0.124 S 
ATOM     87  O   UNL A   1      45.799  38.752  34.461  1.00  0.00    -0.237 OA
ATOM     88  O   UNL A   1      43.486  39.618  34.400  1.00  0.00    -0.237 OA
ATOM     89  O   UNL A   1      44.278  38.354  36.361  1.00  0.00    -0.744 OA
ENDBRANCH  85  86
ENDBRANCH  59  80
ENDBRANCH  33  34
ENDBRANCH  25  28
ENDBRANCH   1  24
TORSDOF 14
ENDMDL
