MODEL 1
REMARK VINA RESULT:     -11.7      0.000      0.000
REMARK SMILES Cc1ccc(F)c(NC(=O)[C@@H]2CCCC[C@@H]2C(=O)NCCCNC(=O)c2ccc(-c3c4nc(c(-c5ccc(S(=O)(=O)[O-])cc5)c5ccc([nH]5)c(-c5ccc(S(=O)(=O)[O-])cc5)c5nc(c(-c6ccc(S(=O)(=O)[O-])cc6)c6ccc3[nH]6)C=C5)C=C4)cc2)c1
REMARK SMILES IDX 21 1 20 2 19 3 17 4 18 5 16 7 11 8 12 9 13 10 15 11 14 12
REMARK SMILES IDX 9 13 8 14 10 16 7 17 1 18 2 19 3 20 86 21 4 22 5 23 6 24
REMARK SMILES IDX 22 25 23 26 24 27 25 29 26 30 27 31 85 32 28 33 84 34 29 35
REMARK SMILES IDX 30 36 31 37 78 38 32 39 83 40 77 41 79 42 33 43 82 44 76 45
REMARK SMILES IDX 75 46 34 48 64 49 45 50 63 51 46 52 49 53 62 54 80 55 47 56
REMARK SMILES IDX 48 57 61 59 81 60 50 61 35 62 36 63 44 64 37 65 43 66 38 67
REMARK SMILES IDX 39 68 40 69 41 70 42 71 65 72 66 73 74 74 67 75 73 76 68 77
REMARK SMILES IDX 69 78 70 79 71 80 72 81 51 82 52 83 60 84 53 85 59 86 54 87
REMARK SMILES IDX 55 88 56 89 57 90 58 91
REMARK H PARENT 19 6 8 15 23 28 79 47 49 58
REMARK Flexibility Score: inf
ROOT
ATOM      1  C   UNL A   1      32.045  27.587  27.397  1.00  0.00     0.042 C 
ENDROOT
BRANCH   1   2
ATOM      2  C   UNL A   1      31.445  26.700  26.301  1.00  0.00     0.117 C 
BRANCH   2   3
ATOM      3  N   UNL A   1      31.272  25.344  26.799  1.00  0.00    -0.356 N 
ATOM      4  C   UNL A   1      31.824  24.144  26.480  1.00  0.00     0.223 C 
ATOM      5  O   UNL A   1      31.329  23.185  27.085  1.00  0.00    -0.275 OA
ATOM      6  H   UNL A   1      30.612  25.283  27.526  1.00  0.00     0.163 HD
BRANCH   4   7
ATOM      7  C   UNL A   1      33.066  23.972  25.576  1.00  0.00     0.091 C 
ATOM      8  C   UNL A   1      33.159  22.928  24.432  1.00  0.00     0.091 C 
ATOM      9  C   UNL A   1      33.681  21.502  24.696  1.00  0.00     0.014 C 
ATOM     10  C   UNL A   1      34.720  21.396  25.804  1.00  0.00     0.001 C 
ATOM     11  C   UNL A   1      34.304  23.778  26.493  1.00  0.00     0.014 C 
ATOM     12  C   UNL A   1      34.448  22.331  26.971  1.00  0.00     0.001 C 
BRANCH   8  13
ATOM     13  C   UNL A   1      32.106  23.030  23.351  1.00  0.00     0.228 C 
ATOM     14  N   UNL A   1      31.564  24.156  22.838  1.00  0.00    -0.323 N 
ATOM     15  H   UNL A   1      30.754  23.956  22.315  1.00  0.00     0.170 HD
ATOM     16  O   UNL A   1      31.660  21.970  22.878  1.00  0.00    -0.274 OA
BRANCH  14  17
ATOM     17  C   UNL A   1      31.840  25.539  22.845  1.00  0.00     0.077 A 
ATOM     18  C   UNL A   1      29.613  28.625  22.671  1.00  0.00     0.044 C 
ATOM     19  C   UNL A   1      30.833  27.767  22.766  1.00  0.00    -0.049 A 
ATOM     20  C   UNL A   1      32.097  28.354  22.745  1.00  0.00     0.006 A 
ATOM     21  C   UNL A   1      30.712  26.372  22.866  1.00  0.00     0.032 A 
ATOM     22  C   UNL A   1      33.222  27.544  22.698  1.00  0.00     0.042 A 
ATOM     23  C   UNL A   1      33.081  26.159  22.698  1.00  0.00     0.146 A 
ATOM     24  F   UNL A   1      34.191  25.457  22.470  1.00  0.00    -0.205 F 
ENDBRANCH  14  17
ENDBRANCH   8  13
ENDBRANCH   4   7
ENDBRANCH   2   3
ENDBRANCH   1   2
BRANCH   1  25
ATOM     25  C   UNL A   1      33.382  28.247  27.062  1.00  0.00     0.118 C 
BRANCH  25  26
ATOM     26  N   UNL A   1      33.366  29.678  27.311  1.00  0.00    -0.352 N 
ATOM     27  C   UNL A   1      34.260  30.521  27.929  1.00  0.00     0.251 C 
ATOM     28  H   UNL A   1      32.561  30.132  26.971  1.00  0.00     0.163 HD
ATOM     29  O   UNL A   1      33.874  31.661  28.190  1.00  0.00    -0.269 OA
BRANCH  27  30
ATOM     30  C   UNL A   1      35.646  30.130  28.318  1.00  0.00     0.039 A 
ATOM     31  C   UNL A   1      36.627  30.114  27.313  1.00  0.00     0.014 A 
ATOM     32  C   UNL A   1      35.995  29.661  29.584  1.00  0.00     0.014 A 
ATOM     33  C   UNL A   1      37.936  29.683  27.581  1.00  0.00     0.010 A 
ATOM     34  C   UNL A   1      37.323  29.296  29.869  1.00  0.00     0.010 A 
ATOM     35  C   UNL A   1      38.321  29.304  28.875  1.00  0.00    -0.014 A 
BRANCH  35  36
ATOM     36  C   UNL A   1      39.739  28.944  29.212  1.00  0.00     0.031 A 
ATOM     37  C   UNL A   1      40.700  29.984  29.745  1.00  0.00     0.074 A 
ATOM     38  C   UNL A   1      40.212  27.702  28.962  1.00  0.00     0.049 A 
ATOM     39  N   UNL A   1      41.991  29.888  29.952  1.00  0.00    -0.248 NA
ATOM     40  C   UNL A   1      40.140  31.301  30.083  1.00  0.00     0.031 C 
ATOM     41  C   UNL A   1      39.429  26.571  28.458  1.00  0.00     0.029 A 
ATOM     42  N   UNL A   1      41.489  27.192  29.052  1.00  0.00    -0.354 N 
ATOM     43  C   UNL A   1      42.398  31.129  30.433  1.00  0.00     0.074 A 
ATOM     44  C   UNL A   1      41.225  31.978  30.434  1.00  0.00     0.031 C 
ATOM     45  C   UNL A   1      40.241  25.528  28.234  1.00  0.00     0.029 A 
ATOM     46  C   UNL A   1      41.608  25.905  28.578  1.00  0.00     0.049 A 
ATOM     47  H   UNL A   1      42.246  27.702  29.420  1.00  0.00     0.167 HD
ATOM     48  C   UNL A   1      43.622  31.525  30.865  1.00  0.00     0.031 A 
ATOM     49  C   UNL A   1      42.683  25.108  28.416  1.00  0.00     0.031 A 
ATOM     50  C   UNL A   1      44.793  30.688  30.899  1.00  0.00     0.049 A 
ATOM     51  C   UNL A   1      44.043  25.583  28.845  1.00  0.00     0.074 A 
ATOM     52  C   UNL A   1      46.050  30.990  31.397  1.00  0.00     0.029 A 
ATOM     53  N   UNL A   1      44.858  29.391  30.420  1.00  0.00    -0.354 N 
ATOM     54  N   UNL A   1      44.382  26.739  29.359  1.00  0.00    -0.248 NA
ATOM     55  C   UNL A   1      45.157  24.636  28.696  1.00  0.00     0.031 C 
ATOM     56  C   UNL A   1      46.888  29.893  31.172  1.00  0.00     0.029 A 
ATOM     57  C   UNL A   1      46.140  28.890  30.580  1.00  0.00     0.049 A 
ATOM     58  H   UNL A   1      44.104  28.896  30.023  1.00  0.00     0.167 HD
ATOM     59  C   UNL A   1      45.743  26.644  29.630  1.00  0.00     0.074 A 
ATOM     60  C   UNL A   1      46.164  25.319  29.224  1.00  0.00     0.031 C 
ATOM     61  C   UNL A   1      46.563  27.572  30.176  1.00  0.00     0.031 A 
BRANCH  48  62
ATOM     62  C   UNL A   1      43.762  32.946  31.352  1.00  0.00    -0.014 A 
ATOM     63  C   UNL A   1      44.110  33.983  30.467  1.00  0.00     0.010 A 
ATOM     64  C   UNL A   1      43.492  33.257  32.698  1.00  0.00     0.010 A 
ATOM     65  C   UNL A   1      44.235  35.296  30.930  1.00  0.00     0.020 A 
ATOM     66  C   UNL A   1      43.590  34.573  33.158  1.00  0.00     0.020 A 
ATOM     67  C   UNL A   1      43.983  35.582  32.275  1.00  0.00     0.054 A 
BRANCH  67  68
ATOM     68  S   UNL A   1      44.147  37.294  32.850  1.00  0.00     0.124 S 
ATOM     69  O   UNL A   1      43.946  38.044  31.609  1.00  0.00    -0.237 OA
ATOM     70  O   UNL A   1      43.067  37.409  33.830  1.00  0.00    -0.237 OA
ATOM     71  O   UNL A   1      45.492  37.349  33.401  1.00  0.00    -0.744 OA
ENDBRANCH  67  68
ENDBRANCH  48  62
BRANCH  49  72
ATOM     72  C   UNL A   1      42.513  23.748  27.837  1.00  0.00    -0.014 A 
ATOM     73  C   UNL A   1      42.181  22.661  28.664  1.00  0.00     0.010 A 
ATOM     74  C   UNL A   1      42.674  23.535  26.455  1.00  0.00     0.010 A 
ATOM     75  C   UNL A   1      42.028  21.382  28.123  1.00  0.00     0.020 A 
ATOM     76  C   UNL A   1      42.500  22.261  25.908  1.00  0.00     0.020 A 
ATOM     77  C   UNL A   1      42.188  21.190  26.748  1.00  0.00     0.054 A 
BRANCH  77  78
ATOM     78  S   UNL A   1      41.934  19.528  26.064  1.00  0.00     0.124 S 
ATOM     79  O   UNL A   1      42.833  19.533  24.914  1.00  0.00    -0.237 OA
ATOM     80  O   UNL A   1      42.331  18.667  27.175  1.00  0.00    -0.237 OA
ATOM     81  O   UNL A   1      40.508  19.505  25.748  1.00  0.00    -0.744 OA
ENDBRANCH  77  78
ENDBRANCH  49  72
BRANCH  61  82
ATOM     82  C   UNL A   1      48.003  27.194  30.401  1.00  0.00    -0.014 A 
ATOM     83  C   UNL A   1      48.988  27.487  29.441  1.00  0.00     0.010 A 
ATOM     84  C   UNL A   1      48.385  26.599  31.617  1.00  0.00     0.010 A 
ATOM     85  C   UNL A   1      50.328  27.180  29.690  1.00  0.00     0.020 A 
ATOM     86  C   UNL A   1      49.728  26.312  31.878  1.00  0.00     0.020 A 
ATOM     87  C   UNL A   1      50.691  26.597  30.908  1.00  0.00     0.054 A 
BRANCH  87  88
ATOM     88  S   UNL A   1      52.447  26.275  31.234  1.00  0.00     0.124 S 
ATOM     89  O   UNL A   1      52.823  27.432  32.042  1.00  0.00    -0.237 OA
ATOM     90  O   UNL A   1      52.413  24.998  31.943  1.00  0.00    -0.237 OA
ATOM     91  O   UNL A   1      53.044  26.224  29.901  1.00  0.00    -0.744 OA
ENDBRANCH  87  88
ENDBRANCH  61  82
ENDBRANCH  35  36
ENDBRANCH  27  30
ENDBRANCH  25  26
ENDBRANCH   1  25
TORSDOF 15
ENDMDL
MODEL 2
REMARK VINA RESULT:     -11.6      1.525      3.201
REMARK SMILES Cc1ccc(F)c(NC(=O)[C@@H]2CCCC[C@@H]2C(=O)NCCCNC(=O)c2ccc(-c3c4nc(c(-c5ccc(S(=O)(=O)[O-])cc5)c5ccc([nH]5)c(-c5ccc(S(=O)(=O)[O-])cc5)c5nc(c(-c6ccc(S(=O)(=O)[O-])cc6)c6ccc3[nH]6)C=C5)C=C4)cc2)c1
REMARK SMILES IDX 21 1 20 2 19 3 17 4 18 5 16 7 11 8 12 9 13 10 15 11 14 12
REMARK SMILES IDX 9 13 8 14 10 16 7 17 1 18 2 19 3 20 86 21 4 22 5 23 6 24
REMARK SMILES IDX 22 25 23 26 24 27 25 29 26 30 27 31 85 32 28 33 84 34 29 35
REMARK SMILES IDX 30 36 31 37 78 38 32 39 83 40 77 41 79 42 33 43 82 44 76 45
REMARK SMILES IDX 75 46 34 48 64 49 45 50 63 51 46 52 49 53 62 54 80 55 47 56
REMARK SMILES IDX 48 57 61 59 81 60 50 61 35 62 36 63 44 64 37 65 43 66 38 67
REMARK SMILES IDX 39 68 40 69 41 70 42 71 65 72 66 73 74 74 67 75 73 76 68 77
REMARK SMILES IDX 69 78 70 79 71 80 72 81 51 82 52 83 60 84 53 85 59 86 54 87
REMARK SMILES IDX 55 88 56 89 57 90 58 91
REMARK H PARENT 19 6 8 15 23 28 79 47 49 58
REMARK Flexibility Score: inf
ROOT
ATOM      1  C   UNL A   1      33.736  27.418  25.527  1.00  0.00     0.042 C 
ENDROOT
BRANCH   1   2
ATOM      2  C   UNL A   1      33.947  25.911  25.350  1.00  0.00     0.117 C 
BRANCH   2   3
ATOM      3  N   UNL A   1      33.696  25.533  23.968  1.00  0.00    -0.356 N 
ATOM      4  C   UNL A   1      34.018  24.451  23.211  1.00  0.00     0.223 C 
ATOM      5  O   UNL A   1      33.694  24.553  22.022  1.00  0.00    -0.275 OA
ATOM      6  H   UNL A   1      33.178  26.207  23.473  1.00  0.00     0.163 HD
BRANCH   4   7
ATOM      7  C   UNL A   1      34.586  23.131  23.782  1.00  0.00     0.091 C 
ATOM      8  C   UNL A   1      34.217  22.572  25.182  1.00  0.00     0.091 C 
ATOM      9  C   UNL A   1      35.025  22.964  26.434  1.00  0.00     0.014 C 
ATOM     10  C   UNL A   1      36.499  23.253  26.180  1.00  0.00     0.001 C 
ATOM     11  C   UNL A   1      36.134  23.195  23.693  1.00  0.00     0.014 C 
ATOM     12  C   UNL A   1      36.749  23.968  24.862  1.00  0.00     0.001 C 
BRANCH   8  13
ATOM     13  C   UNL A   1      32.747  22.312  25.429  1.00  0.00     0.228 C 
ATOM     14  N   UNL A   1      32.005  21.287  24.956  1.00  0.00    -0.323 N 
ATOM     15  H   UNL A   1      31.042  21.460  25.072  1.00  0.00     0.170 HD
ATOM     16  O   UNL A   1      32.126  23.131  26.129  1.00  0.00    -0.274 OA
BRANCH  14  17
ATOM     17  C   UNL A   1      32.230  20.037  24.344  1.00  0.00     0.077 A 
ATOM     18  C   UNL A   1      33.506  16.699  25.665  1.00  0.00     0.044 C 
ATOM     19  C   UNL A   1      32.981  17.741  24.731  1.00  0.00    -0.049 A 
ATOM     20  C   UNL A   1      32.861  17.457  23.372  1.00  0.00     0.006 A 
ATOM     21  C   UNL A   1      32.619  19.008  25.214  1.00  0.00     0.032 A 
ATOM     22  C   UNL A   1      32.501  18.468  22.495  1.00  0.00     0.042 A 
ATOM     23  C   UNL A   1      32.241  19.748  22.979  1.00  0.00     0.146 A 
ATOM     24  F   UNL A   1      32.081  20.701  22.061  1.00  0.00    -0.205 F 
ENDBRANCH  14  17
ENDBRANCH   8  13
ENDBRANCH   4   7
ENDBRANCH   2   3
ENDBRANCH   1   2
BRANCH   1  25
ATOM     25  C   UNL A   1      33.416  27.884  26.946  1.00  0.00     0.118 C 
BRANCH  25  26
ATOM     26  N   UNL A   1      33.416  29.331  27.063  1.00  0.00    -0.352 N 
ATOM     27  C   UNL A   1      34.319  30.218  27.601  1.00  0.00     0.251 C 
ATOM     28  H   UNL A   1      32.615  29.761  26.682  1.00  0.00     0.163 HD
ATOM     29  O   UNL A   1      33.945  31.382  27.756  1.00  0.00    -0.269 OA
BRANCH  27  30
ATOM     30  C   UNL A   1      35.701  29.849  28.023  1.00  0.00     0.039 A 
ATOM     31  C   UNL A   1      36.697  29.807  27.035  1.00  0.00     0.014 A 
ATOM     32  C   UNL A   1      36.033  29.425  29.309  1.00  0.00     0.014 A 
ATOM     33  C   UNL A   1      38.005  29.394  27.337  1.00  0.00     0.010 A 
ATOM     34  C   UNL A   1      37.359  29.079  29.627  1.00  0.00     0.010 A 
ATOM     35  C   UNL A   1      38.372  29.061  28.648  1.00  0.00    -0.014 A 
BRANCH  35  36
ATOM     36  C   UNL A   1      39.787  28.722  29.019  1.00  0.00     0.031 A 
ATOM     37  C   UNL A   1      40.722  29.777  29.568  1.00  0.00     0.074 A 
ATOM     38  C   UNL A   1      40.282  27.485  28.785  1.00  0.00     0.049 A 
ATOM     39  N   UNL A   1      42.009  29.700  29.804  1.00  0.00    -0.248 NA
ATOM     40  C   UNL A   1      40.136  31.088  29.886  1.00  0.00     0.031 C 
ATOM     41  C   UNL A   1      39.526  26.341  28.270  1.00  0.00     0.029 A 
ATOM     42  N   UNL A   1      41.564  26.994  28.907  1.00  0.00    -0.354 N 
ATOM     43  C   UNL A   1      42.388  30.949  30.288  1.00  0.00     0.074 A 
ATOM     44  C   UNL A   1      41.204  31.781  30.259  1.00  0.00     0.031 C 
ATOM     45  C   UNL A   1      40.357  25.308  28.069  1.00  0.00     0.029 A 
ATOM     46  C   UNL A   1      41.711  25.705  28.442  1.00  0.00     0.049 A 
ATOM     47  H   UNL A   1      42.306  27.515  29.289  1.00  0.00     0.167 HD
ATOM     48  C   UNL A   1      43.597  31.364  30.745  1.00  0.00     0.031 A 
ATOM     49  C   UNL A   1      42.800  24.923  28.309  1.00  0.00     0.031 A 
ATOM     50  C   UNL A   1      44.778  30.542  30.810  1.00  0.00     0.049 A 
ATOM     51  C   UNL A   1      44.143  25.418  28.765  1.00  0.00     0.074 A 
ATOM     52  C   UNL A   1      46.020  30.864  31.334  1.00  0.00     0.029 A 
ATOM     53  N   UNL A   1      44.871  29.244  30.338  1.00  0.00    -0.354 N 
ATOM     54  N   UNL A   1      44.455  26.581  29.281  1.00  0.00    -0.248 NA
ATOM     55  C   UNL A   1      45.274  24.486  28.646  1.00  0.00     0.031 C 
ATOM     56  C   UNL A   1      46.877  29.777  31.134  1.00  0.00     0.029 A 
ATOM     57  C   UNL A   1      46.156  28.761  30.530  1.00  0.00     0.049 A 
ATOM     58  H   UNL A   1      44.133  28.738  29.927  1.00  0.00     0.167 HD
ATOM     59  C   UNL A   1      45.810  26.506  29.582  1.00  0.00     0.074 A 
ATOM     60  C   UNL A   1      46.259  25.185  29.192  1.00  0.00     0.031 C 
ATOM     61  C   UNL A   1      46.606  27.448  30.143  1.00  0.00     0.031 A 
BRANCH  48  62
ATOM     62  C   UNL A   1      43.707  32.788  31.228  1.00  0.00    -0.014 A 
ATOM     63  C   UNL A   1      43.343  33.136  32.543  1.00  0.00     0.010 A 
ATOM     64  C   UNL A   1      44.229  33.781  30.379  1.00  0.00     0.010 A 
ATOM     65  C   UNL A   1      43.452  34.458  32.981  1.00  0.00     0.020 A 
ATOM     66  C   UNL A   1      44.364  35.099  30.822  1.00  0.00     0.020 A 
ATOM     67  C   UNL A   1      43.953  35.434  32.115  1.00  0.00     0.054 A 
BRANCH  67  68
ATOM     68  S   UNL A   1      44.088  37.143  32.708  1.00  0.00     0.124 S 
ATOM     69  O   UNL A   1      43.125  37.151  33.809  1.00  0.00    -0.237 OA
ATOM     70  O   UNL A   1      45.493  37.234  33.108  1.00  0.00    -0.237 OA
ATOM     71  O   UNL A   1      43.720  37.945  31.551  1.00  0.00    -0.744 OA
ENDBRANCH  67  68
ENDBRANCH  48  62
BRANCH  49  72
ATOM     72  C   UNL A   1      42.661  23.557  27.732  1.00  0.00    -0.014 A 
ATOM     73  C   UNL A   1      42.268  22.481  28.545  1.00  0.00     0.010 A 
ATOM     74  C   UNL A   1      42.914  23.330  26.367  1.00  0.00     0.010 A 
ATOM     75  C   UNL A   1      42.144  21.197  28.008  1.00  0.00     0.020 A 
ATOM     76  C   UNL A   1      42.770  22.051  25.822  1.00  0.00     0.020 A 
ATOM     77  C   UNL A   1      42.395  20.990  26.649  1.00  0.00     0.054 A 
BRANCH  77  78
ATOM     78  S   UNL A   1      42.178  19.323  25.965  1.00  0.00     0.124 S 
ATOM     79  O   UNL A   1      40.742  19.286  25.708  1.00  0.00    -0.237 OA
ATOM     80  O   UNL A   1      43.034  19.356  24.781  1.00  0.00    -0.237 OA
ATOM     81  O   UNL A   1      42.648  18.452  27.039  1.00  0.00    -0.744 OA
ENDBRANCH  77  78
ENDBRANCH  49  72
BRANCH  61  82
ATOM     82  C   UNL A   1      48.045  27.090  30.401  1.00  0.00    -0.014 A 
ATOM     83  C   UNL A   1      49.050  27.411  29.472  1.00  0.00     0.010 A 
ATOM     84  C   UNL A   1      48.405  26.487  31.620  1.00  0.00     0.010 A 
ATOM     85  C   UNL A   1      50.389  27.123  29.752  1.00  0.00     0.020 A 
ATOM     86  C   UNL A   1      49.745  26.218  31.913  1.00  0.00     0.020 A 
ATOM     87  C   UNL A   1      50.728  26.531  30.973  1.00  0.00     0.054 A 
BRANCH  87  88
ATOM     88  S   UNL A   1      52.480  26.234  31.342  1.00  0.00     0.124 S 
ATOM     89  O   UNL A   1      52.437  24.921  31.981  1.00  0.00    -0.237 OA
ATOM     90  O   UNL A   1      53.098  26.269  30.018  1.00  0.00    -0.237 OA
ATOM     91  O   UNL A   1      52.843  27.343  32.222  1.00  0.00    -0.744 OA
ENDBRANCH  87  88
ENDBRANCH  61  82
ENDBRANCH  35  36
ENDBRANCH  27  30
ENDBRANCH  25  26
ENDBRANCH   1  25
TORSDOF 15
ENDMDL
MODEL 3
REMARK VINA RESULT:     -11.5      1.344      2.945
REMARK SMILES Cc1ccc(F)c(NC(=O)[C@@H]2CCCC[C@@H]2C(=O)NCCCNC(=O)c2ccc(-c3c4nc(c(-c5ccc(S(=O)(=O)[O-])cc5)c5ccc([nH]5)c(-c5ccc(S(=O)(=O)[O-])cc5)c5nc(c(-c6ccc(S(=O)(=O)[O-])cc6)c6ccc3[nH]6)C=C5)C=C4)cc2)c1
REMARK SMILES IDX 21 1 20 2 19 3 17 4 18 5 16 7 11 8 12 9 13 10 15 11 14 12
REMARK SMILES IDX 9 13 8 14 10 16 7 17 1 18 2 19 3 20 86 21 4 22 5 23 6 24
REMARK SMILES IDX 22 25 23 26 24 27 25 29 26 30 27 31 85 32 28 33 84 34 29 35
REMARK SMILES IDX 30 36 31 37 78 38 32 39 83 40 77 41 79 42 33 43 82 44 76 45
REMARK SMILES IDX 75 46 34 48 64 49 45 50 63 51 46 52 49 53 62 54 80 55 47 56
REMARK SMILES IDX 48 57 61 59 81 60 50 61 35 62 36 63 44 64 37 65 43 66 38 67
REMARK SMILES IDX 39 68 40 69 41 70 42 71 65 72 66 73 74 74 67 75 73 76 68 77
REMARK SMILES IDX 69 78 70 79 71 80 72 81 51 82 52 83 60 84 53 85 59 86 54 87
REMARK SMILES IDX 55 88 56 89 57 90 58 91
REMARK H PARENT 19 6 8 15 23 28 79 47 49 58
REMARK Flexibility Score: inf
ROOT
ATOM      1  C   UNL A   1      33.762  27.716  26.100  1.00  0.00     0.042 C 
ENDROOT
BRANCH   1   2
ATOM      2  C   UNL A   1      33.138  26.429  25.550  1.00  0.00     0.117 C 
BRANCH   2   3
ATOM      3  N   UNL A   1      31.792  26.265  26.077  1.00  0.00    -0.356 N 
ATOM      4  C   UNL A   1      30.800  25.361  25.866  1.00  0.00     0.223 C 
ATOM      5  O   UNL A   1      29.742  25.629  26.450  1.00  0.00    -0.275 OA
ATOM      6  H   UNL A   1      31.547  26.959  26.730  1.00  0.00     0.163 HD
BRANCH   4   7
ATOM      7  C   UNL A   1      30.988  24.025  25.111  1.00  0.00     0.091 C 
ATOM      8  C   UNL A   1      32.298  23.194  25.150  1.00  0.00     0.091 C 
ATOM      9  C   UNL A   1      33.427  23.440  24.130  1.00  0.00     0.014 C 
ATOM     10  C   UNL A   1      32.960  23.916  22.761  1.00  0.00     0.001 C 
ATOM     11  C   UNL A   1      30.623  24.259  23.621  1.00  0.00     0.014 C 
ATOM     12  C   UNL A   1      31.781  24.873  22.831  1.00  0.00     0.001 C 
BRANCH   8  13
ATOM     13  C   UNL A   1      32.763  22.748  26.519  1.00  0.00     0.228 C 
ATOM     14  N   UNL A   1      33.919  22.120  26.827  1.00  0.00    -0.323 N 
ATOM     15  H   UNL A   1      33.888  21.742  27.737  1.00  0.00     0.170 HD
ATOM     16  O   UNL A   1      32.005  22.956  27.482  1.00  0.00    -0.274 OA
BRANCH  14  17
ATOM     17  C   UNL A   1      35.157  21.857  26.206  1.00  0.00     0.077 A 
ATOM     18  C   UNL A   1      38.355  23.894  25.841  1.00  0.00     0.044 C 
ATOM     19  C   UNL A   1      37.376  22.770  25.732  1.00  0.00    -0.049 A 
ATOM     20  C   UNL A   1      37.693  21.646  24.973  1.00  0.00     0.006 A 
ATOM     21  C   UNL A   1      36.135  22.846  26.382  1.00  0.00     0.032 A 
ATOM     22  C   UNL A   1      36.730  20.670  24.768  1.00  0.00     0.042 A 
ATOM     23  C   UNL A   1      35.468  20.809  25.339  1.00  0.00     0.146 A 
ATOM     24  F   UNL A   1      34.548  19.926  24.950  1.00  0.00    -0.205 F 
ENDBRANCH  14  17
ENDBRANCH   8  13
ENDBRANCH   4   7
ENDBRANCH   2   3
ENDBRANCH   1   2
BRANCH   1  25
ATOM     25  C   UNL A   1      33.154  28.251  27.395  1.00  0.00     0.118 C 
BRANCH  25  26
ATOM     26  N   UNL A   1      33.188  29.701  27.461  1.00  0.00    -0.352 N 
ATOM     27  C   UNL A   1      34.132  30.585  27.929  1.00  0.00     0.251 C 
ATOM     28  H   UNL A   1      32.381  30.135  27.100  1.00  0.00     0.163 HD
ATOM     29  O   UNL A   1      33.789  31.762  28.059  1.00  0.00    -0.269 OA
BRANCH  27  30
ATOM     30  C   UNL A   1      35.523  30.201  28.306  1.00  0.00     0.039 A 
ATOM     31  C   UNL A   1      36.479  30.122  27.281  1.00  0.00     0.014 A 
ATOM     32  C   UNL A   1      35.897  29.796  29.587  1.00  0.00     0.014 A 
ATOM     33  C   UNL A   1      37.791  29.692  27.541  1.00  0.00     0.010 A 
ATOM     34  C   UNL A   1      37.228  29.433  29.860  1.00  0.00     0.010 A 
ATOM     35  C   UNL A   1      38.202  29.379  28.844  1.00  0.00    -0.014 A 
BRANCH  35  36
ATOM     36  C   UNL A   1      39.624  29.022  29.167  1.00  0.00     0.031 A 
ATOM     37  C   UNL A   1      40.594  30.069  29.670  1.00  0.00     0.074 A 
ATOM     38  C   UNL A   1      40.092  27.776  28.931  1.00  0.00     0.049 A 
ATOM     39  N   UNL A   1      41.888  29.974  29.860  1.00  0.00    -0.248 NA
ATOM     40  C   UNL A   1      40.041  31.393  29.993  1.00  0.00     0.031 C 
ATOM     41  C   UNL A   1      39.301  26.637  28.457  1.00  0.00     0.029 A 
ATOM     42  N   UNL A   1      41.370  27.266  29.011  1.00  0.00    -0.354 N 
ATOM     43  C   UNL A   1      42.303  31.224  30.314  1.00  0.00     0.074 A 
ATOM     44  C   UNL A   1      41.131  32.073  30.318  1.00  0.00     0.031 C 
ATOM     45  C   UNL A   1      40.109  25.589  28.239  1.00  0.00     0.029 A 
ATOM     46  C   UNL A   1      41.481  25.970  28.558  1.00  0.00     0.049 A 
ATOM     47  H   UNL A   1      42.133  27.780  29.361  1.00  0.00     0.167 HD
ATOM     48  C   UNL A   1      43.533  31.625  30.722  1.00  0.00     0.031 A 
ATOM     49  C   UNL A   1      42.552  25.169  28.394  1.00  0.00     0.031 A 
ATOM     50  C   UNL A   1      44.704  30.786  30.754  1.00  0.00     0.049 A 
ATOM     51  C   UNL A   1      43.919  25.649  28.795  1.00  0.00     0.074 A 
ATOM     52  C   UNL A   1      45.969  31.095  31.229  1.00  0.00     0.029 A 
ATOM     53  N   UNL A   1      44.760  29.482  30.295  1.00  0.00    -0.354 N 
ATOM     54  N   UNL A   1      44.267  26.813  29.285  1.00  0.00    -0.248 NA
ATOM     55  C   UNL A   1      45.030  24.698  28.646  1.00  0.00     0.031 C 
ATOM     56  C   UNL A   1      46.802  29.993  31.011  1.00  0.00     0.029 A 
ATOM     57  C   UNL A   1      46.044  28.981  30.445  1.00  0.00     0.049 A 
ATOM     58  H   UNL A   1      44.000  28.982  29.917  1.00  0.00     0.167 HD
ATOM     59  C   UNL A   1      45.631  26.720  29.538  1.00  0.00     0.074 A 
ATOM     60  C   UNL A   1      46.045  25.389  29.149  1.00  0.00     0.031 C 
ATOM     61  C   UNL A   1      46.460  27.657  30.058  1.00  0.00     0.031 A 
BRANCH  48  62
ATOM     62  C   UNL A   1      43.682  33.053  31.184  1.00  0.00    -0.014 A 
ATOM     63  C   UNL A   1      43.450  33.407  32.526  1.00  0.00     0.010 A 
ATOM     64  C   UNL A   1      44.111  34.043  30.281  1.00  0.00     0.010 A 
ATOM     65  C   UNL A   1      43.593  34.732  32.944  1.00  0.00     0.020 A 
ATOM     66  C   UNL A   1      44.281  35.365  30.701  1.00  0.00     0.020 A 
ATOM     67  C   UNL A   1      43.999  35.706  32.026  1.00  0.00     0.054 A 
BRANCH  67  68
ATOM     68  S   UNL A   1      44.182  37.419  32.594  1.00  0.00     0.124 S 
ATOM     69  O   UNL A   1      43.829  38.170  31.388  1.00  0.00    -0.237 OA
ATOM     70  O   UNL A   1      43.211  37.501  33.685  1.00  0.00    -0.237 OA
ATOM     71  O   UNL A   1      45.577  37.506  32.998  1.00  0.00    -0.744 OA
ENDBRANCH  67  68
ENDBRANCH  48  62
BRANCH  49  72
ATOM     72  C   UNL A   1      42.373  23.800  27.839  1.00  0.00    -0.014 A 
ATOM     73  C   UNL A   1      42.426  23.585  26.452  1.00  0.00     0.010 A 
ATOM     74  C   UNL A   1      42.158  22.704  28.696  1.00  0.00     0.010 A 
ATOM     75  C   UNL A   1      42.250  22.301  25.928  1.00  0.00     0.020 A 
ATOM     76  C   UNL A   1      42.004  21.416  28.177  1.00  0.00     0.020 A 
ATOM     77  C   UNL A   1      42.041  21.224  26.794  1.00  0.00     0.054 A 
BRANCH  77  78
ATOM     78  S   UNL A   1      41.867  19.560  26.092  1.00  0.00     0.124 S 
ATOM     79  O   UNL A   1      42.293  18.716  27.204  1.00  0.00    -0.237 OA
ATOM     80  O   UNL A   1      40.445  19.505  25.763  1.00  0.00    -0.237 OA
ATOM     81  O   UNL A   1      42.764  19.583  24.939  1.00  0.00    -0.744 OA
ENDBRANCH  77  78
ENDBRANCH  49  72
BRANCH  61  82
ATOM     82  C   UNL A   1      47.902  27.280  30.268  1.00  0.00    -0.014 A 
ATOM     83  C   UNL A   1      48.886  27.622  29.324  1.00  0.00     0.010 A 
ATOM     84  C   UNL A   1      48.288  26.636  31.458  1.00  0.00     0.010 A 
ATOM     85  C   UNL A   1      50.229  27.315  29.561  1.00  0.00     0.020 A 
ATOM     86  C   UNL A   1      49.633  26.348  31.709  1.00  0.00     0.020 A 
ATOM     87  C   UNL A   1      50.594  26.683  30.754  1.00  0.00     0.054 A 
BRANCH  87  88
ATOM     88  S   UNL A   1      52.352  26.360  31.069  1.00  0.00     0.124 S 
ATOM     89  O   UNL A   1      52.301  25.112  31.825  1.00  0.00    -0.237 OA
ATOM     90  O   UNL A   1      52.906  26.257  29.721  1.00  0.00    -0.237 OA
ATOM     91  O   UNL A   1      52.789  27.531  31.827  1.00  0.00    -0.744 OA
ENDBRANCH  87  88
ENDBRANCH  61  82
ENDBRANCH  35  36
ENDBRANCH  27  30
ENDBRANCH  25  26
ENDBRANCH   1  25
TORSDOF 15
ENDMDL
