MODEL 1
REMARK VINA RESULT:      -9.7      0.000      0.000
REMARK SMILES O=C(CC[N@H+]1CCC[C@@H](C(=O)NCCCNC(=O)c2ccc(-c3c4nc(c(-c5ccc(S(=O)(=O)[O-])cc5)c5ccc([nH]5)c(-c5ccc(S(=O)(=O)[O-])cc5)c5nc(c(-c6ccc(S(=O)(=O)[O-])cc6)c6ccc3[nH]6)C=C5)C=C4)cc2)C1)Nc1cccc(F)c1
REMARK SMILES IDX 13 1 12 2 10 3 11 4 9 6 5 7 6 8 79 9 7 11 8 12 4 13 3 14
REMARK SMILES IDX 2 15 1 16 80 17 81 19 82 20 87 21 83 22 85 23 84 24 86 25
REMARK SMILES IDX 14 26 15 27 16 28 17 29 18 31 19 32 20 33 78 34 21 35 77 36
REMARK SMILES IDX 22 37 23 38 24 39 71 40 25 41 76 42 70 43 72 44 26 45 75 46
REMARK SMILES IDX 69 47 68 48 27 50 57 51 38 52 56 53 39 54 42 55 55 56 73 57
REMARK SMILES IDX 40 58 41 59 54 61 74 62 43 63 28 64 29 65 37 66 30 67 36 68
REMARK SMILES IDX 31 69 32 70 33 71 34 72 35 73 58 74 59 75 67 76 60 77 66 78
REMARK SMILES IDX 61 79 62 80 63 81 64 82 65 83 44 84 45 85 53 86 46 87 52 88
REMARK SMILES IDX 47 89 48 90 49 91 50 92 51 93
REMARK H PARENT 12 5 5 10 80 18 16 30 72 49 42 60
REMARK Flexibility Score: inf
ROOT
ATOM      1  C   UNL A   1      42.608  22.229  26.134  1.00  0.00     0.117 C 
ENDROOT
BRANCH   1   2
ATOM      2  N   UNL A   1      43.189  22.195  24.808  1.00  0.00    -0.356 N 
ATOM      3  C   UNL A   1      44.287  22.756  24.263  1.00  0.00     0.228 C 
ATOM      4  O   UNL A   1      44.489  22.490  23.071  1.00  0.00    -0.275 OA
ATOM      5  H   UNL A   1      42.674  21.648  24.172  1.00  0.00     0.163 HD
BRANCH   3   6
ATOM      6  C   UNL A   1      45.244  23.705  24.971  1.00  0.00     0.133 C 
ATOM      7  N   UNL A   1      45.642  26.083  25.415  1.00  0.00    -0.334 N 
ATOM      8  C   UNL A   1      46.315  25.778  26.691  1.00  0.00     0.262 C 
ATOM      9  C   UNL A   1      44.589  25.086  25.127  1.00  0.00     0.275 C 
ATOM     10  H   UNL A   1      46.334  26.021  24.668  1.00  0.00     0.348 HD
ATOM     11  C   UNL A   1      46.960  24.389  26.652  1.00  0.00     0.062 C 
ATOM     12  C   UNL A   1      45.939  23.316  26.268  1.00  0.00     0.025 C 
BRANCH   7  13
ATOM     13  C   UNL A   1      45.118  27.463  25.398  1.00  0.00     0.272 C 
BRANCH  13  14
ATOM     14  C   UNL A   1      45.676  28.252  26.587  1.00  0.00     0.161 C 
BRANCH  14  15
ATOM     15  C   UNL A   1      45.787  29.752  26.329  1.00  0.00     0.230 C 
ATOM     16  O   UNL A   1      46.404  30.171  25.353  1.00  0.00    -0.275 OA
ATOM     17  N   UNL A   1      45.106  30.520  27.252  1.00  0.00    -0.326 N 
ATOM     18  H   UNL A   1      44.679  30.029  27.991  1.00  0.00     0.169 HD
BRANCH  17  19
ATOM     19  C   UNL A   1      44.947  31.919  27.268  1.00  0.00     0.044 A 
ATOM     20  C   UNL A   1      44.204  32.497  26.228  1.00  0.00     0.026 A 
ATOM     21  C   UNL A   1      45.495  32.749  28.243  1.00  0.00     0.065 A 
ATOM     22  C   UNL A   1      43.994  33.878  26.170  1.00  0.00     0.005 A 
ATOM     23  C   UNL A   1      45.298  34.127  28.167  1.00  0.00     0.125 A 
ATOM     24  C   UNL A   1      44.549  34.699  27.144  1.00  0.00     0.039 A 
ATOM     25  F   UNL A   1      45.846  34.923  29.096  1.00  0.00    -0.207 F 
ENDBRANCH  17  19
ENDBRANCH  14  15
ENDBRANCH  13  14
ENDBRANCH   7  13
ENDBRANCH   3   6
ENDBRANCH   1   2
BRANCH   1  26
ATOM     26  C   UNL A   1      41.655  21.066  26.376  1.00  0.00     0.042 C 
BRANCH  26  27
ATOM     27  C   UNL A   1      40.391  21.469  27.135  1.00  0.00     0.118 C 
BRANCH  27  28
ATOM     28  N   UNL A   1      39.324  21.900  26.239  1.00  0.00    -0.352 N 
ATOM     29  C   UNL A   1      38.679  23.104  26.136  1.00  0.00     0.251 C 
ATOM     30  H   UNL A   1      39.015  21.212  25.605  1.00  0.00     0.163 HD
ATOM     31  O   UNL A   1      37.635  23.172  25.485  1.00  0.00    -0.269 OA
BRANCH  29  32
ATOM     32  C   UNL A   1      39.223  24.310  26.791  1.00  0.00     0.039 A 
ATOM     33  C   UNL A   1      40.059  25.161  26.061  1.00  0.00     0.014 A 
ATOM     34  C   UNL A   1      38.957  24.578  28.136  1.00  0.00     0.014 A 
ATOM     35  C   UNL A   1      40.578  26.308  26.664  1.00  0.00     0.010 A 
ATOM     36  C   UNL A   1      39.414  25.759  28.714  1.00  0.00     0.010 A 
ATOM     37  C   UNL A   1      40.235  26.631  27.986  1.00  0.00    -0.014 A 
BRANCH  37  38
ATOM     38  C   UNL A   1      40.721  27.879  28.626  1.00  0.00     0.031 A 
ATOM     39  C   UNL A   1      42.137  27.974  29.125  1.00  0.00     0.074 A 
ATOM     40  C   UNL A   1      39.865  28.901  28.819  1.00  0.00     0.049 A 
ATOM     41  N   UNL A   1      42.721  28.955  29.766  1.00  0.00    -0.248 NA
ATOM     42  C   UNL A   1      43.002  26.805  28.899  1.00  0.00     0.031 C 
ATOM     43  C   UNL A   1      38.457  28.914  28.414  1.00  0.00     0.029 A 
ATOM     44  N   UNL A   1      40.051  30.125  29.412  1.00  0.00    -0.354 N 
ATOM     45  C   UNL A   1      44.012  28.514  30.034  1.00  0.00     0.074 A 
ATOM     46  C   UNL A   1      44.110  27.161  29.531  1.00  0.00     0.031 C 
ATOM     47  C   UNL A   1      37.915  30.098  28.744  1.00  0.00     0.029 A 
ATOM     48  C   UNL A   1      38.922  30.909  29.422  1.00  0.00     0.049 A 
ATOM     49  H   UNL A   1      40.911  30.413  29.794  1.00  0.00     0.167 HD
ATOM     50  C   UNL A   1      45.029  29.182  30.630  1.00  0.00     0.031 A 
ATOM     51  C   UNL A   1      38.717  32.142  29.924  1.00  0.00     0.031 A 
ATOM     52  C   UNL A   1      44.928  30.530  31.123  1.00  0.00     0.049 A 
ATOM     53  C   UNL A   1      39.857  32.861  30.589  1.00  0.00     0.074 A 
ATOM     54  C   UNL A   1      45.914  31.315  31.693  1.00  0.00     0.029 A 
ATOM     55  N   UNL A   1      43.770  31.293  31.108  1.00  0.00    -0.354 N 
ATOM     56  N   UNL A   1      41.088  32.451  30.780  1.00  0.00    -0.248 NA
ATOM     57  C   UNL A   1      39.583  34.211  31.096  1.00  0.00     0.031 C 
ATOM     58  C   UNL A   1      45.340  32.533  32.069  1.00  0.00     0.029 A 
ATOM     59  C   UNL A   1      44.010  32.531  31.680  1.00  0.00     0.049 A 
ATOM     60  H   UNL A   1      42.903  30.997  30.744  1.00  0.00     0.167 HD
ATOM     61  C   UNL A   1      41.744  33.505  31.407  1.00  0.00     0.074 A 
ATOM     62  C   UNL A   1      40.775  34.573  31.550  1.00  0.00     0.031 C 
ATOM     63  C   UNL A   1      43.033  33.581  31.822  1.00  0.00     0.031 A 
BRANCH  50  64
ATOM     64  C   UNL A   1      46.338  28.451  30.792  1.00  0.00    -0.014 A 
ATOM     65  C   UNL A   1      47.337  28.520  29.803  1.00  0.00     0.010 A 
ATOM     66  C   UNL A   1      46.580  27.697  31.954  1.00  0.00     0.010 A 
ATOM     67  C   UNL A   1      48.530  27.808  29.948  1.00  0.00     0.020 A 
ATOM     68  C   UNL A   1      47.785  27.006  32.118  1.00  0.00     0.020 A 
ATOM     69  C   UNL A   1      48.743  27.049  31.103  1.00  0.00     0.054 A 
BRANCH  69  70
ATOM     70  S   UNL A   1      50.301  26.133  31.267  1.00  0.00     0.124 S 
ATOM     71  O   UNL A   1      50.788  26.124  29.890  1.00  0.00    -0.237 OA
ATOM     72  O   UNL A   1      51.063  26.960  32.198  1.00  0.00    -0.237 OA
ATOM     73  O   UNL A   1      49.886  24.833  31.788  1.00  0.00    -0.744 OA
ENDBRANCH  69  70
ENDBRANCH  50  64
BRANCH  51  74
ATOM     74  C   UNL A   1      37.379  32.779  29.789  1.00  0.00    -0.014 A 
ATOM     75  C   UNL A   1      36.423  32.645  30.809  1.00  0.00     0.010 A 
ATOM     76  C   UNL A   1      37.068  33.554  28.656  1.00  0.00     0.010 A 
ATOM     77  C   UNL A   1      35.177  33.269  30.699  1.00  0.00     0.020 A 
ATOM     78  C   UNL A   1      35.834  34.201  28.554  1.00  0.00     0.020 A 
ATOM     79  C   UNL A   1      34.892  34.048  29.574  1.00  0.00     0.054 A 
BRANCH  79  80
ATOM     80  S   UNL A   1      33.297  34.909  29.487  1.00  0.00     0.124 S 
ATOM     81  O   UNL A   1      32.887  34.933  30.887  1.00  0.00    -0.237 OA
ATOM     82  O   UNL A   1      33.667  36.199  28.911  1.00  0.00    -0.237 OA
ATOM     83  O   UNL A   1      32.495  34.054  28.613  1.00  0.00    -0.744 OA
ENDBRANCH  79  80
ENDBRANCH  51  74
BRANCH  63  84
ATOM     84  C   UNL A   1      43.481  34.875  32.448  1.00  0.00    -0.014 A 
ATOM     85  C   UNL A   1      43.469  35.055  33.842  1.00  0.00     0.010 A 
ATOM     86  C   UNL A   1      43.971  35.907  31.626  1.00  0.00     0.010 A 
ATOM     87  C   UNL A   1      43.911  36.256  34.401  1.00  0.00     0.020 A 
ATOM     88  C   UNL A   1      44.439  37.099  32.184  1.00  0.00     0.020 A 
ATOM     89  C   UNL A   1      44.393  37.271  33.569  1.00  0.00     0.054 A 
BRANCH  89  90
ATOM     90  S   UNL A   1      45.001  38.804  34.323  1.00  0.00     0.124 S 
ATOM     91  O   UNL A   1      45.626  38.314  35.548  1.00  0.00    -0.237 OA
ATOM     92  O   UNL A   1      45.920  39.317  33.309  1.00  0.00    -0.237 OA
ATOM     93  O   UNL A   1      43.790  39.599  34.517  1.00  0.00    -0.744 OA
ENDBRANCH  89  90
ENDBRANCH  63  84
ENDBRANCH  37  38
ENDBRANCH  29  32
ENDBRANCH  27  28
ENDBRANCH  26  27
ENDBRANCH   1  26
TORSDOF 17
ENDMDL
MODEL 2
REMARK VINA RESULT:      -9.5      5.251     12.152
REMARK SMILES O=C(CC[N@H+]1CCC[C@@H](C(=O)NCCCNC(=O)c2ccc(-c3c4nc(c(-c5ccc(S(=O)(=O)[O-])cc5)c5ccc([nH]5)c(-c5ccc(S(=O)(=O)[O-])cc5)c5nc(c(-c6ccc(S(=O)(=O)[O-])cc6)c6ccc3[nH]6)C=C5)C=C4)cc2)C1)Nc1cccc(F)c1
REMARK SMILES IDX 13 1 12 2 10 3 11 4 9 6 5 7 6 8 79 9 7 11 8 12 4 13 3 14
REMARK SMILES IDX 2 15 1 16 80 17 81 19 82 20 87 21 83 22 85 23 84 24 86 25
REMARK SMILES IDX 14 26 15 27 16 28 17 29 18 31 19 32 20 33 78 34 21 35 77 36
REMARK SMILES IDX 22 37 23 38 24 39 71 40 25 41 76 42 70 43 72 44 26 45 75 46
REMARK SMILES IDX 69 47 68 48 27 50 57 51 38 52 56 53 39 54 42 55 55 56 73 57
REMARK SMILES IDX 40 58 41 59 54 61 74 62 43 63 28 64 29 65 37 66 30 67 36 68
REMARK SMILES IDX 31 69 32 70 33 71 34 72 35 73 58 74 59 75 67 76 60 77 66 78
REMARK SMILES IDX 61 79 62 80 63 81 64 82 65 83 44 84 45 85 53 86 46 87 52 88
REMARK SMILES IDX 47 89 48 90 49 91 50 92 51 93
REMARK H PARENT 12 5 5 10 80 18 16 30 72 49 42 60
REMARK Flexibility Score: inf
ROOT
ATOM      1  C   UNL A   1      33.867  27.519  23.823  1.00  0.00     0.117 C 
ENDROOT
BRANCH   1   2
ATOM      2  N   UNL A   1      32.949  27.317  22.721  1.00  0.00    -0.356 N 
ATOM      3  C   UNL A   1      31.745  26.718  22.618  1.00  0.00     0.228 C 
ATOM      4  O   UNL A   1      31.226  26.748  21.493  1.00  0.00    -0.275 OA
ATOM      5  H   UNL A   1      33.270  27.695  21.871  1.00  0.00     0.163 HD
BRANCH   3   6
ATOM      6  C   UNL A   1      31.018  25.984  23.736  1.00  0.00     0.133 C 
ATOM      7  N   UNL A   1      30.720  23.760  24.722  1.00  0.00    -0.334 N 
ATOM      8  C   UNL A   1      30.456  24.336  26.054  1.00  0.00     0.262 C 
ATOM      9  C   UNL A   1      31.662  24.607  23.961  1.00  0.00     0.275 C 
ATOM     10  H   UNL A   1      29.840  23.740  24.205  1.00  0.00     0.348 HD
ATOM     11  C   UNL A   1      29.856  25.741  25.933  1.00  0.00     0.062 C 
ATOM     12  C   UNL A   1      30.742  26.649  25.077  1.00  0.00     0.025 C 
BRANCH   7  13
ATOM     13  C   UNL A   1      31.188  22.364  24.822  1.00  0.00     0.272 C 
BRANCH  13  14
ATOM     14  C   UNL A   1      32.605  22.323  25.402  1.00  0.00     0.161 C 
BRANCH  14  15
ATOM     15  C   UNL A   1      33.108  20.914  25.697  1.00  0.00     0.230 C 
ATOM     16  O   UNL A   1      33.728  20.678  26.730  1.00  0.00    -0.275 OA
ATOM     17  N   UNL A   1      32.751  19.991  24.733  1.00  0.00    -0.326 N 
ATOM     18  H   UNL A   1      32.271  20.348  23.951  1.00  0.00     0.169 HD
BRANCH  17  19
ATOM     19  C   UNL A   1      32.991  18.604  24.730  1.00  0.00     0.044 A 
ATOM     20  C   UNL A   1      33.756  18.083  23.676  1.00  0.00     0.026 A 
ATOM     21  C   UNL A   1      32.502  17.731  25.700  1.00  0.00     0.065 A 
ATOM     22  C   UNL A   1      34.046  16.717  23.599  1.00  0.00     0.005 A 
ATOM     23  C   UNL A   1      32.778  16.369  25.605  1.00  0.00     0.125 A 
ATOM     24  C   UNL A   1      33.549  15.853  24.569  1.00  0.00     0.039 A 
ATOM     25  F   UNL A   1      32.286  15.531  26.529  1.00  0.00    -0.207 F 
ENDBRANCH  17  19
ENDBRANCH  14  15
ENDBRANCH  13  14
ENDBRANCH   7  13
ENDBRANCH   3   6
ENDBRANCH   1   2
BRANCH   1  26
ATOM     26  C   UNL A   1      33.585  28.812  24.576  1.00  0.00     0.042 C 
BRANCH  26  27
ATOM     27  C   UNL A   1      34.002  28.757  26.046  1.00  0.00     0.118 C 
BRANCH  27  28
ATOM     28  N   UNL A   1      33.782  30.027  26.730  1.00  0.00    -0.352 N 
ATOM     29  C   UNL A   1      34.491  30.631  27.734  1.00  0.00     0.251 C 
ATOM     30  H   UNL A   1      32.995  30.531  26.419  1.00  0.00     0.163 HD
ATOM     31  O   UNL A   1      33.985  31.579  28.339  1.00  0.00    -0.269 OA
BRANCH  29  32
ATOM     32  C   UNL A   1      35.844  30.162  28.092  1.00  0.00     0.039 A 
ATOM     33  C   UNL A   1      36.867  30.252  27.142  1.00  0.00     0.014 A 
ATOM     34  C   UNL A   1      36.098  29.585  29.339  1.00  0.00     0.014 A 
ATOM     35  C   UNL A   1      38.153  29.817  27.465  1.00  0.00     0.010 A 
ATOM     36  C   UNL A   1      37.395  29.221  29.686  1.00  0.00     0.010 A 
ATOM     37  C   UNL A   1      38.434  29.325  28.750  1.00  0.00    -0.014 A 
BRANCH  37  38
ATOM     38  C   UNL A   1      39.808  28.919  29.138  1.00  0.00     0.031 A 
ATOM     39  C   UNL A   1      40.715  29.890  29.843  1.00  0.00     0.074 A 
ATOM     40  C   UNL A   1      40.260  27.698  28.791  1.00  0.00     0.049 A 
ATOM     41  N   UNL A   1      41.965  29.738  30.201  1.00  0.00    -0.248 NA
ATOM     42  C   UNL A   1      40.155  31.213  30.163  1.00  0.00     0.031 C 
ATOM     43  C   UNL A   1      39.487  26.682  28.072  1.00  0.00     0.029 A 
ATOM     44  N   UNL A   1      41.482  27.106  28.991  1.00  0.00    -0.354 N 
ATOM     45  C   UNL A   1      42.344  30.948  30.771  1.00  0.00     0.074 A 
ATOM     46  C   UNL A   1      41.208  31.839  30.665  1.00  0.00     0.031 C 
ATOM     47  C   UNL A   1      40.243  25.583  27.917  1.00  0.00     0.029 A 
ATOM     48  C   UNL A   1      41.565  25.831  28.485  1.00  0.00     0.049 A 
ATOM     49  H   UNL A   1      42.227  27.553  29.453  1.00  0.00     0.167 HD
ATOM     50  C   UNL A   1      43.525  31.283  31.345  1.00  0.00     0.031 A 
ATOM     51  C   UNL A   1      42.592  24.959  28.474  1.00  0.00     0.031 A 
ATOM     52  C   UNL A   1      44.648  30.391  31.453  1.00  0.00     0.049 A 
ATOM     53  C   UNL A   1      43.896  25.354  29.108  1.00  0.00     0.074 A 
ATOM     54  C   UNL A   1      45.870  30.614  32.064  1.00  0.00     0.029 A 
ATOM     55  N   UNL A   1      44.691  29.106  30.934  1.00  0.00    -0.354 N 
ATOM     56  N   UNL A   1      44.215  26.483  29.695  1.00  0.00    -0.248 NA
ATOM     57  C   UNL A   1      44.972  24.355  29.088  1.00  0.00     0.031 C 
ATOM     58  C   UNL A   1      46.669  29.483  31.870  1.00  0.00     0.029 A 
ATOM     59  C   UNL A   1      45.925  28.532  31.190  1.00  0.00     0.049 A 
ATOM     60  H   UNL A   1      43.952  28.665  30.454  1.00  0.00     0.167 HD
ATOM     61  C   UNL A   1      45.524  26.320  30.139  1.00  0.00     0.074 A 
ATOM     62  C   UNL A   1      45.928  24.980  29.762  1.00  0.00     0.031 C 
ATOM     63  C   UNL A   1      46.315  27.199  30.801  1.00  0.00     0.031 A 
BRANCH  50  64
ATOM     64  C   UNL A   1      43.659  32.682  31.889  1.00  0.00    -0.014 A 
ATOM     65  C   UNL A   1      43.295  32.987  33.214  1.00  0.00     0.010 A 
ATOM     66  C   UNL A   1      44.172  33.705  31.072  1.00  0.00     0.010 A 
ATOM     67  C   UNL A   1      43.390  34.295  33.694  1.00  0.00     0.020 A 
ATOM     68  C   UNL A   1      44.297  35.011  31.556  1.00  0.00     0.020 A 
ATOM     69  C   UNL A   1      43.884  35.301  32.858  1.00  0.00     0.054 A 
BRANCH  69  70
ATOM     70  S   UNL A   1      43.996  36.993  33.505  1.00  0.00     0.124 S 
ATOM     71  O   UNL A   1      43.860  37.788  32.288  1.00  0.00    -0.237 OA
ATOM     72  O   UNL A   1      42.866  37.059  34.428  1.00  0.00    -0.237 OA
ATOM     73  O   UNL A   1      45.314  37.037  34.134  1.00  0.00    -0.744 OA
ENDBRANCH  69  70
ENDBRANCH  50  64
BRANCH  51  74
ATOM     74  C   UNL A   1      42.410  23.616  27.858  1.00  0.00    -0.014 A 
ATOM     75  C   UNL A   1      42.848  23.371  26.546  1.00  0.00     0.010 A 
ATOM     76  C   UNL A   1      41.833  22.566  28.595  1.00  0.00     0.010 A 
ATOM     77  C   UNL A   1      42.708  22.102  25.978  1.00  0.00     0.020 A 
ATOM     78  C   UNL A   1      41.715  21.288  28.041  1.00  0.00     0.020 A 
ATOM     79  C   UNL A   1      42.147  21.067  26.731  1.00  0.00     0.054 A 
BRANCH  79  80
ATOM     80  S   UNL A   1      42.043  19.409  25.999  1.00  0.00     0.124 S 
ATOM     81  O   UNL A   1      40.608  19.265  25.777  1.00  0.00    -0.237 OA
ATOM     82  O   UNL A   1      42.861  19.544  24.798  1.00  0.00    -0.237 OA
ATOM     83  O   UNL A   1      42.608  18.544  27.033  1.00  0.00    -0.744 OA
ENDBRANCH  79  80
ENDBRANCH  51  74
BRANCH  63  84
ATOM     84  C   UNL A   1      47.693  26.732  31.187  1.00  0.00    -0.014 A 
ATOM     85  C   UNL A   1      47.914  26.013  32.375  1.00  0.00     0.010 A 
ATOM     86  C   UNL A   1      48.774  26.972  30.319  1.00  0.00     0.010 A 
ATOM     87  C   UNL A   1      49.197  25.569  32.702  1.00  0.00     0.020 A 
ATOM     88  C   UNL A   1      50.054  26.506  30.630  1.00  0.00     0.020 A 
ATOM     89  C   UNL A   1      50.260  25.819  31.828  1.00  0.00     0.054 A 
BRANCH  89  90
ATOM     90  S   UNL A   1      51.908  25.195  32.255  1.00  0.00     0.124 S 
ATOM     91  O   UNL A   1      51.685  23.753  32.298  1.00  0.00    -0.237 OA
ATOM     92  O   UNL A   1      52.729  25.672  31.144  1.00  0.00    -0.237 OA
ATOM     93  O   UNL A   1      52.192  25.821  33.544  1.00  0.00    -0.744 OA
ENDBRANCH  89  90
ENDBRANCH  63  84
ENDBRANCH  37  38
ENDBRANCH  29  32
ENDBRANCH  27  28
ENDBRANCH  26  27
ENDBRANCH   1  26
TORSDOF 17
ENDMDL
MODEL 3
REMARK VINA RESULT:      -9.5      1.776      2.803
REMARK SMILES O=C(CC[N@H+]1CCC[C@@H](C(=O)NCCCNC(=O)c2ccc(-c3c4nc(c(-c5ccc(S(=O)(=O)[O-])cc5)c5ccc([nH]5)c(-c5ccc(S(=O)(=O)[O-])cc5)c5nc(c(-c6ccc(S(=O)(=O)[O-])cc6)c6ccc3[nH]6)C=C5)C=C4)cc2)C1)Nc1cccc(F)c1
REMARK SMILES IDX 13 1 12 2 10 3 11 4 9 6 5 7 6 8 79 9 7 11 8 12 4 13 3 14
REMARK SMILES IDX 2 15 1 16 80 17 81 19 82 20 87 21 83 22 85 23 84 24 86 25
REMARK SMILES IDX 14 26 15 27 16 28 17 29 18 31 19 32 20 33 78 34 21 35 77 36
REMARK SMILES IDX 22 37 23 38 24 39 71 40 25 41 76 42 70 43 72 44 26 45 75 46
REMARK SMILES IDX 69 47 68 48 27 50 57 51 38 52 56 53 39 54 42 55 55 56 73 57
REMARK SMILES IDX 40 58 41 59 54 61 74 62 43 63 28 64 29 65 37 66 30 67 36 68
REMARK SMILES IDX 31 69 32 70 33 71 34 72 35 73 58 74 59 75 67 76 60 77 66 78
REMARK SMILES IDX 61 79 62 80 63 81 64 82 65 83 44 84 45 85 53 86 46 87 52 88
REMARK SMILES IDX 47 89 48 90 49 91 50 92 51 93
REMARK H PARENT 12 5 5 10 80 18 16 30 72 49 42 60
REMARK Flexibility Score: inf
ROOT
ATOM      1  C   UNL A   1      40.809  19.611  26.786  1.00  0.00     0.117 C 
ENDROOT
BRANCH   1   2
ATOM      2  N   UNL A   1      41.868  18.646  26.990  1.00  0.00    -0.356 N 
ATOM      3  C   UNL A   1      43.077  18.464  26.422  1.00  0.00     0.228 C 
ATOM      4  O   UNL A   1      43.743  17.520  26.868  1.00  0.00    -0.275 OA
ATOM      5  H   UNL A   1      41.663  17.983  27.688  1.00  0.00     0.163 HD
BRANCH   3   6
ATOM      6  C   UNL A   1      43.650  19.281  25.272  1.00  0.00     0.133 C 
ATOM      7  N   UNL A   1      44.430  21.531  24.691  1.00  0.00    -0.334 N 
ATOM      8  C   UNL A   1      45.364  20.995  23.683  1.00  0.00     0.262 C 
ATOM      9  C   UNL A   1      44.267  20.580  25.811  1.00  0.00     0.275 C 
ATOM     10  H   UNL A   1      43.517  21.643  24.249  1.00  0.00     0.348 HD
ATOM     11  C   UNL A   1      44.858  19.663  23.119  1.00  0.00     0.062 C 
ATOM     12  C   UNL A   1      44.581  18.659  24.240  1.00  0.00     0.025 C 
BRANCH   7  13
ATOM     13  C   UNL A   1      44.847  22.868  25.155  1.00  0.00     0.272 C 
BRANCH  13  14
ATOM     14  C   UNL A   1      43.823  23.921  24.717  1.00  0.00     0.161 C 
BRANCH  14  15
ATOM     15  C   UNL A   1      43.622  25.041  25.733  1.00  0.00     0.230 C 
ATOM     16  O   UNL A   1      43.317  24.781  26.893  1.00  0.00    -0.275 OA
ATOM     17  N   UNL A   1      43.861  26.299  25.217  1.00  0.00    -0.326 N 
ATOM     18  H   UNL A   1      44.076  26.339  24.257  1.00  0.00     0.169 HD
BRANCH  17  19
ATOM     19  C   UNL A   1      43.834  27.533  25.894  1.00  0.00     0.044 A 
ATOM     20  C   UNL A   1      42.693  28.333  25.735  1.00  0.00     0.026 A 
ATOM     21  C   UNL A   1      44.876  28.001  26.693  1.00  0.00     0.065 A 
ATOM     22  C   UNL A   1      42.582  29.571  26.376  1.00  0.00     0.005 A 
ATOM     23  C   UNL A   1      44.767  29.245  27.312  1.00  0.00     0.125 A 
ATOM     24  C   UNL A   1      43.629  30.032  27.167  1.00  0.00     0.039 A 
ATOM     25  F   UNL A   1      45.781  29.700  28.061  1.00  0.00    -0.207 F 
ENDBRANCH  17  19
ENDBRANCH  14  15
ENDBRANCH  13  14
ENDBRANCH   7  13
ENDBRANCH   3   6
ENDBRANCH   1   2
BRANCH   1  26
ATOM     26  C   UNL A   1      41.132  20.961  27.414  1.00  0.00     0.042 C 
BRANCH  26  27
ATOM     27  C   UNL A   1      41.070  22.120  26.419  1.00  0.00     0.118 C 
BRANCH  27  28
ATOM     28  N   UNL A   1      39.723  22.331  25.901  1.00  0.00    -0.352 N 
ATOM     29  C   UNL A   1      38.804  23.307  26.182  1.00  0.00     0.251 C 
ATOM     30  H   UNL A   1      39.426  21.662  25.242  1.00  0.00     0.163 HD
ATOM     31  O   UNL A   1      37.635  23.151  25.824  1.00  0.00    -0.269 OA
BRANCH  29  32
ATOM     32  C   UNL A   1      39.201  24.533  26.902  1.00  0.00     0.039 A 
ATOM     33  C   UNL A   1      38.842  24.676  28.247  1.00  0.00     0.014 A 
ATOM     34  C   UNL A   1      39.876  25.565  26.246  1.00  0.00     0.014 A 
ATOM     35  C   UNL A   1      39.212  25.827  28.944  1.00  0.00     0.010 A 
ATOM     36  C   UNL A   1      40.309  26.678  26.961  1.00  0.00     0.010 A 
ATOM     37  C   UNL A   1      39.974  26.824  28.314  1.00  0.00    -0.014 A 
BRANCH  37  38
ATOM     38  C   UNL A   1      40.436  28.025  29.054  1.00  0.00     0.031 A 
ATOM     39  C   UNL A   1      41.805  28.052  29.678  1.00  0.00     0.074 A 
ATOM     40  C   UNL A   1      39.594  29.063  29.222  1.00  0.00     0.049 A 
ATOM     41  N   UNL A   1      42.357  28.983  30.414  1.00  0.00    -0.248 NA
ATOM     42  C   UNL A   1      42.654  26.868  29.469  1.00  0.00     0.031 C 
ATOM     43  C   UNL A   1      38.228  29.139  28.698  1.00  0.00     0.029 A 
ATOM     44  N   UNL A   1      39.760  30.251  29.888  1.00  0.00    -0.354 N 
ATOM     45  C   UNL A   1      43.607  28.491  30.770  1.00  0.00     0.074 A 
ATOM     46  C   UNL A   1      43.711  27.160  30.212  1.00  0.00     0.031 C 
ATOM     47  C   UNL A   1      37.692  30.322  29.037  1.00  0.00     0.029 A 
ATOM     48  C   UNL A   1      38.657  31.069  29.839  1.00  0.00     0.049 A 
ATOM     49  H   UNL A   1      40.591  30.494  30.356  1.00  0.00     0.167 HD
ATOM     50  C   UNL A   1      44.586  29.098  31.484  1.00  0.00     0.031 A 
ATOM     51  C   UNL A   1      38.442  32.284  30.381  1.00  0.00     0.031 A 
ATOM     52  C   UNL A   1      44.477  30.424  32.031  1.00  0.00     0.049 A 
ATOM     53  C   UNL A   1      39.538  32.935  31.176  1.00  0.00     0.074 A 
ATOM     54  C   UNL A   1      45.431  31.151  32.723  1.00  0.00     0.029 A 
ATOM     55  N   UNL A   1      43.347  31.223  31.954  1.00  0.00    -0.354 N 
ATOM     56  N   UNL A   1      40.736  32.478  31.452  1.00  0.00    -0.248 NA
ATOM     57  C   UNL A   1      39.257  34.268  31.724  1.00  0.00     0.031 C 
ATOM     58  C   UNL A   1      44.859  32.368  33.107  1.00  0.00     0.029 A 
ATOM     59  C   UNL A   1      43.569  32.425  32.604  1.00  0.00     0.049 A 
ATOM     60  H   UNL A   1      42.508  30.972  31.502  1.00  0.00     0.167 HD
ATOM     61  C   UNL A   1      41.363  33.481  32.185  1.00  0.00     0.074 A 
ATOM     62  C   UNL A   1      40.414  34.571  32.296  1.00  0.00     0.031 C 
ATOM     63  C   UNL A   1      42.612  33.497  32.713  1.00  0.00     0.031 A 
BRANCH  50  64
ATOM     64  C   UNL A   1      45.855  28.320  31.722  1.00  0.00    -0.014 A 
ATOM     65  C   UNL A   1      46.970  28.470  30.876  1.00  0.00     0.010 A 
ATOM     66  C   UNL A   1      45.942  27.439  32.814  1.00  0.00     0.010 A 
ATOM     67  C   UNL A   1      48.126  27.715  31.086  1.00  0.00     0.020 A 
ATOM     68  C   UNL A   1      47.108  26.703  33.047  1.00  0.00     0.020 A 
ATOM     69  C   UNL A   1      48.184  26.830  32.167  1.00  0.00     0.054 A 
BRANCH  69  70
ATOM     70  S   UNL A   1      49.698  25.861  32.417  1.00  0.00     0.124 S 
ATOM     71  O   UNL A   1      49.939  25.332  31.077  1.00  0.00    -0.237 OA
ATOM     72  O   UNL A   1      50.652  26.869  32.875  1.00  0.00    -0.237 OA
ATOM     73  O   UNL A   1      49.315  24.870  33.419  1.00  0.00    -0.744 OA
ENDBRANCH  69  70
ENDBRANCH  50  64
BRANCH  51  74
ATOM     74  C   UNL A   1      37.138  32.967  30.162  1.00  0.00    -0.014 A 
ATOM     75  C   UNL A   1      36.165  32.981  31.175  1.00  0.00     0.010 A 
ATOM     76  C   UNL A   1      36.879  33.640  28.954  1.00  0.00     0.010 A 
ATOM     77  C   UNL A   1      34.953  33.651  30.984  1.00  0.00     0.020 A 
ATOM     78  C   UNL A   1      35.679  34.332  28.768  1.00  0.00     0.020 A 
ATOM     79  C   UNL A   1      34.720  34.326  29.783  1.00  0.00     0.054 A 
BRANCH  79  80
ATOM     80  S   UNL A   1      33.170  35.250  29.586  1.00  0.00     0.124 S 
ATOM     81  O   UNL A   1      32.510  34.511  28.515  1.00  0.00    -0.237 OA
ATOM     82  O   UNL A   1      32.562  35.130  30.908  1.00  0.00    -0.237 OA
ATOM     83  O   UNL A   1      33.618  36.597  29.236  1.00  0.00    -0.744 OA
ENDBRANCH  79  80
ENDBRANCH  51  74
BRANCH  63  84
ATOM     84  C   UNL A   1      43.038  34.746  33.438  1.00  0.00    -0.014 A 
ATOM     85  C   UNL A   1      42.898  34.866  34.831  1.00  0.00     0.010 A 
ATOM     86  C   UNL A   1      43.637  35.795  32.715  1.00  0.00     0.010 A 
ATOM     87  C   UNL A   1      43.321  36.025  35.485  1.00  0.00     0.020 A 
ATOM     88  C   UNL A   1      44.086  36.944  33.369  1.00  0.00     0.020 A 
ATOM     89  C   UNL A   1      43.912  37.058  34.750  1.00  0.00     0.054 A 
BRANCH  89  90
ATOM     90  S   UNL A   1      44.493  38.534  35.628  1.00  0.00     0.124 S 
ATOM     91  O   UNL A   1      43.978  39.611  34.787  1.00  0.00    -0.237 OA
ATOM     92  O   UNL A   1      43.856  38.400  36.937  1.00  0.00    -0.237 OA
ATOM     93  O   UNL A   1      45.947  38.386  35.632  1.00  0.00    -0.744 OA
ENDBRANCH  89  90
ENDBRANCH  63  84
ENDBRANCH  37  38
ENDBRANCH  29  32
ENDBRANCH  27  28
ENDBRANCH  26  27
ENDBRANCH   1  26
TORSDOF 17
ENDMDL
