MODEL 1
REMARK VINA RESULT:     -11.9      0.000      0.000
REMARK SMILES Cc1c(Cl)cc2c(c1C)O[C@H](C(F)(F)F)C(C(=O)NCCCNC(=O)c1ccc(-c3c4nc(c(-c5ccc(S(=O)(=O)[O-])cc5)c5ccc([nH]5)c(-c5ccc(S(=O)(=O)[O-])cc5)c5nc(c(-c6ccc(S(=O)(=O)[O-])cc6)c6ccc3[nH]6)C=C5)C=C4)cc1)=C2
REMARK SMILES IDX 22 1 21 2 20 3 19 4 17 5 18 6 16 8 1 9 2 10 3 11 8 12 4 13
REMARK SMILES IDX 5 14 7 15 9 16 6 17 10 18 86 19 11 20 12 21 13 22 14 23
REMARK SMILES IDX 15 24 23 25 24 26 25 28 26 29 27 30 85 31 28 32 84 33 29 34
REMARK SMILES IDX 30 35 31 36 78 37 32 38 83 39 77 40 79 41 33 42 82 43 76 44
REMARK SMILES IDX 75 45 34 47 64 48 45 49 63 50 46 51 49 52 62 53 80 54 47 55
REMARK SMILES IDX 48 56 61 58 81 59 50 60 35 61 36 62 44 63 37 64 43 65 38 66
REMARK SMILES IDX 39 67 40 68 41 69 42 70 65 71 66 72 74 73 67 74 73 75 68 76
REMARK SMILES IDX 69 77 70 78 71 79 72 80 51 81 52 82 60 83 53 84 59 85 54 86
REMARK SMILES IDX 55 87 56 88 57 89 58 90
REMARK H PARENT 19 7 23 27 79 46 49 57
REMARK Flexibility Score: inf
ROOT
ATOM      1  C   UNL A   1      33.518  28.295  26.928  1.00  0.00     0.118 C 
ENDROOT
BRANCH   1   2
ATOM      2  C   UNL A   1      33.891  27.966  25.489  1.00  0.00     0.042 C 
BRANCH   2   3
ATOM      3  C   UNL A   1      32.714  27.399  24.710  1.00  0.00     0.118 C 
BRANCH   3   4
ATOM      4  N   UNL A   1      31.757  26.729  25.577  1.00  0.00    -0.352 N 
ATOM      5  C   UNL A   1      31.550  25.477  26.047  1.00  0.00     0.251 C 
ATOM      6  O   UNL A   1      30.586  25.348  26.808  1.00  0.00    -0.270 OA
ATOM      7  H   UNL A   1      31.076  27.355  25.915  1.00  0.00     0.163 HD
BRANCH   5   8
ATOM      8  C   UNL A   1      32.389  24.290  25.713  1.00  0.00     0.067 C 
ATOM      9  C   UNL A   1      37.068  19.775  24.986  1.00  0.00     0.046 C 
ATOM     10  C   UNL A   1      36.189  20.972  25.247  1.00  0.00    -0.026 A 
ATOM     11  C   UNL A   1      36.743  22.200  25.668  1.00  0.00     0.045 A 
ATOM     12  C   UNL A   1      34.794  20.902  25.027  1.00  0.00    -0.004 A 
ATOM     13  Cl  UNL A   1      38.449  22.416  25.873  1.00  0.00    -0.084 Cl
ATOM     14  C   UNL A   1      35.933  23.312  25.932  1.00  0.00     0.032 A 
ATOM     15  C   UNL A   1      34.001  22.030  25.313  1.00  0.00     0.131 A 
ATOM     16  C   UNL A   1      34.096  19.669  24.507  1.00  0.00     0.049 C 
ATOM     17  C   UNL A   1      34.555  23.226  25.767  1.00  0.00     0.019 A 
ATOM     18  O   UNL A   1      32.648  21.878  25.174  1.00  0.00    -0.475 OA
ATOM     19  C   UNL A   1      33.682  24.351  26.084  1.00  0.00     0.025 C 
ATOM     20  C   UNL A   1      31.876  23.087  24.979  1.00  0.00     0.314 C 
BRANCH  20  21
ATOM     21  C   UNL A   1      31.700  23.340  23.470  1.00  0.00     0.429 C 
ATOM     22  F   UNL A   1      31.971  22.216  22.763  1.00  0.00    -0.167 F 
ATOM     23  F   UNL A   1      30.437  23.704  23.144  1.00  0.00    -0.167 F 
ATOM     24  F   UNL A   1      32.514  24.316  23.007  1.00  0.00    -0.167 F 
ENDBRANCH  20  21
ENDBRANCH   5   8
ENDBRANCH   3   4
ENDBRANCH   2   3
ENDBRANCH   1   2
BRANCH   1  25
ATOM     25  N   UNL A   1      33.475  29.737  27.157  1.00  0.00    -0.352 N 
ATOM     26  C   UNL A   1      34.345  30.550  27.838  1.00  0.00     0.251 C 
ATOM     27  H   UNL A   1      32.700  30.198  26.761  1.00  0.00     0.163 HD
ATOM     28  O   UNL A   1      33.987  31.678  28.175  1.00  0.00    -0.269 OA
BRANCH  26  29
ATOM     29  C   UNL A   1      35.701  30.071  28.162  1.00  0.00     0.039 A 
ATOM     30  C   UNL A   1      36.697  30.105  27.183  1.00  0.00     0.014 A 
ATOM     31  C   UNL A   1      35.980  29.563  29.433  1.00  0.00     0.014 A 
ATOM     32  C   UNL A   1      37.989  29.687  27.503  1.00  0.00     0.010 A 
ATOM     33  C   UNL A   1      37.285  29.246  29.779  1.00  0.00     0.010 A 
ATOM     34  C   UNL A   1      38.299  29.285  28.813  1.00  0.00    -0.014 A 
BRANCH  34  35
ATOM     35  C   UNL A   1      39.668  28.866  29.191  1.00  0.00     0.031 A 
ATOM     36  C   UNL A   1      40.560  29.822  29.936  1.00  0.00     0.074 A 
ATOM     37  C   UNL A   1      40.123  27.655  28.815  1.00  0.00     0.049 A 
ATOM     38  N   UNL A   1      41.805  29.669  30.303  1.00  0.00    -0.248 NA
ATOM     39  C   UNL A   1      39.987  31.133  30.293  1.00  0.00     0.031 C 
ATOM     40  C   UNL A   1      39.360  26.660  28.058  1.00  0.00     0.029 A 
ATOM     41  N   UNL A   1      41.338  27.054  29.021  1.00  0.00    -0.354 N 
ATOM     42  C   UNL A   1      42.165  30.862  30.920  1.00  0.00     0.074 A 
ATOM     43  C   UNL A   1      41.032  31.752  30.821  1.00  0.00     0.031 C 
ATOM     44  C   UNL A   1      40.109  25.557  27.901  1.00  0.00     0.029 A 
ATOM     45  C   UNL A   1      41.419  25.782  28.503  1.00  0.00     0.049 A 
ATOM     46  H   UNL A   1      42.082  27.490  29.495  1.00  0.00     0.167 HD
ATOM     47  C   UNL A   1      43.325  31.177  31.540  1.00  0.00     0.031 A 
ATOM     48  C   UNL A   1      42.435  24.898  28.514  1.00  0.00     0.031 A 
ATOM     49  C   UNL A   1      44.440  30.277  31.652  1.00  0.00     0.049 A 
ATOM     50  C   UNL A   1      43.723  25.279  29.190  1.00  0.00     0.074 A 
ATOM     51  C   UNL A   1      45.645  30.480  32.300  1.00  0.00     0.029 A 
ATOM     52  N   UNL A   1      44.486  29.004  31.105  1.00  0.00    -0.354 N 
ATOM     53  N   UNL A   1      44.026  26.394  29.813  1.00  0.00    -0.248 NA
ATOM     54  C   UNL A   1      44.803  24.284  29.171  1.00  0.00     0.031 C 
ATOM     55  C   UNL A   1      46.441  29.349  32.100  1.00  0.00     0.029 A 
ATOM     56  C   UNL A   1      45.709  28.417  31.380  1.00  0.00     0.049 A 
ATOM     57  H   UNL A   1      43.757  28.580  30.597  1.00  0.00     0.167 HD
ATOM     58  C   UNL A   1      45.326  26.226  30.278  1.00  0.00     0.074 A 
ATOM     59  C   UNL A   1      45.742  24.896  29.880  1.00  0.00     0.031 C 
ATOM     60  C   UNL A   1      46.104  27.094  30.970  1.00  0.00     0.031 A 
BRANCH  47  61
ATOM     61  C   UNL A   1      43.439  32.546  32.158  1.00  0.00    -0.014 A 
ATOM     62  C   UNL A   1      43.933  33.634  31.414  1.00  0.00     0.010 A 
ATOM     63  C   UNL A   1      43.001  32.760  33.476  1.00  0.00     0.010 A 
ATOM     64  C   UNL A   1      44.017  34.904  31.989  1.00  0.00     0.020 A 
ATOM     65  C   UNL A   1      43.057  34.037  34.046  1.00  0.00     0.020 A 
ATOM     66  C   UNL A   1      43.575  35.097  33.301  1.00  0.00     0.054 A 
BRANCH  66  67
ATOM     67  S   UNL A   1      43.662  36.767  34.003  1.00  0.00     0.124 S 
ATOM     68  O   UNL A   1      42.566  36.746  34.969  1.00  0.00    -0.237 OA
ATOM     69  O   UNL A   1      45.005  36.801  34.578  1.00  0.00    -0.237 OA
ATOM     70  O   UNL A   1      43.457  37.640  32.850  1.00  0.00    -0.744 OA
ENDBRANCH  66  67
ENDBRANCH  47  61
BRANCH  48  71
ATOM     71  C   UNL A   1      42.258  23.558  27.889  1.00  0.00    -0.014 A 
ATOM     72  C   UNL A   1      42.889  23.254  26.670  1.00  0.00     0.010 A 
ATOM     73  C   UNL A   1      41.484  22.569  28.524  1.00  0.00     0.010 A 
ATOM     74  C   UNL A   1      42.744  21.989  26.092  1.00  0.00     0.020 A 
ATOM     75  C   UNL A   1      41.360  21.293  27.963  1.00  0.00     0.020 A 
ATOM     76  C   UNL A   1      41.984  21.015  26.746  1.00  0.00     0.054 A 
BRANCH  76  77
ATOM     77  S   UNL A   1      41.862  19.363  26.006  1.00  0.00     0.124 S 
ATOM     78  O   UNL A   1      42.363  18.510  27.078  1.00  0.00    -0.237 OA
ATOM     79  O   UNL A   1      40.433  19.252  25.724  1.00  0.00    -0.237 OA
ATOM     80  O   UNL A   1      42.716  19.452  24.824  1.00  0.00    -0.744 OA
ENDBRANCH  76  77
ENDBRANCH  48  71
BRANCH  60  81
ATOM     81  C   UNL A   1      47.484  26.635  31.358  1.00  0.00    -0.014 A 
ATOM     82  C   UNL A   1      47.696  25.895  32.533  1.00  0.00     0.010 A 
ATOM     83  C   UNL A   1      48.565  26.871  30.488  1.00  0.00     0.010 A 
ATOM     84  C   UNL A   1      48.970  25.414  32.842  1.00  0.00     0.020 A 
ATOM     85  C   UNL A   1      49.834  26.367  30.780  1.00  0.00     0.020 A 
ATOM     86  C   UNL A   1      50.030  25.648  31.960  1.00  0.00     0.054 A 
BRANCH  86  87
ATOM     87  S   UNL A   1      51.658  24.958  32.357  1.00  0.00     0.124 S 
ATOM     88  O   UNL A   1      51.431  23.525  32.191  1.00  0.00    -0.237 OA
ATOM     89  O   UNL A   1      52.520  25.578  31.354  1.00  0.00    -0.237 OA
ATOM     90  O   UNL A   1      51.896  25.394  33.731  1.00  0.00    -0.744 OA
ENDBRANCH  86  87
ENDBRANCH  60  81
ENDBRANCH  34  35
ENDBRANCH  26  29
ENDBRANCH   1  25
TORSDOF 14
ENDMDL
MODEL 2
REMARK VINA RESULT:     -11.6      2.795      9.304
REMARK SMILES Cc1c(Cl)cc2c(c1C)O[C@H](C(F)(F)F)C(C(=O)NCCCNC(=O)c1ccc(-c3c4nc(c(-c5ccc(S(=O)(=O)[O-])cc5)c5ccc([nH]5)c(-c5ccc(S(=O)(=O)[O-])cc5)c5nc(c(-c6ccc(S(=O)(=O)[O-])cc6)c6ccc3[nH]6)C=C5)C=C4)cc1)=C2
REMARK SMILES IDX 22 1 21 2 20 3 19 4 17 5 18 6 16 8 1 9 2 10 3 11 8 12 4 13
REMARK SMILES IDX 5 14 7 15 9 16 6 17 10 18 86 19 11 20 12 21 13 22 14 23
REMARK SMILES IDX 15 24 23 25 24 26 25 28 26 29 27 30 85 31 28 32 84 33 29 34
REMARK SMILES IDX 30 35 31 36 78 37 32 38 83 39 77 40 79 41 33 42 82 43 76 44
REMARK SMILES IDX 75 45 34 47 64 48 45 49 63 50 46 51 49 52 62 53 80 54 47 55
REMARK SMILES IDX 48 56 61 58 81 59 50 60 35 61 36 62 44 63 37 64 43 65 38 66
REMARK SMILES IDX 39 67 40 68 41 69 42 70 65 71 66 72 74 73 67 74 73 75 68 76
REMARK SMILES IDX 69 77 70 78 71 79 72 80 51 81 52 82 60 83 53 84 59 85 54 86
REMARK SMILES IDX 55 87 56 88 57 89 58 90
REMARK H PARENT 19 7 23 27 79 46 49 57
REMARK Flexibility Score: inf
ROOT
ATOM      1  C   UNL A   1      36.517  23.737  25.215  1.00  0.00     0.118 C 
ENDROOT
BRANCH   1   2
ATOM      2  C   UNL A   1      35.270  23.641  26.082  1.00  0.00     0.042 C 
BRANCH   2   3
ATOM      3  C   UNL A   1      34.130  22.934  25.367  1.00  0.00     0.118 C 
BRANCH   3   4
ATOM      4  N   UNL A   1      34.133  23.203  23.936  1.00  0.00    -0.352 N 
ATOM      5  C   UNL A   1      33.746  24.206  23.114  1.00  0.00     0.251 C 
ATOM      6  O   UNL A   1      33.961  24.019  21.912  1.00  0.00    -0.270 OA
ATOM      7  H   UNL A   1      34.522  22.453  23.429  1.00  0.00     0.163 HD
BRANCH   5   8
ATOM      8  C   UNL A   1      33.103  25.475  23.560  1.00  0.00     0.067 C 
ATOM      9  C   UNL A   1      31.558  31.309  26.086  1.00  0.00     0.046 C 
ATOM     10  C   UNL A   1      32.137  29.986  25.654  1.00  0.00    -0.026 A 
ATOM     11  C   UNL A   1      33.323  29.488  26.237  1.00  0.00     0.045 A 
ATOM     12  C   UNL A   1      31.476  29.191  24.689  1.00  0.00    -0.004 A 
ATOM     13  Cl  UNL A   1      34.155  30.340  27.495  1.00  0.00    -0.084 Cl
ATOM     14  C   UNL A   1      33.880  28.270  25.829  1.00  0.00     0.032 A 
ATOM     15  C   UNL A   1      32.064  27.977  24.287  1.00  0.00     0.131 A 
ATOM     16  C   UNL A   1      30.165  29.580  24.051  1.00  0.00     0.049 C 
ATOM     17  C   UNL A   1      33.258  27.515  24.841  1.00  0.00     0.019 A 
ATOM     18  O   UNL A   1      31.433  27.295  23.282  1.00  0.00    -0.475 OA
ATOM     19  C   UNL A   1      33.841  26.268  24.359  1.00  0.00     0.025 C 
ATOM     20  C   UNL A   1      31.706  25.876  23.191  1.00  0.00     0.314 C 
BRANCH  20  21
ATOM     21  C   UNL A   1      30.636  25.100  23.983  1.00  0.00     0.429 C 
ATOM     22  F   UNL A   1      30.397  23.896  23.408  1.00  0.00    -0.167 F 
ATOM     23  F   UNL A   1      31.010  24.849  25.261  1.00  0.00    -0.167 F 
ATOM     24  F   UNL A   1      29.456  25.758  24.049  1.00  0.00    -0.167 F 
ENDBRANCH  20  21
ENDBRANCH   5   8
ENDBRANCH   3   4
ENDBRANCH   2   3
ENDBRANCH   1   2
BRANCH   1  25
ATOM     25  N   UNL A   1      37.493  22.705  25.557  1.00  0.00    -0.352 N 
ATOM     26  C   UNL A   1      38.753  22.820  26.085  1.00  0.00     0.251 C 
ATOM     27  H   UNL A   1      37.200  21.781  25.380  1.00  0.00     0.163 HD
ATOM     28  O   UNL A   1      39.529  21.867  26.023  1.00  0.00    -0.269 OA
BRANCH  26  29
ATOM     29  C   UNL A   1      39.172  24.082  26.723  1.00  0.00     0.039 A 
ATOM     30  C   UNL A   1      38.813  24.336  28.049  1.00  0.00     0.014 A 
ATOM     31  C   UNL A   1      39.903  25.025  25.998  1.00  0.00     0.014 A 
ATOM     32  C   UNL A   1      39.243  25.513  28.662  1.00  0.00     0.010 A 
ATOM     33  C   UNL A   1      40.416  26.143  26.638  1.00  0.00     0.010 A 
ATOM     34  C   UNL A   1      40.075  26.409  27.971  1.00  0.00    -0.014 A 
BRANCH  34  35
ATOM     35  C   UNL A   1      40.573  27.651  28.605  1.00  0.00     0.031 A 
ATOM     36  C   UNL A   1      41.995  27.717  29.096  1.00  0.00     0.074 A 
ATOM     37  C   UNL A   1      39.735  28.690  28.790  1.00  0.00     0.049 A 
ATOM     38  N   UNL A   1      42.601  28.686  29.730  1.00  0.00    -0.248 NA
ATOM     39  C   UNL A   1      42.838  26.530  28.868  1.00  0.00     0.031 C 
ATOM     40  C   UNL A   1      38.326  28.723  28.389  1.00  0.00     0.029 A 
ATOM     41  N   UNL A   1      39.946  29.917  29.362  1.00  0.00    -0.354 N 
ATOM     42  C   UNL A   1      43.886  28.221  29.985  1.00  0.00     0.074 A 
ATOM     43  C   UNL A   1      43.954  26.863  29.498  1.00  0.00     0.031 C 
ATOM     44  C   UNL A   1      37.813  29.928  28.688  1.00  0.00     0.029 A 
ATOM     45  C   UNL A   1      38.838  30.733  29.343  1.00  0.00     0.049 A 
ATOM     46  H   UNL A   1      40.809  30.191  29.750  1.00  0.00     0.167 HD
ATOM     47  C   UNL A   1      44.927  28.878  30.548  1.00  0.00     0.031 A 
ATOM     48  C   UNL A   1      38.670  31.988  29.801  1.00  0.00     0.031 A 
ATOM     49  C   UNL A   1      44.857  30.236  31.012  1.00  0.00     0.049 A 
ATOM     50  C   UNL A   1      39.835  32.689  30.443  1.00  0.00     0.074 A 
ATOM     51  C   UNL A   1      45.865  31.012  31.555  1.00  0.00     0.029 A 
ATOM     52  N   UNL A   1      43.715  31.023  30.984  1.00  0.00    -0.354 N 
ATOM     53  N   UNL A   1      41.058  32.251  30.629  1.00  0.00    -0.248 NA
ATOM     54  C   UNL A   1      39.601  34.055  30.932  1.00  0.00     0.031 C 
ATOM     55  C   UNL A   1      45.320  32.250  31.905  1.00  0.00     0.029 A 
ATOM     56  C   UNL A   1      43.987  32.268  31.523  1.00  0.00     0.049 A 
ATOM     57  H   UNL A   1      42.841  30.738  30.633  1.00  0.00     0.167 HD
ATOM     58  C   UNL A   1      41.746  33.296  31.238  1.00  0.00     0.074 A 
ATOM     59  C   UNL A   1      40.807  34.391  31.371  1.00  0.00     0.031 C 
ATOM     60  C   UNL A   1      43.036  33.342  31.650  1.00  0.00     0.031 A 
BRANCH  47  61
ATOM     61  C   UNL A   1      46.232  28.139  30.678  1.00  0.00    -0.014 A 
ATOM     62  C   UNL A   1      46.477  27.295  31.778  1.00  0.00     0.010 A 
ATOM     63  C   UNL A   1      47.205  28.247  29.669  1.00  0.00     0.010 A 
ATOM     64  C   UNL A   1      47.683  26.598  31.881  1.00  0.00     0.020 A 
ATOM     65  C   UNL A   1      48.402  27.528  29.754  1.00  0.00     0.020 A 
ATOM     66  C   UNL A   1      48.637  26.718  30.865  1.00  0.00     0.054 A 
BRANCH  66  67
ATOM     67  S   UNL A   1      50.175  25.769  31.011  1.00  0.00     0.124 S 
ATOM     68  O   UNL A   1      50.183  25.010  29.763  1.00  0.00    -0.237 OA
ATOM     69  O   UNL A   1      51.187  26.818  31.115  1.00  0.00    -0.237 OA
ATOM     70  O   UNL A   1      49.980  24.972  32.220  1.00  0.00    -0.744 OA
ENDBRANCH  66  67
ENDBRANCH  47  61
BRANCH  48  71
ATOM     71  C   UNL A   1      37.354  32.666  29.638  1.00  0.00    -0.014 A 
ATOM     72  C   UNL A   1      36.423  32.672  30.692  1.00  0.00     0.010 A 
ATOM     73  C   UNL A   1      37.038  33.336  28.442  1.00  0.00     0.010 A 
ATOM     74  C   UNL A   1      35.197  33.329  30.550  1.00  0.00     0.020 A 
ATOM     75  C   UNL A   1      35.823  34.017  28.307  1.00  0.00     0.020 A 
ATOM     76  C   UNL A   1      34.908  34.001  29.360  1.00  0.00     0.054 A 
BRANCH  76  77
ATOM     77  S   UNL A   1      33.334  34.896  29.225  1.00  0.00     0.124 S 
ATOM     78  O   UNL A   1      32.852  34.874  30.601  1.00  0.00    -0.237 OA
ATOM     79  O   UNL A   1      33.759  36.200  28.722  1.00  0.00    -0.237 OA
ATOM     80  O   UNL A   1      32.564  34.093  28.278  1.00  0.00    -0.744 OA
ENDBRANCH  76  77
ENDBRANCH  48  71
BRANCH  60  81
ATOM     81  C   UNL A   1      43.521  34.623  32.275  1.00  0.00    -0.014 A 
ATOM     82  C   UNL A   1      43.963  35.693  31.479  1.00  0.00     0.010 A 
ATOM     83  C   UNL A   1      43.448  34.786  33.671  1.00  0.00     0.010 A 
ATOM     84  C   UNL A   1      44.341  36.900  32.070  1.00  0.00     0.020 A 
ATOM     85  C   UNL A   1      43.799  36.002  34.262  1.00  0.00     0.020 A 
ATOM     86  C   UNL A   1      44.251  37.049  33.458  1.00  0.00     0.054 A 
BRANCH  86  87
ATOM     87  S   UNL A   1      44.690  38.648  34.190  1.00  0.00     0.124 S 
ATOM     88  O   UNL A   1      46.109  38.469  34.485  1.00  0.00    -0.237 OA
ATOM     89  O   UNL A   1      44.387  39.586  33.111  1.00  0.00    -0.237 OA
ATOM     90  O   UNL A   1      43.819  38.748  35.358  1.00  0.00    -0.744 OA
ENDBRANCH  86  87
ENDBRANCH  60  81
ENDBRANCH  34  35
ENDBRANCH  26  29
ENDBRANCH   1  25
TORSDOF 14
ENDMDL
MODEL 3
REMARK VINA RESULT:     -11.4      4.516      6.831
REMARK SMILES Cc1c(Cl)cc2c(c1C)O[C@H](C(F)(F)F)C(C(=O)NCCCNC(=O)c1ccc(-c3c4nc(c(-c5ccc(S(=O)(=O)[O-])cc5)c5ccc([nH]5)c(-c5ccc(S(=O)(=O)[O-])cc5)c5nc(c(-c6ccc(S(=O)(=O)[O-])cc6)c6ccc3[nH]6)C=C5)C=C4)cc1)=C2
REMARK SMILES IDX 22 1 21 2 20 3 19 4 17 5 18 6 16 8 1 9 2 10 3 11 8 12 4 13
REMARK SMILES IDX 5 14 7 15 9 16 6 17 10 18 86 19 11 20 12 21 13 22 14 23
REMARK SMILES IDX 15 24 23 25 24 26 25 28 26 29 27 30 85 31 28 32 84 33 29 34
REMARK SMILES IDX 30 35 31 36 78 37 32 38 83 39 77 40 79 41 33 42 82 43 76 44
REMARK SMILES IDX 75 45 34 47 64 48 45 49 63 50 46 51 49 52 62 53 80 54 47 55
REMARK SMILES IDX 48 56 61 58 81 59 50 60 35 61 36 62 44 63 37 64 43 65 38 66
REMARK SMILES IDX 39 67 40 68 41 69 42 70 65 71 66 72 74 73 67 74 73 75 68 76
REMARK SMILES IDX 69 77 70 78 71 79 72 80 51 81 52 82 60 83 53 84 59 85 54 86
REMARK SMILES IDX 55 87 56 88 57 89 58 90
REMARK H PARENT 19 7 23 27 79 46 49 57
REMARK Flexibility Score: inf
ROOT
ATOM      1  C   UNL A   1      34.840  32.604  28.056  1.00  0.00     0.118 C 
ENDROOT
BRANCH   1   2
ATOM      2  C   UNL A   1      34.021  33.665  28.777  1.00  0.00     0.042 C 
BRANCH   2   3
ATOM      3  C   UNL A   1      34.719  34.171  30.030  1.00  0.00     0.118 C 
BRANCH   3   4
ATOM      4  N   UNL A   1      34.084  33.680  31.244  1.00  0.00    -0.352 N 
ATOM      5  C   UNL A   1      34.476  33.122  32.414  1.00  0.00     0.251 C 
ATOM      6  O   UNL A   1      33.566  32.866  33.210  1.00  0.00    -0.270 OA
ATOM      7  H   UNL A   1      33.105  33.781  31.206  1.00  0.00     0.163 HD
BRANCH   5   8
ATOM      8  C   UNL A   1      35.887  32.815  32.782  1.00  0.00     0.067 C 
ATOM      9  C   UNL A   1      41.825  30.237  33.735  1.00  0.00     0.046 C 
ATOM     10  C   UNL A   1      40.387  30.582  33.437  1.00  0.00    -0.026 A 
ATOM     11  C   UNL A   1      39.462  29.581  33.070  1.00  0.00     0.045 A 
ATOM     12  C   UNL A   1      39.925  31.912  33.567  1.00  0.00    -0.004 A 
ATOM     13  Cl  UNL A   1      39.907  27.910  32.976  1.00  0.00    -0.084 Cl
ATOM     14  C   UNL A   1      38.131  29.894  32.772  1.00  0.00     0.032 A 
ATOM     15  C   UNL A   1      38.584  32.203  33.249  1.00  0.00     0.131 A 
ATOM     16  C   UNL A   1      40.799  33.055  34.025  1.00  0.00     0.049 C 
ATOM     17  C   UNL A   1      37.689  31.211  32.849  1.00  0.00     0.019 A 
ATOM     18  O   UNL A   1      38.214  33.519  33.300  1.00  0.00    -0.475 OA
ATOM     19  C   UNL A   1      36.321  31.574  32.495  1.00  0.00     0.025 C 
ATOM     20  C   UNL A   1      36.801  33.789  33.464  1.00  0.00     0.314 C 
BRANCH  20  21
ATOM     21  C   UNL A   1      36.485  33.953  34.963  1.00  0.00     0.429 C 
ATOM     22  F   UNL A   1      37.441  34.695  35.573  1.00  0.00    -0.167 F 
ATOM     23  F   UNL A   1      35.307  34.585  35.183  1.00  0.00    -0.167 F 
ATOM     24  F   UNL A   1      36.415  32.769  35.613  1.00  0.00    -0.167 F 
ENDBRANCH  20  21
ENDBRANCH   5   8
ENDBRANCH   3   4
ENDBRANCH   2   3
ENDBRANCH   1   2
BRANCH   1  25
ATOM     25  N   UNL A   1      34.137  31.325  28.000  1.00  0.00    -0.352 N 
ATOM     26  C   UNL A   1      34.631  30.049  27.905  1.00  0.00     0.251 C 
ATOM     27  H   UNL A   1      33.155  31.388  28.037  1.00  0.00     0.163 HD
ATOM     28  O   UNL A   1      33.883  29.130  27.572  1.00  0.00    -0.269 OA
BRANCH  26  29
ATOM     29  C   UNL A   1      36.051  29.784  28.201  1.00  0.00     0.039 A 
ATOM     30  C   UNL A   1      36.414  29.300  29.460  1.00  0.00     0.014 A 
ATOM     31  C   UNL A   1      37.028  30.040  27.236  1.00  0.00     0.014 A 
ATOM     32  C   UNL A   1      37.753  29.014  29.725  1.00  0.00     0.010 A 
ATOM     33  C   UNL A   1      38.341  29.659  27.466  1.00  0.00     0.010 A 
ATOM     34  C   UNL A   1      38.722  29.161  28.719  1.00  0.00    -0.014 A 
BRANCH  34  35
ATOM     35  C   UNL A   1      40.146  28.836  28.960  1.00  0.00     0.031 A 
ATOM     36  C   UNL A   1      41.058  29.881  29.548  1.00  0.00     0.074 A 
ATOM     37  C   UNL A   1      40.627  27.631  28.599  1.00  0.00     0.049 A 
ATOM     38  N   UNL A   1      42.343  29.814  29.778  1.00  0.00    -0.248 NA
ATOM     39  C   UNL A   1      40.453  31.178  29.898  1.00  0.00     0.031 C 
ATOM     40  C   UNL A   1      39.844  26.555  27.986  1.00  0.00     0.029 A 
ATOM     41  N   UNL A   1      41.890  27.107  28.696  1.00  0.00    -0.354 N 
ATOM     42  C   UNL A   1      42.698  31.059  30.286  1.00  0.00     0.074 A 
ATOM     43  C   UNL A   1      41.512  31.881  30.270  1.00  0.00     0.031 C 
ATOM     44  C   UNL A   1      40.635  25.485  27.804  1.00  0.00     0.029 A 
ATOM     45  C   UNL A   1      41.987  25.813  28.240  1.00  0.00     0.049 A 
ATOM     46  H   UNL A   1      42.656  27.609  29.059  1.00  0.00     0.167 HD
ATOM     47  C   UNL A   1      43.900  31.469  30.753  1.00  0.00     0.031 A 
ATOM     48  C   UNL A   1      43.048  24.985  28.182  1.00  0.00     0.031 A 
ATOM     49  C   UNL A   1      45.071  30.637  30.784  1.00  0.00     0.049 A 
ATOM     50  C   UNL A   1      44.378  25.472  28.686  1.00  0.00     0.074 A 
ATOM     51  C   UNL A   1      46.327  30.940  31.280  1.00  0.00     0.029 A 
ATOM     52  N   UNL A   1      45.131  29.337  30.303  1.00  0.00    -0.354 N 
ATOM     53  N   UNL A   1      44.683  26.636  29.211  1.00  0.00    -0.248 NA
ATOM     54  C   UNL A   1      45.506  24.535  28.596  1.00  0.00     0.031 C 
ATOM     55  C   UNL A   1      47.160  29.842  31.051  1.00  0.00     0.029 A 
ATOM     56  C   UNL A   1      46.408  28.833  30.468  1.00  0.00     0.049 A 
ATOM     57  H   UNL A   1      44.376  28.847  29.905  1.00  0.00     0.167 HD
ATOM     58  C   UNL A   1      46.034  26.563  29.534  1.00  0.00     0.074 A 
ATOM     59  C   UNL A   1      46.481  25.236  29.161  1.00  0.00     0.031 C 
ATOM     60  C   UNL A   1      46.832  27.510  30.086  1.00  0.00     0.031 A 
BRANCH  47  61
ATOM     61  C   UNL A   1      44.002  32.876  31.281  1.00  0.00    -0.014 A 
ATOM     62  C   UNL A   1      44.029  33.127  32.666  1.00  0.00     0.010 A 
ATOM     63  C   UNL A   1      44.124  33.954  30.387  1.00  0.00     0.010 A 
ATOM     64  C   UNL A   1      44.144  34.434  33.146  1.00  0.00     0.020 A 
ATOM     65  C   UNL A   1      44.268  35.261  30.864  1.00  0.00     0.020 A 
ATOM     66  C   UNL A   1      44.265  35.492  32.241  1.00  0.00     0.054 A 
BRANCH  66  67
ATOM     67  S   UNL A   1      44.452  37.172  32.898  1.00  0.00     0.124 S 
ATOM     68  O   UNL A   1      45.323  36.951  34.050  1.00  0.00    -0.237 OA
ATOM     69  O   UNL A   1      45.060  37.886  31.778  1.00  0.00    -0.237 OA
ATOM     70  O   UNL A   1      43.085  37.573  33.222  1.00  0.00    -0.744 OA
ENDBRANCH  66  67
ENDBRANCH  47  61
BRANCH  48  71
ATOM     71  C   UNL A   1      42.882  23.603  27.652  1.00  0.00    -0.014 A 
ATOM     72  C   UNL A   1      42.361  22.586  28.471  1.00  0.00     0.010 A 
ATOM     73  C   UNL A   1      43.214  23.304  26.318  1.00  0.00     0.010 A 
ATOM     74  C   UNL A   1      42.182  21.294  27.969  1.00  0.00     0.020 A 
ATOM     75  C   UNL A   1      43.010  22.019  25.805  1.00  0.00     0.020 A 
ATOM     76  C   UNL A   1      42.503  21.020  26.637  1.00  0.00     0.054 A 
BRANCH  76  77
ATOM     77  S   UNL A   1      42.205  19.350  25.994  1.00  0.00     0.124 S 
ATOM     78  O   UNL A   1      40.758  19.350  25.807  1.00  0.00    -0.237 OA
ATOM     79  O   UNL A   1      43.002  19.339  24.770  1.00  0.00    -0.237 OA
ATOM     80  O   UNL A   1      42.699  18.479  27.058  1.00  0.00    -0.744 OA
ENDBRANCH  76  77
ENDBRANCH  48  71
BRANCH  60  81
ATOM     81  C   UNL A   1      48.271  27.147  30.338  1.00  0.00    -0.014 A 
ATOM     82  C   UNL A   1      49.290  27.601  29.485  1.00  0.00     0.010 A 
ATOM     83  C   UNL A   1      48.612  26.418  31.492  1.00  0.00     0.010 A 
ATOM     84  C   UNL A   1      50.627  27.317  29.772  1.00  0.00     0.020 A 
ATOM     85  C   UNL A   1      49.950  26.156  31.797  1.00  0.00     0.020 A 
ATOM     86  C   UNL A   1      50.949  26.602  30.930  1.00  0.00     0.054 A 
BRANCH  86  87
ATOM     87  S   UNL A   1      52.696  26.302  31.308  1.00  0.00     0.124 S 
ATOM     88  O   UNL A   1      53.263  26.089  29.979  1.00  0.00    -0.237 OA
ATOM     89  O   UNL A   1      53.095  27.542  31.969  1.00  0.00    -0.237 OA
ATOM     90  O   UNL A   1      52.669  25.123  32.170  1.00  0.00    -0.744 OA
ENDBRANCH  86  87
ENDBRANCH  60  81
ENDBRANCH  34  35
ENDBRANCH  26  29
ENDBRANCH   1  25
TORSDOF 14
ENDMDL
