MODEL 1
REMARK VINA RESULT:     -13.5      0.000      0.000
REMARK SMILES Cc1ccc(Nc2c(F)cccc2Cl)c(CC(=O)NCCCNC(=O)c2ccc(-c3c4nc(c(-c5ccc(S(=O)(=O)[O-])cc5)c5ccc([nH]5)c(-c5ccc(S(=O)(=O)[O-])cc5)c5nc(c(-c6ccc(S(=O)(=O)[O-])cc6)c6ccc3[nH]6)C=C5)C=C4)cc2)c1
REMARK SMILES IDX 21 1 20 2 19 3 17 4 18 5 16 7 15 8 1 9 2 10 3 11 86 12 4 13
REMARK SMILES IDX 5 14 6 15 7 17 8 18 13 19 9 20 10 21 12 22 14 23 11 24 22 25
REMARK SMILES IDX 23 26 24 27 25 29 26 30 27 31 85 32 28 33 84 34 29 35 30 36
REMARK SMILES IDX 31 37 78 38 32 39 83 40 77 41 79 42 33 43 82 44 76 45 75 46
REMARK SMILES IDX 34 48 64 49 45 50 63 51 46 52 49 53 62 54 80 55 47 56 48 57
REMARK SMILES IDX 61 59 81 60 50 61 35 62 36 63 44 64 37 65 43 66 38 67 39 68
REMARK SMILES IDX 40 69 41 70 42 71 65 72 66 73 74 74 67 75 73 76 68 77 69 78
REMARK SMILES IDX 70 79 71 80 72 81 51 82 52 83 60 84 53 85 59 86 54 87 55 88
REMARK SMILES IDX 56 89 57 90 58 91
REMARK H PARENT 19 6 6 16 23 28 79 47 49 58
REMARK Flexibility Score: inf
ROOT
ATOM      1  C   UNL A   1      32.989  29.976  27.169  1.00  0.00     0.042 C 
ENDROOT
BRANCH   1   2
ATOM      2  C   UNL A   1      32.328  29.143  26.076  1.00  0.00     0.117 C 
BRANCH   2   3
ATOM      3  N   UNL A   1      31.876  27.844  26.553  1.00  0.00    -0.356 N 
ATOM      4  C   UNL A   1      32.428  26.613  26.357  1.00  0.00     0.224 C 
ATOM      5  O   UNL A   1      31.855  25.614  26.802  1.00  0.00    -0.275 OA
ATOM      6  H   UNL A   1      31.054  27.856  27.094  1.00  0.00     0.163 HD
BRANCH   4   7
ATOM      7  C   UNL A   1      33.722  26.450  25.578  1.00  0.00     0.137 C 
BRANCH   7   8
ATOM      8  C   UNL A   1      33.892  25.078  24.960  1.00  0.00    -0.015 A 
ATOM      9  C   UNL A   1      35.809  21.905  25.909  1.00  0.00     0.044 C 
ATOM     10  C   UNL A   1      34.928  22.866  25.169  1.00  0.00    -0.051 A 
ATOM     11  C   UNL A   1      34.466  22.549  23.894  1.00  0.00     0.005 A 
ATOM     12  C   UNL A   1      34.606  24.114  25.707  1.00  0.00     0.009 A 
ATOM     13  C   UNL A   1      33.714  23.474  23.166  1.00  0.00     0.026 A 
ATOM     14  C   UNL A   1      33.429  24.759  23.662  1.00  0.00     0.042 A 
BRANCH  14  15
ATOM     15  N   UNL A   1      32.691  25.686  22.893  1.00  0.00    -0.352 N 
ATOM     16  H   UNL A   1      33.100  25.937  22.032  1.00  0.00     0.167 HD
BRANCH  15  17
ATOM     17  C   UNL A   1      31.450  26.308  23.178  1.00  0.00     0.094 A 
ATOM     18  C   UNL A   1      30.312  25.574  23.554  1.00  0.00     0.148 A 
ATOM     19  C   UNL A   1      31.283  27.694  22.990  1.00  0.00     0.067 A 
ATOM     20  F   UNL A   1      30.397  24.251  23.768  1.00  0.00    -0.205 F 
ATOM     21  C   UNL A   1      29.067  26.180  23.732  1.00  0.00     0.041 A 
ATOM     22  C   UNL A   1      30.038  28.309  23.165  1.00  0.00     0.023 A 
ATOM     23  Cl  UNL A   1      32.606  28.690  22.486  1.00  0.00    -0.082 Cl
ATOM     24  C   UNL A   1      28.927  27.550  23.532  1.00  0.00     0.005 A 
ENDBRANCH  15  17
ENDBRANCH  14  15
ENDBRANCH   7   8
ENDBRANCH   4   7
ENDBRANCH   2   3
ENDBRANCH   1   2
BRANCH   1  25
ATOM     25  C   UNL A   1      34.500  29.804  27.241  1.00  0.00     0.118 C 
BRANCH  25  26
ATOM     26  N   UNL A   1      35.176  31.038  27.637  1.00  0.00    -0.352 N 
ATOM     27  C   UNL A   1      36.431  31.176  28.200  1.00  0.00     0.251 C 
ATOM     28  H   UNL A   1      34.676  31.873  27.485  1.00  0.00     0.163 HD
ATOM     29  O   UNL A   1      36.857  32.235  28.620  1.00  0.00    -0.269 OA
BRANCH  27  30
ATOM     30  C   UNL A   1      37.286  29.976  28.171  1.00  0.00     0.039 A 
ATOM     31  C   UNL A   1      37.388  29.243  29.358  1.00  0.00     0.014 A 
ATOM     32  C   UNL A   1      38.187  29.803  27.124  1.00  0.00     0.014 A 
ATOM     33  C   UNL A   1      38.513  28.454  29.572  1.00  0.00     0.010 A 
ATOM     34  C   UNL A   1      39.339  29.080  27.371  1.00  0.00     0.010 A 
ATOM     35  C   UNL A   1      39.527  28.456  28.614  1.00  0.00    -0.014 A 
BRANCH  35  36
ATOM     36  C   UNL A   1      40.849  27.887  28.850  1.00  0.00     0.031 A 
ATOM     37  C   UNL A   1      41.098  26.462  28.520  1.00  0.00     0.074 A 
ATOM     38  C   UNL A   1      41.870  28.660  29.290  1.00  0.00     0.049 A 
ATOM     39  N   UNL A   1      42.079  25.763  28.987  1.00  0.00    -0.248 NA
ATOM     40  C   UNL A   1      40.204  25.687  27.664  1.00  0.00     0.031 C 
ATOM     41  C   UNL A   1      43.289  28.301  29.278  1.00  0.00     0.029 A 
ATOM     42  N   UNL A   1      41.850  29.854  30.018  1.00  0.00    -0.354 N 
ATOM     43  C   UNL A   1      42.148  24.605  28.245  1.00  0.00     0.074 A 
ATOM     44  C   UNL A   1      40.896  24.553  27.525  1.00  0.00     0.031 C 
ATOM     45  C   UNL A   1      43.923  29.039  30.201  1.00  0.00     0.029 A 
ATOM     46  C   UNL A   1      42.901  29.747  30.947  1.00  0.00     0.049 A 
ATOM     47  H   UNL A   1      41.230  30.611  29.903  1.00  0.00     0.167 HD
ATOM     48  C   UNL A   1      43.316  23.901  28.204  1.00  0.00     0.031 A 
ATOM     49  C   UNL A   1      42.730  29.670  32.304  1.00  0.00     0.031 A 
ATOM     50  C   UNL A   1      44.314  24.424  29.143  1.00  0.00     0.049 A 
ATOM     51  C   UNL A   1      43.336  28.423  32.943  1.00  0.00     0.074 A 
ATOM     52  C   UNL A   1      45.512  25.112  29.021  1.00  0.00     0.029 A 
ATOM     53  N   UNL A   1      43.991  24.472  30.490  1.00  0.00    -0.354 N 
ATOM     54  N   UNL A   1      43.953  27.481  32.282  1.00  0.00    -0.248 NA
ATOM     55  C   UNL A   1      43.205  28.088  34.365  1.00  0.00     0.031 C 
ATOM     56  C   UNL A   1      45.904  25.562  30.318  1.00  0.00     0.029 A 
ATOM     57  C   UNL A   1      44.951  25.140  31.224  1.00  0.00     0.049 A 
ATOM     58  H   UNL A   1      43.176  24.078  30.877  1.00  0.00     0.167 HD
ATOM     59  C   UNL A   1      44.229  26.428  33.115  1.00  0.00     0.074 A 
ATOM     60  C   UNL A   1      43.762  26.863  34.417  1.00  0.00     0.031 C 
ATOM     61  C   UNL A   1      44.766  25.256  32.663  1.00  0.00     0.031 A 
BRANCH  48  62
ATOM     62  C   UNL A   1      43.636  22.888  27.119  1.00  0.00    -0.014 A 
ATOM     63  C   UNL A   1      42.793  21.774  26.924  1.00  0.00     0.010 A 
ATOM     64  C   UNL A   1      44.783  22.934  26.304  1.00  0.00     0.010 A 
ATOM     65  C   UNL A   1      43.138  20.716  26.065  1.00  0.00     0.020 A 
ATOM     66  C   UNL A   1      45.163  21.871  25.471  1.00  0.00     0.020 A 
ATOM     67  C   UNL A   1      44.343  20.756  25.370  1.00  0.00     0.054 A 
BRANCH  67  68
ATOM     68  S   UNL A   1      44.834  19.341  24.351  1.00  0.00     0.124 S 
ATOM     69  O   UNL A   1      44.073  18.245  24.946  1.00  0.00    -0.237 OA
ATOM     70  O   UNL A   1      44.410  19.753  23.017  1.00  0.00    -0.237 OA
ATOM     71  O   UNL A   1      46.281  19.260  24.545  1.00  0.00    -0.744 OA
ENDBRANCH  67  68
ENDBRANCH  48  62
BRANCH  49  72
ATOM     72  C   UNL A   1      41.527  30.390  32.807  1.00  0.00    -0.014 A 
ATOM     73  C   UNL A   1      40.338  29.644  32.951  1.00  0.00     0.010 A 
ATOM     74  C   UNL A   1      41.656  31.605  33.499  1.00  0.00     0.010 A 
ATOM     75  C   UNL A   1      39.388  30.003  33.908  1.00  0.00     0.020 A 
ATOM     76  C   UNL A   1      40.693  31.977  34.450  1.00  0.00     0.020 A 
ATOM     77  C   UNL A   1      39.605  31.134  34.695  1.00  0.00     0.054 A 
BRANCH  77  78
ATOM     78  S   UNL A   1      38.568  31.350  36.172  1.00  0.00     0.124 S 
ATOM     79  O   UNL A   1      39.447  32.099  37.065  1.00  0.00    -0.237 OA
ATOM     80  O   UNL A   1      37.431  32.099  35.635  1.00  0.00    -0.237 OA
ATOM     81  O   UNL A   1      38.273  29.980  36.580  1.00  0.00    -0.744 OA
ENDBRANCH  77  78
ENDBRANCH  49  72
BRANCH  61  82
ATOM     82  C   UNL A   1      45.108  24.071  33.531  1.00  0.00    -0.014 A 
ATOM     83  C   UNL A   1      46.398  23.831  34.032  1.00  0.00     0.010 A 
ATOM     84  C   UNL A   1      44.134  23.070  33.763  1.00  0.00     0.010 A 
ATOM     85  C   UNL A   1      46.681  22.679  34.784  1.00  0.00     0.020 A 
ATOM     86  C   UNL A   1      44.409  21.913  34.494  1.00  0.00     0.020 A 
ATOM     87  C   UNL A   1      45.681  21.731  35.018  1.00  0.00     0.054 A 
BRANCH  87  88
ATOM     88  S   UNL A   1      46.075  20.237  35.964  1.00  0.00     0.124 S 
ATOM     89  O   UNL A   1      47.511  20.088  35.741  1.00  0.00    -0.237 OA
ATOM     90  O   UNL A   1      45.687  20.625  37.318  1.00  0.00    -0.237 OA
ATOM     91  O   UNL A   1      45.244  19.204  35.350  1.00  0.00    -0.744 OA
ENDBRANCH  87  88
ENDBRANCH  61  82
ENDBRANCH  35  36
ENDBRANCH  27  30
ENDBRANCH  25  26
ENDBRANCH   1  25
TORSDOF 16
ENDMDL
MODEL 2
REMARK VINA RESULT:     -13.4      0.860      1.315
REMARK SMILES Cc1ccc(Nc2c(F)cccc2Cl)c(CC(=O)NCCCNC(=O)c2ccc(-c3c4nc(c(-c5ccc(S(=O)(=O)[O-])cc5)c5ccc([nH]5)c(-c5ccc(S(=O)(=O)[O-])cc5)c5nc(c(-c6ccc(S(=O)(=O)[O-])cc6)c6ccc3[nH]6)C=C5)C=C4)cc2)c1
REMARK SMILES IDX 21 1 20 2 19 3 17 4 18 5 16 7 15 8 1 9 2 10 3 11 86 12 4 13
REMARK SMILES IDX 5 14 6 15 7 17 8 18 13 19 9 20 10 21 12 22 14 23 11 24 22 25
REMARK SMILES IDX 23 26 24 27 25 29 26 30 27 31 85 32 28 33 84 34 29 35 30 36
REMARK SMILES IDX 31 37 78 38 32 39 83 40 77 41 79 42 33 43 82 44 76 45 75 46
REMARK SMILES IDX 34 48 64 49 45 50 63 51 46 52 49 53 62 54 80 55 47 56 48 57
REMARK SMILES IDX 61 59 81 60 50 61 35 62 36 63 44 64 37 65 43 66 38 67 39 68
REMARK SMILES IDX 40 69 41 70 42 71 65 72 66 73 74 74 67 75 73 76 68 77 69 78
REMARK SMILES IDX 70 79 71 80 72 81 51 82 52 83 60 84 53 85 59 86 54 87 55 88
REMARK SMILES IDX 56 89 57 90 58 91
REMARK H PARENT 19 6 6 16 23 28 79 47 49 58
REMARK Flexibility Score: inf
ROOT
ATOM      1  C   UNL A   1      32.911  29.864  27.356  1.00  0.00     0.042 C 
ENDROOT
BRANCH   1   2
ATOM      2  C   UNL A   1      32.109  29.239  26.219  1.00  0.00     0.117 C 
BRANCH   2   3
ATOM      3  N   UNL A   1      31.562  27.935  26.566  1.00  0.00    -0.356 N 
ATOM      4  C   UNL A   1      32.090  26.695  26.356  1.00  0.00     0.224 C 
ATOM      5  O   UNL A   1      31.437  25.698  26.676  1.00  0.00    -0.275 OA
ATOM      6  H   UNL A   1      30.687  27.951  27.016  1.00  0.00     0.163 HD
BRANCH   4   7
ATOM      7  C   UNL A   1      33.454  26.523  25.712  1.00  0.00     0.137 C 
BRANCH   7   8
ATOM      8  C   UNL A   1      33.672  25.154  25.103  1.00  0.00    -0.015 A 
ATOM      9  C   UNL A   1      34.939  21.787  26.407  1.00  0.00     0.044 C 
ATOM     10  C   UNL A   1      34.400  22.846  25.493  1.00  0.00    -0.051 A 
ATOM     11  C   UNL A   1      34.299  22.602  24.126  1.00  0.00     0.005 A 
ATOM     12  C   UNL A   1      34.050  24.109  25.976  1.00  0.00     0.009 A 
ATOM     13  C   UNL A   1      33.876  23.612  23.258  1.00  0.00     0.026 A 
ATOM     14  C   UNL A   1      33.576  24.908  23.714  1.00  0.00     0.042 A 
BRANCH  14  15
ATOM     15  N   UNL A   1      33.179  25.920  22.811  1.00  0.00    -0.352 N 
ATOM     16  H   UNL A   1      33.797  26.080  22.061  1.00  0.00     0.167 HD
BRANCH  15  17
ATOM     17  C   UNL A   1      32.021  26.737  22.827  1.00  0.00     0.094 A 
ATOM     18  C   UNL A   1      32.087  28.134  22.691  1.00  0.00     0.148 A 
ATOM     19  C   UNL A   1      30.755  26.179  23.088  1.00  0.00     0.067 A 
ATOM     20  F   UNL A   1      33.257  28.736  22.425  1.00  0.00    -0.205 F 
ATOM     21  C   UNL A   1      30.956  28.943  22.813  1.00  0.00     0.041 A 
ATOM     22  C   UNL A   1      29.615  26.984  23.213  1.00  0.00     0.023 A 
ATOM     23  Cl  UNL A   1      30.562  24.475  23.315  1.00  0.00    -0.082 Cl
ATOM     24  C   UNL A   1      29.716  28.367  23.080  1.00  0.00     0.005 A 
ENDBRANCH  15  17
ENDBRANCH  14  15
ENDBRANCH   7   8
ENDBRANCH   4   7
ENDBRANCH   2   3
ENDBRANCH   1   2
BRANCH   1  25
ATOM     25  C   UNL A   1      34.418  29.806  27.146  1.00  0.00     0.118 C 
BRANCH  25  26
ATOM     26  N   UNL A   1      35.083  31.026  27.600  1.00  0.00    -0.352 N 
ATOM     27  C   UNL A   1      36.330  31.145  28.187  1.00  0.00     0.251 C 
ATOM     28  H   UNL A   1      34.583  31.864  27.472  1.00  0.00     0.163 HD
ATOM     29  O   UNL A   1      36.745  32.188  28.654  1.00  0.00    -0.269 OA
BRANCH  27  30
ATOM     30  C   UNL A   1      37.189  29.949  28.126  1.00  0.00     0.039 A 
ATOM     31  C   UNL A   1      37.290  29.182  29.290  1.00  0.00     0.014 A 
ATOM     32  C   UNL A   1      38.093  29.810  27.076  1.00  0.00     0.014 A 
ATOM     33  C   UNL A   1      38.417  28.391  29.485  1.00  0.00     0.010 A 
ATOM     34  C   UNL A   1      39.246  29.084  27.305  1.00  0.00     0.010 A 
ATOM     35  C   UNL A   1      39.433  28.424  28.530  1.00  0.00    -0.014 A 
BRANCH  35  36
ATOM     36  C   UNL A   1      40.756  27.853  28.753  1.00  0.00     0.031 A 
ATOM     37  C   UNL A   1      40.995  26.423  28.437  1.00  0.00     0.074 A 
ATOM     38  C   UNL A   1      41.788  28.627  29.168  1.00  0.00     0.049 A 
ATOM     39  N   UNL A   1      41.980  25.726  28.897  1.00  0.00    -0.248 NA
ATOM     40  C   UNL A   1      40.085  25.641  27.605  1.00  0.00     0.031 C 
ATOM     41  C   UNL A   1      43.204  28.262  29.138  1.00  0.00     0.029 A 
ATOM     42  N   UNL A   1      41.783  29.830  29.880  1.00  0.00    -0.354 N 
ATOM     43  C   UNL A   1      42.033  24.559  28.169  1.00  0.00     0.074 A 
ATOM     44  C   UNL A   1      40.770  24.502  27.470  1.00  0.00     0.031 C 
ATOM     45  C   UNL A   1      43.855  29.009  30.042  1.00  0.00     0.029 A 
ATOM     46  C   UNL A   1      42.847  29.731  30.795  1.00  0.00     0.049 A 
ATOM     47  H   UNL A   1      41.164  30.588  29.765  1.00  0.00     0.167 HD
ATOM     48  C   UNL A   1      43.198  23.849  28.120  1.00  0.00     0.031 A 
ATOM     49  C   UNL A   1      42.697  29.672  32.155  1.00  0.00     0.031 A 
ATOM     50  C   UNL A   1      44.213  24.380  29.037  1.00  0.00     0.049 A 
ATOM     51  C   UNL A   1      43.308  28.430  32.801  1.00  0.00     0.074 A 
ATOM     52  C   UNL A   1      45.411  25.062  28.888  1.00  0.00     0.029 A 
ATOM     53  N   UNL A   1      43.910  24.446  30.387  1.00  0.00    -0.354 N 
ATOM     54  N   UNL A   1      43.911  27.478  32.142  1.00  0.00    -0.248 NA
ATOM     55  C   UNL A   1      43.197  28.114  34.228  1.00  0.00     0.031 C 
ATOM     56  C   UNL A   1      45.825  25.526  30.173  1.00  0.00     0.029 A 
ATOM     57  C   UNL A   1      44.884  25.119  31.098  1.00  0.00     0.049 A 
ATOM     58  H   UNL A   1      43.099  24.060  30.792  1.00  0.00     0.167 HD
ATOM     59  C   UNL A   1      44.196  26.434  32.984  1.00  0.00     0.074 A 
ATOM     60  C   UNL A   1      43.750  26.888  34.287  1.00  0.00     0.031 C 
ATOM     61  C   UNL A   1      44.721  25.254  32.538  1.00  0.00     0.031 A 
BRANCH  48  62
ATOM     62  C   UNL A   1      43.497  22.822  27.043  1.00  0.00    -0.014 A 
ATOM     63  C   UNL A   1      42.692  21.669  26.925  1.00  0.00     0.010 A 
ATOM     64  C   UNL A   1      44.592  22.892  26.161  1.00  0.00     0.010 A 
ATOM     65  C   UNL A   1      43.031  20.603  26.073  1.00  0.00     0.020 A 
ATOM     66  C   UNL A   1      44.968  21.823  25.333  1.00  0.00     0.020 A 
ATOM     67  C   UNL A   1      44.192  20.673  25.308  1.00  0.00     0.054 A 
BRANCH  67  68
ATOM     68  S   UNL A   1      44.682  19.254  24.297  1.00  0.00     0.124 S 
ATOM     69  O   UNL A   1      44.413  19.724  22.940  1.00  0.00    -0.237 OA
ATOM     70  O   UNL A   1      46.090  19.093  24.642  1.00  0.00    -0.237 OA
ATOM     71  O   UNL A   1      43.804  18.179  24.759  1.00  0.00    -0.744 OA
ENDBRANCH  67  68
ENDBRANCH  48  62
BRANCH  49  72
ATOM     72  C   UNL A   1      41.505  30.403  32.667  1.00  0.00    -0.014 A 
ATOM     73  C   UNL A   1      40.316  29.663  32.841  1.00  0.00     0.010 A 
ATOM     74  C   UNL A   1      41.649  31.627  33.340  1.00  0.00     0.010 A 
ATOM     75  C   UNL A   1      39.382  30.039  33.808  1.00  0.00     0.020 A 
ATOM     76  C   UNL A   1      40.703  32.015  34.301  1.00  0.00     0.020 A 
ATOM     77  C   UNL A   1      39.617  31.179  34.575  1.00  0.00     0.054 A 
BRANCH  77  78
ATOM     78  S   UNL A   1      38.604  31.419  36.066  1.00  0.00     0.124 S 
ATOM     79  O   UNL A   1      39.438  32.306  36.871  1.00  0.00    -0.237 OA
ATOM     80  O   UNL A   1      37.393  32.027  35.513  1.00  0.00    -0.237 OA
ATOM     81  O   UNL A   1      38.439  30.065  36.583  1.00  0.00    -0.744 OA
ENDBRANCH  77  78
ENDBRANCH  49  72
BRANCH  61  82
ATOM     82  C   UNL A   1      45.072  24.078  33.416  1.00  0.00    -0.014 A 
ATOM     83  C   UNL A   1      44.176  23.033  33.695  1.00  0.00     0.010 A 
ATOM     84  C   UNL A   1      46.308  24.065  34.106  1.00  0.00     0.010 A 
ATOM     85  C   UNL A   1      44.528  21.992  34.570  1.00  0.00     0.020 A 
ATOM     86  C   UNL A   1      46.660  23.045  34.992  1.00  0.00     0.020 A 
ATOM     87  C   UNL A   1      45.772  22.000  35.206  1.00  0.00     0.054 A 
BRANCH  87  88
ATOM     88  S   UNL A   1      46.193  20.664  36.355  1.00  0.00     0.124 S 
ATOM     89  O   UNL A   1      45.402  19.546  35.847  1.00  0.00    -0.237 OA
ATOM     90  O   UNL A   1      47.637  20.548  36.167  1.00  0.00    -0.237 OA
ATOM     91  O   UNL A   1      45.774  21.176  37.657  1.00  0.00    -0.744 OA
ENDBRANCH  87  88
ENDBRANCH  61  82
ENDBRANCH  35  36
ENDBRANCH  27  30
ENDBRANCH  25  26
ENDBRANCH   1  25
TORSDOF 16
ENDMDL
MODEL 3
REMARK VINA RESULT:     -13.3      4.814     11.165
REMARK SMILES Cc1ccc(Nc2c(F)cccc2Cl)c(CC(=O)NCCCNC(=O)c2ccc(-c3c4nc(c(-c5ccc(S(=O)(=O)[O-])cc5)c5ccc([nH]5)c(-c5ccc(S(=O)(=O)[O-])cc5)c5nc(c(-c6ccc(S(=O)(=O)[O-])cc6)c6ccc3[nH]6)C=C5)C=C4)cc2)c1
REMARK SMILES IDX 21 1 20 2 19 3 17 4 18 5 16 7 15 8 1 9 2 10 3 11 86 12 4 13
REMARK SMILES IDX 5 14 6 15 7 17 8 18 13 19 9 20 10 21 12 22 14 23 11 24 22 25
REMARK SMILES IDX 23 26 24 27 25 29 26 30 27 31 85 32 28 33 84 34 29 35 30 36
REMARK SMILES IDX 31 37 78 38 32 39 83 40 77 41 79 42 33 43 82 44 76 45 75 46
REMARK SMILES IDX 34 48 64 49 45 50 63 51 46 52 49 53 62 54 80 55 47 56 48 57
REMARK SMILES IDX 61 59 81 60 50 61 35 62 36 63 44 64 37 65 43 66 38 67 39 68
REMARK SMILES IDX 40 69 41 70 42 71 65 72 66 73 74 74 67 75 73 76 68 77 69 78
REMARK SMILES IDX 70 79 71 80 72 81 51 82 52 83 60 84 53 85 59 86 54 87 55 88
REMARK SMILES IDX 56 89 57 90 58 91
REMARK H PARENT 19 6 6 16 23 28 79 47 49 58
REMARK Flexibility Score: inf
ROOT
ATOM      1  C   UNL A   1      36.755  23.423  26.166  1.00  0.00     0.042 C 
ENDROOT
BRANCH   1   2
ATOM      2  C   UNL A   1      35.882  22.482  25.342  1.00  0.00     0.117 C 
BRANCH   2   3
ATOM      3  N   UNL A   1      35.400  23.093  24.111  1.00  0.00    -0.356 N 
ATOM      4  C   UNL A   1      34.733  24.270  23.936  1.00  0.00     0.224 C 
ATOM      5  O   UNL A   1      34.356  24.589  22.806  1.00  0.00    -0.275 OA
ATOM      6  H   UNL A   1      35.581  22.584  23.288  1.00  0.00     0.163 HD
BRANCH   4   7
ATOM      7  C   UNL A   1      34.426  25.178  25.114  1.00  0.00     0.137 C 
BRANCH   7   8
ATOM      8  C   UNL A   1      32.958  25.220  25.484  1.00  0.00    -0.015 A 
ATOM      9  C   UNL A   1      30.345  22.606  26.474  1.00  0.00     0.044 C 
ATOM     10  C   UNL A   1      30.991  23.921  26.156  1.00  0.00    -0.051 A 
ATOM     11  C   UNL A   1      30.212  25.067  26.028  1.00  0.00     0.005 A 
ATOM     12  C   UNL A   1      32.364  24.014  25.919  1.00  0.00     0.009 A 
ATOM     13  C   UNL A   1      30.796  26.279  25.650  1.00  0.00     0.026 A 
ATOM     14  C   UNL A   1      32.165  26.384  25.348  1.00  0.00     0.042 A 
BRANCH  14  15
ATOM     15  N   UNL A   1      32.725  27.615  24.939  1.00  0.00    -0.352 N 
ATOM     16  H   UNL A   1      33.126  27.616  24.039  1.00  0.00     0.167 HD
BRANCH  15  17
ATOM     17  C   UNL A   1      32.794  28.848  25.634  1.00  0.00     0.094 A 
ATOM     18  C   UNL A   1      33.775  29.108  26.606  1.00  0.00     0.148 A 
ATOM     19  C   UNL A   1      31.804  29.832  25.447  1.00  0.00     0.067 A 
ATOM     20  F   UNL A   1      34.761  28.224  26.828  1.00  0.00    -0.205 F 
ATOM     21  C   UNL A   1      33.775  30.282  27.361  1.00  0.00     0.041 A 
ATOM     22  C   UNL A   1      31.795  31.011  26.202  1.00  0.00     0.023 A 
ATOM     23  Cl  UNL A   1      30.522  29.600  24.307  1.00  0.00    -0.082 Cl
ATOM     24  C   UNL A   1      32.780  31.234  27.163  1.00  0.00     0.005 A 
ENDBRANCH  15  17
ENDBRANCH  14  15
ENDBRANCH   7   8
ENDBRANCH   4   7
ENDBRANCH   2   3
ENDBRANCH   1   2
BRANCH   1  25
ATOM     25  C   UNL A   1      38.130  23.669  25.561  1.00  0.00     0.118 C 
BRANCH  25  26
ATOM     26  N   UNL A   1      39.204  23.166  26.414  1.00  0.00    -0.352 N 
ATOM     27  C   UNL A   1      39.993  23.880  27.297  1.00  0.00     0.251 C 
ATOM     28  H   UNL A   1      39.388  22.200  26.353  1.00  0.00     0.163 HD
ATOM     29  O   UNL A   1      40.953  23.398  27.867  1.00  0.00    -0.269 OA
BRANCH  27  30
ATOM     30  C   UNL A   1      39.545  25.252  27.599  1.00  0.00     0.039 A 
ATOM     31  C   UNL A   1      40.067  26.277  26.805  1.00  0.00     0.014 A 
ATOM     32  C   UNL A   1      38.913  25.513  28.811  1.00  0.00     0.014 A 
ATOM     33  C   UNL A   1      40.120  27.570  27.316  1.00  0.00     0.010 A 
ATOM     34  C   UNL A   1      39.036  26.781  29.347  1.00  0.00     0.010 A 
ATOM     35  C   UNL A   1      39.690  27.792  28.625  1.00  0.00    -0.014 A 
BRANCH  35  36
ATOM     36  C   UNL A   1      39.943  29.032  29.348  1.00  0.00     0.031 A 
ATOM     37  C   UNL A   1      38.957  30.138  29.263  1.00  0.00     0.074 A 
ATOM     38  C   UNL A   1      41.022  29.159  30.156  1.00  0.00     0.049 A 
ATOM     39  N   UNL A   1      39.212  31.371  29.554  1.00  0.00    -0.248 NA
ATOM     40  C   UNL A   1      37.595  29.940  28.777  1.00  0.00     0.031 C 
ATOM     41  C   UNL A   1      41.231  30.208  31.155  1.00  0.00     0.029 A 
ATOM     42  N   UNL A   1      42.251  28.492  30.132  1.00  0.00    -0.354 N 
ATOM     43  C   UNL A   1      38.008  32.032  29.636  1.00  0.00     0.074 A 
ATOM     44  C   UNL A   1      37.052  31.134  29.028  1.00  0.00     0.031 C 
ATOM     45  C   UNL A   1      42.547  30.315  31.390  1.00  0.00     0.029 A 
ATOM     46  C   UNL A   1      43.218  29.473  30.419  1.00  0.00     0.049 A 
ATOM     47  H   UNL A   1      42.406  27.536  29.952  1.00  0.00     0.167 HD
ATOM     48  C   UNL A   1      37.925  33.196  30.344  1.00  0.00     0.031 A 
ATOM     49  C   UNL A   1      44.168  29.907  29.533  1.00  0.00     0.031 A 
ATOM     50  C   UNL A   1      39.241  33.672  30.787  1.00  0.00     0.049 A 
ATOM     51  C   UNL A   1      44.134  31.410  29.263  1.00  0.00     0.074 A 
ATOM     52  C   UNL A   1      39.892  33.765  32.007  1.00  0.00     0.029 A 
ATOM     53  N   UNL A   1      40.208  33.924  29.826  1.00  0.00    -0.354 N 
ATOM     54  N   UNL A   1      43.277  32.236  29.798  1.00  0.00    -0.248 NA
ATOM     55  C   UNL A   1      45.000  32.084  28.290  1.00  0.00     0.031 C 
ATOM     56  C   UNL A   1      41.261  34.088  31.761  1.00  0.00     0.029 A 
ATOM     57  C   UNL A   1      41.435  34.198  30.396  1.00  0.00     0.049 A 
ATOM     58  H   UNL A   1      40.040  33.909  28.856  1.00  0.00     0.167 HD
ATOM     59  C   UNL A   1      43.404  33.477  29.229  1.00  0.00     0.074 A 
ATOM     60  C   UNL A   1      44.513  33.340  28.305  1.00  0.00     0.031 C 
ATOM     61  C   UNL A   1      42.553  34.506  29.516  1.00  0.00     0.031 A 
BRANCH  48  62
ATOM     62  C   UNL A   1      36.613  33.765  30.852  1.00  0.00    -0.014 A 
ATOM     63  C   UNL A   1      35.518  33.905  29.974  1.00  0.00     0.010 A 
ATOM     64  C   UNL A   1      36.410  34.247  32.159  1.00  0.00     0.010 A 
ATOM     65  C   UNL A   1      34.347  34.592  30.340  1.00  0.00     0.020 A 
ATOM     66  C   UNL A   1      35.266  34.969  32.531  1.00  0.00     0.020 A 
ATOM     67  C   UNL A   1      34.245  35.153  31.609  1.00  0.00     0.054 A 
BRANCH  67  68
ATOM     68  S   UNL A   1      32.782  36.130  32.038  1.00  0.00     0.124 S 
ATOM     69  O   UNL A   1      32.496  36.834  30.791  1.00  0.00    -0.237 OA
ATOM     70  O   UNL A   1      31.819  35.103  32.419  1.00  0.00    -0.237 OA
ATOM     71  O   UNL A   1      33.244  36.984  33.132  1.00  0.00    -0.744 OA
ENDBRANCH  67  68
ENDBRANCH  48  62
BRANCH  49  72
ATOM     72  C   UNL A   1      44.604  28.872  28.555  1.00  0.00    -0.014 A 
ATOM     73  C   UNL A   1      44.020  28.908  27.270  1.00  0.00     0.010 A 
ATOM     74  C   UNL A   1      45.813  28.181  28.734  1.00  0.00     0.010 A 
ATOM     75  C   UNL A   1      44.721  28.433  26.160  1.00  0.00     0.020 A 
ATOM     76  C   UNL A   1      46.511  27.688  27.621  1.00  0.00     0.020 A 
ATOM     77  C   UNL A   1      45.990  27.884  26.338  1.00  0.00     0.054 A 
BRANCH  77  78
ATOM     78  S   UNL A   1      47.023  27.641  24.862  1.00  0.00     0.124 S 
ATOM     79  O   UNL A   1      46.633  26.305  24.423  1.00  0.00    -0.237 OA
ATOM     80  O   UNL A   1      46.579  28.739  24.000  1.00  0.00    -0.237 OA
ATOM     81  O   UNL A   1      48.382  27.766  25.377  1.00  0.00    -0.744 OA
ENDBRANCH  77  78
ENDBRANCH  49  72
BRANCH  61  82
ATOM     82  C   UNL A   1      42.653  35.896  28.937  1.00  0.00    -0.014 A 
ATOM     83  C   UNL A   1      43.285  36.961  29.599  1.00  0.00     0.010 A 
ATOM     84  C   UNL A   1      41.977  36.201  27.731  1.00  0.00     0.010 A 
ATOM     85  C   UNL A   1      43.297  38.253  29.048  1.00  0.00     0.020 A 
ATOM     86  C   UNL A   1      41.967  37.485  27.183  1.00  0.00     0.020 A 
ATOM     87  C   UNL A   1      42.644  38.504  27.837  1.00  0.00     0.054 A 
BRANCH  87  88
ATOM     88  S   UNL A   1      42.645  40.184  27.158  1.00  0.00     0.124 S 
ATOM     89  O   UNL A   1      41.254  40.363  26.750  1.00  0.00    -0.237 OA
ATOM     90  O   UNL A   1      43.067  40.976  28.311  1.00  0.00    -0.237 OA
ATOM     91  O   UNL A   1      43.608  40.117  26.061  1.00  0.00    -0.744 OA
ENDBRANCH  87  88
ENDBRANCH  61  82
ENDBRANCH  35  36
ENDBRANCH  27  30
ENDBRANCH  25  26
ENDBRANCH   1  25
TORSDOF 16
ENDMDL
