MODEL 1
REMARK VINA RESULT:     -10.2      0.000      0.000
REMARK SMILES C[C@H]1CC[C@](C#N)([C@H](O)C(=O)NCCCNC(=O)c2ccc(-c3c4nc(c(-c5ccc(S(=O)(=O)[O-])cc5)c5ccc([nH]5)c(-c5ccc(S(=O)(=O)[O-])cc5)c5nc(c(-c6ccc(S(=O)(=O)[O-])cc6)c6ccc3[nH]6)C=C5)C=C4)cc2)C1
REMARK SMILES IDX 14 1 13 2 12 3 10 4 11 5 8 7 5 8 1 9 2 10 3 11 79 12 4 13
REMARK SMILES IDX 6 14 7 15 9 16 15 18 16 19 17 20 18 22 19 23 20 24 78 25
REMARK SMILES IDX 21 26 77 27 22 28 23 29 24 30 71 31 25 32 76 33 70 34 72 35
REMARK SMILES IDX 26 36 75 37 69 38 68 39 27 41 57 42 38 43 56 44 39 45 42 46
REMARK SMILES IDX 55 47 73 48 40 49 41 50 54 52 74 53 43 54 28 55 29 56 37 57
REMARK SMILES IDX 30 58 36 59 31 60 32 61 33 62 34 63 35 64 58 65 59 66 67 67
REMARK SMILES IDX 60 68 66 69 61 70 62 71 63 72 64 73 65 74 44 75 45 76 53 77
REMARK SMILES IDX 46 78 52 79 47 80 48 81 49 82 50 83 51 84
REMARK H PARENT 12 6 9 17 16 21 72 40 42 51
REMARK Flexibility Score: inf
ROOT
ATOM      1  C   UNL A   1      33.632  28.075  25.894  1.00  0.00     0.042 C 
ENDROOT
BRANCH   1   2
ATOM      2  C   UNL A   1      33.185  29.113  24.891  1.00  0.00     0.117 C 
BRANCH   2   3
ATOM      3  N   UNL A   1      33.847  28.982  23.603  1.00  0.00    -0.354 N 
ATOM      4  C   UNL A   1      33.516  28.210  22.529  1.00  0.00     0.250 C 
ATOM      5  O   UNL A   1      34.225  28.284  21.523  1.00  0.00    -0.272 OA
ATOM      6  H   UNL A   1      34.654  29.533  23.490  1.00  0.00     0.163 HD
BRANCH   4   7
ATOM      7  C   UNL A   1      32.254  27.319  22.544  1.00  0.00     0.223 C 
BRANCH   7   8
ATOM      8  C   UNL A   1      32.600  25.800  22.516  1.00  0.00     0.092 C 
ATOM      9  C   UNL A   1      32.361  22.525  22.440  1.00  0.00     0.008 C 
ATOM     10  C   UNL A   1      32.248  23.580  23.530  1.00  0.00    -0.013 C 
ATOM     11  C   UNL A   1      33.601  24.085  24.022  1.00  0.00     0.005 C 
ATOM     12  C   UNL A   1      31.529  24.851  23.087  1.00  0.00     0.029 C 
ATOM     13  C   UNL A   1      33.841  25.458  23.380  1.00  0.00     0.026 C 
BRANCH   8  14
ATOM     14  C   UNL A   1      32.870  25.444  21.101  1.00  0.00     0.072 C 
ATOM     15  N   UNL A   1      33.079  25.140  19.999  1.00  0.00    -0.198 NA
ENDBRANCH   8  14
ENDBRANCH   7   8
BRANCH   7  16
ATOM     16  O   UNL A   1      31.287  27.676  21.559  1.00  0.00    -0.382 OA
ATOM     17  H   UNL A   1      30.693  26.925  21.403  1.00  0.00     0.211 HD
ENDBRANCH   7  16
ENDBRANCH   4   7
ENDBRANCH   2   3
ENDBRANCH   1   2
BRANCH   1  18
ATOM     18  C   UNL A   1      33.308  28.461  27.325  1.00  0.00     0.118 C 
BRANCH  18  19
ATOM     19  N   UNL A   1      33.322  29.906  27.538  1.00  0.00    -0.352 N 
ATOM     20  C   UNL A   1      34.295  30.710  28.081  1.00  0.00     0.251 C 
ATOM     21  H   UNL A   1      32.508  30.378  27.248  1.00  0.00     0.163 HD
ATOM     22  O   UNL A   1      34.037  31.875  28.366  1.00  0.00    -0.269 OA
BRANCH  20  23
ATOM     23  C   UNL A   1      35.639  30.155  28.341  1.00  0.00     0.039 A 
ATOM     24  C   UNL A   1      36.601  30.192  27.331  1.00  0.00     0.014 A 
ATOM     25  C   UNL A   1      35.954  29.630  29.595  1.00  0.00     0.014 A 
ATOM     26  C   UNL A   1      37.906  29.783  27.614  1.00  0.00     0.010 A 
ATOM     27  C   UNL A   1      37.275  29.344  29.910  1.00  0.00     0.010 A 
ATOM     28  C   UNL A   1      38.264  29.408  28.920  1.00  0.00    -0.014 A 
BRANCH  28  29
ATOM     29  C   UNL A   1      39.667  29.081  29.276  1.00  0.00     0.031 A 
ATOM     30  C   UNL A   1      40.533  30.112  29.948  1.00  0.00     0.074 A 
ATOM     31  C   UNL A   1      40.179  27.882  28.933  1.00  0.00     0.049 A 
ATOM     32  N   UNL A   1      41.793  30.033  30.287  1.00  0.00    -0.248 NA
ATOM     33  C   UNL A   1      39.912  31.412  30.256  1.00  0.00     0.031 C 
ATOM     34  C   UNL A   1      39.450  26.815  28.240  1.00  0.00     0.029 A 
ATOM     35  N   UNL A   1      41.432  27.356  29.121  1.00  0.00    -0.354 N 
ATOM     36  C   UNL A   1      42.115  31.269  30.836  1.00  0.00     0.074 A 
ATOM     37  C   UNL A   1      40.941  32.103  30.723  1.00  0.00     0.031 C 
ATOM     38  C   UNL A   1      40.255  25.751  28.101  1.00  0.00     0.029 A 
ATOM     39  C   UNL A   1      41.572  26.075  28.640  1.00  0.00     0.049 A 
ATOM     40  H   UNL A   1      42.162  27.849  29.560  1.00  0.00     0.167 HD
ATOM     41  C   UNL A   1      43.277  31.666  31.404  1.00  0.00     0.031 A 
ATOM     42  C   UNL A   1      42.642  25.256  28.623  1.00  0.00     0.031 A 
ATOM     43  C   UNL A   1      44.444  30.832  31.512  1.00  0.00     0.049 A 
ATOM     44  C   UNL A   1      43.934  25.737  29.224  1.00  0.00     0.074 A 
ATOM     45  C   UNL A   1      45.656  31.122  32.110  1.00  0.00     0.029 A 
ATOM     46  N   UNL A   1      44.549  29.546  31.001  1.00  0.00    -0.354 N 
ATOM     47  N   UNL A   1      44.199  26.885  29.802  1.00  0.00    -0.248 NA
ATOM     48  C   UNL A   1      45.071  24.809  29.178  1.00  0.00     0.031 C 
ATOM     49  C   UNL A   1      46.519  30.043  31.897  1.00  0.00     0.029 A 
ATOM     50  C   UNL A   1      45.817  29.045  31.238  1.00  0.00     0.049 A 
ATOM     51  H   UNL A   1      43.829  29.062  30.536  1.00  0.00     0.167 HD
ATOM     52  C   UNL A   1      45.523  26.803  30.218  1.00  0.00     0.074 A 
ATOM     53  C   UNL A   1      45.998  25.488  29.841  1.00  0.00     0.031 C 
ATOM     54  C   UNL A   1      46.278  27.733  30.855  1.00  0.00     0.031 A 
BRANCH  41  55
ATOM     55  C   UNL A   1      43.346  33.072  31.946  1.00  0.00    -0.014 A 
ATOM     56  C   UNL A   1      43.001  33.359  33.280  1.00  0.00     0.010 A 
ATOM     57  C   UNL A   1      43.805  34.116  31.122  1.00  0.00     0.010 A 
ATOM     58  C   UNL A   1      43.074  34.666  33.767  1.00  0.00     0.020 A 
ATOM     59  C   UNL A   1      43.916  35.419  31.616  1.00  0.00     0.020 A 
ATOM     60  C   UNL A   1      43.533  35.688  32.932  1.00  0.00     0.054 A 
BRANCH  60  61
ATOM     61  S   UNL A   1      43.649  37.369  33.603  1.00  0.00     0.124 S 
ATOM     62  O   UNL A   1      42.369  37.506  34.292  1.00  0.00    -0.237 OA
ATOM     63  O   UNL A   1      44.822  37.284  34.468  1.00  0.00    -0.237 OA
ATOM     64  O   UNL A   1      43.809  38.207  32.417  1.00  0.00    -0.744 OA
ENDBRANCH  60  61
ENDBRANCH  41  55
BRANCH  42  65
ATOM     65  C   UNL A   1      42.533  23.897  28.022  1.00  0.00    -0.014 A 
ATOM     66  C   UNL A   1      42.037  22.818  28.776  1.00  0.00     0.010 A 
ATOM     67  C   UNL A   1      42.920  23.675  26.688  1.00  0.00     0.010 A 
ATOM     68  C   UNL A   1      41.950  21.541  28.214  1.00  0.00     0.020 A 
ATOM     69  C   UNL A   1      42.800  22.407  26.111  1.00  0.00     0.020 A 
ATOM     70  C   UNL A   1      42.328  21.345  26.883  1.00  0.00     0.054 A 
BRANCH  70  71
ATOM     71  S   UNL A   1      42.160  19.689  26.162  1.00  0.00     0.124 S 
ATOM     72  O   UNL A   1      43.090  19.750  25.040  1.00  0.00    -0.237 OA
ATOM     73  O   UNL A   1      42.559  18.825  27.270  1.00  0.00    -0.237 OA
ATOM     74  O   UNL A   1      40.746  19.614  25.801  1.00  0.00    -0.744 OA
ENDBRANCH  70  71
ENDBRANCH  42  65
BRANCH  54  75
ATOM     75  C   UNL A   1      47.688  27.351  31.223  1.00  0.00    -0.014 A 
ATOM     76  C   UNL A   1      48.776  27.670  30.392  1.00  0.00     0.010 A 
ATOM     77  C   UNL A   1      47.932  26.713  32.455  1.00  0.00     0.010 A 
ATOM     78  C   UNL A   1      50.078  27.328  30.770  1.00  0.00     0.020 A 
ATOM     79  C   UNL A   1      49.234  26.403  32.853  1.00  0.00     0.020 A 
ATOM     80  C   UNL A   1      50.298  26.700  32.000  1.00  0.00     0.054 A 
BRANCH  80  81
ATOM     81  S   UNL A   1      52.002  26.314  32.488  1.00  0.00     0.124 S 
ATOM     82  O   UNL A   1      52.519  25.657  31.291  1.00  0.00    -0.237 OA
ATOM     83  O   UNL A   1      52.559  27.636  32.768  1.00  0.00    -0.237 OA
ATOM     84  O   UNL A   1      51.843  25.450  33.654  1.00  0.00    -0.744 OA
ENDBRANCH  80  81
ENDBRANCH  54  75
ENDBRANCH  28  29
ENDBRANCH  20  23
ENDBRANCH  18  19
ENDBRANCH   1  18
TORSDOF 16
ENDMDL
MODEL 2
REMARK VINA RESULT:     -10.1      3.995     10.662
REMARK SMILES C[C@H]1CC[C@](C#N)([C@H](O)C(=O)NCCCNC(=O)c2ccc(-c3c4nc(c(-c5ccc(S(=O)(=O)[O-])cc5)c5ccc([nH]5)c(-c5ccc(S(=O)(=O)[O-])cc5)c5nc(c(-c6ccc(S(=O)(=O)[O-])cc6)c6ccc3[nH]6)C=C5)C=C4)cc2)C1
REMARK SMILES IDX 14 1 13 2 12 3 10 4 11 5 8 7 5 8 1 9 2 10 3 11 79 12 4 13
REMARK SMILES IDX 6 14 7 15 9 16 15 18 16 19 17 20 18 22 19 23 20 24 78 25
REMARK SMILES IDX 21 26 77 27 22 28 23 29 24 30 71 31 25 32 76 33 70 34 72 35
REMARK SMILES IDX 26 36 75 37 69 38 68 39 27 41 57 42 38 43 56 44 39 45 42 46
REMARK SMILES IDX 55 47 73 48 40 49 41 50 54 52 74 53 43 54 28 55 29 56 37 57
REMARK SMILES IDX 30 58 36 59 31 60 32 61 33 62 34 63 35 64 58 65 59 66 67 67
REMARK SMILES IDX 60 68 66 69 61 70 62 71 63 72 64 73 65 74 44 75 45 76 53 77
REMARK SMILES IDX 46 78 52 79 47 80 48 81 49 82 50 83 51 84
REMARK H PARENT 12 6 9 17 16 21 72 40 42 51
REMARK Flexibility Score: inf
ROOT
ATOM      1  C   UNL A   1      40.703  20.531  26.615  1.00  0.00     0.042 C 
ENDROOT
BRANCH   1   2
ATOM      2  C   UNL A   1      42.124  20.021  26.677  1.00  0.00     0.117 C 
BRANCH   2   3
ATOM      3  N   UNL A   1      42.745  19.904  25.368  1.00  0.00    -0.354 N 
ATOM      4  C   UNL A   1      43.953  20.362  24.934  1.00  0.00     0.250 C 
ATOM      5  O   UNL A   1      44.280  20.118  23.770  1.00  0.00    -0.272 OA
ATOM      6  H   UNL A   1      42.213  19.422  24.694  1.00  0.00     0.163 HD
BRANCH   4   7
ATOM      7  C   UNL A   1      44.915  21.105  25.888  1.00  0.00     0.223 C 
BRANCH   7   8
ATOM      8  C   UNL A   1      44.727  22.651  25.834  1.00  0.00     0.092 C 
ATOM      9  C   UNL A   1      44.273  25.791  26.683  1.00  0.00     0.008 C 
ATOM     10  C   UNL A   1      43.357  24.591  26.496  1.00  0.00    -0.013 C 
ATOM     11  C   UNL A   1      43.038  24.299  25.033  1.00  0.00     0.005 C 
ATOM     12  C   UNL A   1      43.946  23.278  27.004  1.00  0.00     0.029 C 
ATOM     13  C   UNL A   1      43.902  23.106  24.603  1.00  0.00     0.026 C 
BRANCH   8  14
ATOM     14  C   UNL A   1      46.083  23.249  25.768  1.00  0.00     0.072 C 
ATOM     15  N   UNL A   1      47.148  23.709  25.691  1.00  0.00    -0.198 NA
ENDBRANCH   8  14
ENDBRANCH   7   8
BRANCH   7  16
ATOM     16  O   UNL A   1      46.280  20.717  25.744  1.00  0.00    -0.382 OA
ATOM     17  H   UNL A   1      46.810  21.489  25.490  1.00  0.00     0.211 HD
ENDBRANCH   7  16
ENDBRANCH   4   7
ENDBRANCH   2   3
ENDBRANCH   1   2
BRANCH   1  18
ATOM     18  C   UNL A   1      40.614  21.976  26.159  1.00  0.00     0.118 C 
BRANCH  18  19
ATOM     19  N   UNL A   1      39.256  22.373  25.798  1.00  0.00    -0.352 N 
ATOM     20  C   UNL A   1      38.517  23.460  26.198  1.00  0.00     0.251 C 
ATOM     21  H   UNL A   1      38.798  21.769  25.170  1.00  0.00     0.163 HD
ATOM     22  O   UNL A   1      37.317  23.511  25.946  1.00  0.00    -0.269 OA
BRANCH  20  23
ATOM     23  C   UNL A   1      39.170  24.549  26.953  1.00  0.00     0.039 A 
ATOM     24  C   UNL A   1      39.893  25.522  26.262  1.00  0.00     0.014 A 
ATOM     25  C   UNL A   1      39.037  24.623  28.340  1.00  0.00     0.014 A 
ATOM     26  C   UNL A   1      40.405  26.618  26.959  1.00  0.00     0.010 A 
ATOM     27  C   UNL A   1      39.434  25.772  29.009  1.00  0.00     0.010 A 
ATOM     28  C   UNL A   1      40.132  26.778  28.328  1.00  0.00    -0.014 A 
BRANCH  28  29
ATOM     29  C   UNL A   1      40.563  27.989  29.069  1.00  0.00     0.031 A 
ATOM     30  C   UNL A   1      41.911  28.022  29.738  1.00  0.00     0.074 A 
ATOM     31  C   UNL A   1      39.715  29.029  29.196  1.00  0.00     0.049 A 
ATOM     32  N   UNL A   1      42.442  28.965  30.473  1.00  0.00    -0.248 NA
ATOM     33  C   UNL A   1      42.765  26.831  29.586  1.00  0.00     0.031 C 
ATOM     34  C   UNL A   1      38.365  29.097  28.629  1.00  0.00     0.029 A 
ATOM     35  N   UNL A   1      39.862  30.231  29.842  1.00  0.00    -0.354 N 
ATOM     36  C   UNL A   1      43.680  28.478  30.876  1.00  0.00     0.074 A 
ATOM     37  C   UNL A   1      43.794  27.132  30.363  1.00  0.00     0.031 C 
ATOM     38  C   UNL A   1      37.828  30.293  28.915  1.00  0.00     0.029 A 
ATOM     39  C   UNL A   1      38.766  31.054  29.733  1.00  0.00     0.049 A 
ATOM     40  H   UNL A   1      40.676  30.481  30.335  1.00  0.00     0.167 HD
ATOM     41  C   UNL A   1      44.645  29.104  31.589  1.00  0.00     0.031 A 
ATOM     42  C   UNL A   1      38.535  32.280  30.243  1.00  0.00     0.031 A 
ATOM     43  C   UNL A   1      44.524  30.444  32.099  1.00  0.00     0.049 A 
ATOM     44  C   UNL A   1      39.607  32.937  31.068  1.00  0.00     0.074 A 
ATOM     45  C   UNL A   1      45.460  31.187  32.793  1.00  0.00     0.029 A 
ATOM     46  N   UNL A   1      43.393  31.239  31.978  1.00  0.00    -0.354 N 
ATOM     47  N   UNL A   1      40.801  32.489  31.378  1.00  0.00    -0.248 NA
ATOM     48  C   UNL A   1      39.306  34.271  31.603  1.00  0.00     0.031 C 
ATOM     49  C   UNL A   1      44.872  32.401  33.157  1.00  0.00     0.029 A 
ATOM     50  C   UNL A   1      43.596  32.450  32.617  1.00  0.00     0.049 A 
ATOM     51  H   UNL A   1      42.567  30.979  31.509  1.00  0.00     0.167 HD
ATOM     52  C   UNL A   1      41.404  33.499  32.119  1.00  0.00     0.074 A 
ATOM     53  C   UNL A   1      40.452  34.587  32.192  1.00  0.00     0.031 C 
ATOM     54  C   UNL A   1      42.636  33.525  32.685  1.00  0.00     0.031 A 
BRANCH  41  55
ATOM     55  C   UNL A   1      45.916  28.340  31.867  1.00  0.00    -0.014 A 
ATOM     56  C   UNL A   1      46.047  27.535  33.014  1.00  0.00     0.010 A 
ATOM     57  C   UNL A   1      46.978  28.394  30.946  1.00  0.00     0.010 A 
ATOM     58  C   UNL A   1      47.230  26.831  33.254  1.00  0.00     0.020 A 
ATOM     59  C   UNL A   1      48.148  27.662  31.164  1.00  0.00     0.020 A 
ATOM     60  C   UNL A   1      48.273  26.897  32.326  1.00  0.00     0.054 A 
BRANCH  60  61
ATOM     61  S   UNL A   1      49.782  25.946  32.650  1.00  0.00     0.124 S 
ATOM     62  O   UNL A   1      50.576  26.896  33.425  1.00  0.00    -0.237 OA
ATOM     63  O   UNL A   1      49.278  24.795  33.393  1.00  0.00    -0.237 OA
ATOM     64  O   UNL A   1      50.299  25.648  31.316  1.00  0.00    -0.744 OA
ENDBRANCH  60  61
ENDBRANCH  41  55
BRANCH  42  65
ATOM     65  C   UNL A   1      37.237  32.965  29.983  1.00  0.00    -0.014 A 
ATOM     66  C   UNL A   1      36.954  33.506  28.716  1.00  0.00     0.010 A 
ATOM     67  C   UNL A   1      36.273  33.075  31.002  1.00  0.00     0.010 A 
ATOM     68  C   UNL A   1      35.742  34.161  28.480  1.00  0.00     0.020 A 
ATOM     69  C   UNL A   1      35.046  33.697  30.759  1.00  0.00     0.020 A 
ATOM     70  C   UNL A   1      34.793  34.249  29.502  1.00  0.00     0.054 A 
BRANCH  70  71
ATOM     71  S   UNL A   1      33.209  35.061  29.156  1.00  0.00     0.124 S 
ATOM     72  O   UNL A   1      33.636  36.376  28.691  1.00  0.00    -0.237 OA
ATOM     73  O   UNL A   1      32.626  34.187  28.142  1.00  0.00    -0.237 OA
ATOM     74  O   UNL A   1      32.527  35.045  30.449  1.00  0.00    -0.744 OA
ENDBRANCH  70  71
ENDBRANCH  42  65
BRANCH  54  75
ATOM     75  C   UNL A   1      43.046  34.783  33.404  1.00  0.00    -0.014 A 
ATOM     76  C   UNL A   1      42.892  34.918  34.795  1.00  0.00     0.010 A 
ATOM     77  C   UNL A   1      43.652  35.827  32.679  1.00  0.00     0.010 A 
ATOM     78  C   UNL A   1      43.305  36.086  35.442  1.00  0.00     0.020 A 
ATOM     79  C   UNL A   1      44.100  36.980  33.326  1.00  0.00     0.020 A 
ATOM     80  C   UNL A   1      43.910  37.108  34.703  1.00  0.00     0.054 A 
BRANCH  80  81
ATOM     81  S   UNL A   1      44.483  38.591  35.576  1.00  0.00     0.124 S 
ATOM     82  O   UNL A   1      45.934  38.471  35.462  1.00  0.00    -0.237 OA
ATOM     83  O   UNL A   1      43.879  39.671  34.798  1.00  0.00    -0.237 OA
ATOM     84  O   UNL A   1      43.949  38.428  36.926  1.00  0.00    -0.744 OA
ENDBRANCH  80  81
ENDBRANCH  54  75
ENDBRANCH  28  29
ENDBRANCH  20  23
ENDBRANCH  18  19
ENDBRANCH   1  18
TORSDOF 16
ENDMDL
MODEL 3
REMARK VINA RESULT:      -9.6      2.775      9.187
REMARK SMILES C[C@H]1CC[C@](C#N)([C@H](O)C(=O)NCCCNC(=O)c2ccc(-c3c4nc(c(-c5ccc(S(=O)(=O)[O-])cc5)c5ccc([nH]5)c(-c5ccc(S(=O)(=O)[O-])cc5)c5nc(c(-c6ccc(S(=O)(=O)[O-])cc6)c6ccc3[nH]6)C=C5)C=C4)cc2)C1
REMARK SMILES IDX 14 1 13 2 12 3 10 4 11 5 8 7 5 8 1 9 2 10 3 11 79 12 4 13
REMARK SMILES IDX 6 14 7 15 9 16 15 18 16 19 17 20 18 22 19 23 20 24 78 25
REMARK SMILES IDX 21 26 77 27 22 28 23 29 24 30 71 31 25 32 76 33 70 34 72 35
REMARK SMILES IDX 26 36 75 37 69 38 68 39 27 41 57 42 38 43 56 44 39 45 42 46
REMARK SMILES IDX 55 47 73 48 40 49 41 50 54 52 74 53 43 54 28 55 29 56 37 57
REMARK SMILES IDX 30 58 36 59 31 60 32 61 33 62 34 63 35 64 58 65 59 66 67 67
REMARK SMILES IDX 60 68 66 69 61 70 62 71 63 72 64 73 65 74 44 75 45 76 53 77
REMARK SMILES IDX 46 78 52 79 47 80 48 81 49 82 50 83 51 84
REMARK H PARENT 12 6 9 17 16 21 72 40 42 51
REMARK Flexibility Score: inf
ROOT
ATOM      1  C   UNL A   1      35.864  23.837  26.078  1.00  0.00     0.042 C 
ENDROOT
BRANCH   1   2
ATOM      2  C   UNL A   1      34.524  23.334  25.594  1.00  0.00     0.117 C 
BRANCH   2   3
ATOM      3  N   UNL A   1      33.439  23.626  26.515  1.00  0.00    -0.354 N 
ATOM      4  C   UNL A   1      32.178  24.078  26.259  1.00  0.00     0.250 C 
ATOM      5  O   UNL A   1      31.414  24.232  27.214  1.00  0.00    -0.272 OA
ATOM      6  H   UNL A   1      33.644  23.475  27.466  1.00  0.00     0.163 HD
BRANCH   4   7
ATOM      7  C   UNL A   1      31.697  24.327  24.812  1.00  0.00     0.223 C 
BRANCH   7   8
ATOM      8  C   UNL A   1      32.005  25.775  24.325  1.00  0.00     0.092 C 
ATOM      9  C   UNL A   1      33.274  28.792  24.046  1.00  0.00     0.008 C 
ATOM     10  C   UNL A   1      32.203  28.159  24.921  1.00  0.00    -0.013 C 
ATOM     11  C   UNL A   1      30.866  27.987  24.207  1.00  0.00     0.005 C 
ATOM     12  C   UNL A   1      32.543  26.747  25.391  1.00  0.00     0.029 C 
ATOM     13  C   UNL A   1      30.741  26.510  23.811  1.00  0.00     0.026 C 
BRANCH   8  14
ATOM     14  C   UNL A   1      32.991  25.658  23.222  1.00  0.00     0.072 C 
ATOM     15  N   UNL A   1      33.755  25.590  22.348  1.00  0.00    -0.198 NA
ENDBRANCH   8  14
ENDBRANCH   7   8
BRANCH   7  16
ATOM     16  O   UNL A   1      30.340  23.954  24.586  1.00  0.00    -0.382 OA
ATOM     17  H   UNL A   1      30.170  23.089  24.991  1.00  0.00     0.211 HD
ENDBRANCH   7  16
ENDBRANCH   4   7
ENDBRANCH   2   3
ENDBRANCH   1   2
BRANCH   1  18
ATOM     18  C   UNL A   1      36.967  23.659  25.051  1.00  0.00     0.118 C 
BRANCH  18  19
ATOM     19  N   UNL A   1      37.994  22.714  25.482  1.00  0.00    -0.352 N 
ATOM     20  C   UNL A   1      39.164  22.932  26.170  1.00  0.00     0.251 C 
ATOM     21  H   UNL A   1      37.823  21.775  25.242  1.00  0.00     0.163 HD
ATOM     22  O   UNL A   1      39.998  22.037  26.258  1.00  0.00    -0.269 OA
BRANCH  20  23
ATOM     23  C   UNL A   1      39.416  24.255  26.778  1.00  0.00     0.039 A 
ATOM     24  C   UNL A   1      39.001  24.496  28.088  1.00  0.00     0.014 A 
ATOM     25  C   UNL A   1      40.095  25.241  26.061  1.00  0.00     0.014 A 
ATOM     26  C   UNL A   1      39.349  25.699  28.705  1.00  0.00     0.010 A 
ATOM     27  C   UNL A   1      40.547  26.378  26.714  1.00  0.00     0.010 A 
ATOM     28  C   UNL A   1      40.171  26.625  28.041  1.00  0.00    -0.014 A 
BRANCH  28  29
ATOM     29  C   UNL A   1      40.653  27.857  28.713  1.00  0.00     0.031 A 
ATOM     30  C   UNL A   1      42.052  27.915  29.266  1.00  0.00     0.074 A 
ATOM     31  C   UNL A   1      39.810  28.895  28.886  1.00  0.00     0.049 A 
ATOM     32  N   UNL A   1      42.634  28.879  29.930  1.00  0.00    -0.248 NA
ATOM     33  C   UNL A   1      42.900  26.726  29.071  1.00  0.00     0.031 C 
ATOM     34  C   UNL A   1      38.417  28.940  28.433  1.00  0.00     0.029 A 
ATOM     35  N   UNL A   1      40.001  30.113  29.488  1.00  0.00    -0.354 N 
ATOM     36  C   UNL A   1      43.906  28.410  30.239  1.00  0.00     0.074 A 
ATOM     37  C   UNL A   1      43.988  27.052  29.751  1.00  0.00     0.031 C 
ATOM     38  C   UNL A   1      37.895  30.139  28.735  1.00  0.00     0.029 A 
ATOM     39  C   UNL A   1      38.892  30.926  29.452  1.00  0.00     0.049 A 
ATOM     40  H   UNL A   1      40.851  30.380  29.905  1.00  0.00     0.167 HD
ATOM     41  C   UNL A   1      44.922  29.059  30.853  1.00  0.00     0.031 A 
ATOM     42  C   UNL A   1      38.694  32.163  29.951  1.00  0.00     0.031 A 
ATOM     43  C   UNL A   1      44.833  30.410  31.339  1.00  0.00     0.049 A 
ATOM     44  C   UNL A   1      39.827  32.847  30.666  1.00  0.00     0.074 A 
ATOM     45  C   UNL A   1      45.819  31.176  31.934  1.00  0.00     0.029 A 
ATOM     46  N   UNL A   1      43.689  31.195  31.295  1.00  0.00    -0.354 N 
ATOM     47  N   UNL A   1      41.046  32.414  30.886  1.00  0.00    -0.248 NA
ATOM     48  C   UNL A   1      39.561  34.191  31.193  1.00  0.00     0.031 C 
ATOM     49  C   UNL A   1      45.252  32.396  32.317  1.00  0.00     0.029 A 
ATOM     50  C   UNL A   1      43.935  32.423  31.885  1.00  0.00     0.049 A 
ATOM     51  H   UNL A   1      42.829  30.919  30.903  1.00  0.00     0.167 HD
ATOM     52  C   UNL A   1      41.701  33.446  31.548  1.00  0.00     0.074 A 
ATOM     53  C   UNL A   1      40.749  34.529  31.676  1.00  0.00     0.031 C 
ATOM     54  C   UNL A   1      42.976  33.493  32.008  1.00  0.00     0.031 A 
BRANCH  41  55
ATOM     55  C   UNL A   1      46.218  28.311  31.042  1.00  0.00    -0.014 A 
ATOM     56  C   UNL A   1      47.247  28.378  30.085  1.00  0.00     0.010 A 
ATOM     57  C   UNL A   1      46.427  27.565  32.216  1.00  0.00     0.010 A 
ATOM     58  C   UNL A   1      48.443  27.682  30.278  1.00  0.00     0.020 A 
ATOM     59  C   UNL A   1      47.636  26.896  32.431  1.00  0.00     0.020 A 
ATOM     60  C   UNL A   1      48.630  26.946  31.452  1.00  0.00     0.054 A 
BRANCH  60  61
ATOM     61  S   UNL A   1      50.206  26.081  31.689  1.00  0.00     0.124 S 
ATOM     62  O   UNL A   1      49.767  24.811  32.264  1.00  0.00    -0.237 OA
ATOM     63  O   UNL A   1      50.734  26.006  30.330  1.00  0.00    -0.237 OA
ATOM     64  O   UNL A   1      50.948  26.950  32.598  1.00  0.00    -0.744 OA
ENDBRANCH  60  61
ENDBRANCH  41  55
BRANCH  42  65
ATOM     65  C   UNL A   1      37.374  32.833  29.784  1.00  0.00    -0.014 A 
ATOM     66  C   UNL A   1      36.424  32.812  30.821  1.00  0.00     0.010 A 
ATOM     67  C   UNL A   1      37.060  33.501  28.587  1.00  0.00     0.010 A 
ATOM     68  C   UNL A   1      35.180  33.428  30.656  1.00  0.00     0.020 A 
ATOM     69  C   UNL A   1      35.832  34.150  28.432  1.00  0.00     0.020 A 
ATOM     70  C   UNL A   1      34.894  34.098  29.464  1.00  0.00     0.054 A 
BRANCH  70  71
ATOM     71  S   UNL A   1      33.292  34.932  29.292  1.00  0.00     0.124 S 
ATOM     72  O   UNL A   1      32.622  34.101  28.297  1.00  0.00    -0.237 OA
ATOM     73  O   UNL A   1      32.755  34.855  30.648  1.00  0.00    -0.237 OA
ATOM     74  O   UNL A   1      33.652  36.276  28.847  1.00  0.00    -0.744 OA
ENDBRANCH  70  71
ENDBRANCH  42  65
BRANCH  54  75
ATOM     75  C   UNL A   1      43.434  34.772  32.660  1.00  0.00    -0.014 A 
ATOM     76  C   UNL A   1      43.332  34.966  34.048  1.00  0.00     0.010 A 
ATOM     77  C   UNL A   1      44.033  35.773  31.871  1.00  0.00     0.010 A 
ATOM     78  C   UNL A   1      43.789  36.151  34.632  1.00  0.00     0.020 A 
ATOM     79  C   UNL A   1      44.525  36.942  32.455  1.00  0.00     0.020 A 
ATOM     80  C   UNL A   1      44.387  37.130  33.830  1.00  0.00     0.054 A 
BRANCH  80  81
ATOM     81  S   UNL A   1      45.017  38.635  34.621  1.00  0.00     0.124 S 
ATOM     82  O   UNL A   1      45.529  38.122  35.889  1.00  0.00    -0.237 OA
ATOM     83  O   UNL A   1      46.031  39.091  33.673  1.00  0.00    -0.237 OA
ATOM     84  O   UNL A   1      43.839  39.493  34.726  1.00  0.00    -0.744 OA
ENDBRANCH  80  81
ENDBRANCH  54  75
ENDBRANCH  28  29
ENDBRANCH  20  23
ENDBRANCH  18  19
ENDBRANCH   1  18
TORSDOF 16
ENDMDL
