MODEL 1
REMARK VINA RESULT:      -9.7      0.000      0.000
REMARK SMILES O=C(NCCCNC(=O)[C@@H]1C=C[C@H](NC(=O)c2ccc(Br)cc2)C1)c1ccc(-c2c3nc(c(-c4ccc(S(=O)(=O)[O-])cc4)c4ccc([nH]4)c(-c4ccc(S(=O)(=O)[O-])cc4)c4nc(c(-c5ccc(S(=O)(=O)[O-])cc5)c5ccc2[nH]5)C=C4)C=C3)cc1
REMARK SMILES IDX 4 1 3 2 1 3 2 4 25 6 26 7 84 8 27 9 83 10 28 11 29 12 30 13
REMARK SMILES IDX 77 14 31 15 82 16 76 17 78 18 32 19 81 20 75 21 74 22 33 24
REMARK SMILES IDX 63 25 44 26 62 27 45 28 48 29 61 30 79 31 46 32 47 33 60 35
REMARK SMILES IDX 80 36 49 37 34 38 35 39 43 40 36 41 42 42 37 43 38 44 39 45
REMARK SMILES IDX 40 46 41 47 64 48 65 49 73 50 66 51 72 52 67 53 68 54 69 55
REMARK SMILES IDX 70 56 71 57 50 58 51 59 59 60 52 61 58 62 53 63 54 64 55 65
REMARK SMILES IDX 56 66 57 67 5 68 6 69 7 70 8 71 9 73 10 74 11 75 24 76 12 77
REMARK SMILES IDX 13 78 14 79 15 80 16 82 17 83 18 84 23 85 19 86 22 87 20 88
REMARK SMILES IDX 21 89
REMARK H PARENT 3 5 78 23 48 34 7 72 14 81
REMARK Flexibility Score: inf
ROOT
ATOM      1  C   UNL A   1      34.356  32.579  28.057  1.00  0.00     0.118 C 
ENDROOT
BRANCH   1   2
ATOM      2  N   UNL A   1      33.748  31.268  27.881  1.00  0.00    -0.352 N 
ATOM      3  O   UNL A   1      33.585  29.046  27.594  1.00  0.00    -0.269 OA
ATOM      4  C   UNL A   1      34.295  30.003  27.879  1.00  0.00     0.251 C 
ATOM      5  H   UNL A   1      32.774  31.289  27.737  1.00  0.00     0.163 HD
BRANCH   4   6
ATOM      6  C   UNL A   1      35.734  29.790  28.171  1.00  0.00     0.039 A 
ATOM      7  C   UNL A   1      36.714  30.063  27.223  1.00  0.00     0.014 A 
ATOM      8  C   UNL A   1      36.117  29.336  29.439  1.00  0.00     0.014 A 
ATOM      9  C   UNL A   1      38.028  29.677  27.448  1.00  0.00     0.010 A 
ATOM     10  C   UNL A   1      37.468  29.083  29.717  1.00  0.00     0.010 A 
ATOM     11  C   UNL A   1      38.433  29.212  28.709  1.00  0.00    -0.014 A 
BRANCH  11  12
ATOM     12  C   UNL A   1      39.880  28.957  28.942  1.00  0.00     0.031 A 
ATOM     13  C   UNL A   1      40.759  29.965  29.634  1.00  0.00     0.074 A 
ATOM     14  C   UNL A   1      40.384  27.758  28.581  1.00  0.00     0.049 A 
ATOM     15  N   UNL A   1      42.021  29.859  29.965  1.00  0.00    -0.248 NA
ATOM     16  C   UNL A   1      40.156  31.259  29.993  1.00  0.00     0.031 C 
ATOM     17  C   UNL A   1      39.633  26.703  27.890  1.00  0.00     0.029 A 
ATOM     18  N   UNL A   1      41.621  27.203  28.778  1.00  0.00    -0.354 N 
ATOM     19  C   UNL A   1      42.371  31.072  30.546  1.00  0.00     0.074 A 
ATOM     20  C   UNL A   1      41.191  31.910  30.507  1.00  0.00     0.031 C 
ATOM     21  C   UNL A   1      40.396  25.605  27.800  1.00  0.00     0.029 A 
ATOM     22  C   UNL A   1      41.713  25.900  28.346  1.00  0.00     0.049 A 
ATOM     23  H   UNL A   1      42.371  27.689  29.189  1.00  0.00     0.167 HD
ATOM     24  C   UNL A   1      43.564  31.451  31.066  1.00  0.00     0.031 A 
ATOM     25  C   UNL A   1      42.744  25.036  28.369  1.00  0.00     0.031 A 
ATOM     26  C   UNL A   1      44.732  30.610  31.111  1.00  0.00     0.049 A 
ATOM     27  C   UNL A   1      44.053  25.486  28.944  1.00  0.00     0.074 A 
ATOM     28  C   UNL A   1      45.981  30.899  31.632  1.00  0.00     0.029 A 
ATOM     29  N   UNL A   1      44.797  29.314  30.620  1.00  0.00    -0.354 N 
ATOM     30  N   UNL A   1      44.354  26.637  29.496  1.00  0.00    -0.248 NA
ATOM     31  C   UNL A   1      45.162  24.526  28.892  1.00  0.00     0.031 C 
ATOM     32  C   UNL A   1      46.814  29.795  31.420  1.00  0.00     0.029 A 
ATOM     33  C   UNL A   1      46.068  28.798  30.810  1.00  0.00     0.049 A 
ATOM     34  H   UNL A   1      44.049  28.832  30.199  1.00  0.00     0.167 HD
ATOM     35  C   UNL A   1      45.691  26.540  29.856  1.00  0.00     0.074 A 
ATOM     36  C   UNL A   1      46.128  25.207  29.492  1.00  0.00     0.031 C 
ATOM     37  C   UNL A   1      46.489  27.475  30.427  1.00  0.00     0.031 A 
BRANCH  24  38
ATOM     38  C   UNL A   1      43.681  32.850  31.613  1.00  0.00    -0.014 A 
ATOM     39  C   UNL A   1      44.000  33.934  30.775  1.00  0.00     0.010 A 
ATOM     40  C   UNL A   1      43.401  33.094  32.970  1.00  0.00     0.010 A 
ATOM     41  C   UNL A   1      44.060  35.232  31.290  1.00  0.00     0.020 A 
ATOM     42  C   UNL A   1      43.440  34.393  33.485  1.00  0.00     0.020 A 
ATOM     43  C   UNL A   1      43.782  35.454  32.644  1.00  0.00     0.054 A 
BRANCH  43  44
ATOM     44  S   UNL A   1      43.834  37.153  33.277  1.00  0.00     0.124 S 
ATOM     45  O   UNL A   1      43.782  37.934  32.044  1.00  0.00    -0.237 OA
ATOM     46  O   UNL A   1      42.638  37.221  34.113  1.00  0.00    -0.237 OA
ATOM     47  O   UNL A   1      45.102  37.215  34.001  1.00  0.00    -0.744 OA
ENDBRANCH  43  44
ENDBRANCH  24  38
BRANCH  25  48
ATOM     48  C   UNL A   1      42.580  23.672  27.796  1.00  0.00    -0.014 A 
ATOM     49  C   UNL A   1      43.029  23.378  26.498  1.00  0.00     0.010 A 
ATOM     50  C   UNL A   1      41.988  22.653  28.565  1.00  0.00     0.010 A 
ATOM     51  C   UNL A   1      42.876  22.092  25.973  1.00  0.00     0.020 A 
ATOM     52  C   UNL A   1      41.860  21.359  28.055  1.00  0.00     0.020 A 
ATOM     53  C   UNL A   1      42.292  21.090  26.756  1.00  0.00     0.054 A 
BRANCH  53  54
ATOM     54  S   UNL A   1      42.147  19.414  26.079  1.00  0.00     0.124 S 
ATOM     55  O   UNL A   1      40.716  19.321  25.807  1.00  0.00    -0.237 OA
ATOM     56  O   UNL A   1      43.014  19.467  24.904  1.00  0.00    -0.237 OA
ATOM     57  O   UNL A   1      42.636  18.568  27.165  1.00  0.00    -0.744 OA
ENDBRANCH  53  54
ENDBRANCH  25  48
BRANCH  37  58
ATOM     58  C   UNL A   1      47.911  27.075  30.699  1.00  0.00    -0.014 A 
ATOM     59  C   UNL A   1      48.249  26.354  31.858  1.00  0.00     0.010 A 
ATOM     60  C   UNL A   1      48.919  27.410  29.778  1.00  0.00     0.010 A 
ATOM     61  C   UNL A   1      49.579  26.011  32.113  1.00  0.00     0.020 A 
ATOM     62  C   UNL A   1      50.246  27.046  30.015  1.00  0.00     0.020 A 
ATOM     63  C   UNL A   1      50.570  26.365  31.192  1.00  0.00     0.054 A 
BRANCH  63  64
ATOM     64  S   UNL A   1      52.288  25.893  31.531  1.00  0.00     0.124 S 
ATOM     65  O   UNL A   1      52.885  25.947  30.199  1.00  0.00    -0.237 OA
ATOM     66  O   UNL A   1      52.730  26.929  32.461  1.00  0.00    -0.237 OA
ATOM     67  O   UNL A   1      52.170  24.556  32.107  1.00  0.00    -0.744 OA
ENDBRANCH  63  64
ENDBRANCH  37  58
ENDBRANCH  11  12
ENDBRANCH   4   6
ENDBRANCH   1   2
BRANCH   1  68
ATOM     68  C   UNL A   1      33.351  33.717  28.136  1.00  0.00     0.042 C 
BRANCH  68  69
ATOM     69  C   UNL A   1      33.751  34.861  29.052  1.00  0.00     0.117 C 
BRANCH  69  70
ATOM     70  N   UNL A   1      33.744  34.524  30.466  1.00  0.00    -0.356 N 
ATOM     71  C   UNL A   1      34.753  34.272  31.343  1.00  0.00     0.227 C 
ATOM     72  H   UNL A   1      32.844  34.467  30.861  1.00  0.00     0.163 HD
ATOM     73  O   UNL A   1      34.416  34.096  32.519  1.00  0.00    -0.274 OA
BRANCH  71  74
ATOM     74  C   UNL A   1      36.210  34.096  30.886  1.00  0.00     0.103 C 
ATOM     75  C   UNL A   1      36.499  32.641  30.637  1.00  0.00    -0.016 C 
ATOM     76  C   UNL A   1      37.301  34.456  31.895  1.00  0.00     0.047 C 
ATOM     77  C   UNL A   1      37.402  32.139  31.486  1.00  0.00    -0.006 C 
ATOM     78  C   UNL A   1      37.930  33.167  32.424  1.00  0.00     0.106 C 
BRANCH  78  79
ATOM     79  N   UNL A   1      37.473  32.878  33.767  1.00  0.00    -0.346 N 
ATOM     80  C   UNL A   1      37.913  31.897  34.624  1.00  0.00     0.251 C 
ATOM     81  H   UNL A   1      36.755  33.458  34.110  1.00  0.00     0.164 HD
ATOM     82  O   UNL A   1      37.403  31.764  35.732  1.00  0.00    -0.269 OA
BRANCH  80  83
ATOM     83  C   UNL A   1      38.966  30.946  34.197  1.00  0.00     0.039 A 
ATOM     84  C   UNL A   1      38.680  29.813  33.428  1.00  0.00     0.015 A 
ATOM     85  C   UNL A   1      40.291  31.244  34.526  1.00  0.00     0.015 A 
ATOM     86  C   UNL A   1      39.701  28.930  33.068  1.00  0.00     0.016 A 
ATOM     87  C   UNL A   1      41.318  30.375  34.145  1.00  0.00     0.016 A 
ATOM     88  C   UNL A   1      41.015  29.212  33.436  1.00  0.00     0.018 A 
ATOM     89  Br  UNL A   1      42.399  28.021  32.950  1.00  0.00    -0.051 Br
ENDBRANCH  80  83
ENDBRANCH  78  79
ENDBRANCH  71  74
ENDBRANCH  69  70
ENDBRANCH  68  69
ENDBRANCH   1  68
TORSDOF 15
ENDMDL
MODEL 2
REMARK VINA RESULT:      -9.7      0.593      8.330
REMARK SMILES O=C(NCCCNC(=O)[C@@H]1C=C[C@H](NC(=O)c2ccc(Br)cc2)C1)c1ccc(-c2c3nc(c(-c4ccc(S(=O)(=O)[O-])cc4)c4ccc([nH]4)c(-c4ccc(S(=O)(=O)[O-])cc4)c4nc(c(-c5ccc(S(=O)(=O)[O-])cc5)c5ccc2[nH]5)C=C4)C=C3)cc1
REMARK SMILES IDX 4 1 3 2 1 3 2 4 25 6 26 7 84 8 27 9 83 10 28 11 29 12 30 13
REMARK SMILES IDX 77 14 31 15 82 16 76 17 78 18 32 19 81 20 75 21 74 22 33 24
REMARK SMILES IDX 63 25 44 26 62 27 45 28 48 29 61 30 79 31 46 32 47 33 60 35
REMARK SMILES IDX 80 36 49 37 34 38 35 39 43 40 36 41 42 42 37 43 38 44 39 45
REMARK SMILES IDX 40 46 41 47 64 48 65 49 73 50 66 51 72 52 67 53 68 54 69 55
REMARK SMILES IDX 70 56 71 57 50 58 51 59 59 60 52 61 58 62 53 63 54 64 55 65
REMARK SMILES IDX 56 66 57 67 5 68 6 69 7 70 8 71 9 73 10 74 11 75 24 76 12 77
REMARK SMILES IDX 13 78 14 79 15 80 16 82 17 83 18 84 23 85 19 86 22 87 20 88
REMARK SMILES IDX 21 89
REMARK H PARENT 3 5 78 23 48 34 7 72 14 81
REMARK Flexibility Score: inf
ROOT
ATOM      1  C   UNL A   1      34.346  32.600  28.160  1.00  0.00     0.118 C 
ENDROOT
BRANCH   1   2
ATOM      2  N   UNL A   1      33.730  31.301  27.929  1.00  0.00    -0.352 N 
ATOM      3  O   UNL A   1      33.554  29.092  27.563  1.00  0.00    -0.269 OA
ATOM      4  C   UNL A   1      34.267  30.032  27.892  1.00  0.00     0.251 C 
ATOM      5  H   UNL A   1      32.759  31.335  27.770  1.00  0.00     0.163 HD
BRANCH   4   6
ATOM      6  C   UNL A   1      35.699  29.797  28.200  1.00  0.00     0.039 A 
ATOM      7  C   UNL A   1      36.692  30.040  27.258  1.00  0.00     0.014 A 
ATOM      8  C   UNL A   1      36.063  29.351  29.476  1.00  0.00     0.014 A 
ATOM      9  C   UNL A   1      37.997  29.633  27.499  1.00  0.00     0.010 A 
ATOM     10  C   UNL A   1      37.406  29.077  29.770  1.00  0.00     0.010 A 
ATOM     11  C   UNL A   1      38.382  29.176  28.770  1.00  0.00    -0.014 A 
BRANCH  11  12
ATOM     12  C   UNL A   1      39.823  28.898  29.019  1.00  0.00     0.031 A 
ATOM     13  C   UNL A   1      40.457  27.594  28.616  1.00  0.00     0.074 A 
ATOM     14  C   UNL A   1      40.578  29.878  29.558  1.00  0.00     0.049 A 
ATOM     15  N   UNL A   1      41.712  27.232  28.708  1.00  0.00    -0.248 NA
ATOM     16  C   UNL A   1      39.580  26.559  28.045  1.00  0.00     0.031 C 
ATOM     17  C   UNL A   1      40.074  31.183  30.003  1.00  0.00     0.029 A 
ATOM     18  N   UNL A   1      41.928  29.957  29.782  1.00  0.00    -0.354 N 
ATOM     19  C   UNL A   1      41.773  25.927  28.234  1.00  0.00     0.074 A 
ATOM     20  C   UNL A   1      40.424  25.550  27.870  1.00  0.00     0.031 C 
ATOM     21  C   UNL A   1      41.106  31.957  30.364  1.00  0.00     0.029 A 
ATOM     22  C   UNL A   1      42.335  31.181  30.259  1.00  0.00     0.049 A 
ATOM     23  H   UNL A   1      42.546  29.209  29.618  1.00  0.00     0.167 HD
ATOM     24  C   UNL A   1      42.854  25.119  28.112  1.00  0.00     0.031 A 
ATOM     25  C   UNL A   1      43.557  31.635  30.591  1.00  0.00     0.031 A 
ATOM     26  C   UNL A   1      44.197  25.501  28.467  1.00  0.00     0.049 A 
ATOM     27  C   UNL A   1      44.732  30.715  30.452  1.00  0.00     0.074 A 
ATOM     28  C   UNL A   1      45.360  24.757  28.364  1.00  0.00     0.029 A 
ATOM     29  N   UNL A   1      44.559  26.734  28.991  1.00  0.00    -0.354 N 
ATOM     30  N   UNL A   1      44.763  29.488  29.992  1.00  0.00    -0.248 NA
ATOM     31  C   UNL A   1      46.034  31.237  30.884  1.00  0.00     0.031 C 
ATOM     32  C   UNL A   1      46.419  25.524  28.864  1.00  0.00     0.029 A 
ATOM     33  C   UNL A   1      45.923  26.765  29.232  1.00  0.00     0.049 A 
ATOM     34  H   UNL A   1      43.938  27.477  29.165  1.00  0.00     0.167 HD
ATOM     35  C   UNL A   1      46.090  29.089  30.081  1.00  0.00     0.074 A 
ATOM     36  C   UNL A   1      46.834  30.217  30.604  1.00  0.00     0.031 C 
ATOM     37  C   UNL A   1      46.642  27.891  29.768  1.00  0.00     0.031 A 
BRANCH  24  38
ATOM     38  C   UNL A   1      42.634  23.722  27.591  1.00  0.00    -0.014 A 
ATOM     39  C   UNL A   1      42.825  23.416  26.232  1.00  0.00     0.010 A 
ATOM     40  C   UNL A   1      42.297  22.689  28.484  1.00  0.00     0.010 A 
ATOM     41  C   UNL A   1      42.659  22.105  25.772  1.00  0.00     0.020 A 
ATOM     42  C   UNL A   1      42.150  21.373  28.033  1.00  0.00     0.020 A 
ATOM     43  C   UNL A   1      42.320  21.092  26.676  1.00  0.00     0.054 A 
BRANCH  43  44
ATOM     44  S   UNL A   1      42.146  19.395  26.058  1.00  0.00     0.124 S 
ATOM     45  O   UNL A   1      42.641  18.613  27.188  1.00  0.00    -0.237 OA
ATOM     46  O   UNL A   1      40.712  19.291  25.805  1.00  0.00    -0.237 OA
ATOM     47  O   UNL A   1      42.991  19.371  24.866  1.00  0.00    -0.744 OA
ENDBRANCH  43  44
ENDBRANCH  24  38
BRANCH  25  48
ATOM     48  C   UNL A   1      43.715  33.016  31.122  1.00  0.00    -0.014 A 
ATOM     49  C   UNL A   1      43.732  33.259  32.505  1.00  0.00     0.010 A 
ATOM     50  C   UNL A   1      43.873  34.097  30.234  1.00  0.00     0.010 A 
ATOM     51  C   UNL A   1      43.888  34.559  32.992  1.00  0.00     0.020 A 
ATOM     52  C   UNL A   1      44.060  35.393  30.716  1.00  0.00     0.020 A 
ATOM     53  C   UNL A   1      44.051  35.619  32.093  1.00  0.00     0.054 A 
BRANCH  53  54
ATOM     54  S   UNL A   1      44.304  37.294  32.740  1.00  0.00     0.124 S 
ATOM     55  O   UNL A   1      43.101  37.493  33.541  1.00  0.00    -0.237 OA
ATOM     56  O   UNL A   1      45.551  37.163  33.490  1.00  0.00    -0.237 OA
ATOM     57  O   UNL A   1      44.398  38.113  31.533  1.00  0.00    -0.744 OA
ENDBRANCH  53  54
ENDBRANCH  25  48
BRANCH  37  58
ATOM     58  C   UNL A   1      48.123  27.754  29.977  1.00  0.00    -0.014 A 
ATOM     59  C   UNL A   1      49.030  28.080  28.952  1.00  0.00     0.010 A 
ATOM     60  C   UNL A   1      48.616  27.310  31.216  1.00  0.00     0.010 A 
ATOM     61  C   UNL A   1      50.403  27.923  29.149  1.00  0.00     0.020 A 
ATOM     62  C   UNL A   1      49.990  27.176  31.427  1.00  0.00     0.020 A 
ATOM     63  C   UNL A   1      50.874  27.466  30.384  1.00  0.00     0.054 A 
BRANCH  63  64
ATOM     64  S   UNL A   1      52.663  27.289  30.628  1.00  0.00     0.124 S 
ATOM     65  O   UNL A   1      53.012  26.313  29.600  1.00  0.00    -0.237 OA
ATOM     66  O   UNL A   1      53.156  28.645  30.401  1.00  0.00    -0.237 OA
ATOM     67  O   UNL A   1      52.777  26.813  32.004  1.00  0.00    -0.744 OA
ENDBRANCH  63  64
ENDBRANCH  37  58
ENDBRANCH  11  12
ENDBRANCH   4   6
ENDBRANCH   1   2
BRANCH   1  68
ATOM     68  C   UNL A   1      33.355  33.752  28.197  1.00  0.00     0.042 C 
BRANCH  68  69
ATOM     69  C   UNL A   1      33.692  34.854  29.187  1.00  0.00     0.117 C 
BRANCH  69  70
ATOM     70  N   UNL A   1      33.694  34.428  30.577  1.00  0.00    -0.356 N 
ATOM     71  C   UNL A   1      34.710  34.176  31.447  1.00  0.00     0.227 C 
ATOM     72  H   UNL A   1      32.796  34.298  30.959  1.00  0.00     0.163 HD
ATOM     73  O   UNL A   1      34.375  33.907  32.605  1.00  0.00    -0.274 OA
BRANCH  71  74
ATOM     74  C   UNL A   1      36.177  34.107  30.993  1.00  0.00     0.103 C 
ATOM     75  C   UNL A   1      36.553  32.685  30.681  1.00  0.00    -0.016 C 
ATOM     76  C   UNL A   1      37.240  34.484  32.027  1.00  0.00     0.047 C 
ATOM     77  C   UNL A   1      37.480  32.198  31.515  1.00  0.00    -0.006 C 
ATOM     78  C   UNL A   1      37.941  33.212  32.501  1.00  0.00     0.106 C 
BRANCH  78  79
ATOM     79  N   UNL A   1      37.495  32.836  33.827  1.00  0.00    -0.346 N 
ATOM     80  C   UNL A   1      38.024  31.884  34.665  1.00  0.00     0.251 C 
ATOM     81  H   UNL A   1      36.712  33.325  34.171  1.00  0.00     0.164 HD
ATOM     82  O   UNL A   1      37.512  31.664  35.759  1.00  0.00    -0.269 OA
BRANCH  80  83
ATOM     83  C   UNL A   1      39.181  31.065  34.234  1.00  0.00     0.039 A 
ATOM     84  C   UNL A   1      40.503  31.464  34.460  1.00  0.00     0.015 A 
ATOM     85  C   UNL A   1      38.923  29.823  33.646  1.00  0.00     0.015 A 
ATOM     86  C   UNL A   1      41.564  30.671  34.014  1.00  0.00     0.016 A 
ATOM     87  C   UNL A   1      39.983  29.017  33.222  1.00  0.00     0.016 A 
ATOM     88  C   UNL A   1      41.296  29.454  33.391  1.00  0.00     0.018 A 
ATOM     89  Br  UNL A   1      42.729  28.378  32.788  1.00  0.00    -0.051 Br
ENDBRANCH  80  83
ENDBRANCH  78  79
ENDBRANCH  71  74
ENDBRANCH  69  70
ENDBRANCH  68  69
ENDBRANCH   1  68
TORSDOF 15
ENDMDL
MODEL 3
REMARK VINA RESULT:      -9.6      4.961     11.982
REMARK SMILES O=C(NCCCNC(=O)[C@@H]1C=C[C@H](NC(=O)c2ccc(Br)cc2)C1)c1ccc(-c2c3nc(c(-c4ccc(S(=O)(=O)[O-])cc4)c4ccc([nH]4)c(-c4ccc(S(=O)(=O)[O-])cc4)c4nc(c(-c5ccc(S(=O)(=O)[O-])cc5)c5ccc2[nH]5)C=C4)C=C3)cc1
REMARK SMILES IDX 4 1 3 2 1 3 2 4 25 6 26 7 84 8 27 9 83 10 28 11 29 12 30 13
REMARK SMILES IDX 77 14 31 15 82 16 76 17 78 18 32 19 81 20 75 21 74 22 33 24
REMARK SMILES IDX 63 25 44 26 62 27 45 28 48 29 61 30 79 31 46 32 47 33 60 35
REMARK SMILES IDX 80 36 49 37 34 38 35 39 43 40 36 41 42 42 37 43 38 44 39 45
REMARK SMILES IDX 40 46 41 47 64 48 65 49 73 50 66 51 72 52 67 53 68 54 69 55
REMARK SMILES IDX 70 56 71 57 50 58 51 59 59 60 52 61 58 62 53 63 54 64 55 65
REMARK SMILES IDX 56 66 57 67 5 68 6 69 7 70 8 71 9 73 10 74 11 75 24 76 12 77
REMARK SMILES IDX 13 78 14 79 15 80 16 82 17 83 18 84 23 85 19 86 22 87 20 88
REMARK SMILES IDX 21 89
REMARK H PARENT 3 5 78 23 48 34 7 72 14 81
REMARK Flexibility Score: inf
ROOT
ATOM      1  C   UNL A   1      40.224  23.410  26.855  1.00  0.00     0.118 C 
ENDROOT
BRANCH   1   2
ATOM      2  N   UNL A   1      41.005  24.193  25.907  1.00  0.00    -0.352 N 
ATOM      3  O   UNL A   1      41.986  25.975  24.956  1.00  0.00    -0.269 OA
ATOM      4  C   UNL A   1      41.428  25.504  25.940  1.00  0.00     0.251 C 
ATOM      5  H   UNL A   1      41.278  23.698  25.101  1.00  0.00     0.163 HD
BRANCH   4   6
ATOM      6  C   UNL A   1      41.178  26.361  27.124  1.00  0.00     0.039 A 
ATOM      7  C   UNL A   1      41.854  27.562  27.306  1.00  0.00     0.014 A 
ATOM      8  C   UNL A   1      40.216  25.970  28.064  1.00  0.00     0.014 A 
ATOM      9  C   UNL A   1      41.747  28.248  28.509  1.00  0.00     0.010 A 
ATOM     10  C   UNL A   1      40.000  26.741  29.214  1.00  0.00     0.010 A 
ATOM     11  C   UNL A   1      40.795  27.868  29.468  1.00  0.00    -0.014 A 
BRANCH  11  12
ATOM     12  C   UNL A   1      40.615  28.726  30.670  1.00  0.00     0.031 A 
ATOM     13  C   UNL A   1      41.543  28.636  31.852  1.00  0.00     0.074 A 
ATOM     14  C   UNL A   1      39.631  29.650  30.653  1.00  0.00     0.049 A 
ATOM     15  N   UNL A   1      41.553  29.362  32.941  1.00  0.00    -0.248 NA
ATOM     16  C   UNL A   1      42.588  27.601  31.817  1.00  0.00     0.031 C 
ATOM     17  C   UNL A   1      38.658  29.825  29.569  1.00  0.00     0.029 A 
ATOM     18  N   UNL A   1      39.312  30.644  31.542  1.00  0.00    -0.354 N 
ATOM     19  C   UNL A   1      42.580  28.859  33.731  1.00  0.00     0.074 A 
ATOM     20  C   UNL A   1      43.164  27.752  33.003  1.00  0.00     0.031 C 
ATOM     21  C   UNL A   1      37.910  30.909  29.816  1.00  0.00     0.029 A 
ATOM     22  C   UNL A   1      38.290  31.458  31.111  1.00  0.00     0.049 A 
ATOM     23  H   UNL A   1      39.769  30.762  32.406  1.00  0.00     0.167 HD
ATOM     24  C   UNL A   1      43.000  29.283  34.948  1.00  0.00     0.031 A 
ATOM     25  C   UNL A   1      37.706  32.521  31.693  1.00  0.00     0.031 A 
ATOM     26  C   UNL A   1      42.422  30.391  35.664  1.00  0.00     0.049 A 
ATOM     27  C   UNL A   1      38.187  32.961  33.043  1.00  0.00     0.074 A 
ATOM     28  C   UNL A   1      42.789  30.905  36.896  1.00  0.00     0.029 A 
ATOM     29  N   UNL A   1      41.358  31.159  35.213  1.00  0.00    -0.354 N 
ATOM     30  N   UNL A   1      39.168  32.473  33.763  1.00  0.00    -0.248 NA
ATOM     31  C   UNL A   1      37.479  34.088  33.661  1.00  0.00     0.031 C 
ATOM     32  C   UNL A   1      41.922  31.958  37.210  1.00  0.00     0.029 A 
ATOM     33  C   UNL A   1      41.045  32.131  36.150  1.00  0.00     0.049 A 
ATOM     34  H   UNL A   1      40.894  31.033  34.355  1.00  0.00     0.167 HD
ATOM     35  C   UNL A   1      39.193  33.235  34.924  1.00  0.00     0.074 A 
ATOM     36  C   UNL A   1      38.154  34.236  34.792  1.00  0.00     0.031 C 
ATOM     37  C   UNL A   1      39.998  33.108  36.008  1.00  0.00     0.031 A 
BRANCH  24  38
ATOM     38  C   UNL A   1      44.130  28.532  35.603  1.00  0.00    -0.014 A 
ATOM     39  C   UNL A   1      43.882  27.415  36.421  1.00  0.00     0.010 A 
ATOM     40  C   UNL A   1      45.460  28.908  35.343  1.00  0.00     0.010 A 
ATOM     41  C   UNL A   1      44.945  26.702  36.985  1.00  0.00     0.020 A 
ATOM     42  C   UNL A   1      46.527  28.186  35.889  1.00  0.00     0.020 A 
ATOM     43  C   UNL A   1      46.261  27.094  36.717  1.00  0.00     0.054 A 
BRANCH  43  44
ATOM     44  S   UNL A   1      47.621  26.131  37.435  1.00  0.00     0.124 S 
ATOM     45  O   UNL A   1      48.193  25.492  36.251  1.00  0.00    -0.237 OA
ATOM     46  O   UNL A   1      48.452  27.159  38.054  1.00  0.00    -0.237 OA
ATOM     47  O   UNL A   1      46.952  25.228  38.368  1.00  0.00    -0.744 OA
ENDBRANCH  43  44
ENDBRANCH  24  38
BRANCH  25  48
ATOM     48  C   UNL A   1      36.579  33.213  31.011  1.00  0.00    -0.014 A 
ATOM     49  C   UNL A   1      35.282  33.180  31.550  1.00  0.00     0.010 A 
ATOM     50  C   UNL A   1      36.810  33.929  29.822  1.00  0.00     0.010 A 
ATOM     51  C   UNL A   1      34.233  33.840  30.904  1.00  0.00     0.020 A 
ATOM     52  C   UNL A   1      35.771  34.615  29.190  1.00  0.00     0.020 A 
ATOM     53  C   UNL A   1      34.485  34.553  29.727  1.00  0.00     0.054 A 
BRANCH  53  54
ATOM     54  S   UNL A   1      33.124  35.446  28.928  1.00  0.00     0.124 S 
ATOM     55  O   UNL A   1      33.838  36.451  28.147  1.00  0.00    -0.237 OA
ATOM     56  O   UNL A   1      32.461  34.397  28.157  1.00  0.00    -0.237 OA
ATOM     57  O   UNL A   1      32.350  35.961  30.056  1.00  0.00    -0.744 OA
ENDBRANCH  53  54
ENDBRANCH  25  48
BRANCH  37  58
ATOM     58  C   UNL A   1      39.784  34.089  37.126  1.00  0.00    -0.014 A 
ATOM     59  C   UNL A   1      40.378  35.364  37.091  1.00  0.00     0.010 A 
ATOM     60  C   UNL A   1      38.968  33.739  38.216  1.00  0.00     0.010 A 
ATOM     61  C   UNL A   1      40.194  36.257  38.148  1.00  0.00     0.020 A 
ATOM     62  C   UNL A   1      38.761  34.639  39.263  1.00  0.00     0.020 A 
ATOM     63  C   UNL A   1      39.390  35.886  39.231  1.00  0.00     0.054 A 
BRANCH  63  64
ATOM     64  S   UNL A   1      39.147  37.067  40.586  1.00  0.00     0.124 S 
ATOM     65  O   UNL A   1      38.535  36.228  41.612  1.00  0.00    -0.237 OA
ATOM     66  O   UNL A   1      40.508  37.518  40.869  1.00  0.00    -0.237 OA
ATOM     67  O   UNL A   1      38.271  38.081  40.005  1.00  0.00    -0.744 OA
ENDBRANCH  63  64
ENDBRANCH  37  58
ENDBRANCH  11  12
ENDBRANCH   4   6
ENDBRANCH   1   2
BRANCH   1  68
ATOM     68  C   UNL A   1      39.655  22.127  26.272  1.00  0.00     0.042 C 
BRANCH  68  69
ATOM     69  C   UNL A   1      38.156  22.144  26.027  1.00  0.00     0.117 C 
BRANCH  69  70
ATOM     70  N   UNL A   1      37.778  22.448  24.657  1.00  0.00    -0.356 N 
ATOM     71  C   UNL A   1      36.626  22.935  24.121  1.00  0.00     0.227 C 
ATOM     72  H   UNL A   1      38.485  22.269  23.996  1.00  0.00     0.163 HD
ATOM     73  O   UNL A   1      36.650  23.166  22.908  1.00  0.00    -0.274 OA
BRANCH  71  74
ATOM     74  C   UNL A   1      35.336  23.074  24.944  1.00  0.00     0.103 C 
ATOM     75  C   UNL A   1      34.332  22.043  24.506  1.00  0.00    -0.016 C 
ATOM     76  C   UNL A   1      34.540  24.369  24.770  1.00  0.00     0.047 C 
ATOM     77  C   UNL A   1      33.244  22.584  23.944  1.00  0.00    -0.006 C 
ATOM     78  C   UNL A   1      33.285  24.071  23.949  1.00  0.00     0.106 C 
BRANCH  78  79
ATOM     79  N   UNL A   1      33.425  24.557  22.592  1.00  0.00    -0.346 N 
ATOM     80  C   UNL A   1      33.303  25.847  22.133  1.00  0.00     0.251 C 
ATOM     81  H   UNL A   1      33.633  23.876  21.912  1.00  0.00     0.164 HD
ATOM     82  O   UNL A   1      33.427  26.095  20.937  1.00  0.00    -0.269 OA
BRANCH  80  83
ATOM     83  C   UNL A   1      32.956  26.945  23.064  1.00  0.00     0.039 A 
ATOM     84  C   UNL A   1      33.921  27.813  23.587  1.00  0.00     0.015 A 
ATOM     85  C   UNL A   1      31.606  27.148  23.365  1.00  0.00     0.015 A 
ATOM     86  C   UNL A   1      33.551  28.821  24.481  1.00  0.00     0.016 A 
ATOM     87  C   UNL A   1      31.231  28.172  24.240  1.00  0.00     0.016 A 
ATOM     88  C   UNL A   1      32.207  28.989  24.809  1.00  0.00     0.018 A 
ATOM     89  Br  UNL A   1      31.703  30.352  26.018  1.00  0.00    -0.051 Br
ENDBRANCH  80  83
ENDBRANCH  78  79
ENDBRANCH  71  74
ENDBRANCH  69  70
ENDBRANCH  68  69
ENDBRANCH   1  68
TORSDOF 15
ENDMDL
