MODEL 1
REMARK VINA RESULT:      -9.4      0.000      0.000
REMARK SMILES CN(C[C@H]1C[C@H](O)C1)C(=O)NCCOCC(=O)NCCCNC(=O)c1ccc(-c2c3nc(c(-c4ccc(S(=O)(=O)[O-])cc4)c4ccc([nH]4)c(-c4ccc(S(=O)(=O)[O-])cc4)c4nc(c(-c5ccc(S(=O)(=O)[O-])cc5)c5ccc2[nH]5)C=C4)C=C3)cc1
REMARK SMILES IDX 16 1 17 2 18 3 15 5 14 6 13 7 12 8 11 9 9 10 10 11 2 13 1 14
REMARK SMILES IDX 3 15 4 16 8 17 5 18 6 19 7 20 19 22 20 23 21 24 22 25 23 26
REMARK SMILES IDX 24 28 25 29 26 30 84 31 27 32 83 33 28 34 29 35 30 36 77 37
REMARK SMILES IDX 31 38 82 39 76 40 78 41 32 42 81 43 75 44 74 45 33 47 63 48
REMARK SMILES IDX 44 49 62 50 45 51 48 52 61 53 79 54 46 55 47 56 60 58 80 59
REMARK SMILES IDX 49 60 34 61 35 62 43 63 36 64 42 65 37 66 38 67 39 68 40 69
REMARK SMILES IDX 41 70 64 71 65 72 73 73 66 74 72 75 67 76 68 77 69 78 70 79
REMARK SMILES IDX 71 80 50 81 51 82 59 83 52 84 58 85 53 86 54 87 55 88 56 89
REMARK SMILES IDX 57 90
REMARK H PARENT 18 4 11 12 7 21 22 27 78 46 48 57
REMARK Flexibility Score: inf
ROOT
ATOM      1  C   UNL A   1      33.223  19.758  25.140  1.00  0.00     0.245 C 
ATOM      2  O   UNL A   1      32.589  18.864  25.700  1.00  0.00    -0.272 OA
ATOM      3  N   UNL A   1      34.425  20.133  25.664  1.00  0.00    -0.354 N 
ATOM      4  H   UNL A   1      34.688  19.676  26.496  1.00  0.00     0.163 HD
ENDROOT
BRANCH   1   5
ATOM      5  C   UNL A   1      32.697  20.448  23.871  1.00  0.00     0.260 C 
BRANCH   5   6
ATOM      6  O   UNL A   1      32.285  21.803  23.954  1.00  0.00    -0.370 OA
BRANCH   6   7
ATOM      7  C   UNL A   1      32.442  22.554  22.749  1.00  0.00     0.182 C 
BRANCH   7   8
ATOM      8  C   UNL A   1      33.682  23.467  22.720  1.00  0.00     0.146 C 
BRANCH   8   9
ATOM      9  N   UNL A   1      33.377  24.867  22.467  1.00  0.00    -0.336 N 
ATOM     10  C   UNL A   1      33.047  25.976  23.141  1.00  0.00     0.317 C 
ATOM     11  O   UNL A   1      32.915  26.976  22.424  1.00  0.00    -0.249 OA
ATOM     12  H   UNL A   1      33.427  25.057  21.502  1.00  0.00     0.165 HD
BRANCH  10  13
ATOM     13  N   UNL A   1      32.876  26.053  24.495  1.00  0.00    -0.328 N 
ATOM     14  C   UNL A   1      34.122  26.111  25.259  1.00  0.00     0.148 C 
BRANCH  13  15
ATOM     15  C   UNL A   1      31.651  26.102  25.293  1.00  0.00     0.124 C 
BRANCH  15  16
ATOM     16  C   UNL A   1      31.188  24.688  25.578  1.00  0.00     0.014 C 
ATOM     17  C   UNL A   1      29.896  24.401  26.388  1.00  0.00     0.037 C 
ATOM     18  C   UNL A   1      31.945  23.876  26.661  1.00  0.00     0.037 C 
ATOM     19  C   UNL A   1      30.608  23.141  26.937  1.00  0.00     0.115 C 
BRANCH  19  20
ATOM     20  O   UNL A   1      30.382  21.912  26.214  1.00  0.00    -0.393 OA
ATOM     21  H   UNL A   1      29.672  21.409  26.645  1.00  0.00     0.210 HD
ENDBRANCH  19  20
ENDBRANCH  15  16
ENDBRANCH  13  15
ENDBRANCH  10  13
ENDBRANCH   8   9
ENDBRANCH   7   8
ENDBRANCH   6   7
ENDBRANCH   5   6
ENDBRANCH   1   5
BRANCH   3  22
ATOM     22  C   UNL A   1      35.364  21.117  25.163  1.00  0.00     0.117 C 
BRANCH  22  23
ATOM     23  C   UNL A   1      35.251  22.453  25.890  1.00  0.00     0.042 C 
BRANCH  23  24
ATOM     24  C   UNL A   1      36.534  23.281  25.916  1.00  0.00     0.118 C 
BRANCH  24  25
ATOM     25  N   UNL A   1      37.738  22.463  25.986  1.00  0.00    -0.352 N 
ATOM     26  C   UNL A   1      39.025  22.792  26.338  1.00  0.00     0.251 C 
ATOM     27  H   UNL A   1      37.608  21.519  25.741  1.00  0.00     0.163 HD
ATOM     28  O   UNL A   1      39.923  21.975  26.153  1.00  0.00    -0.269 OA
BRANCH  26  29
ATOM     29  C   UNL A   1      39.343  24.119  26.912  1.00  0.00     0.039 A 
ATOM     30  C   UNL A   1      38.929  24.402  28.218  1.00  0.00     0.014 A 
ATOM     31  C   UNL A   1      40.013  25.094  26.170  1.00  0.00     0.014 A 
ATOM     32  C   UNL A   1      39.257  25.630  28.802  1.00  0.00     0.010 A 
ATOM     33  C   UNL A   1      40.403  26.288  26.778  1.00  0.00     0.010 A 
ATOM     34  C   UNL A   1      40.034  26.567  28.103  1.00  0.00    -0.014 A 
BRANCH  34  35
ATOM     35  C   UNL A   1      40.496  27.822  28.751  1.00  0.00     0.031 A 
ATOM     36  C   UNL A   1      41.867  27.905  29.371  1.00  0.00     0.074 A 
ATOM     37  C   UNL A   1      39.650  28.869  28.846  1.00  0.00     0.049 A 
ATOM     38  N   UNL A   1      42.411  28.894  30.033  1.00  0.00    -0.248 NA
ATOM     39  C   UNL A   1      42.732  26.719  29.251  1.00  0.00     0.031 C 
ATOM     40  C   UNL A   1      38.278  28.899  28.328  1.00  0.00     0.029 A 
ATOM     41  N   UNL A   1      39.810  30.105  29.422  1.00  0.00    -0.354 N 
ATOM     42  C   UNL A   1      43.666  28.443  30.430  1.00  0.00     0.074 A 
ATOM     43  C   UNL A   1      43.792  27.081  29.960  1.00  0.00     0.031 C 
ATOM     44  C   UNL A   1      37.732  30.097  28.595  1.00  0.00     0.029 A 
ATOM     45  C   UNL A   1      38.692  30.904  29.339  1.00  0.00     0.049 A 
ATOM     46  H   UNL A   1      40.646  30.394  29.853  1.00  0.00     0.167 HD
ATOM     47  C   UNL A   1      44.627  29.107  31.114  1.00  0.00     0.031 A 
ATOM     48  C   UNL A   1      38.456  32.139  29.823  1.00  0.00     0.031 A 
ATOM     49  C   UNL A   1      44.508  30.472  31.555  1.00  0.00     0.049 A 
ATOM     50  C   UNL A   1      39.547  32.852  30.579  1.00  0.00     0.074 A 
ATOM     51  C   UNL A   1      45.466  31.258  32.177  1.00  0.00     0.029 A 
ATOM     52  N   UNL A   1      43.370  31.253  31.432  1.00  0.00    -0.354 N 
ATOM     53  N   UNL A   1      40.761  32.440  30.856  1.00  0.00    -0.248 NA
ATOM     54  C   UNL A   1      39.239  34.199  31.079  1.00  0.00     0.031 C 
ATOM     55  C   UNL A   1      44.886  32.491  32.486  1.00  0.00     0.029 A 
ATOM     56  C   UNL A   1      43.590  32.497  31.998  1.00  0.00     0.049 A 
ATOM     57  H   UNL A   1      42.531  30.965  31.004  1.00  0.00     0.167 HD
ATOM     58  C   UNL A   1      41.369  33.490  31.537  1.00  0.00     0.074 A 
ATOM     59  C   UNL A   1      40.398  34.561  31.610  1.00  0.00     0.031 C 
ATOM     60  C   UNL A   1      42.619  33.559  32.057  1.00  0.00     0.031 A 
BRANCH  47  61
ATOM     61  C   UNL A   1      45.903  28.378  31.442  1.00  0.00    -0.014 A 
ATOM     62  C   UNL A   1      47.020  28.447  30.591  1.00  0.00     0.010 A 
ATOM     63  C   UNL A   1      46.022  27.710  32.675  1.00  0.00     0.010 A 
ATOM     64  C   UNL A   1      48.229  27.851  30.963  1.00  0.00     0.020 A 
ATOM     65  C   UNL A   1      47.235  27.135  33.061  1.00  0.00     0.020 A 
ATOM     66  C   UNL A   1      48.331  27.206  32.199  1.00  0.00     0.054 A 
BRANCH  66  67
ATOM     67  S   UNL A   1      49.935  26.512  32.688  1.00  0.00     0.124 S 
ATOM     68  O   UNL A   1      50.515  27.610  33.457  1.00  0.00    -0.237 OA
ATOM     69  O   UNL A   1      49.550  25.337  33.465  1.00  0.00    -0.237 OA
ATOM     70  O   UNL A   1      50.593  26.228  31.417  1.00  0.00    -0.744 OA
ENDBRANCH  66  67
ENDBRANCH  47  61
BRANCH  48  71
ATOM     71  C   UNL A   1      37.127  32.786  29.632  1.00  0.00    -0.014 A 
ATOM     72  C   UNL A   1      36.768  33.337  28.389  1.00  0.00     0.010 A 
ATOM     73  C   UNL A   1      36.227  32.889  30.708  1.00  0.00     0.010 A 
ATOM     74  C   UNL A   1      35.558  34.021  28.239  1.00  0.00     0.020 A 
ATOM     75  C   UNL A   1      35.002  33.541  30.554  1.00  0.00     0.020 A 
ATOM     76  C   UNL A   1      34.684  34.124  29.326  1.00  0.00     0.054 A 
BRANCH  76  77
ATOM     77  S   UNL A   1      33.118  35.015  29.113  1.00  0.00     0.124 S 
ATOM     78  O   UNL A   1      33.576  36.339  28.709  1.00  0.00    -0.237 OA
ATOM     79  O   UNL A   1      32.447  34.233  28.078  1.00  0.00    -0.237 OA
ATOM     80  O   UNL A   1      32.502  34.940  30.436  1.00  0.00    -0.744 OA
ENDBRANCH  76  77
ENDBRANCH  48  71
BRANCH  60  81
ATOM     81  C   UNL A   1      43.027  34.850  32.716  1.00  0.00    -0.014 A 
ATOM     82  C   UNL A   1      42.886  35.038  34.102  1.00  0.00     0.010 A 
ATOM     83  C   UNL A   1      43.610  35.869  31.941  1.00  0.00     0.010 A 
ATOM     84  C   UNL A   1      43.291  36.236  34.696  1.00  0.00     0.020 A 
ATOM     85  C   UNL A   1      44.046  37.056  32.537  1.00  0.00     0.020 A 
ATOM     86  C   UNL A   1      43.868  37.237  33.909  1.00  0.00     0.054 A 
BRANCH  86  87
ATOM     87  S   UNL A   1      44.425  38.766  34.711  1.00  0.00     0.124 S 
ATOM     88  O   UNL A   1      44.035  38.540  36.100  1.00  0.00    -0.237 OA
ATOM     89  O   UNL A   1      45.863  38.758  34.454  1.00  0.00    -0.237 OA
ATOM     90  O   UNL A   1      43.680  39.814  34.017  1.00  0.00    -0.744 OA
ENDBRANCH  86  87
ENDBRANCH  60  81
ENDBRANCH  34  35
ENDBRANCH  26  29
ENDBRANCH  24  25
ENDBRANCH  23  24
ENDBRANCH  22  23
ENDBRANCH   3  22
TORSDOF 21
ENDMDL
MODEL 2
REMARK VINA RESULT:      -9.4      1.285      2.297
REMARK SMILES CN(C[C@H]1C[C@H](O)C1)C(=O)NCCOCC(=O)NCCCNC(=O)c1ccc(-c2c3nc(c(-c4ccc(S(=O)(=O)[O-])cc4)c4ccc([nH]4)c(-c4ccc(S(=O)(=O)[O-])cc4)c4nc(c(-c5ccc(S(=O)(=O)[O-])cc5)c5ccc2[nH]5)C=C4)C=C3)cc1
REMARK SMILES IDX 16 1 17 2 18 3 15 5 14 6 13 7 12 8 11 9 9 10 10 11 2 13 1 14
REMARK SMILES IDX 3 15 4 16 8 17 5 18 6 19 7 20 19 22 20 23 21 24 22 25 23 26
REMARK SMILES IDX 24 28 25 29 26 30 84 31 27 32 83 33 28 34 29 35 30 36 77 37
REMARK SMILES IDX 31 38 82 39 76 40 78 41 32 42 81 43 75 44 74 45 33 47 63 48
REMARK SMILES IDX 44 49 62 50 45 51 48 52 61 53 79 54 46 55 47 56 60 58 80 59
REMARK SMILES IDX 49 60 34 61 35 62 43 63 36 64 42 65 37 66 38 67 39 68 40 69
REMARK SMILES IDX 41 70 64 71 65 72 73 73 66 74 72 75 67 76 68 77 69 78 70 79
REMARK SMILES IDX 71 80 50 81 51 82 59 83 52 84 58 85 53 86 54 87 55 88 56 89
REMARK SMILES IDX 57 90
REMARK H PARENT 18 4 11 12 7 21 22 27 78 46 48 57
REMARK Flexibility Score: inf
ROOT
ATOM      1  C   UNL A   1      32.938  22.116  23.146  1.00  0.00     0.245 C 
ATOM      2  O   UNL A   1      32.189  21.206  22.794  1.00  0.00    -0.272 OA
ATOM      3  N   UNL A   1      33.430  22.101  24.418  1.00  0.00    -0.354 N 
ATOM      4  H   UNL A   1      33.114  21.364  24.989  1.00  0.00     0.163 HD
ENDROOT
BRANCH   1   5
ATOM      5  C   UNL A   1      33.332  23.254  22.191  1.00  0.00     0.260 C 
BRANCH   5   6
ATOM      6  O   UNL A   1      32.691  24.512  22.330  1.00  0.00    -0.370 OA
BRANCH   6   7
ATOM      7  C   UNL A   1      33.516  25.551  22.862  1.00  0.00     0.182 C 
BRANCH   7   8
ATOM      8  C   UNL A   1      33.465  26.875  22.077  1.00  0.00     0.146 C 
BRANCH   8   9
ATOM      9  N   UNL A   1      32.130  27.442  21.966  1.00  0.00    -0.336 N 
ATOM     10  C   UNL A   1      31.022  27.594  22.704  1.00  0.00     0.317 C 
ATOM     11  O   UNL A   1      30.116  28.208  22.125  1.00  0.00    -0.249 OA
ATOM     12  H   UNL A   1      32.000  27.835  21.073  1.00  0.00     0.165 HD
BRANCH  10  13
ATOM     13  N   UNL A   1      30.861  27.145  23.984  1.00  0.00    -0.328 N 
ATOM     14  C   UNL A   1      29.651  26.350  24.198  1.00  0.00     0.148 C 
BRANCH  13  15
ATOM     15  C   UNL A   1      31.709  27.320  25.163  1.00  0.00     0.124 C 
BRANCH  15  16
ATOM     16  C   UNL A   1      31.648  28.766  25.609  1.00  0.00     0.014 C 
ATOM     17  C   UNL A   1      32.861  29.720  25.452  1.00  0.00     0.037 C 
ATOM     18  C   UNL A   1      31.718  29.065  27.129  1.00  0.00     0.037 C 
ATOM     19  C   UNL A   1      32.395  30.410  26.756  1.00  0.00     0.115 C 
BRANCH  19  20
ATOM     20  O   UNL A   1      31.525  31.553  26.601  1.00  0.00    -0.393 OA
ATOM     21  H   UNL A   1      31.840  32.101  25.864  1.00  0.00     0.210 HD
ENDBRANCH  19  20
ENDBRANCH  15  16
ENDBRANCH  13  15
ENDBRANCH  10  13
ENDBRANCH   8   9
ENDBRANCH   7   8
ENDBRANCH   6   7
ENDBRANCH   5   6
ENDBRANCH   1   5
BRANCH   3  22
ATOM     22  C   UNL A   1      34.355  23.028  25.042  1.00  0.00     0.117 C 
BRANCH  22  23
ATOM     23  C   UNL A   1      35.811  22.703  24.720  1.00  0.00     0.042 C 
BRANCH  23  24
ATOM     24  C   UNL A   1      36.835  23.375  25.632  1.00  0.00     0.118 C 
BRANCH  24  25
ATOM     25  N   UNL A   1      37.986  22.528  25.918  1.00  0.00    -0.352 N 
ATOM     26  C   UNL A   1      39.221  22.840  26.433  1.00  0.00     0.251 C 
ATOM     27  H   UNL A   1      37.857  21.575  25.707  1.00  0.00     0.163 HD
ATOM     28  O   UNL A   1      40.106  21.988  26.422  1.00  0.00    -0.269 OA
BRANCH  26  29
ATOM     29  C   UNL A   1      39.503  24.188  26.975  1.00  0.00     0.039 A 
ATOM     30  C   UNL A   1      39.121  24.476  28.290  1.00  0.00     0.014 A 
ATOM     31  C   UNL A   1      40.108  25.177  26.196  1.00  0.00     0.014 A 
ATOM     32  C   UNL A   1      39.417  25.726  28.843  1.00  0.00     0.010 A 
ATOM     33  C   UNL A   1      40.468  26.396  26.772  1.00  0.00     0.010 A 
ATOM     34  C   UNL A   1      40.132  26.682  28.104  1.00  0.00    -0.014 A 
BRANCH  34  35
ATOM     35  C   UNL A   1      40.564  27.966  28.717  1.00  0.00     0.031 A 
ATOM     36  C   UNL A   1      41.937  28.103  29.321  1.00  0.00     0.074 A 
ATOM     37  C   UNL A   1      39.688  28.989  28.794  1.00  0.00     0.049 A 
ATOM     38  N   UNL A   1      42.458  29.123  29.954  1.00  0.00    -0.248 NA
ATOM     39  C   UNL A   1      42.834  26.940  29.222  1.00  0.00     0.031 C 
ATOM     40  C   UNL A   1      38.312  28.968  28.288  1.00  0.00     0.029 A 
ATOM     41  N   UNL A   1      39.817  30.244  29.338  1.00  0.00    -0.354 N 
ATOM     42  C   UNL A   1      43.728  28.718  30.350  1.00  0.00     0.074 A 
ATOM     43  C   UNL A   1      43.890  27.349  29.913  1.00  0.00     0.031 C 
ATOM     44  C   UNL A   1      37.733  30.156  28.531  1.00  0.00     0.029 A 
ATOM     45  C   UNL A   1      38.676  31.008  29.246  1.00  0.00     0.049 A 
ATOM     46  H   UNL A   1      40.649  30.567  29.753  1.00  0.00     0.167 HD
ATOM     47  C   UNL A   1      44.676  29.427  31.008  1.00  0.00     0.031 A 
ATOM     48  C   UNL A   1      38.409  32.248  29.701  1.00  0.00     0.031 A 
ATOM     49  C   UNL A   1      44.522  30.798  31.417  1.00  0.00     0.049 A 
ATOM     50  C   UNL A   1      39.485  33.010  30.429  1.00  0.00     0.074 A 
ATOM     51  C   UNL A   1      45.461  31.626  32.010  1.00  0.00     0.029 A 
ATOM     52  N   UNL A   1      43.361  31.543  31.284  1.00  0.00    -0.354 N 
ATOM     53  N   UNL A   1      40.713  32.640  30.705  1.00  0.00    -0.248 NA
ATOM     54  C   UNL A   1      39.143  34.360  30.898  1.00  0.00     0.031 C 
ATOM     55  C   UNL A   1      44.849  32.849  32.293  1.00  0.00     0.029 A 
ATOM     56  C   UNL A   1      43.549  32.807  31.818  1.00  0.00     0.049 A 
ATOM     57  H   UNL A   1      42.526  31.221  30.873  1.00  0.00     0.167 HD
ATOM     58  C   UNL A   1      41.296  33.723  31.353  1.00  0.00     0.074 A 
ATOM     59  C   UNL A   1      40.296  34.768  31.410  1.00  0.00     0.031 C 
ATOM     60  C   UNL A   1      42.548  33.842  31.860  1.00  0.00     0.031 A 
BRANCH  47  61
ATOM     61  C   UNL A   1      45.975  28.743  31.341  1.00  0.00    -0.014 A 
ATOM     62  C   UNL A   1      46.093  27.912  32.469  1.00  0.00     0.010 A 
ATOM     63  C   UNL A   1      47.059  28.845  30.450  1.00  0.00     0.010 A 
ATOM     64  C   UNL A   1      47.275  27.202  32.704  1.00  0.00     0.020 A 
ATOM     65  C   UNL A   1      48.233  28.118  30.668  1.00  0.00     0.020 A 
ATOM     66  C   UNL A   1      48.335  27.305  31.798  1.00  0.00     0.054 A 
BRANCH  66  67
ATOM     67  S   UNL A   1      49.825  26.311  32.087  1.00  0.00     0.124 S 
ATOM     68  O   UNL A   1      50.842  27.079  31.375  1.00  0.00    -0.237 OA
ATOM     69  O   UNL A   1      49.937  26.321  33.544  1.00  0.00    -0.237 OA
ATOM     70  O   UNL A   1      49.498  25.015  31.499  1.00  0.00    -0.744 OA
ENDBRANCH  66  67
ENDBRANCH  47  61
BRANCH  48  71
ATOM     71  C   UNL A   1      37.060  32.851  29.507  1.00  0.00    -0.014 A 
ATOM     72  C   UNL A   1      36.766  33.595  28.350  1.00  0.00     0.010 A 
ATOM     73  C   UNL A   1      36.073  32.717  30.501  1.00  0.00     0.010 A 
ATOM     74  C   UNL A   1      35.529  34.233  28.214  1.00  0.00     0.020 A 
ATOM     75  C   UNL A   1      34.824  33.324  30.353  1.00  0.00     0.020 A 
ATOM     76  C   UNL A   1      34.568  34.099  29.220  1.00  0.00     0.054 A 
BRANCH  76  77
ATOM     77  S   UNL A   1      32.968  34.934  29.025  1.00  0.00     0.124 S 
ATOM     78  O   UNL A   1      32.436  34.886  30.382  1.00  0.00    -0.237 OA
ATOM     79  O   UNL A   1      33.358  36.256  28.542  1.00  0.00    -0.237 OA
ATOM     80  O   UNL A   1      32.269  34.104  28.047  1.00  0.00    -0.744 OA
ENDBRANCH  76  77
ENDBRANCH  48  71
BRANCH  60  81
ATOM     81  C   UNL A   1      42.924  35.159  32.483  1.00  0.00    -0.014 A 
ATOM     82  C   UNL A   1      42.707  35.409  33.850  1.00  0.00     0.010 A 
ATOM     83  C   UNL A   1      43.555  36.141  31.698  1.00  0.00     0.010 A 
ATOM     84  C   UNL A   1      43.083  36.631  34.412  1.00  0.00     0.020 A 
ATOM     85  C   UNL A   1      43.962  37.353  32.264  1.00  0.00     0.020 A 
ATOM     86  C   UNL A   1      43.708  37.595  33.615  1.00  0.00     0.054 A 
BRANCH  86  87
ATOM     87  S   UNL A   1      44.226  39.157  34.379  1.00  0.00     0.124 S 
ATOM     88  O   UNL A   1      45.509  39.404  33.726  1.00  0.00    -0.237 OA
ATOM     89  O   UNL A   1      43.147  40.069  34.008  1.00  0.00    -0.237 OA
ATOM     90  O   UNL A   1      44.304  38.838  35.803  1.00  0.00    -0.744 OA
ENDBRANCH  86  87
ENDBRANCH  60  81
ENDBRANCH  34  35
ENDBRANCH  26  29
ENDBRANCH  24  25
ENDBRANCH  23  24
ENDBRANCH  22  23
ENDBRANCH   3  22
TORSDOF 21
ENDMDL
MODEL 3
REMARK VINA RESULT:      -8.9      3.395      5.041
REMARK SMILES CN(C[C@H]1C[C@H](O)C1)C(=O)NCCOCC(=O)NCCCNC(=O)c1ccc(-c2c3nc(c(-c4ccc(S(=O)(=O)[O-])cc4)c4ccc([nH]4)c(-c4ccc(S(=O)(=O)[O-])cc4)c4nc(c(-c5ccc(S(=O)(=O)[O-])cc5)c5ccc2[nH]5)C=C4)C=C3)cc1
REMARK SMILES IDX 16 1 17 2 18 3 15 5 14 6 13 7 12 8 11 9 9 10 10 11 2 13 1 14
REMARK SMILES IDX 3 15 4 16 8 17 5 18 6 19 7 20 19 22 20 23 21 24 22 25 23 26
REMARK SMILES IDX 24 28 25 29 26 30 84 31 27 32 83 33 28 34 29 35 30 36 77 37
REMARK SMILES IDX 31 38 82 39 76 40 78 41 32 42 81 43 75 44 74 45 33 47 63 48
REMARK SMILES IDX 44 49 62 50 45 51 48 52 61 53 79 54 46 55 47 56 60 58 80 59
REMARK SMILES IDX 49 60 34 61 35 62 43 63 36 64 42 65 37 66 38 67 39 68 40 69
REMARK SMILES IDX 41 70 64 71 65 72 73 73 66 74 72 75 67 76 68 77 69 78 70 79
REMARK SMILES IDX 71 80 50 81 51 82 59 83 52 84 58 85 53 86 54 87 55 88 56 89
REMARK SMILES IDX 57 90
REMARK H PARENT 18 4 11 12 7 21 22 27 78 46 48 57
REMARK Flexibility Score: inf
ROOT
ATOM      1  C   UNL A   1      40.929  20.985  27.433  1.00  0.00     0.245 C 
ATOM      2  O   UNL A   1      40.478  19.848  27.575  1.00  0.00    -0.272 OA
ATOM      3  N   UNL A   1      41.719  21.501  28.418  1.00  0.00    -0.354 N 
ATOM      4  H   UNL A   1      41.845  20.927  29.208  1.00  0.00     0.163 HD
ENDROOT
BRANCH   1   5
ATOM      5  C   UNL A   1      40.630  21.823  26.180  1.00  0.00     0.260 C 
BRANCH   5   6
ATOM      6  O   UNL A   1      39.915  23.039  26.329  1.00  0.00    -0.370 OA
BRANCH   6   7
ATOM      7  C   UNL A   1      38.510  22.888  26.541  1.00  0.00     0.182 C 
BRANCH   7   8
ATOM      8  C   UNL A   1      37.632  23.877  25.751  1.00  0.00     0.146 C 
BRANCH   8   9
ATOM      9  N   UNL A   1      37.370  23.465  24.381  1.00  0.00    -0.336 N 
ATOM     10  C   UNL A   1      36.453  22.790  23.677  1.00  0.00     0.317 C 
ATOM     11  O   UNL A   1      36.690  22.741  22.463  1.00  0.00    -0.249 OA
ATOM     12  H   UNL A   1      38.090  23.781  23.787  1.00  0.00     0.165 HD
BRANCH  10  13
ATOM     13  N   UNL A   1      35.335  22.203  24.200  1.00  0.00    -0.328 N 
ATOM     14  C   UNL A   1      35.606  21.168  25.199  1.00  0.00     0.148 C 
BRANCH  13  15
ATOM     15  C   UNL A   1      33.919  22.454  23.931  1.00  0.00     0.124 C 
BRANCH  15  16
ATOM     16  C   UNL A   1      33.785  23.735  23.132  1.00  0.00     0.014 C 
ATOM     17  C   UNL A   1      32.584  24.696  23.329  1.00  0.00     0.037 C 
ATOM     18  C   UNL A   1      33.347  23.627  21.649  1.00  0.00     0.037 C 
ATOM     19  C   UNL A   1      32.692  25.023  21.820  1.00  0.00     0.115 C 
BRANCH  19  20
ATOM     20  O   UNL A   1      33.501  26.166  21.468  1.00  0.00    -0.393 OA
ATOM     21  H   UNL A   1      33.017  26.982  21.679  1.00  0.00     0.210 HD
ENDBRANCH  19  20
ENDBRANCH  15  16
ENDBRANCH  13  15
ENDBRANCH  10  13
ENDBRANCH   8   9
ENDBRANCH   7   8
ENDBRANCH   6   7
ENDBRANCH   5   6
ENDBRANCH   1   5
BRANCH   3  22
ATOM     22  C   UNL A   1      42.395  22.783  28.457  1.00  0.00     0.117 C 
BRANCH  22  23
ATOM     23  C   UNL A   1      43.603  22.833  27.526  1.00  0.00     0.042 C 
BRANCH  23  24
ATOM     24  C   UNL A   1      43.927  24.218  26.969  1.00  0.00     0.118 C 
BRANCH  24  25
ATOM     25  N   UNL A   1      42.946  24.686  25.999  1.00  0.00    -0.352 N 
ATOM     26  C   UNL A   1      41.947  25.622  26.116  1.00  0.00     0.251 C 
ATOM     27  H   UNL A   1      43.008  24.260  25.113  1.00  0.00     0.163 HD
ATOM     28  O   UNL A   1      41.118  25.729  25.216  1.00  0.00    -0.269 OA
BRANCH  26  29
ATOM     29  C   UNL A   1      41.846  26.483  27.317  1.00  0.00     0.039 A 
ATOM     30  C   UNL A   1      42.620  27.647  27.376  1.00  0.00     0.014 A 
ATOM     31  C   UNL A   1      41.025  26.140  28.394  1.00  0.00     0.014 A 
ATOM     32  C   UNL A   1      42.509  28.502  28.476  1.00  0.00     0.010 A 
ATOM     33  C   UNL A   1      40.861  27.030  29.456  1.00  0.00     0.010 A 
ATOM     34  C   UNL A   1      41.597  28.224  29.506  1.00  0.00    -0.014 A 
BRANCH  34  35
ATOM     35  C   UNL A   1      41.376  29.183  30.621  1.00  0.00     0.031 A 
ATOM     36  C   UNL A   1      42.235  29.132  31.857  1.00  0.00     0.074 A 
ATOM     37  C   UNL A   1      40.348  30.054  30.549  1.00  0.00     0.049 A 
ATOM     38  N   UNL A   1      42.144  29.844  32.951  1.00  0.00    -0.248 NA
ATOM     39  C   UNL A   1      43.324  28.141  31.878  1.00  0.00     0.031 C 
ATOM     40  C   UNL A   1      39.412  30.172  29.427  1.00  0.00     0.029 A 
ATOM     41  N   UNL A   1      39.908  31.000  31.444  1.00  0.00    -0.354 N 
ATOM     42  C   UNL A   1      43.141  29.372  33.798  1.00  0.00     0.074 A 
ATOM     43  C   UNL A   1      43.808  28.293  33.103  1.00  0.00     0.031 C 
ATOM     44  C   UNL A   1      38.523  31.143  29.693  1.00  0.00     0.029 A 
ATOM     45  C   UNL A   1      38.794  31.687  31.018  1.00  0.00     0.049 A 
ATOM     46  H   UNL A   1      40.348  31.170  32.307  1.00  0.00     0.167 HD
ATOM     47  C   UNL A   1      43.477  29.807  35.036  1.00  0.00     0.031 A 
ATOM     48  C   UNL A   1      38.059  32.636  31.632  1.00  0.00     0.031 A 
ATOM     49  C   UNL A   1      42.829  30.900  35.712  1.00  0.00     0.049 A 
ATOM     50  C   UNL A   1      38.459  33.098  33.009  1.00  0.00     0.074 A 
ATOM     51  C   UNL A   1      43.159  31.469  36.931  1.00  0.00     0.029 A 
ATOM     52  N   UNL A   1      41.721  31.585  35.238  1.00  0.00    -0.354 N 
ATOM     53  N   UNL A   1      39.468  32.704  33.749  1.00  0.00    -0.248 NA
ATOM     54  C   UNL A   1      37.628  34.140  33.628  1.00  0.00     0.031 C 
ATOM     55  C   UNL A   1      42.213  32.455  37.224  1.00  0.00     0.029 A 
ATOM     56  C   UNL A   1      41.334  32.545  36.157  1.00  0.00     0.049 A 
ATOM     57  H   UNL A   1      41.277  31.414  34.377  1.00  0.00     0.167 HD
ATOM     58  C   UNL A   1      39.407  33.471  34.908  1.00  0.00     0.074 A 
ATOM     59  C   UNL A   1      38.278  34.365  34.761  1.00  0.00     0.031 C 
ATOM     60  C   UNL A   1      40.213  33.436  35.997  1.00  0.00     0.031 A 
BRANCH  47  61
ATOM     61  C   UNL A   1      44.594  29.105  35.760  1.00  0.00    -0.014 A 
ATOM     62  C   UNL A   1      44.345  27.992  36.582  1.00  0.00     0.010 A 
ATOM     63  C   UNL A   1      45.926  29.496  35.523  1.00  0.00     0.010 A 
ATOM     64  C   UNL A   1      45.405  27.289  37.162  1.00  0.00     0.020 A 
ATOM     65  C   UNL A   1      46.990  28.781  36.081  1.00  0.00     0.020 A 
ATOM     66  C   UNL A   1      46.721  27.684  36.901  1.00  0.00     0.054 A 
BRANCH  66  67
ATOM     67  S   UNL A   1      48.077  26.704  37.603  1.00  0.00     0.124 S 
ATOM     68  O   UNL A   1      47.633  26.519  38.982  1.00  0.00    -0.237 OA
ATOM     69  O   UNL A   1      48.064  25.502  36.774  1.00  0.00    -0.237 OA
ATOM     70  O   UNL A   1      49.248  27.561  37.437  1.00  0.00    -0.744 OA
ENDBRANCH  66  67
ENDBRANCH  47  61
BRANCH  48  71
ATOM     71  C   UNL A   1      36.854  33.208  30.967  1.00  0.00    -0.014 A 
ATOM     72  C   UNL A   1      36.980  34.027  29.831  1.00  0.00     0.010 A 
ATOM     73  C   UNL A   1      35.572  32.967  31.495  1.00  0.00     0.010 A 
ATOM     74  C   UNL A   1      35.855  34.632  29.264  1.00  0.00     0.020 A 
ATOM     75  C   UNL A   1      34.441  33.542  30.911  1.00  0.00     0.020 A 
ATOM     76  C   UNL A   1      34.591  34.391  29.813  1.00  0.00     0.054 A 
BRANCH  76  77
ATOM     77  S   UNL A   1      33.142  35.185  29.064  1.00  0.00     0.124 S 
ATOM     78  O   UNL A   1      32.279  35.392  30.223  1.00  0.00    -0.237 OA
ATOM     79  O   UNL A   1      33.712  36.393  28.474  1.00  0.00    -0.237 OA
ATOM     80  O   UNL A   1      32.671  34.193  28.101  1.00  0.00    -0.744 OA
ENDBRANCH  76  77
ENDBRANCH  48  71
BRANCH  60  81
ATOM     81  C   UNL A   1      39.932  34.418  37.102  1.00  0.00    -0.014 A 
ATOM     82  C   UNL A   1      39.057  34.101  38.156  1.00  0.00     0.010 A 
ATOM     83  C   UNL A   1      40.597  35.658  37.112  1.00  0.00     0.010 A 
ATOM     84  C   UNL A   1      38.827  35.020  39.183  1.00  0.00     0.020 A 
ATOM     85  C   UNL A   1      40.393  36.567  38.154  1.00  0.00     0.020 A 
ATOM     86  C   UNL A   1      39.496  36.247  39.175  1.00  0.00     0.054 A 
BRANCH  86  87
ATOM     87  S   UNL A   1      39.213  37.406  40.541  1.00  0.00     0.124 S 
ATOM     88  O   UNL A   1      38.225  38.315  39.969  1.00  0.00    -0.237 OA
ATOM     89  O   UNL A   1      38.721  36.533  41.605  1.00  0.00    -0.237 OA
ATOM     90  O   UNL A   1      40.531  37.989  40.782  1.00  0.00    -0.744 OA
ENDBRANCH  86  87
ENDBRANCH  60  81
ENDBRANCH  34  35
ENDBRANCH  26  29
ENDBRANCH  24  25
ENDBRANCH  23  24
ENDBRANCH  22  23
ENDBRANCH   3  22
TORSDOF 21
ENDMDL
