MODEL 1
REMARK VINA RESULT:     -11.8      0.000      0.000
REMARK SMILES CC(C)[NH2+][C@@]1(C(=O)NCCCNC(=O)c2ccc(-c3c4nc(c(-c5ccc(S(=O)(=O)[O-])cc5)c5ccc([nH]5)c(-c5ccc(S(=O)(=O)[O-])cc5)c5nc(c(-c6ccc(S(=O)(=O)[O-])cc6)c6ccc3[nH]6)C=C5)C=C4)cc2)CC[C@@H](Sc2cccc(Br)c2)C1
REMARK SMILES IDX 10 1 9 2 8 3 6 4 7 5 5 7 75 8 86 9 76 10 77 11 4 12 2 15
REMARK SMILES IDX 1 16 3 17 78 18 79 19 80 20 85 21 81 22 83 23 82 24 84 25
REMARK SMILES IDX 11 26 12 27 13 28 14 30 15 31 16 32 74 33 17 34 73 35 18 36
REMARK SMILES IDX 19 37 20 38 67 39 21 40 72 41 66 42 68 43 22 44 71 45 65 46
REMARK SMILES IDX 64 47 23 49 53 50 34 51 52 52 35 53 38 54 51 55 69 56 36 57
REMARK SMILES IDX 37 58 50 60 70 61 39 62 24 63 25 64 33 65 26 66 32 67 27 68
REMARK SMILES IDX 28 69 29 70 30 71 31 72 54 73 55 74 63 75 56 76 62 77 57 78
REMARK SMILES IDX 58 79 59 80 60 81 61 82 40 83 41 84 49 85 42 86 48 87 43 88
REMARK SMILES IDX 44 89 45 90 46 91 47 92
REMARK H PARENT 8 6 4 13 4 14 12 29 68 48 38 59
REMARK Flexibility Score: inf
ROOT
ATOM      1  C   UNL A   1      38.119  23.638  26.321  1.00  0.00     0.042 C 
ENDROOT
BRANCH   1   2
ATOM      2  C   UNL A   1      37.854  22.262  25.733  1.00  0.00     0.118 C 
BRANCH   2   3
ATOM      3  N   UNL A   1      37.420  22.305  24.360  1.00  0.00    -0.351 N 
ATOM      4  C   UNL A   1      36.317  22.833  23.782  1.00  0.00     0.281 C 
ATOM      5  O   UNL A   1      36.454  23.092  22.575  1.00  0.00    -0.268 OA
ATOM      6  H   UNL A   1      38.037  21.870  23.729  1.00  0.00     0.163 HD
BRANCH   4   7
ATOM      7  C   UNL A   1      34.957  23.182  24.512  1.00  0.00     0.176 C 
ATOM      8  C   UNL A   1      33.856  23.466  23.470  1.00  0.00     0.080 C 
ATOM      9  C   UNL A   1      34.923  24.394  25.456  1.00  0.00     0.094 C 
ATOM     10  C   UNL A   1      33.543  24.962  23.493  1.00  0.00     0.022 C 
ATOM     11  C   UNL A   1      34.264  25.552  24.705  1.00  0.00     0.058 C 
BRANCH   7  12
ATOM     12  N   UNL A   1      34.542  21.916  25.208  1.00  0.00    -0.332 N 
ATOM     13  H   UNL A   1      35.388  21.367  25.362  1.00  0.00     0.347 HD
ATOM     14  H   UNL A   1      34.055  22.243  26.042  1.00  0.00     0.347 HD
BRANCH  12  15
ATOM     15  C   UNL A   1      33.566  21.030  24.552  1.00  0.00     0.176 C 
ATOM     16  C   UNL A   1      34.152  19.613  24.596  1.00  0.00     0.075 C 
ATOM     17  C   UNL A   1      32.162  21.005  25.161  1.00  0.00     0.075 C 
ENDBRANCH  12  15
ENDBRANCH   7  12
BRANCH  11  18
ATOM     18  S   UNL A   1      33.299  26.681  25.789  1.00  0.00    -0.122 SA
BRANCH  18  19
ATOM     19  C   UNL A   1      31.779  26.864  24.886  1.00  0.00     0.009 A 
ATOM     20  C   UNL A   1      30.763  25.917  25.072  1.00  0.00     0.015 A 
ATOM     21  C   UNL A   1      31.572  27.938  24.019  1.00  0.00     0.030 A 
ATOM     22  C   UNL A   1      29.532  26.068  24.433  1.00  0.00     0.002 A 
ATOM     23  C   UNL A   1      30.342  28.081  23.380  1.00  0.00     0.019 A 
ATOM     24  C   UNL A   1      29.318  27.157  23.588  1.00  0.00     0.016 A 
ATOM     25  Br  UNL A   1      30.055  29.552  22.227  1.00  0.00    -0.051 Br
ENDBRANCH  18  19
ENDBRANCH  11  18
ENDBRANCH   4   7
ENDBRANCH   2   3
ENDBRANCH   1   2
BRANCH   1  26
ATOM     26  C   UNL A   1      39.503  23.760  26.942  1.00  0.00     0.118 C 
BRANCH  26  27
ATOM     27  N   UNL A   1      40.459  24.374  26.025  1.00  0.00    -0.352 N 
ATOM     28  C   UNL A   1      41.016  25.626  26.031  1.00  0.00     0.251 C 
ATOM     29  H   UNL A   1      40.751  23.796  25.284  1.00  0.00     0.163 HD
ATOM     30  O   UNL A   1      41.584  26.034  25.013  1.00  0.00    -0.269 OA
BRANCH  28  31
ATOM     31  C   UNL A   1      40.943  26.479  27.231  1.00  0.00     0.039 A 
ATOM     32  C   UNL A   1      41.935  27.437  27.451  1.00  0.00     0.014 A 
ATOM     33  C   UNL A   1      39.915  26.311  28.162  1.00  0.00     0.014 A 
ATOM     34  C   UNL A   1      41.862  28.262  28.574  1.00  0.00     0.010 A 
ATOM     35  C   UNL A   1      39.787  27.199  29.222  1.00  0.00     0.010 A 
ATOM     36  C   UNL A   1      40.767  28.173  29.449  1.00  0.00    -0.014 A 
BRANCH  36  37
ATOM     37  C   UNL A   1      40.632  29.082  30.613  1.00  0.00     0.031 A 
ATOM     38  C   UNL A   1      41.499  28.889  31.828  1.00  0.00     0.074 A 
ATOM     39  C   UNL A   1      39.680  30.034  30.600  1.00  0.00     0.049 A 
ATOM     40  N   UNL A   1      41.490  29.545  32.959  1.00  0.00    -0.248 NA
ATOM     41  C   UNL A   1      42.484  27.796  31.777  1.00  0.00     0.031 C 
ATOM     42  C   UNL A   1      38.739  30.276  29.502  1.00  0.00     0.029 A 
ATOM     43  N   UNL A   1      39.339  30.972  31.541  1.00  0.00    -0.354 N 
ATOM     44  C   UNL A   1      42.451  28.934  33.758  1.00  0.00     0.074 A 
ATOM     45  C   UNL A   1      42.977  27.818  33.006  1.00  0.00     0.031 C 
ATOM     46  C   UNL A   1      37.951  31.317  29.820  1.00  0.00     0.029 A 
ATOM     47  C   UNL A   1      38.301  31.787  31.156  1.00  0.00     0.049 A 
ATOM     48  H   UNL A   1      39.796  31.055  32.409  1.00  0.00     0.167 HD
ATOM     49  C   UNL A   1      42.876  29.288  34.995  1.00  0.00     0.031 A 
ATOM     50  C   UNL A   1      37.693  32.796  31.807  1.00  0.00     0.031 A 
ATOM     51  C   UNL A   1      42.349  30.405  35.731  1.00  0.00     0.049 A 
ATOM     52  C   UNL A   1      38.183  33.176  33.176  1.00  0.00     0.074 A 
ATOM     53  C   UNL A   1      42.744  30.884  36.968  1.00  0.00     0.029 A 
ATOM     54  N   UNL A   1      41.312  31.219  35.299  1.00  0.00    -0.354 N 
ATOM     55  N   UNL A   1      39.142  32.631  33.887  1.00  0.00    -0.248 NA
ATOM     56  C   UNL A   1      37.522  34.316  33.823  1.00  0.00     0.031 C 
ATOM     57  C   UNL A   1      41.909  31.956  37.306  1.00  0.00     0.029 A 
ATOM     58  C   UNL A   1      41.036  32.183  36.253  1.00  0.00     0.049 A 
ATOM     59  H   UNL A   1      40.841  31.124  34.440  1.00  0.00     0.167 HD
ATOM     60  C   UNL A   1      39.211  33.373  35.060  1.00  0.00     0.074 A 
ATOM     61  C   UNL A   1      38.211  34.418  34.951  1.00  0.00     0.031 C 
ATOM     62  C   UNL A   1      40.027  33.206  36.131  1.00  0.00     0.031 A 
BRANCH  49  63
ATOM     63  C   UNL A   1      43.960  28.447  35.620  1.00  0.00    -0.014 A 
ATOM     64  C   UNL A   1      45.320  28.763  35.439  1.00  0.00     0.010 A 
ATOM     65  C   UNL A   1      43.618  27.331  36.406  1.00  0.00     0.010 A 
ATOM     66  C   UNL A   1      46.316  27.947  35.982  1.00  0.00     0.020 A 
ATOM     67  C   UNL A   1      44.613  26.532  36.979  1.00  0.00     0.020 A 
ATOM     68  C   UNL A   1      45.956  26.833  36.744  1.00  0.00     0.054 A 
BRANCH  68  69
ATOM     69  S   UNL A   1      47.270  25.793  37.437  1.00  0.00     0.124 S 
ATOM     70  O   UNL A   1      48.447  26.280  36.720  1.00  0.00    -0.237 OA
ATOM     71  O   UNL A   1      47.223  26.122  38.859  1.00  0.00    -0.237 OA
ATOM     72  O   UNL A   1      46.853  24.435  37.100  1.00  0.00    -0.744 OA
ENDBRANCH  68  69
ENDBRANCH  49  63
BRANCH  50  73
ATOM     73  C   UNL A   1      36.572  33.524  31.153  1.00  0.00    -0.014 A 
ATOM     74  C   UNL A   1      36.730  34.077  29.870  1.00  0.00     0.010 A 
ATOM     75  C   UNL A   1      35.322  33.624  31.791  1.00  0.00     0.010 A 
ATOM     76  C   UNL A   1      35.663  34.722  29.241  1.00  0.00     0.020 A 
ATOM     77  C   UNL A   1      34.244  34.244  31.153  1.00  0.00     0.020 A 
ATOM     78  C   UNL A   1      34.423  34.796  29.884  1.00  0.00     0.054 A 
BRANCH  78  79
ATOM     79  S   UNL A   1      33.032  35.573  29.015  1.00  0.00     0.124 S 
ATOM     80  O   UNL A   1      32.507  34.461  28.229  1.00  0.00    -0.237 OA
ATOM     81  O   UNL A   1      32.186  36.024  30.117  1.00  0.00    -0.237 OA
ATOM     82  O   UNL A   1      33.664  36.643  28.246  1.00  0.00    -0.744 OA
ENDBRANCH  78  79
ENDBRANCH  50  73
BRANCH  62  83
ATOM     83  C   UNL A   1      39.884  34.187  37.264  1.00  0.00    -0.014 A 
ATOM     84  C   UNL A   1      40.577  35.411  37.258  1.00  0.00     0.010 A 
ATOM     85  C   UNL A   1      39.008  33.898  38.326  1.00  0.00     0.010 A 
ATOM     86  C   UNL A   1      40.423  36.313  38.314  1.00  0.00     0.020 A 
ATOM     87  C   UNL A   1      38.828  34.811  39.367  1.00  0.00     0.020 A 
ATOM     88  C   UNL A   1      39.549  36.007  39.362  1.00  0.00     0.054 A 
BRANCH  88  89
ATOM     89  S   UNL A   1      39.338  37.210  40.702  1.00  0.00     0.124 S 
ATOM     90  O   UNL A   1      40.693  37.734  40.855  1.00  0.00    -0.237 OA
ATOM     91  O   UNL A   1      38.363  38.143  40.143  1.00  0.00    -0.237 OA
ATOM     92  O   UNL A   1      38.853  36.404  41.820  1.00  0.00    -0.744 OA
ENDBRANCH  88  89
ENDBRANCH  62  83
ENDBRANCH  36  37
ENDBRANCH  28  31
ENDBRANCH  26  27
ENDBRANCH   1  26
TORSDOF 17
ENDMDL
MODEL 2
REMARK VINA RESULT:     -11.8      6.647     12.162
REMARK SMILES CC(C)[NH2+][C@@]1(C(=O)NCCCNC(=O)c2ccc(-c3c4nc(c(-c5ccc(S(=O)(=O)[O-])cc5)c5ccc([nH]5)c(-c5ccc(S(=O)(=O)[O-])cc5)c5nc(c(-c6ccc(S(=O)(=O)[O-])cc6)c6ccc3[nH]6)C=C5)C=C4)cc2)CC[C@@H](Sc2cccc(Br)c2)C1
REMARK SMILES IDX 10 1 9 2 8 3 6 4 7 5 5 7 75 8 86 9 76 10 77 11 4 12 2 15
REMARK SMILES IDX 1 16 3 17 78 18 79 19 80 20 85 21 81 22 83 23 82 24 84 25
REMARK SMILES IDX 11 26 12 27 13 28 14 30 15 31 16 32 74 33 17 34 73 35 18 36
REMARK SMILES IDX 19 37 20 38 67 39 21 40 72 41 66 42 68 43 22 44 71 45 65 46
REMARK SMILES IDX 64 47 23 49 53 50 34 51 52 52 35 53 38 54 51 55 69 56 36 57
REMARK SMILES IDX 37 58 50 60 70 61 39 62 24 63 25 64 33 65 26 66 32 67 27 68
REMARK SMILES IDX 28 69 29 70 30 71 31 72 54 73 55 74 63 75 56 76 62 77 57 78
REMARK SMILES IDX 58 79 59 80 60 81 61 82 40 83 41 84 49 85 42 86 48 87 43 88
REMARK SMILES IDX 44 89 45 90 46 91 47 92
REMARK H PARENT 8 6 4 13 4 14 12 29 68 48 38 59
REMARK Flexibility Score: inf
ROOT
ATOM      1  C   UNL A   1      34.264  29.074  27.339  1.00  0.00     0.042 C 
ENDROOT
BRANCH   1   2
ATOM      2  C   UNL A   1      33.180  29.521  26.372  1.00  0.00     0.118 C 
BRANCH   2   3
ATOM      3  N   UNL A   1      33.603  29.501  24.995  1.00  0.00    -0.351 N 
ATOM      4  C   UNL A   1      33.236  28.721  23.952  1.00  0.00     0.281 C 
ATOM      5  O   UNL A   1      33.442  29.234  22.840  1.00  0.00    -0.268 OA
ATOM      6  H   UNL A   1      34.283  30.177  24.773  1.00  0.00     0.163 HD
BRANCH   4   7
ATOM      7  C   UNL A   1      32.542  27.302  24.048  1.00  0.00     0.176 C 
ATOM      8  C   UNL A   1      33.164  26.487  25.201  1.00  0.00     0.080 C 
ATOM      9  C   UNL A   1      32.612  26.369  22.829  1.00  0.00     0.094 C 
ATOM     10  C   UNL A   1      34.001  25.358  24.598  1.00  0.00     0.022 C 
ATOM     11  C   UNL A   1      33.699  25.327  23.101  1.00  0.00     0.058 C 
BRANCH   7  12
ATOM     12  N   UNL A   1      31.125  27.579  24.463  1.00  0.00    -0.332 N 
ATOM     13  H   UNL A   1      30.888  26.902  25.189  1.00  0.00     0.347 HD
ATOM     14  H   UNL A   1      31.138  28.559  24.743  1.00  0.00     0.347 HD
BRANCH  12  15
ATOM     15  C   UNL A   1      30.060  27.514  23.448  1.00  0.00     0.176 C 
ATOM     16  C   UNL A   1      28.991  26.554  23.985  1.00  0.00     0.075 C 
ATOM     17  C   UNL A   1      29.395  28.843  23.083  1.00  0.00     0.075 C 
ENDBRANCH  12  15
ENDBRANCH   7  12
BRANCH  11  18
ATOM     18  S   UNL A   1      33.352  23.686  22.348  1.00  0.00    -0.122 SA
BRANCH  18  19
ATOM     19  C   UNL A   1      33.974  22.566  23.581  1.00  0.00     0.009 A 
ATOM     20  C   UNL A   1      33.064  21.801  24.321  1.00  0.00     0.015 A 
ATOM     21  C   UNL A   1      35.344  22.420  23.807  1.00  0.00     0.030 A 
ATOM     22  C   UNL A   1      33.519  20.862  25.248  1.00  0.00     0.002 A 
ATOM     23  C   UNL A   1      35.793  21.484  24.736  1.00  0.00     0.019 A 
ATOM     24  C   UNL A   1      34.889  20.698  25.451  1.00  0.00     0.016 A 
ATOM     25  Br  UNL A   1      37.650  21.268  25.020  1.00  0.00    -0.051 Br
ENDBRANCH  18  19
ENDBRANCH  11  18
ENDBRANCH   4   7
ENDBRANCH   2   3
ENDBRANCH   1   2
BRANCH   1  26
ATOM     26  C   UNL A   1      35.317  30.146  27.583  1.00  0.00     0.118 C 
BRANCH  26  27
ATOM     27  N   UNL A   1      35.362  30.555  28.984  1.00  0.00    -0.352 N 
ATOM     28  C   UNL A   1      36.312  30.329  29.944  1.00  0.00     0.251 C 
ATOM     29  H   UNL A   1      34.585  31.078  29.287  1.00  0.00     0.163 HD
ATOM     30  O   UNL A   1      36.024  30.523  31.130  1.00  0.00    -0.269 OA
BRANCH  28  31
ATOM     31  C   UNL A   1      37.661  29.862  29.576  1.00  0.00     0.039 A 
ATOM     32  C   UNL A   1      38.032  29.836  28.230  1.00  0.00     0.014 A 
ATOM     33  C   UNL A   1      38.551  29.414  30.555  1.00  0.00     0.014 A 
ATOM     34  C   UNL A   1      39.314  29.415  27.874  1.00  0.00     0.010 A 
ATOM     35  C   UNL A   1      39.858  29.094  30.211  1.00  0.00     0.010 A 
ATOM     36  C   UNL A   1      40.249  29.075  28.866  1.00  0.00    -0.014 A 
BRANCH  36  37
ATOM     37  C   UNL A   1      41.637  28.688  28.519  1.00  0.00     0.031 A 
ATOM     38  C   UNL A   1      42.729  29.724  28.495  1.00  0.00     0.074 A 
ATOM     39  C   UNL A   1      41.897  27.416  28.156  1.00  0.00     0.049 A 
ATOM     40  N   UNL A   1      43.987  29.588  28.165  1.00  0.00    -0.248 NA
ATOM     41  C   UNL A   1      42.350  31.099  28.861  1.00  0.00     0.031 C 
ATOM     42  C   UNL A   1      40.907  26.338  28.082  1.00  0.00     0.029 A 
ATOM     43  N   UNL A   1      43.070  26.817  27.776  1.00  0.00    -0.354 N 
ATOM     44  C   UNL A   1      44.543  30.859  28.265  1.00  0.00     0.074 A 
ATOM     45  C   UNL A   1      43.472  31.761  28.624  1.00  0.00     0.031 C 
ATOM     46  C   UNL A   1      41.522  25.202  27.713  1.00  0.00     0.029 A 
ATOM     47  C   UNL A   1      42.936  25.480  27.483  1.00  0.00     0.049 A 
ATOM     48  H   UNL A   1      43.927  27.298  27.718  1.00  0.00     0.167 HD
ATOM     49  C   UNL A   1      45.833  31.236  28.099  1.00  0.00     0.031 A 
ATOM     50  C   UNL A   1      43.846  24.579  27.071  1.00  0.00     0.031 A 
ATOM     51  C   UNL A   1      46.892  30.329  27.748  1.00  0.00     0.049 A 
ATOM     52  C   UNL A   1      45.273  25.016  26.899  1.00  0.00     0.074 A 
ATOM     53  C   UNL A   1      48.243  30.594  27.608  1.00  0.00     0.029 A 
ATOM     54  N   UNL A   1      46.720  28.978  27.481  1.00  0.00    -0.354 N 
ATOM     55  N   UNL A   1      45.795  26.209  27.068  1.00  0.00    -0.248 NA
ATOM     56  C   UNL A   1      46.238  23.984  26.498  1.00  0.00     0.031 C 
ATOM     57  C   UNL A   1      48.878  29.414  27.203  1.00  0.00     0.029 A 
ATOM     58  C   UNL A   1      47.934  28.401  27.152  1.00  0.00     0.049 A 
ATOM     59  H   UNL A   1      45.859  28.501  27.518  1.00  0.00     0.167 HD
ATOM     60  C   UNL A   1      47.153  26.068  26.809  1.00  0.00     0.074 A 
ATOM     61  C   UNL A   1      47.374  24.669  26.495  1.00  0.00     0.031 C 
ATOM     62  C   UNL A   1      48.130  27.009  26.829  1.00  0.00     0.031 A 
BRANCH  49  63
ATOM     63  C   UNL A   1      46.158  32.696  28.295  1.00  0.00    -0.014 A 
ATOM     64  C   UNL A   1      46.506  33.199  29.562  1.00  0.00     0.010 A 
ATOM     65  C   UNL A   1      46.123  33.576  27.198  1.00  0.00     0.010 A 
ATOM     66  C   UNL A   1      46.756  34.563  29.740  1.00  0.00     0.020 A 
ATOM     67  C   UNL A   1      46.406  34.936  27.366  1.00  0.00     0.020 A 
ATOM     68  C   UNL A   1      46.699  35.423  28.641  1.00  0.00     0.054 A 
BRANCH  68  69
ATOM     69  S   UNL A   1      47.028  37.187  28.901  1.00  0.00     0.124 S 
ATOM     70  O   UNL A   1      48.247  37.383  28.120  1.00  0.00    -0.237 OA
ATOM     71  O   UNL A   1      45.829  37.821  28.361  1.00  0.00    -0.237 OA
ATOM     72  O   UNL A   1      47.191  37.300  30.348  1.00  0.00    -0.744 OA
ENDBRANCH  68  69
ENDBRANCH  49  63
BRANCH  50  73
ATOM     73  C   UNL A   1      43.428  23.173  26.819  1.00  0.00    -0.014 A 
ATOM     74  C   UNL A   1      43.614  22.587  25.556  1.00  0.00     0.010 A 
ATOM     75  C   UNL A   1      42.887  22.396  27.861  1.00  0.00     0.010 A 
ATOM     76  C   UNL A   1      43.260  21.253  25.335  1.00  0.00     0.020 A 
ATOM     77  C   UNL A   1      42.557  21.054  27.651  1.00  0.00     0.020 A 
ATOM     78  C   UNL A   1      42.740  20.492  26.386  1.00  0.00     0.054 A 
BRANCH  78  79
ATOM     79  S   UNL A   1      42.358  18.742  26.095  1.00  0.00     0.124 S 
ATOM     80  O   UNL A   1      43.302  18.398  25.037  1.00  0.00    -0.237 OA
ATOM     81  O   UNL A   1      42.624  18.142  27.400  1.00  0.00    -0.237 OA
ATOM     82  O   UNL A   1      40.952  18.761  25.701  1.00  0.00    -0.744 OA
ENDBRANCH  78  79
ENDBRANCH  50  73
BRANCH  62  83
ATOM     83  C   UNL A   1      49.531  26.553  26.520  1.00  0.00    -0.014 A 
ATOM     84  C   UNL A   1      50.355  26.004  27.519  1.00  0.00     0.010 A 
ATOM     85  C   UNL A   1      50.011  26.632  25.200  1.00  0.00     0.010 A 
ATOM     86  C   UNL A   1      51.648  25.577  27.209  1.00  0.00     0.020 A 
ATOM     87  C   UNL A   1      51.292  26.178  24.881  1.00  0.00     0.020 A 
ATOM     88  C   UNL A   1      52.109  25.667  25.892  1.00  0.00     0.054 A 
BRANCH  88  89
ATOM     89  S   UNL A   1      53.778  25.071  25.509  1.00  0.00     0.124 S 
ATOM     90  O   UNL A   1      54.523  25.468  26.700  1.00  0.00    -0.237 OA
ATOM     91  O   UNL A   1      53.575  23.633  25.344  1.00  0.00    -0.237 OA
ATOM     92  O   UNL A   1      54.131  25.789  24.286  1.00  0.00    -0.744 OA
ENDBRANCH  88  89
ENDBRANCH  62  83
ENDBRANCH  36  37
ENDBRANCH  28  31
ENDBRANCH  26  27
ENDBRANCH   1  26
TORSDOF 17
ENDMDL
MODEL 3
REMARK VINA RESULT:     -11.6      4.953      7.564
REMARK SMILES CC(C)[NH2+][C@@]1(C(=O)NCCCNC(=O)c2ccc(-c3c4nc(c(-c5ccc(S(=O)(=O)[O-])cc5)c5ccc([nH]5)c(-c5ccc(S(=O)(=O)[O-])cc5)c5nc(c(-c6ccc(S(=O)(=O)[O-])cc6)c6ccc3[nH]6)C=C5)C=C4)cc2)CC[C@@H](Sc2cccc(Br)c2)C1
REMARK SMILES IDX 10 1 9 2 8 3 6 4 7 5 5 7 75 8 86 9 76 10 77 11 4 12 2 15
REMARK SMILES IDX 1 16 3 17 78 18 79 19 80 20 85 21 81 22 83 23 82 24 84 25
REMARK SMILES IDX 11 26 12 27 13 28 14 30 15 31 16 32 74 33 17 34 73 35 18 36
REMARK SMILES IDX 19 37 20 38 67 39 21 40 72 41 66 42 68 43 22 44 71 45 65 46
REMARK SMILES IDX 64 47 23 49 53 50 34 51 52 52 35 53 38 54 51 55 69 56 36 57
REMARK SMILES IDX 37 58 50 60 70 61 39 62 24 63 25 64 33 65 26 66 32 67 27 68
REMARK SMILES IDX 28 69 29 70 30 71 31 72 54 73 55 74 63 75 56 76 62 77 57 78
REMARK SMILES IDX 58 79 59 80 60 81 61 82 40 83 41 84 49 85 42 86 48 87 43 88
REMARK SMILES IDX 44 89 45 90 46 91 47 92
REMARK H PARENT 8 6 4 13 4 14 12 29 68 48 38 59
REMARK Flexibility Score: inf
ROOT
ATOM      1  C   UNL A   1      42.070  22.113  26.680  1.00  0.00     0.042 C 
ENDROOT
BRANCH   1   2
ATOM      2  C   UNL A   1      42.499  23.378  27.406  1.00  0.00     0.118 C 
BRANCH   2   3
ATOM      3  N   UNL A   1      43.555  23.155  28.359  1.00  0.00    -0.351 N 
ATOM      4  C   UNL A   1      44.819  23.631  28.430  1.00  0.00     0.281 C 
ATOM      5  O   UNL A   1      45.305  23.609  29.573  1.00  0.00    -0.268 OA
ATOM      6  H   UNL A   1      43.313  22.545  29.093  1.00  0.00     0.163 HD
BRANCH   4   7
ATOM      7  C   UNL A   1      45.653  24.240  27.231  1.00  0.00     0.176 C 
ATOM      8  C   UNL A   1      47.109  24.490  27.675  1.00  0.00     0.080 C 
ATOM      9  C   UNL A   1      45.196  25.576  26.624  1.00  0.00     0.094 C 
ATOM     10  C   UNL A   1      47.328  25.998  27.789  1.00  0.00     0.022 C 
ATOM     11  C   UNL A   1      46.099  26.676  27.185  1.00  0.00     0.058 C 
BRANCH   7  12
ATOM     12  N   UNL A   1      45.723  23.149  26.200  1.00  0.00    -0.332 N 
ATOM     13  H   UNL A   1      46.654  22.736  26.263  1.00  0.00     0.347 HD
ATOM     14  H   UNL A   1      44.939  22.540  26.433  1.00  0.00     0.347 HD
BRANCH  12  15
ATOM     15  C   UNL A   1      45.498  23.491  24.786  1.00  0.00     0.176 C 
ATOM     16  C   UNL A   1      46.850  23.355  24.074  1.00  0.00     0.075 C 
ATOM     17  C   UNL A   1      44.460  22.646  24.045  1.00  0.00     0.075 C 
ENDBRANCH  12  15
ENDBRANCH   7  12
BRANCH  11  18
ATOM     18  S   UNL A   1      46.394  28.059  26.009  1.00  0.00    -0.122 SA
BRANCH  18  19
ATOM     19  C   UNL A   1      45.551  29.411  26.798  1.00  0.00     0.009 A 
ATOM     20  C   UNL A   1      44.151  29.430  26.794  1.00  0.00     0.015 A 
ATOM     21  C   UNL A   1      46.254  30.435  27.435  1.00  0.00     0.030 A 
ATOM     22  C   UNL A   1      43.456  30.439  27.463  1.00  0.00     0.002 A 
ATOM     23  C   UNL A   1      45.556  31.442  28.098  1.00  0.00     0.019 A 
ATOM     24  C   UNL A   1      44.161  31.445  28.123  1.00  0.00     0.016 A 
ATOM     25  Br  UNL A   1      46.511  32.812  28.984  1.00  0.00    -0.051 Br
ENDBRANCH  18  19
ENDBRANCH  11  18
ENDBRANCH   4   7
ENDBRANCH   2   3
ENDBRANCH   1   2
BRANCH   1  26
ATOM     26  C   UNL A   1      40.733  21.574  27.169  1.00  0.00     0.118 C 
BRANCH  26  27
ATOM     27  N   UNL A   1      39.649  21.880  26.239  1.00  0.00    -0.352 N 
ATOM     28  C   UNL A   1      38.859  22.993  26.133  1.00  0.00     0.251 C 
ATOM     29  H   UNL A   1      39.456  21.172  25.583  1.00  0.00     0.163 HD
ATOM     30  O   UNL A   1      37.824  22.932  25.461  1.00  0.00    -0.269 OA
BRANCH  28  31
ATOM     31  C   UNL A   1      39.232  24.250  26.807  1.00  0.00     0.039 A 
ATOM     32  C   UNL A   1      38.847  24.456  28.134  1.00  0.00     0.014 A 
ATOM     33  C   UNL A   1      39.930  25.246  26.119  1.00  0.00     0.014 A 
ATOM     34  C   UNL A   1      39.215  25.634  28.786  1.00  0.00     0.010 A 
ATOM     35  C   UNL A   1      40.382  26.370  26.798  1.00  0.00     0.010 A 
ATOM     36  C   UNL A   1      40.016  26.584  28.133  1.00  0.00    -0.014 A 
BRANCH  36  37
ATOM     37  C   UNL A   1      40.474  27.814  28.823  1.00  0.00     0.031 A 
ATOM     38  C   UNL A   1      41.849  27.871  29.433  1.00  0.00     0.074 A 
ATOM     39  C   UNL A   1      39.624  28.850  28.961  1.00  0.00     0.049 A 
ATOM     40  N   UNL A   1      42.405  28.835  30.121  1.00  0.00    -0.248 NA
ATOM     41  C   UNL A   1      42.698  26.679  29.276  1.00  0.00     0.031 C 
ATOM     42  C   UNL A   1      38.245  28.885  28.465  1.00  0.00     0.029 A 
ATOM     43  N   UNL A   1      39.791  30.070  29.565  1.00  0.00    -0.354 N 
ATOM     44  C   UNL A   1      43.658  28.358  30.492  1.00  0.00     0.074 A 
ATOM     45  C   UNL A   1      43.754  27.000  30.009  1.00  0.00     0.031 C 
ATOM     46  C   UNL A   1      37.704  30.079  28.756  1.00  0.00     0.029 A 
ATOM     47  C   UNL A   1      38.679  30.876  29.494  1.00  0.00     0.049 A 
ATOM     48  H   UNL A   1      40.627  30.343  30.006  1.00  0.00     0.167 HD
ATOM     49  C   UNL A   1      44.649  29.003  31.153  1.00  0.00     0.031 A 
ATOM     50  C   UNL A   1      38.465  32.115  29.973  1.00  0.00     0.031 A 
ATOM     51  C   UNL A   1      44.546  30.358  31.624  1.00  0.00     0.049 A 
ATOM     52  C   UNL A   1      39.579  32.815  30.698  1.00  0.00     0.074 A 
ATOM     53  C   UNL A   1      45.508  31.125  32.256  1.00  0.00     0.029 A 
ATOM     54  N   UNL A   1      43.411  31.148  31.515  1.00  0.00    -0.354 N 
ATOM     55  N   UNL A   1      40.784  32.374  30.978  1.00  0.00    -0.248 NA
ATOM     56  C   UNL A   1      39.314  34.184  31.157  1.00  0.00     0.031 C 
ATOM     57  C   UNL A   1      44.936  32.362  32.577  1.00  0.00     0.029 A 
ATOM     58  C   UNL A   1      43.639  32.387  32.089  1.00  0.00     0.049 A 
ATOM     59  H   UNL A   1      42.567  30.869  31.092  1.00  0.00     0.167 HD
ATOM     60  C   UNL A   1      41.426  33.419  31.632  1.00  0.00     0.074 A 
ATOM     61  C   UNL A   1      40.483  34.520  31.684  1.00  0.00     0.031 C 
ATOM     62  C   UNL A   1      42.682  33.465  32.142  1.00  0.00     0.031 A 
BRANCH  49  63
ATOM     63  C   UNL A   1      45.925  28.239  31.402  1.00  0.00    -0.014 A 
ATOM     64  C   UNL A   1      46.058  27.392  32.519  1.00  0.00     0.010 A 
ATOM     65  C   UNL A   1      47.003  28.359  30.506  1.00  0.00     0.010 A 
ATOM     66  C   UNL A   1      47.262  26.727  32.766  1.00  0.00     0.020 A 
ATOM     67  C   UNL A   1      48.198  27.668  30.733  1.00  0.00     0.020 A 
ATOM     68  C   UNL A   1      48.327  26.874  31.874  1.00  0.00     0.054 A 
BRANCH  68  69
ATOM     69  S   UNL A   1      49.877  25.999  32.220  1.00  0.00     0.124 S 
ATOM     70  O   UNL A   1      50.538  26.915  33.147  1.00  0.00    -0.237 OA
ATOM     71  O   UNL A   1      49.413  24.744  32.803  1.00  0.00    -0.237 OA
ATOM     72  O   UNL A   1      50.508  25.878  30.908  1.00  0.00    -0.744 OA
ENDBRANCH  68  69
ENDBRANCH  49  63
BRANCH  50  73
ATOM     73  C   UNL A   1      37.146  32.770  29.756  1.00  0.00    -0.014 A 
ATOM     74  C   UNL A   1      36.198  32.829  30.792  1.00  0.00     0.010 A 
ATOM     75  C   UNL A   1      36.853  33.384  28.525  1.00  0.00     0.010 A 
ATOM     76  C   UNL A   1      34.978  33.483  30.598  1.00  0.00     0.020 A 
ATOM     77  C   UNL A   1      35.646  34.063  28.336  1.00  0.00     0.020 A 
ATOM     78  C   UNL A   1      34.712  34.102  29.373  1.00  0.00     0.054 A 
BRANCH  78  79
ATOM     79  S   UNL A   1      33.153  35.009  29.172  1.00  0.00     0.124 S 
ATOM     80  O   UNL A   1      33.622  36.340  28.805  1.00  0.00    -0.237 OA
ATOM     81  O   UNL A   1      32.487  34.257  28.111  1.00  0.00    -0.237 OA
ATOM     82  O   UNL A   1      32.525  34.904  30.487  1.00  0.00    -0.744 OA
ENDBRANCH  78  79
ENDBRANCH  50  73
BRANCH  62  83
ATOM     83  C   UNL A   1      43.115  34.754  32.788  1.00  0.00    -0.014 A 
ATOM     84  C   UNL A   1      43.024  34.938  34.179  1.00  0.00     0.010 A 
ATOM     85  C   UNL A   1      43.666  35.777  31.995  1.00  0.00     0.010 A 
ATOM     86  C   UNL A   1      43.442  36.137  34.761  1.00  0.00     0.020 A 
ATOM     87  C   UNL A   1      44.113  36.965  32.576  1.00  0.00     0.020 A 
ATOM     88  C   UNL A   1      43.983  37.144  33.955  1.00  0.00     0.054 A 
BRANCH  88  89
ATOM     89  S   UNL A   1      44.553  38.676  34.739  1.00  0.00     0.124 S 
ATOM     90  O   UNL A   1      43.895  39.696  33.926  1.00  0.00    -0.237 OA
ATOM     91  O   UNL A   1      44.053  38.543  36.105  1.00  0.00    -0.237 OA
ATOM     92  O   UNL A   1      46.006  38.616  34.604  1.00  0.00    -0.744 OA
ENDBRANCH  88  89
ENDBRANCH  62  83
ENDBRANCH  36  37
ENDBRANCH  28  31
ENDBRANCH  26  27
ENDBRANCH   1  26
TORSDOF 17
ENDMDL
