MODEL 1
REMARK VINA RESULT:      -9.5      0.000      0.000
REMARK SMILES C[C@@H](CCO)SCc1cccc(/C=C/C(=O)NCCCNC(=O)c2ccc(-c3c4nc(c(-c5ccc(S(=O)(=O)[O-])cc5)c5ccc([nH]5)c(-c5ccc(S(=O)(=O)[O-])cc5)c5nc(c(-c6ccc(S(=O)(=O)[O-])cc6)c6ccc3[nH]6)C=C5)C=C4)cc2)c1
REMARK SMILES IDX 15 1 16 2 17 3 14 5 13 6 12 7 8 8 9 9 84 10 10 11 11 12 7 13
REMARK SMILES IDX 6 14 2 15 1 16 3 17 4 18 5 19 18 21 19 22 20 23 21 24 22 25
REMARK SMILES IDX 23 27 24 28 25 29 83 30 26 31 82 32 27 33 28 34 29 35 76 36
REMARK SMILES IDX 30 37 81 38 75 39 77 40 31 41 80 42 74 43 73 44 32 46 62 47
REMARK SMILES IDX 43 48 61 49 44 50 47 51 60 52 78 53 45 54 46 55 59 57 79 58
REMARK SMILES IDX 48 59 33 60 34 61 42 62 35 63 41 64 36 65 37 66 38 67 39 68
REMARK SMILES IDX 40 69 63 70 64 71 72 72 65 73 71 74 66 75 67 76 68 77 69 78
REMARK SMILES IDX 70 79 49 80 50 81 58 82 51 83 57 84 52 85 53 86 54 87 55 88
REMARK SMILES IDX 56 89
REMARK H PARENT 17 4 5 20 21 26 77 45 47 56
REMARK Flexibility Score: inf
ROOT
ATOM      1  C   UNL A   1      31.024  28.876  22.934  1.00  0.00     0.244 C 
ATOM      2  O   UNL A   1      30.327  29.318  22.019  1.00  0.00    -0.270 OA
ATOM      3  N   UNL A   1      31.110  29.590  24.082  1.00  0.00    -0.352 N 
ATOM      4  H   UNL A   1      30.649  30.459  24.046  1.00  0.00     0.163 HD
ENDROOT
BRANCH   1   5
ATOM      5  C   UNL A   1      31.662  27.549  22.745  1.00  0.00     0.072 C 
ATOM      6  C   UNL A   1      31.266  26.353  23.205  1.00  0.00     0.014 C 
BRANCH   6   7
ATOM      7  C   UNL A   1      31.989  25.079  23.014  1.00  0.00    -0.025 A 
ATOM      8  C   UNL A   1      32.845  23.003  24.023  1.00  0.00    -0.037 A 
ATOM      9  C   UNL A   1      33.452  22.688  22.802  1.00  0.00     0.004 A 
ATOM     10  C   UNL A   1      32.167  24.235  24.125  1.00  0.00     0.012 A 
ATOM     11  C   UNL A   1      33.278  23.507  21.689  1.00  0.00     0.001 A 
ATOM     12  C   UNL A   1      32.542  24.688  21.791  1.00  0.00     0.008 A 
BRANCH   8  13
ATOM     13  C   UNL A   1      32.936  22.114  25.248  1.00  0.00     0.105 C 
BRANCH  13  14
ATOM     14  S   UNL A   1      32.409  20.379  25.048  1.00  0.00    -0.154 SA
BRANCH  14  15
ATOM     15  C   UNL A   1      33.932  19.505  24.467  1.00  0.00     0.046 C 
ATOM     16  C   UNL A   1      35.213  20.177  24.943  1.00  0.00     0.019 C 
BRANCH  15  17
ATOM     17  C   UNL A   1      33.863  17.968  24.535  1.00  0.00     0.042 C 
BRANCH  17  18
ATOM     18  C   UNL A   1      33.626  17.132  23.276  1.00  0.00     0.157 C 
BRANCH  18  19
ATOM     19  O   UNL A   1      32.382  17.347  22.645  1.00  0.00    -0.396 OA
ATOM     20  H   UNL A   1      31.964  18.141  23.016  1.00  0.00     0.210 HD
ENDBRANCH  18  19
ENDBRANCH  17  18
ENDBRANCH  15  17
ENDBRANCH  14  15
ENDBRANCH  13  14
ENDBRANCH   8  13
ENDBRANCH   6   7
ENDBRANCH   1   5
BRANCH   3  21
ATOM     21  C   UNL A   1      31.754  29.318  25.353  1.00  0.00     0.118 C 
BRANCH  21  22
ATOM     22  C   UNL A   1      33.211  28.898  25.170  1.00  0.00     0.042 C 
BRANCH  22  23
ATOM     23  C   UNL A   1      34.122  29.311  26.326  1.00  0.00     0.118 C 
BRANCH  23  24
ATOM     24  N   UNL A   1      33.866  30.677  26.763  1.00  0.00    -0.352 N 
ATOM     25  C   UNL A   1      34.429  31.403  27.778  1.00  0.00     0.251 C 
ATOM     26  H   UNL A   1      33.179  31.154  26.244  1.00  0.00     0.163 HD
ATOM     27  O   UNL A   1      33.892  32.459  28.125  1.00  0.00    -0.269 OA
BRANCH  25  28
ATOM     28  C   UNL A   1      35.658  30.946  28.461  1.00  0.00     0.039 A 
ATOM     29  C   UNL A   1      36.851  31.643  28.242  1.00  0.00     0.014 A 
ATOM     30  C   UNL A   1      35.659  29.801  29.263  1.00  0.00     0.014 A 
ATOM     31  C   UNL A   1      38.028  31.222  28.864  1.00  0.00     0.010 A 
ATOM     32  C   UNL A   1      36.819  29.421  29.934  1.00  0.00     0.010 A 
ATOM     33  C   UNL A   1      38.018  30.123  29.737  1.00  0.00    -0.014 A 
BRANCH  33  34
ATOM     34  C   UNL A   1      39.247  29.693  30.453  1.00  0.00     0.031 A 
ATOM     35  C   UNL A   1      39.683  30.400  31.707  1.00  0.00     0.074 A 
ATOM     36  C   UNL A   1      40.005  28.705  29.936  1.00  0.00     0.049 A 
ATOM     37  N   UNL A   1      40.765  30.221  32.422  1.00  0.00    -0.248 NA
ATOM     38  C   UNL A   1      38.799  31.464  32.213  1.00  0.00     0.031 C 
ATOM     39  C   UNL A   1      39.709  27.966  28.706  1.00  0.00     0.029 A 
ATOM     40  N   UNL A   1      41.185  28.159  30.373  1.00  0.00    -0.354 N 
ATOM     41  C   UNL A   1      40.702  31.157  33.448  1.00  0.00     0.074 A 
ATOM     42  C   UNL A   1      39.498  31.932  33.237  1.00  0.00     0.031 C 
ATOM     43  C   UNL A   1      40.673  27.055  28.497  1.00  0.00     0.029 A 
ATOM     44  C   UNL A   1      41.673  27.169  29.553  1.00  0.00     0.049 A 
ATOM     45  H   UNL A   1      41.641  28.449  31.196  1.00  0.00     0.167 HD
ATOM     46  C   UNL A   1      41.559  31.343  34.480  1.00  0.00     0.031 A 
ATOM     47  C   UNL A   1      42.803  26.441  29.633  1.00  0.00     0.031 A 
ATOM     48  C   UNL A   1      42.749  30.563  34.691  1.00  0.00     0.049 A 
ATOM     49  C   UNL A   1      43.738  26.662  30.790  1.00  0.00     0.074 A 
ATOM     50  C   UNL A   1      43.660  30.645  35.731  1.00  0.00     0.029 A 
ATOM     51  N   UNL A   1      43.193  29.554  33.850  1.00  0.00    -0.354 N 
ATOM     52  N   UNL A   1      43.636  27.523  31.775  1.00  0.00    -0.248 NA
ATOM     53  C   UNL A   1      44.930  25.807  30.854  1.00  0.00     0.031 C 
ATOM     54  C   UNL A   1      44.677  29.715  35.496  1.00  0.00     0.029 A 
ATOM     55  C   UNL A   1      44.371  29.015  34.339  1.00  0.00     0.049 A 
ATOM     56  H   UNL A   1      42.738  29.262  33.028  1.00  0.00     0.167 HD
ATOM     57  C   UNL A   1      44.740  27.297  32.588  1.00  0.00     0.074 A 
ATOM     58  C   UNL A   1      45.486  26.209  31.988  1.00  0.00     0.031 C 
ATOM     59  C   UNL A   1      45.103  27.933  33.730  1.00  0.00     0.031 A 
BRANCH  46  60
ATOM     60  C   UNL A   1      41.236  32.436  35.467  1.00  0.00    -0.014 A 
ATOM     61  C   UNL A   1      40.425  32.182  36.588  1.00  0.00     0.010 A 
ATOM     62  C   UNL A   1      41.784  33.720  35.297  1.00  0.00     0.010 A 
ATOM     63  C   UNL A   1      40.137  33.201  37.500  1.00  0.00     0.020 A 
ATOM     64  C   UNL A   1      41.520  34.736  36.222  1.00  0.00     0.020 A 
ATOM     65  C   UNL A   1      40.685  34.473  37.310  1.00  0.00     0.054 A 
BRANCH  65  66
ATOM     66  S   UNL A   1      40.316  35.769  38.524  1.00  0.00     0.124 S 
ATOM     67  O   UNL A   1      39.375  35.090  39.411  1.00  0.00    -0.237 OA
ATOM     68  O   UNL A   1      41.629  36.052  39.099  1.00  0.00    -0.237 OA
ATOM     69  O   UNL A   1      39.747  36.847  37.719  1.00  0.00    -0.744 OA
ENDBRANCH  65  66
ENDBRANCH  46  60
BRANCH  47  70
ATOM     70  C   UNL A   1      43.102  25.425  28.587  1.00  0.00    -0.014 A 
ATOM     71  C   UNL A   1      42.544  24.137  28.662  1.00  0.00     0.010 A 
ATOM     72  C   UNL A   1      43.923  25.753  27.493  1.00  0.00     0.010 A 
ATOM     73  C   UNL A   1      42.811  23.192  27.667  1.00  0.00     0.020 A 
ATOM     74  C   UNL A   1      44.170  24.819  26.483  1.00  0.00     0.020 A 
ATOM     75  C   UNL A   1      43.619  23.541  26.581  1.00  0.00     0.054 A 
BRANCH  75  76
ATOM     76  S   UNL A   1      43.898  22.318  25.269  1.00  0.00     0.124 S 
ATOM     77  O   UNL A   1      45.352  22.327  25.149  1.00  0.00    -0.237 OA
ATOM     78  O   UNL A   1      43.316  21.105  25.838  1.00  0.00    -0.237 OA
ATOM     79  O   UNL A   1      43.171  22.873  24.129  1.00  0.00    -0.744 OA
ENDBRANCH  75  76
ENDBRANCH  47  70
BRANCH  59  80
ATOM     80  C   UNL A   1      46.348  27.452  34.425  1.00  0.00    -0.014 A 
ATOM     81  C   UNL A   1      47.604  28.019  34.146  1.00  0.00     0.010 A 
ATOM     82  C   UNL A   1      46.248  26.455  35.412  1.00  0.00     0.010 A 
ATOM     83  C   UNL A   1      48.743  27.576  34.822  1.00  0.00     0.020 A 
ATOM     84  C   UNL A   1      47.382  26.028  36.109  1.00  0.00     0.020 A 
ATOM     85  C   UNL A   1      48.625  26.583  35.799  1.00  0.00     0.054 A 
BRANCH  85  86
ATOM     86  S   UNL A   1      50.112  26.057  36.695  1.00  0.00     0.124 S 
ATOM     87  O   UNL A   1      51.175  26.662  35.900  1.00  0.00    -0.237 OA
ATOM     88  O   UNL A   1      49.909  26.637  38.021  1.00  0.00    -0.237 OA
ATOM     89  O   UNL A   1      50.049  24.598  36.646  1.00  0.00    -0.744 OA
ENDBRANCH  85  86
ENDBRANCH  59  80
ENDBRANCH  33  34
ENDBRANCH  25  28
ENDBRANCH  23  24
ENDBRANCH  22  23
ENDBRANCH  21  22
ENDBRANCH   3  21
TORSDOF 20
ENDMDL
MODEL 2
REMARK VINA RESULT:      -9.5      6.437     11.656
REMARK SMILES C[C@@H](CCO)SCc1cccc(/C=C/C(=O)NCCCNC(=O)c2ccc(-c3c4nc(c(-c5ccc(S(=O)(=O)[O-])cc5)c5ccc([nH]5)c(-c5ccc(S(=O)(=O)[O-])cc5)c5nc(c(-c6ccc(S(=O)(=O)[O-])cc6)c6ccc3[nH]6)C=C5)C=C4)cc2)c1
REMARK SMILES IDX 15 1 16 2 17 3 14 5 13 6 12 7 8 8 9 9 84 10 10 11 11 12 7 13
REMARK SMILES IDX 6 14 2 15 1 16 3 17 4 18 5 19 18 21 19 22 20 23 21 24 22 25
REMARK SMILES IDX 23 27 24 28 25 29 83 30 26 31 82 32 27 33 28 34 29 35 76 36
REMARK SMILES IDX 30 37 81 38 75 39 77 40 31 41 80 42 74 43 73 44 32 46 62 47
REMARK SMILES IDX 43 48 61 49 44 50 47 51 60 52 78 53 45 54 46 55 59 57 79 58
REMARK SMILES IDX 48 59 33 60 34 61 42 62 35 63 41 64 36 65 37 66 38 67 39 68
REMARK SMILES IDX 40 69 63 70 64 71 72 72 65 73 71 74 66 75 67 76 68 77 69 78
REMARK SMILES IDX 70 79 49 80 50 81 58 82 51 83 57 84 52 85 53 86 54 87 55 88
REMARK SMILES IDX 56 89
REMARK H PARENT 17 4 5 20 21 26 77 45 47 56
REMARK Flexibility Score: inf
ROOT
ATOM      1  C   UNL A   1      42.995  36.109  26.657  1.00  0.00     0.244 C 
ATOM      2  O   UNL A   1      43.176  35.301  25.746  1.00  0.00    -0.270 OA
ATOM      3  N   UNL A   1      43.703  37.264  26.645  1.00  0.00    -0.352 N 
ATOM      4  H   UNL A   1      44.370  37.316  25.922  1.00  0.00     0.163 HD
ENDROOT
BRANCH   1   5
ATOM      5  C   UNL A   1      41.955  35.798  27.669  1.00  0.00     0.072 C 
ATOM      6  C   UNL A   1      42.085  35.156  28.840  1.00  0.00     0.014 C 
BRANCH   6   7
ATOM      7  C   UNL A   1      40.985  34.841  29.772  1.00  0.00    -0.025 A 
ATOM      8  C   UNL A   1      40.310  34.196  32.050  1.00  0.00    -0.037 A 
ATOM      9  C   UNL A   1      38.986  34.104  31.606  1.00  0.00     0.004 A 
ATOM     10  C   UNL A   1      41.304  34.508  31.101  1.00  0.00     0.012 A 
ATOM     11  C   UNL A   1      38.650  34.439  30.296  1.00  0.00     0.001 A 
ATOM     12  C   UNL A   1      39.640  34.816  29.389  1.00  0.00     0.008 A 
BRANCH   8  13
ATOM     13  C   UNL A   1      40.726  33.916  33.480  1.00  0.00     0.105 C 
BRANCH  13  14
ATOM     14  S   UNL A   1      39.819  34.803  34.792  1.00  0.00    -0.154 SA
BRANCH  14  15
ATOM     15  C   UNL A   1      38.615  33.555  35.437  1.00  0.00     0.046 C 
ATOM     16  C   UNL A   1      37.170  33.912  35.114  1.00  0.00     0.019 C 
BRANCH  15  17
ATOM     17  C   UNL A   1      39.045  32.087  35.260  1.00  0.00     0.042 C 
BRANCH  17  18
ATOM     18  C   UNL A   1      40.221  31.509  36.048  1.00  0.00     0.157 C 
BRANCH  18  19
ATOM     19  O   UNL A   1      40.396  32.051  37.339  1.00  0.00    -0.396 OA
ATOM     20  H   UNL A   1      41.026  32.787  37.298  1.00  0.00     0.210 HD
ENDBRANCH  18  19
ENDBRANCH  17  18
ENDBRANCH  15  17
ENDBRANCH  14  15
ENDBRANCH  13  14
ENDBRANCH   8  13
ENDBRANCH   6   7
ENDBRANCH   1   5
BRANCH   3  21
ATOM     21  C   UNL A   1      43.666  38.440  27.494  1.00  0.00     0.118 C 
BRANCH  21  22
ATOM     22  C   UNL A   1      45.070  38.909  27.871  1.00  0.00     0.042 C 
BRANCH  22  23
ATOM     23  C   UNL A   1      45.757  38.025  28.912  1.00  0.00     0.118 C 
BRANCH  23  24
ATOM     24  N   UNL A   1      47.202  37.983  28.726  1.00  0.00    -0.352 N 
ATOM     25  C   UNL A   1      48.056  36.916  28.656  1.00  0.00     0.251 C 
ATOM     26  H   UNL A   1      47.632  38.865  28.636  1.00  0.00     0.163 HD
ATOM     27  O   UNL A   1      49.271  37.117  28.738  1.00  0.00    -0.269 OA
BRANCH  25  28
ATOM     28  C   UNL A   1      47.552  35.537  28.487  1.00  0.00     0.039 A 
ATOM     29  C   UNL A   1      46.965  35.176  27.269  1.00  0.00     0.014 A 
ATOM     30  C   UNL A   1      47.592  34.616  29.538  1.00  0.00     0.014 A 
ATOM     31  C   UNL A   1      46.468  33.884  27.090  1.00  0.00     0.010 A 
ATOM     32  C   UNL A   1      47.154  33.308  29.336  1.00  0.00     0.010 A 
ATOM     33  C   UNL A   1      46.582  32.930  28.113  1.00  0.00    -0.014 A 
BRANCH  33  34
ATOM     34  C   UNL A   1      46.110  31.533  27.923  1.00  0.00     0.031 A 
ATOM     35  C   UNL A   1      44.709  31.146  28.310  1.00  0.00     0.074 A 
ATOM     36  C   UNL A   1      46.966  30.600  27.460  1.00  0.00     0.049 A 
ATOM     37  N   UNL A   1      44.145  29.964  28.295  1.00  0.00    -0.248 NA
ATOM     38  C   UNL A   1      43.831  32.222  28.803  1.00  0.00     0.031 C 
ATOM     39  C   UNL A   1      48.361  30.843  27.085  1.00  0.00     0.029 A 
ATOM     40  N   UNL A   1      46.793  29.258  27.237  1.00  0.00    -0.354 N 
ATOM     41  C   UNL A   1      42.859  30.150  28.788  1.00  0.00     0.074 A 
ATOM     42  C   UNL A   1      42.739  31.549  29.137  1.00  0.00     0.031 C 
ATOM     43  C   UNL A   1      48.910  29.693  26.665  1.00  0.00     0.029 A 
ATOM     44  C   UNL A   1      47.922  28.624  26.776  1.00  0.00     0.049 A 
ATOM     45  H   UNL A   1      45.940  28.791  27.394  1.00  0.00     0.167 HD
ATOM     46  C   UNL A   1      41.862  29.242  28.922  1.00  0.00     0.031 A 
ATOM     47  C   UNL A   1      48.145  27.328  26.484  1.00  0.00     0.031 A 
ATOM     48  C   UNL A   1      41.982  27.854  28.564  1.00  0.00     0.049 A 
ATOM     49  C   UNL A   1      47.023  26.339  26.638  1.00  0.00     0.074 A 
ATOM     50  C   UNL A   1      41.017  26.863  28.622  1.00  0.00     0.029 A 
ATOM     51  N   UNL A   1      43.137  27.259  28.077  1.00  0.00    -0.354 N 
ATOM     52  N   UNL A   1      45.799  26.545  27.064  1.00  0.00    -0.248 NA
ATOM     53  C   UNL A   1      47.307  24.949  26.259  1.00  0.00     0.031 C 
ATOM     54  C   UNL A   1      41.600  25.660  28.211  1.00  0.00     0.029 A 
ATOM     55  C   UNL A   1      42.912  25.913  27.843  1.00  0.00     0.049 A 
ATOM     56  H   UNL A   1      43.989  27.725  27.920  1.00  0.00     0.167 HD
ATOM     57  C   UNL A   1      45.160  25.314  26.983  1.00  0.00     0.074 A 
ATOM     58  C   UNL A   1      46.128  24.374  26.452  1.00  0.00     0.031 C 
ATOM     59  C   UNL A   1      43.886  24.990  27.317  1.00  0.00     0.031 A 
BRANCH  46  60
ATOM     60  C   UNL A   1      40.548  29.726  29.480  1.00  0.00    -0.014 A 
ATOM     61  C   UNL A   1      39.470  30.031  28.629  1.00  0.00     0.010 A 
ATOM     62  C   UNL A   1      40.373  29.835  30.871  1.00  0.00     0.010 A 
ATOM     63  C   UNL A   1      38.254  30.473  29.156  1.00  0.00     0.020 A 
ATOM     64  C   UNL A   1      39.149  30.251  31.405  1.00  0.00     0.020 A 
ATOM     65  C   UNL A   1      38.101  30.583  30.542  1.00  0.00     0.054 A 
BRANCH  65  66
ATOM     66  S   UNL A   1      36.503  31.133  31.200  1.00  0.00     0.124 S 
ATOM     67  O   UNL A   1      36.083  32.105  30.194  1.00  0.00    -0.237 OA
ATOM     68  O   UNL A   1      35.729  29.894  31.238  1.00  0.00    -0.237 OA
ATOM     69  O   UNL A   1      36.839  31.693  32.506  1.00  0.00    -0.744 OA
ENDBRANCH  65  66
ENDBRANCH  46  60
BRANCH  47  70
ATOM     70  C   UNL A   1      49.487  26.900  26.006  1.00  0.00    -0.014 A 
ATOM     71  C   UNL A   1      49.890  27.156  24.684  1.00  0.00     0.010 A 
ATOM     72  C   UNL A   1      50.383  26.260  26.882  1.00  0.00     0.010 A 
ATOM     73  C   UNL A   1      51.159  26.770  24.243  1.00  0.00     0.020 A 
ATOM     74  C   UNL A   1      51.662  25.896  26.453  1.00  0.00     0.020 A 
ATOM     75  C   UNL A   1      52.039  26.146  25.132  1.00  0.00     0.054 A 
BRANCH  75  76
ATOM     76  S   UNL A   1      53.705  25.713  24.557  1.00  0.00     0.124 S 
ATOM     77  O   UNL A   1      54.550  26.386  25.539  1.00  0.00    -0.237 OA
ATOM     78  O   UNL A   1      53.693  24.254  24.625  1.00  0.00    -0.237 OA
ATOM     79  O   UNL A   1      53.752  26.266  23.205  1.00  0.00    -0.744 OA
ENDBRANCH  75  76
ENDBRANCH  47  70
BRANCH  59  80
ATOM     80  C   UNL A   1      43.452  23.566  27.093  1.00  0.00    -0.014 A 
ATOM     81  C   UNL A   1      43.106  22.732  28.170  1.00  0.00     0.010 A 
ATOM     82  C   UNL A   1      43.335  23.077  25.780  1.00  0.00     0.010 A 
ATOM     83  C   UNL A   1      42.679  21.422  27.939  1.00  0.00     0.020 A 
ATOM     84  C   UNL A   1      42.884  21.776  25.543  1.00  0.00     0.020 A 
ATOM     85  C   UNL A   1      42.571  20.952  26.627  1.00  0.00     0.054 A 
BRANCH  85  86
ATOM     86  S   UNL A   1      41.971  19.263  26.350  1.00  0.00     0.124 S 
ATOM     87  O   UNL A   1      42.500  18.967  25.022  1.00  0.00    -0.237 OA
ATOM     88  O   UNL A   1      42.581  18.521  27.450  1.00  0.00    -0.237 OA
ATOM     89  O   UNL A   1      40.517  19.394  26.426  1.00  0.00    -0.744 OA
ENDBRANCH  85  86
ENDBRANCH  59  80
ENDBRANCH  33  34
ENDBRANCH  25  28
ENDBRANCH  23  24
ENDBRANCH  22  23
ENDBRANCH  21  22
ENDBRANCH   3  21
TORSDOF 20
ENDMDL
MODEL 3
REMARK VINA RESULT:      -9.5      5.341     10.993
REMARK SMILES C[C@@H](CCO)SCc1cccc(/C=C/C(=O)NCCCNC(=O)c2ccc(-c3c4nc(c(-c5ccc(S(=O)(=O)[O-])cc5)c5ccc([nH]5)c(-c5ccc(S(=O)(=O)[O-])cc5)c5nc(c(-c6ccc(S(=O)(=O)[O-])cc6)c6ccc3[nH]6)C=C5)C=C4)cc2)c1
REMARK SMILES IDX 15 1 16 2 17 3 14 5 13 6 12 7 8 8 9 9 84 10 10 11 11 12 7 13
REMARK SMILES IDX 6 14 2 15 1 16 3 17 4 18 5 19 18 21 19 22 20 23 21 24 22 25
REMARK SMILES IDX 23 27 24 28 25 29 83 30 26 31 82 32 27 33 28 34 29 35 76 36
REMARK SMILES IDX 30 37 81 38 75 39 77 40 31 41 80 42 74 43 73 44 32 46 62 47
REMARK SMILES IDX 43 48 61 49 44 50 47 51 60 52 78 53 45 54 46 55 59 57 79 58
REMARK SMILES IDX 48 59 33 60 34 61 42 62 35 63 41 64 36 65 37 66 38 67 39 68
REMARK SMILES IDX 40 69 63 70 64 71 72 72 65 73 71 74 66 75 67 76 68 77 69 78
REMARK SMILES IDX 70 79 49 80 50 81 58 82 51 83 57 84 52 85 53 86 54 87 55 88
REMARK SMILES IDX 56 89
REMARK H PARENT 17 4 5 20 21 26 77 45 47 56
REMARK Flexibility Score: inf
ROOT
ATOM      1  C   UNL A   1      35.300  23.128  23.524  1.00  0.00     0.244 C 
ATOM      2  O   UNL A   1      34.980  23.133  22.334  1.00  0.00    -0.270 OA
ATOM      3  N   UNL A   1      36.353  22.366  23.905  1.00  0.00    -0.352 N 
ATOM      4  H   UNL A   1      36.729  21.814  23.180  1.00  0.00     0.163 HD
ENDROOT
BRANCH   1   5
ATOM      5  C   UNL A   1      34.558  24.020  24.449  1.00  0.00     0.072 C 
ATOM      6  C   UNL A   1      34.022  25.225  24.207  1.00  0.00     0.014 C 
BRANCH   6   7
ATOM      7  C   UNL A   1      33.339  26.076  25.201  1.00  0.00    -0.025 A 
ATOM      8  C   UNL A   1      33.454  28.026  26.700  1.00  0.00    -0.037 A 
ATOM      9  C   UNL A   1      32.187  27.693  27.192  1.00  0.00     0.004 A 
ATOM     10  C   UNL A   1      34.039  27.168  25.746  1.00  0.00     0.012 A 
ATOM     11  C   UNL A   1      31.476  26.621  26.658  1.00  0.00     0.001 A 
ATOM     12  C   UNL A   1      32.042  25.826  25.662  1.00  0.00     0.008 A 
BRANCH   8  13
ATOM     13  C   UNL A   1      34.245  29.224  27.188  1.00  0.00     0.105 C 
BRANCH  13  14
ATOM     14  S   UNL A   1      33.363  30.819  27.265  1.00  0.00    -0.154 SA
BRANCH  14  15
ATOM     15  C   UNL A   1      34.444  31.887  28.318  1.00  0.00     0.046 C 
ATOM     16  C   UNL A   1      35.926  31.685  28.032  1.00  0.00     0.019 C 
BRANCH  15  17
ATOM     17  C   UNL A   1      33.942  33.330  28.507  1.00  0.00     0.042 C 
BRANCH  17  18
ATOM     18  C   UNL A   1      34.399  34.175  29.698  1.00  0.00     0.157 C 
BRANCH  18  19
ATOM     19  O   UNL A   1      34.127  33.615  30.964  1.00  0.00    -0.396 OA
ATOM     20  H   UNL A   1      33.681  34.273  31.520  1.00  0.00     0.210 HD
ENDBRANCH  18  19
ENDBRANCH  17  18
ENDBRANCH  15  17
ENDBRANCH  14  15
ENDBRANCH  13  14
ENDBRANCH   8  13
ENDBRANCH   6   7
ENDBRANCH   1   5
BRANCH   3  21
ATOM     21  C   UNL A   1      37.032  22.207  25.177  1.00  0.00     0.118 C 
BRANCH  21  22
ATOM     22  C   UNL A   1      38.036  21.056  25.142  1.00  0.00     0.042 C 
BRANCH  22  23
ATOM     23  C   UNL A   1      39.115  21.146  26.221  1.00  0.00     0.118 C 
BRANCH  23  24
ATOM     24  N   UNL A   1      40.181  20.175  26.010  1.00  0.00    -0.352 N 
ATOM     25  C   UNL A   1      41.537  20.350  25.942  1.00  0.00     0.251 C 
ATOM     26  H   UNL A   1      39.877  19.245  25.900  1.00  0.00     0.163 HD
ATOM     27  O   UNL A   1      42.237  19.427  25.515  1.00  0.00    -0.269 OA
BRANCH  25  28
ATOM     28  C   UNL A   1      42.172  21.616  26.366  1.00  0.00     0.039 A 
ATOM     29  C   UNL A   1      42.394  22.614  25.412  1.00  0.00     0.014 A 
ATOM     30  C   UNL A   1      42.611  21.802  27.681  1.00  0.00     0.014 A 
ATOM     31  C   UNL A   1      43.006  23.812  25.785  1.00  0.00     0.010 A 
ATOM     32  C   UNL A   1      43.162  23.023  28.066  1.00  0.00     0.010 A 
ATOM     33  C   UNL A   1      43.372  24.038  27.121  1.00  0.00    -0.014 A 
BRANCH  33  34
ATOM     34  C   UNL A   1      43.973  25.327  27.550  1.00  0.00     0.031 A 
ATOM     35  C   UNL A   1      45.444  25.581  27.359  1.00  0.00     0.074 A 
ATOM     36  C   UNL A   1      43.204  26.245  28.170  1.00  0.00     0.049 A 
ATOM     37  N   UNL A   1      46.161  26.607  27.742  1.00  0.00    -0.248 NA
ATOM     38  C   UNL A   1      46.216  24.534  26.669  1.00  0.00     0.031 C 
ATOM     39  C   UNL A   1      41.773  26.102  28.447  1.00  0.00     0.029 A 
ATOM     40  N   UNL A   1      43.520  27.475  28.689  1.00  0.00    -0.354 N 
ATOM     41  C   UNL A   1      47.466  26.324  27.356  1.00  0.00     0.074 A 
ATOM     42  C   UNL A   1      47.450  25.010  26.749  1.00  0.00     0.031 C 
ATOM     43  C   UNL A   1      41.333  27.206  29.071  1.00  0.00     0.029 A 
ATOM     44  C   UNL A   1      42.454  28.119  29.272  1.00  0.00     0.049 A 
ATOM     45  H   UNL A   1      44.425  27.861  28.649  1.00  0.00     0.167 HD
ATOM     46  C   UNL A   1      48.573  27.094  27.478  1.00  0.00     0.031 A 
ATOM     47  C   UNL A   1      42.385  29.304  29.908  1.00  0.00     0.031 A 
ATOM     48  C   UNL A   1      48.582  28.405  28.072  1.00  0.00     0.049 A 
ATOM     49  C   UNL A   1      43.627  30.143  30.030  1.00  0.00     0.074 A 
ATOM     50  C   UNL A   1      49.644  29.283  28.205  1.00  0.00     0.029 A 
ATOM     51  N   UNL A   1      47.476  29.029  28.629  1.00  0.00    -0.354 N 
ATOM     52  N   UNL A   1      44.843  29.876  29.617  1.00  0.00    -0.248 NA
ATOM     53  C   UNL A   1      43.484  31.448  30.689  1.00  0.00     0.031 C 
ATOM     54  C   UNL A   1      49.190  30.420  28.880  1.00  0.00     0.029 A 
ATOM     55  C   UNL A   1      47.832  30.275  29.118  1.00  0.00     0.049 A 
ATOM     56  H   UNL A   1      46.571  28.645  28.668  1.00  0.00     0.167 HD
ATOM     57  C   UNL A   1      45.606  30.989  29.947  1.00  0.00     0.074 A 
ATOM     58  C   UNL A   1      44.711  31.939  30.579  1.00  0.00     0.031 C 
ATOM     59  C   UNL A   1      46.930  31.207  29.746  1.00  0.00     0.031 A 
BRANCH  46  60
ATOM     60  C   UNL A   1      49.873  26.537  26.955  1.00  0.00    -0.014 A 
ATOM     61  C   UNL A   1      50.191  26.608  25.587  1.00  0.00     0.010 A 
ATOM     62  C   UNL A   1      50.806  25.978  27.846  1.00  0.00     0.010 A 
ATOM     63  C   UNL A   1      51.401  26.094  25.113  1.00  0.00     0.020 A 
ATOM     64  C   UNL A   1      52.030  25.487  27.380  1.00  0.00     0.020 A 
ATOM     65  C   UNL A   1      52.313  25.534  26.013  1.00  0.00     0.054 A 
BRANCH  65  66
ATOM     66  S   UNL A   1      53.887  24.899  25.374  1.00  0.00     0.124 S 
ATOM     67  O   UNL A   1      54.279  25.954  24.442  1.00  0.00    -0.237 OA
ATOM     68  O   UNL A   1      54.704  24.793  26.581  1.00  0.00    -0.237 OA
ATOM     69  O   UNL A   1      53.524  23.626  24.757  1.00  0.00    -0.744 OA
ENDBRANCH  65  66
ENDBRANCH  46  60
BRANCH  47  70
ATOM     70  C   UNL A   1      41.086  29.766  30.467  1.00  0.00    -0.014 A 
ATOM     71  C   UNL A   1      40.758  29.517  31.811  1.00  0.00     0.010 A 
ATOM     72  C   UNL A   1      40.183  30.486  29.664  1.00  0.00     0.010 A 
ATOM     73  C   UNL A   1      39.545  29.970  32.339  1.00  0.00     0.020 A 
ATOM     74  C   UNL A   1      38.982  30.963  30.195  1.00  0.00     0.020 A 
ATOM     75  C   UNL A   1      38.666  30.694  31.527  1.00  0.00     0.054 A 
BRANCH  75  76
ATOM     76  S   UNL A   1      37.127  31.329  32.251  1.00  0.00     0.124 S 
ATOM     77  O   UNL A   1      37.513  31.547  33.642  1.00  0.00    -0.237 OA
ATOM     78  O   UNL A   1      36.882  32.535  31.465  1.00  0.00    -0.237 OA
ATOM     79  O   UNL A   1      36.174  30.244  32.028  1.00  0.00    -0.744 OA
ENDBRANCH  75  76
ENDBRANCH  47  70
BRANCH  59  80
ATOM     80  C   UNL A   1      47.488  32.534  30.184  1.00  0.00    -0.014 A 
ATOM     81  C   UNL A   1      47.412  33.666  29.356  1.00  0.00     0.010 A 
ATOM     82  C   UNL A   1      48.046  32.659  31.470  1.00  0.00     0.010 A 
ATOM     83  C   UNL A   1      47.912  34.895  29.793  1.00  0.00     0.020 A 
ATOM     84  C   UNL A   1      48.524  33.892  31.921  1.00  0.00     0.020 A 
ATOM     85  C   UNL A   1      48.465  35.001  31.073  1.00  0.00     0.054 A 
BRANCH  85  86
ATOM     86  S   UNL A   1      49.066  36.617  31.635  1.00  0.00     0.124 S 
ATOM     87  O   UNL A   1      48.959  36.492  33.086  1.00  0.00    -0.237 OA
ATOM     88  O   UNL A   1      50.426  36.656  31.106  1.00  0.00    -0.237 OA
ATOM     89  O   UNL A   1      48.138  37.565  31.021  1.00  0.00    -0.744 OA
ENDBRANCH  85  86
ENDBRANCH  59  80
ENDBRANCH  33  34
ENDBRANCH  25  28
ENDBRANCH  23  24
ENDBRANCH  22  23
ENDBRANCH  21  22
ENDBRANCH   3  21
TORSDOF 20
ENDMDL
