MODEL 1
REMARK VINA RESULT:     -13.9      0.000      0.000
REMARK SMILES Cc1ccc(-c2[nH]c3ccccc3c2[C@@H]2c3ccccc3C(=O)N2[C@H](C)C(=O)NCCCNC(=O)c2ccc(-c3c4nc(c(-c5ccc(S(=O)(=O)[O-])cc5)c5ccc([nH]5)c(-c5ccc(S(=O)(=O)[O-])cc5)c5nc(c(-c6ccc(S(=O)(=O)[O-])cc6)c6ccc3[nH]6)C=C5)C=C4)cc2)cc1
REMARK SMILES IDX 31 1 30 2 29 3 27 4 28 5 25 7 26 8 24 9 15 10 16 11 17 12
REMARK SMILES IDX 21 13 22 14 18 15 20 16 23 17 19 18 14 19 6 20 7 21 8 22
REMARK SMILES IDX 13 24 9 25 12 26 10 27 11 28 5 29 1 30 2 31 3 32 97 33 4 34
REMARK SMILES IDX 96 35 32 36 33 37 34 38 35 40 36 41 37 42 95 43 38 44 94 45
REMARK SMILES IDX 39 46 40 47 41 48 88 49 42 50 93 51 87 52 89 53 43 54 92 55
REMARK SMILES IDX 86 56 85 57 44 59 74 60 55 61 73 62 56 63 59 64 72 65 90 66
REMARK SMILES IDX 57 67 58 68 71 70 91 71 60 72 45 73 46 74 54 75 47 76 53 77
REMARK SMILES IDX 48 78 49 79 50 80 51 81 52 82 75 83 76 84 84 85 77 86 83 87
REMARK SMILES IDX 78 88 79 89 80 90 81 91 82 92 61 93 62 94 70 95 63 96 69 97
REMARK SMILES IDX 64 98 65 99 66 100 67 101 68 102
REMARK H PARENT 29 6 7 23 33 39 89 58 59 69
REMARK Flexibility Score: inf
ROOT
ATOM      1  C   UNL A   1      38.912  21.446  25.823  1.00  0.00     0.042 C 
ENDROOT
BRANCH   1   2
ATOM      2  C   UNL A   1      37.586  21.206  25.142  1.00  0.00     0.117 C 
BRANCH   2   3
ATOM      3  N   UNL A   1      36.478  21.137  26.057  1.00  0.00    -0.354 N 
ATOM      4  C   UNL A   1      35.355  21.878  26.188  1.00  0.00     0.242 C 
ATOM      5  O   UNL A   1      34.494  21.362  26.924  1.00  0.00    -0.273 OA
ATOM      6  H   UNL A   1      36.552  20.409  26.716  1.00  0.00     0.163 HD
BRANCH   4   7
ATOM      7  C   UNL A   1      35.151  23.369  25.759  1.00  0.00     0.172 C 
ATOM      8  C   UNL A   1      36.574  23.973  25.712  1.00  0.00     0.042 C 
BRANCH   7   9
ATOM      9  N   UNL A   1      34.271  24.069  24.790  1.00  0.00    -0.316 N 
ATOM     10  C   UNL A   1      33.712  25.435  24.809  1.00  0.00     0.151 C 
ATOM     11  C   UNL A   1      33.414  25.666  23.338  1.00  0.00    -0.008 A 
ATOM     12  C   UNL A   1      33.201  26.814  22.593  1.00  0.00     0.007 A 
ATOM     13  C   UNL A   1      33.475  24.459  22.655  1.00  0.00     0.045 A 
ATOM     14  C   UNL A   1      34.091  23.478  23.533  1.00  0.00     0.255 C 
ATOM     15  C   UNL A   1      32.928  26.698  21.217  1.00  0.00     0.000 A 
ATOM     16  C   UNL A   1      33.174  24.297  21.313  1.00  0.00     0.014 A 
ATOM     17  O   UNL A   1      34.445  22.384  23.136  1.00  0.00    -0.269 OA
ATOM     18  C   UNL A   1      32.871  25.443  20.589  1.00  0.00     0.001 A 
BRANCH  10  19
ATOM     19  C   UNL A   1      32.351  25.511  25.508  1.00  0.00     0.013 A 
ATOM     20  C   UNL A   1      31.838  26.599  26.238  1.00  0.00     0.052 A 
ATOM     21  N   UNL A   1      30.699  26.172  26.888  1.00  0.00    -0.354 N 
ATOM     22  C   UNL A   1      30.451  24.849  26.637  1.00  0.00     0.046 A 
ATOM     23  H   UNL A   1      30.138  26.744  27.460  1.00  0.00     0.167 HD
ATOM     24  C   UNL A   1      31.375  24.437  25.676  1.00  0.00     0.006 A 
ATOM     25  C   UNL A   1      29.528  23.986  27.243  1.00  0.00     0.027 A 
ATOM     26  C   UNL A   1      31.241  23.112  25.200  1.00  0.00     0.011 A 
ATOM     27  C   UNL A   1      29.496  22.659  26.815  1.00  0.00     0.002 A 
ATOM     28  C   UNL A   1      30.317  22.235  25.780  1.00  0.00     0.001 A 
BRANCH  20  29
ATOM     29  C   UNL A   1      32.323  27.955  26.502  1.00  0.00    -0.002 A 
ATOM     30  C   UNL A   1      33.665  31.951  27.459  1.00  0.00     0.044 C 
ATOM     31  C   UNL A   1      33.206  30.560  27.137  1.00  0.00    -0.051 A 
ATOM     32  C   UNL A   1      31.896  30.338  26.699  1.00  0.00     0.004 A 
ATOM     33  C   UNL A   1      34.063  29.466  27.287  1.00  0.00     0.004 A 
ATOM     34  C   UNL A   1      31.456  29.044  26.406  1.00  0.00     0.010 A 
ATOM     35  C   UNL A   1      33.623  28.174  26.975  1.00  0.00     0.010 A 
ENDBRANCH  20  29
ENDBRANCH  10  19
ENDBRANCH   7   9
ENDBRANCH   4   7
ENDBRANCH   2   3
ENDBRANCH   1   2
BRANCH   1  36
ATOM     36  C   UNL A   1      39.190  22.890  26.205  1.00  0.00     0.118 C 
BRANCH  36  37
ATOM     37  N   UNL A   1      40.097  22.941  27.363  1.00  0.00    -0.352 N 
ATOM     38  C   UNL A   1      40.628  24.052  27.995  1.00  0.00     0.251 C 
ATOM     39  H   UNL A   1      40.361  22.070  27.737  1.00  0.00     0.163 HD
ATOM     40  O   UNL A   1      41.683  24.050  28.613  1.00  0.00    -0.269 OA
BRANCH  38  41
ATOM     41  C   UNL A   1      39.751  25.235  28.004  1.00  0.00     0.039 A 
ATOM     42  C   UNL A   1      40.076  26.206  27.045  1.00  0.00     0.014 A 
ATOM     43  C   UNL A   1      39.130  25.557  29.204  1.00  0.00     0.014 A 
ATOM     44  C   UNL A   1      40.049  27.544  27.406  1.00  0.00     0.010 A 
ATOM     45  C   UNL A   1      39.174  26.884  29.584  1.00  0.00     0.010 A 
ATOM     46  C   UNL A   1      39.722  27.854  28.720  1.00  0.00    -0.014 A 
BRANCH  46  47
ATOM     47  C   UNL A   1      39.996  29.146  29.335  1.00  0.00     0.031 A 
ATOM     48  C   UNL A   1      38.999  30.223  29.160  1.00  0.00     0.074 A 
ATOM     49  C   UNL A   1      41.052  29.302  30.171  1.00  0.00     0.049 A 
ATOM     50  N   UNL A   1      39.192  31.462  29.454  1.00  0.00    -0.248 NA
ATOM     51  C   UNL A   1      37.692  29.979  28.552  1.00  0.00     0.031 C 
ATOM     52  C   UNL A   1      41.229  30.365  31.158  1.00  0.00     0.029 A 
ATOM     53  N   UNL A   1      42.289  28.647  30.169  1.00  0.00    -0.354 N 
ATOM     54  C   UNL A   1      37.970  32.094  29.392  1.00  0.00     0.074 A 
ATOM     55  C   UNL A   1      37.099  31.161  28.725  1.00  0.00     0.031 C 
ATOM     56  C   UNL A   1      42.534  30.486  31.439  1.00  0.00     0.029 A 
ATOM     57  C   UNL A   1      43.245  29.620  30.515  1.00  0.00     0.049 A 
ATOM     58  H   UNL A   1      42.455  27.698  29.967  1.00  0.00     0.167 HD
ATOM     59  C   UNL A   1      37.807  33.279  30.043  1.00  0.00     0.031 A 
ATOM     60  C   UNL A   1      44.259  30.032  29.695  1.00  0.00     0.031 A 
ATOM     61  C   UNL A   1      39.094  33.806  30.497  1.00  0.00     0.049 A 
ATOM     62  C   UNL A   1      44.209  31.519  29.406  1.00  0.00     0.074 A 
ATOM     63  C   UNL A   1      39.737  33.823  31.721  1.00  0.00     0.029 A 
ATOM     64  N   UNL A   1      40.051  34.136  29.542  1.00  0.00    -0.354 N 
ATOM     65  N   UNL A   1      43.145  32.256  29.581  1.00  0.00    -0.248 NA
ATOM     66  C   UNL A   1      45.333  32.289  28.879  1.00  0.00     0.031 C 
ATOM     67  C   UNL A   1      41.119  34.063  31.481  1.00  0.00     0.029 A 
ATOM     68  C   UNL A   1      41.301  34.233  30.120  1.00  0.00     0.049 A 
ATOM     69  H   UNL A   1      39.862  34.281  28.586  1.00  0.00     0.167 HD
ATOM     70  C   UNL A   1      43.411  33.550  29.219  1.00  0.00     0.074 A 
ATOM     71  C   UNL A   1      44.797  33.520  28.787  1.00  0.00     0.031 C 
ATOM     72  C   UNL A   1      42.468  34.537  29.300  1.00  0.00     0.031 A 
BRANCH  59  73
ATOM     73  C   UNL A   1      36.468  33.825  30.495  1.00  0.00    -0.014 A 
ATOM     74  C   UNL A   1      35.516  34.210  29.527  1.00  0.00     0.010 A 
ATOM     75  C   UNL A   1      36.111  34.074  31.834  1.00  0.00     0.010 A 
ATOM     76  C   UNL A   1      34.319  34.863  29.871  1.00  0.00     0.020 A 
ATOM     77  C   UNL A   1      34.927  34.735  32.194  1.00  0.00     0.020 A 
ATOM     78  C   UNL A   1      34.041  35.138  31.207  1.00  0.00     0.054 A 
BRANCH  78  79
ATOM     79  S   UNL A   1      32.525  36.028  31.641  1.00  0.00     0.124 S 
ATOM     80  O   UNL A   1      31.970  36.359  30.331  1.00  0.00    -0.237 OA
ATOM     81  O   UNL A   1      31.784  35.032  32.409  1.00  0.00    -0.237 OA
ATOM     82  O   UNL A   1      33.004  37.174  32.413  1.00  0.00    -0.744 OA
ENDBRANCH  78  79
ENDBRANCH  59  73
BRANCH  60  83
ATOM     83  C   UNL A   1      44.758  28.987  28.759  1.00  0.00    -0.014 A 
ATOM     84  C   UNL A   1      44.101  28.877  27.515  1.00  0.00     0.010 A 
ATOM     85  C   UNL A   1      46.071  28.498  28.881  1.00  0.00     0.010 A 
ATOM     86  C   UNL A   1      44.808  28.492  26.373  1.00  0.00     0.020 A 
ATOM     87  C   UNL A   1      46.781  28.109  27.734  1.00  0.00     0.020 A 
ATOM     88  C   UNL A   1      46.165  28.189  26.481  1.00  0.00     0.054 A 
BRANCH  88  89
ATOM     89  S   UNL A   1      47.147  28.140  24.949  1.00  0.00     0.124 S 
ATOM     90  O   UNL A   1      46.587  29.245  24.178  1.00  0.00    -0.237 OA
ATOM     91  O   UNL A   1      48.510  28.348  25.446  1.00  0.00    -0.237 OA
ATOM     92  O   UNL A   1      46.881  26.805  24.423  1.00  0.00    -0.744 OA
ENDBRANCH  88  89
ENDBRANCH  60  83
BRANCH  72  93
ATOM     93  C   UNL A   1      42.569  35.914  28.683  1.00  0.00    -0.014 A 
ATOM     94  C   UNL A   1      41.921  36.299  27.499  1.00  0.00     0.010 A 
ATOM     95  C   UNL A   1      43.248  36.935  29.396  1.00  0.00     0.010 A 
ATOM     96  C   UNL A   1      42.006  37.612  27.012  1.00  0.00     0.020 A 
ATOM     97  C   UNL A   1      43.294  38.258  28.948  1.00  0.00     0.020 A 
ATOM     98  C   UNL A   1      42.696  38.582  27.738  1.00  0.00     0.054 A 
BRANCH  98  99
ATOM     99  S   UNL A   1      42.757  40.284  27.124  1.00  0.00     0.124 S 
ATOM    100  O   UNL A   1      43.139  41.022  28.324  1.00  0.00    -0.237 OA
ATOM    101  O   UNL A   1      43.776  40.219  26.079  1.00  0.00    -0.237 OA
ATOM    102  O   UNL A   1      41.399  40.524  26.644  1.00  0.00    -0.744 OA
ENDBRANCH  98  99
ENDBRANCH  72  93
ENDBRANCH  46  47
ENDBRANCH  38  41
ENDBRANCH  36  37
ENDBRANCH   1  36
TORSDOF 16
ENDMDL
MODEL 2
REMARK VINA RESULT:     -13.7      4.441     11.066
REMARK SMILES Cc1ccc(-c2[nH]c3ccccc3c2[C@@H]2c3ccccc3C(=O)N2[C@H](C)C(=O)NCCCNC(=O)c2ccc(-c3c4nc(c(-c5ccc(S(=O)(=O)[O-])cc5)c5ccc([nH]5)c(-c5ccc(S(=O)(=O)[O-])cc5)c5nc(c(-c6ccc(S(=O)(=O)[O-])cc6)c6ccc3[nH]6)C=C5)C=C4)cc2)cc1
REMARK SMILES IDX 31 1 30 2 29 3 27 4 28 5 25 7 26 8 24 9 15 10 16 11 17 12
REMARK SMILES IDX 21 13 22 14 18 15 20 16 23 17 19 18 14 19 6 20 7 21 8 22
REMARK SMILES IDX 13 24 9 25 12 26 10 27 11 28 5 29 1 30 2 31 3 32 97 33 4 34
REMARK SMILES IDX 96 35 32 36 33 37 34 38 35 40 36 41 37 42 95 43 38 44 94 45
REMARK SMILES IDX 39 46 40 47 41 48 88 49 42 50 93 51 87 52 89 53 43 54 92 55
REMARK SMILES IDX 86 56 85 57 44 59 74 60 55 61 73 62 56 63 59 64 72 65 90 66
REMARK SMILES IDX 57 67 58 68 71 70 91 71 60 72 45 73 46 74 54 75 47 76 53 77
REMARK SMILES IDX 48 78 49 79 50 80 51 81 52 82 75 83 76 84 84 85 77 86 83 87
REMARK SMILES IDX 78 88 79 89 80 90 81 91 82 92 61 93 62 94 70 95 63 96 69 97
REMARK SMILES IDX 64 98 65 99 66 100 67 101 68 102
REMARK H PARENT 29 6 7 23 33 39 89 58 59 69
REMARK Flexibility Score: inf
ROOT
ATOM      1  C   UNL A   1      33.313  31.319  27.314  1.00  0.00     0.042 C 
ENDROOT
BRANCH   1   2
ATOM      2  C   UNL A   1      32.459  30.408  26.465  1.00  0.00     0.117 C 
BRANCH   2   3
ATOM      3  N   UNL A   1      33.061  30.077  25.200  1.00  0.00    -0.354 N 
ATOM      4  C   UNL A   1      33.331  28.897  24.598  1.00  0.00     0.242 C 
ATOM      5  O   UNL A   1      33.614  29.000  23.391  1.00  0.00    -0.273 OA
ATOM      6  H   UNL A   1      33.327  30.863  24.670  1.00  0.00     0.163 HD
BRANCH   4   7
ATOM      7  C   UNL A   1      33.589  27.519  25.294  1.00  0.00     0.172 C 
ATOM      8  C   UNL A   1      34.171  27.870  26.683  1.00  0.00     0.042 C 
BRANCH   7   9
ATOM      9  N   UNL A   1      32.858  26.228  25.362  1.00  0.00    -0.316 N 
ATOM     10  C   UNL A   1      33.346  24.839  25.256  1.00  0.00     0.151 C 
ATOM     11  C   UNL A   1      32.239  24.070  25.954  1.00  0.00    -0.008 A 
ATOM     12  C   UNL A   1      32.183  22.803  26.512  1.00  0.00     0.007 A 
ATOM     13  C   UNL A   1      31.129  24.889  26.110  1.00  0.00     0.045 A 
ATOM     14  C   UNL A   1      31.536  26.255  25.824  1.00  0.00     0.255 C 
ATOM     15  C   UNL A   1      30.979  22.359  27.089  1.00  0.00     0.000 A 
ATOM     16  C   UNL A   1      29.914  24.478  26.633  1.00  0.00     0.014 A 
ATOM     17  O   UNL A   1      30.821  27.209  26.063  1.00  0.00    -0.269 OA
ATOM     18  C   UNL A   1      29.837  23.176  27.110  1.00  0.00     0.001 A 
BRANCH  10  19
ATOM     19  C   UNL A   1      33.347  24.318  23.815  1.00  0.00     0.013 A 
ATOM     20  C   UNL A   1      34.162  23.300  23.287  1.00  0.00     0.052 A 
ATOM     21  N   UNL A   1      34.009  23.305  21.917  1.00  0.00    -0.354 N 
ATOM     22  C   UNL A   1      33.147  24.291  21.517  1.00  0.00     0.046 A 
ATOM     23  H   UNL A   1      34.462  22.680  21.305  1.00  0.00     0.167 HD
ATOM     24  C   UNL A   1      32.608  24.853  22.674  1.00  0.00     0.006 A 
ATOM     25  C   UNL A   1      32.870  24.761  20.226  1.00  0.00     0.027 A 
ATOM     26  C   UNL A   1      31.615  25.843  22.490  1.00  0.00     0.011 A 
ATOM     27  C   UNL A   1      31.959  25.808  20.095  1.00  0.00     0.002 A 
ATOM     28  C   UNL A   1      31.311  26.320  21.210  1.00  0.00     0.001 A 
BRANCH  20  29
ATOM     29  C   UNL A   1      35.151  22.394  23.874  1.00  0.00    -0.002 A 
ATOM     30  C   UNL A   1      38.050  19.601  25.448  1.00  0.00     0.044 C 
ATOM     31  C   UNL A   1      37.052  20.572  24.892  1.00  0.00    -0.051 A 
ATOM     32  C   UNL A   1      35.683  20.305  24.994  1.00  0.00     0.004 A 
ATOM     33  C   UNL A   1      37.466  21.742  24.248  1.00  0.00     0.004 A 
ATOM     34  C   UNL A   1      34.745  21.199  24.470  1.00  0.00     0.010 A 
ATOM     35  C   UNL A   1      36.523  22.642  23.741  1.00  0.00     0.010 A 
ENDBRANCH  20  29
ENDBRANCH  10  19
ENDBRANCH   7   9
ENDBRANCH   4   7
ENDBRANCH   2   3
ENDBRANCH   1   2
BRANCH   1  36
ATOM     36  C   UNL A   1      34.500  30.651  27.988  1.00  0.00     0.118 C 
BRANCH  36  37
ATOM     37  N   UNL A   1      35.686  31.516  27.895  1.00  0.00    -0.352 N 
ATOM     38  C   UNL A   1      36.975  31.263  28.331  1.00  0.00     0.251 C 
ATOM     39  H   UNL A   1      35.545  32.391  27.466  1.00  0.00     0.163 HD
ATOM     40  O   UNL A   1      37.776  32.132  28.647  1.00  0.00    -0.269 OA
BRANCH  38  41
ATOM     41  C   UNL A   1      37.387  29.851  28.251  1.00  0.00     0.039 A 
ATOM     42  C   UNL A   1      37.373  29.172  29.478  1.00  0.00     0.014 A 
ATOM     43  C   UNL A   1      38.245  29.497  27.218  1.00  0.00     0.014 A 
ATOM     44  C   UNL A   1      38.421  28.321  29.788  1.00  0.00     0.010 A 
ATOM     45  C   UNL A   1      39.325  28.706  27.557  1.00  0.00     0.010 A 
ATOM     46  C   UNL A   1      39.455  28.202  28.867  1.00  0.00    -0.014 A 
BRANCH  46  47
ATOM     47  C   UNL A   1      40.763  27.650  29.191  1.00  0.00     0.031 A 
ATOM     48  C   UNL A   1      41.033  26.243  28.826  1.00  0.00     0.074 A 
ATOM     49  C   UNL A   1      41.750  28.448  29.666  1.00  0.00     0.049 A 
ATOM     50  N   UNL A   1      42.044  25.557  29.229  1.00  0.00    -0.248 NA
ATOM     51  C   UNL A   1      40.106  25.464  28.007  1.00  0.00     0.031 C 
ATOM     52  C   UNL A   1      43.184  28.160  29.650  1.00  0.00     0.029 A 
ATOM     53  N   UNL A   1      41.657  29.604  30.449  1.00  0.00    -0.354 N 
ATOM     54  C   UNL A   1      42.079  24.399  28.484  1.00  0.00     0.074 A 
ATOM     55  C   UNL A   1      40.801  24.341  27.822  1.00  0.00     0.031 C 
ATOM     56  C   UNL A   1      43.786  28.898  30.594  1.00  0.00     0.029 A 
ATOM     57  C   UNL A   1      42.735  29.552  31.353  1.00  0.00     0.049 A 
ATOM     58  H   UNL A   1      40.976  30.312  30.379  1.00  0.00     0.167 HD
ATOM     59  C   UNL A   1      43.245  23.701  28.405  1.00  0.00     0.031 A 
ATOM     60  C   UNL A   1      42.599  29.474  32.711  1.00  0.00     0.031 A 
ATOM     61  C   UNL A   1      44.218  24.200  29.376  1.00  0.00     0.049 A 
ATOM     62  C   UNL A   1      43.255  28.237  33.294  1.00  0.00     0.074 A 
ATOM     63  C   UNL A   1      45.320  25.030  29.279  1.00  0.00     0.029 A 
ATOM     64  N   UNL A   1      43.917  24.097  30.731  1.00  0.00    -0.354 N 
ATOM     65  N   UNL A   1      43.572  27.185  32.589  1.00  0.00    -0.248 NA
ATOM     66  C   UNL A   1      43.584  28.075  34.707  1.00  0.00     0.031 C 
ATOM     67  C   UNL A   1      45.614  25.513  30.585  1.00  0.00     0.029 A 
ATOM     68  C   UNL A   1      44.719  24.941  31.473  1.00  0.00     0.049 A 
ATOM     69  H   UNL A   1      43.228  23.503  31.108  1.00  0.00     0.167 HD
ATOM     70  C   UNL A   1      44.133  26.234  33.400  1.00  0.00     0.074 A 
ATOM     71  C   UNL A   1      44.120  26.840  34.719  1.00  0.00     0.031 C 
ATOM     72  C   UNL A   1      44.557  25.026  32.919  1.00  0.00     0.031 A 
BRANCH  59  73
ATOM     73  C   UNL A   1      43.593  22.749  27.278  1.00  0.00    -0.014 A 
ATOM     74  C   UNL A   1      42.764  21.633  27.035  1.00  0.00     0.010 A 
ATOM     75  C   UNL A   1      44.753  22.831  26.484  1.00  0.00     0.010 A 
ATOM     76  C   UNL A   1      43.108  20.631  26.111  1.00  0.00     0.020 A 
ATOM     77  C   UNL A   1      45.118  21.835  25.567  1.00  0.00     0.020 A 
ATOM     78  C   UNL A   1      44.297  20.731  25.393  1.00  0.00     0.054 A 
BRANCH  78  79
ATOM     79  S   UNL A   1      44.763  19.411  24.245  1.00  0.00     0.124 S 
ATOM     80  O   UNL A   1      44.515  20.025  22.943  1.00  0.00    -0.237 OA
ATOM     81  O   UNL A   1      46.165  19.183  24.580  1.00  0.00    -0.237 OA
ATOM     82  O   UNL A   1      43.859  18.315  24.591  1.00  0.00    -0.744 OA
ENDBRANCH  78  79
ENDBRANCH  59  73
BRANCH  60  83
ATOM     83  C   UNL A   1      41.380  30.139  33.248  1.00  0.00    -0.014 A 
ATOM     84  C   UNL A   1      41.447  31.534  33.444  1.00  0.00     0.010 A 
ATOM     85  C   UNL A   1      40.120  29.532  33.098  1.00  0.00     0.010 A 
ATOM     86  C   UNL A   1      40.310  32.328  33.277  1.00  0.00     0.020 A 
ATOM     87  C   UNL A   1      38.976  30.329  32.933  1.00  0.00     0.020 A 
ATOM     88  C   UNL A   1      39.099  31.722  32.942  1.00  0.00     0.054 A 
BRANCH  88  89
ATOM     89  S   UNL A   1      37.771  32.785  32.293  1.00  0.00     0.124 S 
ATOM     90  O   UNL A   1      38.480  33.633  31.342  1.00  0.00    -0.237 OA
ATOM     91  O   UNL A   1      36.852  31.808  31.701  1.00  0.00    -0.237 OA
ATOM     92  O   UNL A   1      37.267  33.458  33.486  1.00  0.00    -0.744 OA
ENDBRANCH  88  89
ENDBRANCH  60  83
BRANCH  72  93
ATOM     93  C   UNL A   1      44.933  23.821  33.753  1.00  0.00    -0.014 A 
ATOM     94  C   UNL A   1      44.107  22.703  33.943  1.00  0.00     0.010 A 
ATOM     95  C   UNL A   1      46.247  23.736  34.278  1.00  0.00     0.010 A 
ATOM     96  C   UNL A   1      44.541  21.590  34.677  1.00  0.00     0.020 A 
ATOM     97  C   UNL A   1      46.708  22.611  34.966  1.00  0.00     0.020 A 
ATOM     98  C   UNL A   1      45.838  21.553  35.189  1.00  0.00     0.054 A 
BRANCH  98  99
ATOM     99  S   UNL A   1      46.401  20.090  36.094  1.00  0.00     0.124 S 
ATOM    100  O   UNL A   1      45.752  19.012  35.355  1.00  0.00    -0.237 OA
ATOM    101  O   UNL A   1      47.855  20.158  35.955  1.00  0.00    -0.237 OA
ATOM    102  O   UNL A   1      45.903  20.312  37.449  1.00  0.00    -0.744 OA
ENDBRANCH  98  99
ENDBRANCH  72  93
ENDBRANCH  46  47
ENDBRANCH  38  41
ENDBRANCH  36  37
ENDBRANCH   1  36
TORSDOF 16
ENDMDL
MODEL 3
REMARK VINA RESULT:     -13.6      3.785     10.384
REMARK SMILES Cc1ccc(-c2[nH]c3ccccc3c2[C@@H]2c3ccccc3C(=O)N2[C@H](C)C(=O)NCCCNC(=O)c2ccc(-c3c4nc(c(-c5ccc(S(=O)(=O)[O-])cc5)c5ccc([nH]5)c(-c5ccc(S(=O)(=O)[O-])cc5)c5nc(c(-c6ccc(S(=O)(=O)[O-])cc6)c6ccc3[nH]6)C=C5)C=C4)cc2)cc1
REMARK SMILES IDX 31 1 30 2 29 3 27 4 28 5 25 7 26 8 24 9 15 10 16 11 17 12
REMARK SMILES IDX 21 13 22 14 18 15 20 16 23 17 19 18 14 19 6 20 7 21 8 22
REMARK SMILES IDX 13 24 9 25 12 26 10 27 11 28 5 29 1 30 2 31 3 32 97 33 4 34
REMARK SMILES IDX 96 35 32 36 33 37 34 38 35 40 36 41 37 42 95 43 38 44 94 45
REMARK SMILES IDX 39 46 40 47 41 48 88 49 42 50 93 51 87 52 89 53 43 54 92 55
REMARK SMILES IDX 86 56 85 57 44 59 74 60 55 61 73 62 56 63 59 64 72 65 90 66
REMARK SMILES IDX 57 67 58 68 71 70 91 71 60 72 45 73 46 74 54 75 47 76 53 77
REMARK SMILES IDX 48 78 49 79 50 80 51 81 52 82 75 83 76 84 84 85 77 86 83 87
REMARK SMILES IDX 78 88 79 89 80 90 81 91 82 92 61 93 62 94 70 95 63 96 69 97
REMARK SMILES IDX 64 98 65 99 66 100 67 101 68 102
REMARK H PARENT 29 6 7 23 33 39 89 58 59 69
REMARK Flexibility Score: inf
ROOT
ATOM      1  C   UNL A   1      32.190  30.061  25.790  1.00  0.00     0.042 C 
ENDROOT
BRANCH   1   2
ATOM      2  C   UNL A   1      32.315  28.632  25.319  1.00  0.00     0.117 C 
BRANCH   2   3
ATOM      3  N   UNL A   1      32.935  28.509  24.026  1.00  0.00    -0.354 N 
ATOM      4  C   UNL A   1      32.928  27.525  23.100  1.00  0.00     0.242 C 
ATOM      5  O   UNL A   1      33.358  27.876  21.987  1.00  0.00    -0.273 OA
ATOM      6  H   UNL A   1      33.466  29.296  23.764  1.00  0.00     0.163 HD
BRANCH   4   7
ATOM      7  C   UNL A   1      32.712  25.995  23.349  1.00  0.00     0.172 C 
ATOM      8  C   UNL A   1      32.167  25.441  22.012  1.00  0.00     0.042 C 
BRANCH   7   9
ATOM      9  N   UNL A   1      33.462  24.935  24.069  1.00  0.00    -0.316 N 
ATOM     10  C   UNL A   1      33.386  23.464  23.967  1.00  0.00     0.151 C 
ATOM     11  C   UNL A   1      34.741  23.048  24.513  1.00  0.00    -0.008 A 
ATOM     12  C   UNL A   1      35.478  21.880  24.405  1.00  0.00     0.007 A 
ATOM     13  C   UNL A   1      35.338  24.127  25.151  1.00  0.00     0.045 A 
ATOM     14  C   UNL A   1      34.589  25.323  24.804  1.00  0.00     0.255 C 
ATOM     15  C   UNL A   1      36.726  21.793  25.051  1.00  0.00     0.000 A 
ATOM     16  C   UNL A   1      36.542  24.071  25.832  1.00  0.00     0.014 A 
ATOM     17  O   UNL A   1      34.992  26.440  25.067  1.00  0.00    -0.269 OA
ATOM     18  C   UNL A   1      37.235  22.868  25.797  1.00  0.00     0.001 A 
BRANCH  10  19
ATOM     19  C   UNL A   1      32.364  22.853  24.931  1.00  0.00     0.013 A 
ATOM     20  C   UNL A   1      32.063  21.488  25.087  1.00  0.00     0.052 A 
ATOM     21  N   UNL A   1      30.937  21.391  25.877  1.00  0.00    -0.354 N 
ATOM     22  C   UNL A   1      30.472  22.629  26.231  1.00  0.00     0.046 A 
ATOM     23  H   UNL A   1      30.521  20.541  26.150  1.00  0.00     0.167 HD
ATOM     24  C   UNL A   1      31.407  23.560  25.779  1.00  0.00     0.006 A 
ATOM     25  C   UNL A   1      29.265  22.982  26.850  1.00  0.00     0.027 A 
ATOM     26  C   UNL A   1      31.167  24.911  26.119  1.00  0.00     0.011 A 
ATOM     27  C   UNL A   1      29.020  24.336  27.077  1.00  0.00     0.002 A 
ATOM     28  C   UNL A   1      29.975  25.287  26.749  1.00  0.00     0.001 A 
BRANCH  20  29
ATOM     29  C   UNL A   1      32.616  20.261  24.510  1.00  0.00    -0.002 A 
ATOM     30  C   UNL A   1      34.125  16.535  22.921  1.00  0.00     0.044 C 
ATOM     31  C   UNL A   1      33.590  17.825  23.467  1.00  0.00    -0.051 A 
ATOM     32  C   UNL A   1      34.016  18.286  24.717  1.00  0.00     0.004 A 
ATOM     33  C   UNL A   1      32.648  18.574  22.755  1.00  0.00     0.004 A 
ATOM     34  C   UNL A   1      33.515  19.483  25.240  1.00  0.00     0.010 A 
ATOM     35  C   UNL A   1      32.164  19.780  23.274  1.00  0.00     0.010 A 
ENDBRANCH  20  29
ENDBRANCH  10  19
ENDBRANCH   7   9
ENDBRANCH   4   7
ENDBRANCH   2   3
ENDBRANCH   1   2
BRANCH   1  36
ATOM     36  C   UNL A   1      32.581  30.301  27.238  1.00  0.00     0.118 C 
BRANCH  36  37
ATOM     37  N   UNL A   1      33.520  31.430  27.328  1.00  0.00    -0.352 N 
ATOM     38  C   UNL A   1      34.695  31.520  28.054  1.00  0.00     0.251 C 
ATOM     39  H   UNL A   1      33.282  32.227  26.801  1.00  0.00     0.163 HD
ATOM     40  O   UNL A   1      35.174  32.570  28.456  1.00  0.00    -0.269 OA
BRANCH  38  41
ATOM     41  C   UNL A   1      35.433  30.252  28.193  1.00  0.00     0.039 A 
ATOM     42  C   UNL A   1      35.593  29.816  29.517  1.00  0.00     0.014 A 
ATOM     43  C   UNL A   1      36.341  29.932  27.192  1.00  0.00     0.014 A 
ATOM     44  C   UNL A   1      36.818  29.303  29.912  1.00  0.00     0.010 A 
ATOM     45  C   UNL A   1      37.582  29.489  27.605  1.00  0.00     0.010 A 
ATOM     46  C   UNL A   1      37.841  29.270  28.973  1.00  0.00    -0.014 A 
BRANCH  46  47
ATOM     47  C   UNL A   1      39.247  29.106  29.319  1.00  0.00     0.031 A 
ATOM     48  C   UNL A   1      39.898  27.821  28.986  1.00  0.00     0.074 A 
ATOM     49  C   UNL A   1      39.969  30.153  29.784  1.00  0.00     0.049 A 
ATOM     50  N   UNL A   1      41.054  27.447  29.411  1.00  0.00    -0.248 NA
ATOM     51  C   UNL A   1      39.232  26.801  28.177  1.00  0.00     0.031 C 
ATOM     52  C   UNL A   1      41.427  30.272  29.785  1.00  0.00     0.029 A 
ATOM     53  N   UNL A   1      39.551  31.254  30.540  1.00  0.00    -0.354 N 
ATOM     54  C   UNL A   1      41.416  26.331  28.692  1.00  0.00     0.074 A 
ATOM     55  C   UNL A   1      40.212  25.910  28.022  1.00  0.00     0.031 C 
ATOM     56  C   UNL A   1      41.790  31.164  30.717  1.00  0.00     0.029 A 
ATOM     57  C   UNL A   1      40.589  31.517  31.453  1.00  0.00     0.049 A 
ATOM     58  H   UNL A   1      38.702  31.745  30.451  1.00  0.00     0.167 HD
ATOM     59  C   UNL A   1      42.730  25.979  28.637  1.00  0.00     0.031 A 
ATOM     60  C   UNL A   1      40.463  31.430  32.812  1.00  0.00     0.031 A 
ATOM     61  C   UNL A   1      43.516  26.745  29.604  1.00  0.00     0.049 A 
ATOM     62  C   UNL A   1      41.426  30.433  33.426  1.00  0.00     0.074 A 
ATOM     63  C   UNL A   1      44.347  27.845  29.498  1.00  0.00     0.029 A 
ATOM     64  N   UNL A   1      43.236  26.589  30.958  1.00  0.00    -0.354 N 
ATOM     65  N   UNL A   1      42.030  29.496  32.747  1.00  0.00    -0.248 NA
ATOM     66  C   UNL A   1      41.769  30.394  34.845  1.00  0.00     0.031 C 
ATOM     67  C   UNL A   1      44.480  28.415  30.795  1.00  0.00     0.029 A 
ATOM     68  C   UNL A   1      43.765  27.635  31.688  1.00  0.00     0.049 A 
ATOM     69  H   UNL A   1      42.733  25.835  31.343  1.00  0.00     0.167 HD
ATOM     70  C   UNL A   1      42.820  28.752  33.582  1.00  0.00     0.074 A 
ATOM     71  C   UNL A   1      42.624  29.356  34.888  1.00  0.00     0.031 C 
ATOM     72  C   UNL A   1      43.567  27.699  33.131  1.00  0.00     0.031 A 
BRANCH  59  73
ATOM     73  C   UNL A   1      43.341  25.139  27.533  1.00  0.00    -0.014 A 
ATOM     74  C   UNL A   1      44.137  24.025  27.872  1.00  0.00     0.010 A 
ATOM     75  C   UNL A   1      43.258  25.433  26.158  1.00  0.00     0.010 A 
ATOM     76  C   UNL A   1      44.856  23.296  26.909  1.00  0.00     0.020 A 
ATOM     77  C   UNL A   1      43.977  24.725  25.185  1.00  0.00     0.020 A 
ATOM     78  C   UNL A   1      44.784  23.665  25.568  1.00  0.00     0.054 A 
BRANCH  78  79
ATOM     79  S   UNL A   1      45.756  22.758  24.337  1.00  0.00     0.124 S 
ATOM     80  O   UNL A   1      46.373  21.704  25.139  1.00  0.00    -0.237 OA
ATOM     81  O   UNL A   1      44.733  22.318  23.393  1.00  0.00    -0.237 OA
ATOM     82  O   UNL A   1      46.685  23.762  23.820  1.00  0.00    -0.744 OA
ENDBRANCH  78  79
ENDBRANCH  59  73
BRANCH  60  83
ATOM     83  C   UNL A   1      39.101  31.743  33.326  1.00  0.00    -0.014 A 
ATOM     84  C   UNL A   1      38.799  33.103  33.549  1.00  0.00     0.010 A 
ATOM     85  C   UNL A   1      38.045  30.835  33.128  1.00  0.00     0.010 A 
ATOM     86  C   UNL A   1      37.499  33.580  33.363  1.00  0.00     0.020 A 
ATOM     87  C   UNL A   1      36.738  31.312  32.944  1.00  0.00     0.020 A 
ATOM     88  C   UNL A   1      36.494  32.689  32.982  1.00  0.00     0.054 A 
BRANCH  88  89
ATOM     89  S   UNL A   1      34.951  33.388  32.315  1.00  0.00     0.124 S 
ATOM     90  O   UNL A   1      34.343  32.237  31.655  1.00  0.00    -0.237 OA
ATOM     91  O   UNL A   1      34.269  33.850  33.527  1.00  0.00    -0.237 OA
ATOM     92  O   UNL A   1      35.419  34.449  31.430  1.00  0.00    -0.744 OA
ENDBRANCH  88  89
ENDBRANCH  60  83
BRANCH  72  93
ATOM     93  C   UNL A   1      44.249  26.661  33.994  1.00  0.00    -0.014 A 
ATOM     94  C   UNL A   1      43.652  26.037  35.100  1.00  0.00     0.010 A 
ATOM     95  C   UNL A   1      45.523  26.176  33.602  1.00  0.00     0.010 A 
ATOM     96  C   UNL A   1      44.317  25.035  35.821  1.00  0.00     0.020 A 
ATOM     97  C   UNL A   1      46.173  25.142  34.282  1.00  0.00     0.020 A 
ATOM     98  C   UNL A   1      45.577  24.597  35.410  1.00  0.00     0.054 A 
BRANCH  98  99
ATOM     99  S   UNL A   1      46.404  23.270  36.321  1.00  0.00     0.124 S 
ATOM    100  O   UNL A   1      45.552  22.123  36.020  1.00  0.00    -0.237 OA
ATOM    101  O   UNL A   1      47.734  23.237  35.717  1.00  0.00    -0.237 OA
ATOM    102  O   UNL A   1      46.369  23.732  37.707  1.00  0.00    -0.744 OA
ENDBRANCH  98  99
ENDBRANCH  72  93
ENDBRANCH  46  47
ENDBRANCH  38  41
ENDBRANCH  36  37
ENDBRANCH   1  36
TORSDOF 16
ENDMDL
