MODEL 1
REMARK VINA RESULT:     -13.6      0.000      0.000
REMARK SMILES Cc1ccc(C(=O)NCCCNC(=O)c2ccc(-c3c4nc(c(-c5ccc(S(=O)(=O)[O-])cc5)c5ccc([nH]5)c(-c5ccc(S(=O)(=O)[O-])cc5)c5nc(c(-c6ccc(S(=O)(=O)[O-])cc6)c6ccc3[nH]6)C=C5)C=C4)cc2)c(Oc2cccc(F)c2C(N)=O)c1
REMARK SMILES IDX 10 1 9 2 8 3 6 4 7 5 5 7 1 8 2 9 3 10 87 11 4 12 75 13 76 14
REMARK SMILES IDX 77 15 78 16 83 17 79 18 81 19 80 20 82 21 84 22 85 23 86 24
REMARK SMILES IDX 11 27 12 28 13 29 14 31 15 32 16 33 74 34 17 35 73 36 18 37
REMARK SMILES IDX 19 38 20 39 67 40 21 41 72 42 66 43 68 44 22 45 71 46 65 47
REMARK SMILES IDX 64 48 23 50 53 51 34 52 52 53 35 54 38 55 51 56 69 57 36 58
REMARK SMILES IDX 37 59 50 61 70 62 39 63 24 64 25 65 33 66 26 67 32 68 27 69
REMARK SMILES IDX 28 70 29 71 30 72 31 73 54 74 55 75 63 76 56 77 62 78 57 79
REMARK SMILES IDX 58 80 59 81 60 82 61 83 40 84 41 85 49 86 42 87 48 88 43 89
REMARK SMILES IDX 44 90 45 91 46 92 47 93
REMARK H PARENT 8 6 85 25 85 26 12 30 68 49 38 60
REMARK Flexibility Score: inf
ROOT
ATOM      1  C   UNL A   1      31.126  26.948  25.809  1.00  0.00     0.042 C 
ENDROOT
BRANCH   1   2
ATOM      2  C   UNL A   1      30.672  25.403  25.850  1.00  0.00     0.118 C 
BRANCH   2   3
ATOM      3  N   UNL A   1      30.874  24.309  26.787  1.00  0.00    -0.352 N 
ATOM      4  C   UNL A   1      32.027  23.520  26.937  1.00  0.00     0.255 C 
ATOM      5  O   UNL A   1      32.132  22.833  27.960  1.00  0.00    -0.269 OA
ATOM      6  H   UNL A   1      30.120  24.098  27.383  1.00  0.00     0.163 HD
BRANCH   4   7
ATOM      7  C   UNL A   1      33.123  23.357  25.880  1.00  0.00     0.082 A 
ATOM      8  C   UNL A   1      36.640  23.066  23.316  1.00  0.00     0.044 C 
ATOM      9  C   UNL A   1      35.438  23.228  24.192  1.00  0.00    -0.047 A 
ATOM     10  C   UNL A   1      35.364  24.179  25.205  1.00  0.00     0.004 A 
ATOM     11  C   UNL A   1      34.332  22.418  23.966  1.00  0.00     0.051 A 
ATOM     12  C   UNL A   1      34.224  24.245  26.027  1.00  0.00     0.018 A 
ATOM     13  C   UNL A   1      33.208  22.446  24.805  1.00  0.00     0.140 A 
BRANCH  13  14
ATOM     14  O   UNL A   1      32.160  21.674  24.380  1.00  0.00    -0.456 OA
BRANCH  14  15
ATOM     15  C   UNL A   1      32.347  20.482  23.683  1.00  0.00     0.143 A 
ATOM     16  C   UNL A   1      32.056  20.676  22.315  1.00  0.00     0.048 A 
ATOM     17  C   UNL A   1      32.560  19.167  24.144  1.00  0.00     0.117 A 
ATOM     18  C   UNL A   1      32.004  19.609  21.418  1.00  0.00     0.007 A 
ATOM     19  C   UNL A   1      32.567  18.114  23.219  1.00  0.00     0.139 A 
ATOM     20  C   UNL A   1      32.289  18.326  21.869  1.00  0.00     0.040 A 
ATOM     21  F   UNL A   1      32.796  16.853  23.616  1.00  0.00    -0.206 F 
BRANCH  17  22
ATOM     22  C   UNL A   1      32.722  18.737  25.544  1.00  0.00     0.255 C 
ATOM     23  N   UNL A   1      33.340  19.604  26.403  1.00  0.00    -0.365 N 
ATOM     24  O   UNL A   1      32.254  17.667  25.917  1.00  0.00    -0.269 OA
ATOM     25  H   UNL A   1      33.704  20.454  26.065  1.00  0.00     0.159 HD
ATOM     26  H   UNL A   1      33.420  19.379  27.357  1.00  0.00     0.159 HD
ENDBRANCH  17  22
ENDBRANCH  14  15
ENDBRANCH  13  14
ENDBRANCH   4   7
ENDBRANCH   2   3
ENDBRANCH   1   2
BRANCH   1  27
ATOM     27  C   UNL A   1      31.528  27.629  27.196  1.00  0.00     0.118 C 
BRANCH  27  28
ATOM     28  N   UNL A   1      31.924  29.155  27.588  1.00  0.00    -0.352 N 
ATOM     29  C   UNL A   1      32.889  30.267  27.443  1.00  0.00     0.251 C 
ATOM     30  H   UNL A   1      31.210  29.483  28.181  1.00  0.00     0.163 HD
ATOM     31  O   UNL A   1      32.300  31.362  27.316  1.00  0.00    -0.269 OA
BRANCH  29  32
ATOM     32  C   UNL A   1      34.485  30.437  27.333  1.00  0.00     0.039 A 
ATOM     33  C   UNL A   1      35.367  29.389  26.931  1.00  0.00     0.014 A 
ATOM     34  C   UNL A   1      35.191  31.584  27.620  1.00  0.00     0.014 A 
ATOM     35  C   UNL A   1      36.630  29.234  27.603  1.00  0.00     0.010 A 
ATOM     36  C   UNL A   1      36.452  31.460  28.258  1.00  0.00     0.010 A 
ATOM     37  C   UNL A   1      37.035  30.211  28.507  1.00  0.00    -0.014 A 
BRANCH  37  38
ATOM     38  C   UNL A   1      37.940  29.973  29.701  1.00  0.00     0.031 A 
ATOM     39  C   UNL A   1      37.683  30.704  30.926  1.00  0.00     0.074 A 
ATOM     40  C   UNL A   1      38.968  29.085  29.883  1.00  0.00     0.049 A 
ATOM     41  N   UNL A   1      38.532  31.494  31.490  1.00  0.00    -0.248 NA
ATOM     42  C   UNL A   1      36.425  30.537  31.630  1.00  0.00     0.031 C 
ATOM     43  C   UNL A   1      39.855  28.779  31.027  1.00  0.00     0.029 A 
ATOM     44  N   UNL A   1      39.469  28.178  28.977  1.00  0.00    -0.354 N 
ATOM     45  C   UNL A   1      38.044  31.690  32.759  1.00  0.00     0.074 A 
ATOM     46  C   UNL A   1      36.657  31.272  32.718  1.00  0.00     0.031 C 
ATOM     47  C   UNL A   1      40.956  28.126  30.580  1.00  0.00     0.029 A 
ATOM     48  C   UNL A   1      40.837  27.999  29.143  1.00  0.00     0.049 A 
ATOM     49  H   UNL A   1      38.928  27.715  28.298  1.00  0.00     0.167 HD
ATOM     50  C   UNL A   1      38.887  31.907  33.809  1.00  0.00     0.031 A 
ATOM     51  C   UNL A   1      41.671  28.419  28.142  1.00  0.00     0.031 A 
ATOM     52  C   UNL A   1      40.286  31.639  33.452  1.00  0.00     0.049 A 
ATOM     53  C   UNL A   1      42.437  29.625  28.581  1.00  0.00     0.074 A 
ATOM     54  C   UNL A   1      41.133  30.587  33.775  1.00  0.00     0.029 A 
ATOM     55  N   UNL A   1      40.897  32.316  32.400  1.00  0.00    -0.354 N 
ATOM     56  N   UNL A   1      42.186  30.244  29.695  1.00  0.00    -0.248 NA
ATOM     57  C   UNL A   1      43.516  30.251  27.827  1.00  0.00     0.031 C 
ATOM     58  C   UNL A   1      42.215  30.590  32.856  1.00  0.00     0.029 A 
ATOM     59  C   UNL A   1      42.051  31.665  31.999  1.00  0.00     0.049 A 
ATOM     60  H   UNL A   1      40.553  33.145  31.996  1.00  0.00     0.167 HD
ATOM     61  C   UNL A   1      42.985  31.334  29.817  1.00  0.00     0.074 A 
ATOM     62  C   UNL A   1      43.829  31.281  28.636  1.00  0.00     0.031 C 
ATOM     63  C   UNL A   1      42.846  32.173  30.881  1.00  0.00     0.031 A 
BRANCH  50  64
ATOM     64  C   UNL A   1      38.393  32.014  35.234  1.00  0.00    -0.014 A 
ATOM     65  C   UNL A   1      38.267  30.861  36.032  1.00  0.00     0.010 A 
ATOM     66  C   UNL A   1      38.076  33.238  35.860  1.00  0.00     0.010 A 
ATOM     67  C   UNL A   1      37.773  30.918  37.344  1.00  0.00     0.020 A 
ATOM     68  C   UNL A   1      37.527  33.307  37.145  1.00  0.00     0.020 A 
ATOM     69  C   UNL A   1      37.385  32.141  37.885  1.00  0.00     0.054 A 
BRANCH  69  70
ATOM     70  S   UNL A   1      36.756  32.200  39.580  1.00  0.00     0.124 S 
ATOM     71  O   UNL A   1      37.326  33.445  40.089  1.00  0.00    -0.237 OA
ATOM     72  O   UNL A   1      35.310  32.205  39.375  1.00  0.00    -0.237 OA
ATOM     73  O   UNL A   1      37.288  30.983  40.193  1.00  0.00    -0.744 OA
ENDBRANCH  69  70
ENDBRANCH  50  64
BRANCH  51  74
ATOM     74  C   UNL A   1      41.139  28.176  26.734  1.00  0.00    -0.014 A 
ATOM     75  C   UNL A   1      42.026  28.596  25.733  1.00  0.00     0.010 A 
ATOM     76  C   UNL A   1      40.566  26.939  26.487  1.00  0.00     0.010 A 
ATOM     77  C   UNL A   1      42.893  27.643  25.190  1.00  0.00     0.020 A 
ATOM     78  C   UNL A   1      41.332  26.027  25.739  1.00  0.00     0.020 A 
ATOM     79  C   UNL A   1      42.649  26.292  25.398  1.00  0.00     0.054 A 
BRANCH  79  80
ATOM     80  S   UNL A   1      44.255  25.077  25.437  1.00  0.00     0.124 S 
ATOM     81  O   UNL A   1      43.738  23.978  24.630  1.00  0.00    -0.237 OA
ATOM     82  O   UNL A   1      45.346  25.742  24.725  1.00  0.00    -0.237 OA
ATOM     83  O   UNL A   1      44.566  24.737  26.802  1.00  0.00    -0.744 OA
ENDBRANCH  79  80
ENDBRANCH  51  74
BRANCH  63  84
ATOM     84  C   UNL A   1      43.517  33.508  31.018  1.00  0.00    -0.014 A 
ATOM     85  C   UNL A   1      44.838  33.683  31.449  1.00  0.00     0.010 A 
ATOM     86  C   UNL A   1      42.814  34.661  30.600  1.00  0.00     0.010 A 
ATOM     87  C   UNL A   1      45.402  34.959  31.549  1.00  0.00     0.020 A 
ATOM     88  C   UNL A   1      43.384  35.932  30.639  1.00  0.00     0.020 A 
ATOM     89  C   UNL A   1      44.665  36.076  31.152  1.00  0.00     0.054 A 
BRANCH  89  90
ATOM     90  S   UNL A   1      45.413  37.714  31.281  1.00  0.00     0.124 S 
ATOM     91  O   UNL A   1      46.767  37.463  30.793  1.00  0.00    -0.237 OA
ATOM     92  O   UNL A   1      44.571  38.524  30.403  1.00  0.00    -0.237 OA
ATOM     93  O   UNL A   1      45.308  38.032  32.702  1.00  0.00    -0.744 OA
ENDBRANCH  89  90
ENDBRANCH  63  84
ENDBRANCH  37  38
ENDBRANCH  29  32
ENDBRANCH  27  28
ENDBRANCH   1  27
TORSDOF 16
ENDMDL
MODEL 2
REMARK VINA RESULT:     -12.9      4.923      9.874
REMARK SMILES Cc1ccc(C(=O)NCCCNC(=O)c2ccc(-c3c4nc(c(-c5ccc(S(=O)(=O)[O-])cc5)c5ccc([nH]5)c(-c5ccc(S(=O)(=O)[O-])cc5)c5nc(c(-c6ccc(S(=O)(=O)[O-])cc6)c6ccc3[nH]6)C=C5)C=C4)cc2)c(Oc2cccc(F)c2C(N)=O)c1
REMARK SMILES IDX 10 1 9 2 8 3 6 4 7 5 5 7 1 8 2 9 3 10 87 11 4 12 75 13 76 14
REMARK SMILES IDX 77 15 78 16 83 17 79 18 81 19 80 20 82 21 84 22 85 23 86 24
REMARK SMILES IDX 11 27 12 28 13 29 14 31 15 32 16 33 74 34 17 35 73 36 18 37
REMARK SMILES IDX 19 38 20 39 67 40 21 41 72 42 66 43 68 44 22 45 71 46 65 47
REMARK SMILES IDX 64 48 23 50 53 51 34 52 52 53 35 54 38 55 51 56 69 57 36 58
REMARK SMILES IDX 37 59 50 61 70 62 39 63 24 64 25 65 33 66 26 67 32 68 27 69
REMARK SMILES IDX 28 70 29 71 30 72 31 73 54 74 55 75 63 76 56 77 62 78 57 79
REMARK SMILES IDX 58 80 59 81 60 82 61 83 40 84 41 85 49 86 42 87 48 88 43 89
REMARK SMILES IDX 44 90 45 91 46 92 47 93
REMARK H PARENT 8 6 85 25 85 26 12 30 68 49 38 60
REMARK Flexibility Score: inf
ROOT
ATOM      1  C   UNL A   1      35.058  24.263  25.686  1.00  0.00     0.042 C 
ENDROOT
BRANCH   1   2
ATOM      2  C   UNL A   1      34.379  25.091  24.484  1.00  0.00     0.118 C 
BRANCH   2   3
ATOM      3  N   UNL A   1      34.165  24.837  23.068  1.00  0.00    -0.352 N 
ATOM      4  C   UNL A   1      33.335  25.554  22.191  1.00  0.00     0.255 C 
ATOM      5  O   UNL A   1      33.489  25.385  20.976  1.00  0.00    -0.269 OA
ATOM      6  H   UNL A   1      34.658  24.079  22.681  1.00  0.00     0.163 HD
BRANCH   4   7
ATOM      7  C   UNL A   1      32.173  26.455  22.621  1.00  0.00     0.082 A 
ATOM      8  C   UNL A   1      29.125  29.452  23.487  1.00  0.00     0.044 C 
ATOM      9  C   UNL A   1      30.209  28.456  23.226  1.00  0.00    -0.047 A 
ATOM     10  C   UNL A   1      31.531  28.821  22.992  1.00  0.00     0.004 A 
ATOM     11  C   UNL A   1      29.895  27.102  23.251  1.00  0.00     0.051 A 
ATOM     12  C   UNL A   1      32.494  27.837  22.703  1.00  0.00     0.018 A 
ATOM     13  C   UNL A   1      30.836  26.115  22.923  1.00  0.00     0.140 A 
BRANCH  13  14
ATOM     14  O   UNL A   1      30.403  24.830  23.108  1.00  0.00    -0.456 OA
BRANCH  14  15
ATOM     15  C   UNL A   1      30.981  23.976  24.046  1.00  0.00     0.143 A 
ATOM     16  C   UNL A   1      31.496  22.832  23.398  1.00  0.00     0.048 A 
ATOM     17  C   UNL A   1      30.937  23.988  25.454  1.00  0.00     0.117 A 
ATOM     18  C   UNL A   1      31.984  21.741  24.117  1.00  0.00     0.007 A 
ATOM     19  C   UNL A   1      31.489  22.910  26.161  1.00  0.00     0.139 A 
ATOM     20  C   UNL A   1      32.006  21.794  25.505  1.00  0.00     0.040 A 
ATOM     21  F   UNL A   1      31.494  22.899  27.503  1.00  0.00    -0.206 F 
BRANCH  17  22
ATOM     22  C   UNL A   1      30.304  25.005  26.311  1.00  0.00     0.255 C 
ATOM     23  N   UNL A   1      29.033  24.755  26.753  1.00  0.00    -0.365 N 
ATOM     24  O   UNL A   1      30.935  25.997  26.657  1.00  0.00    -0.269 OA
ATOM     25  H   UNL A   1      28.558  23.948  26.452  1.00  0.00     0.159 HD
ATOM     26  H   UNL A   1      28.595  25.382  27.371  1.00  0.00     0.159 HD
ENDBRANCH  17  22
ENDBRANCH  14  15
ENDBRANCH  13  14
ENDBRANCH   4   7
ENDBRANCH   2   3
ENDBRANCH   1   2
BRANCH   1  27
ATOM     27  C   UNL A   1      36.650  24.142  25.684  1.00  0.00     0.118 C 
BRANCH  27  28
ATOM     28  N   UNL A   1      37.652  22.928  25.284  1.00  0.00    -0.352 N 
ATOM     29  C   UNL A   1      38.792  22.072  25.681  1.00  0.00     0.251 C 
ATOM     30  H   UNL A   1      37.384  22.631  24.384  1.00  0.00     0.163 HD
ATOM     31  O   UNL A   1      38.602  20.883  25.346  1.00  0.00    -0.269 OA
BRANCH  29  32
ATOM     32  C   UNL A   1      40.172  22.246  26.490  1.00  0.00     0.039 A 
ATOM     33  C   UNL A   1      40.268  22.884  27.764  1.00  0.00     0.014 A 
ATOM     34  C   UNL A   1      41.411  21.828  26.060  1.00  0.00     0.014 A 
ATOM     35  C   UNL A   1      41.387  23.747  28.037  1.00  0.00     0.010 A 
ATOM     36  C   UNL A   1      42.536  22.647  26.340  1.00  0.00     0.010 A 
ATOM     37  C   UNL A   1      42.432  23.805  27.122  1.00  0.00    -0.014 A 
BRANCH  37  38
ATOM     38  C   UNL A   1      43.332  25.005  26.900  1.00  0.00     0.031 A 
ATOM     39  C   UNL A   1      44.769  24.811  26.924  1.00  0.00     0.074 A 
ATOM     40  C   UNL A   1      43.032  26.302  26.579  1.00  0.00     0.049 A 
ATOM     41  N   UNL A   1      45.566  25.408  27.742  1.00  0.00    -0.248 NA
ATOM     42  C   UNL A   1      45.408  23.937  25.958  1.00  0.00     0.031 C 
ATOM     43  C   UNL A   1      43.859  27.501  26.312  1.00  0.00     0.029 A 
ATOM     44  N   UNL A   1      41.787  26.862  26.405  1.00  0.00    -0.354 N 
ATOM     45  C   UNL A   1      46.820  25.226  27.211  1.00  0.00     0.074 A 
ATOM     46  C   UNL A   1      46.691  24.142  26.258  1.00  0.00     0.031 C 
ATOM     47  C   UNL A   1      43.096  28.613  26.447  1.00  0.00     0.029 A 
ATOM     48  C   UNL A   1      41.764  28.188  26.820  1.00  0.00     0.049 A 
ATOM     49  H   UNL A   1      41.011  26.384  26.035  1.00  0.00     0.167 HD
ATOM     50  C   UNL A   1      47.799  26.160  27.383  1.00  0.00     0.031 A 
ATOM     51  C   UNL A   1      41.000  28.512  27.909  1.00  0.00     0.031 A 
ATOM     52  C   UNL A   1      47.267  27.414  27.933  1.00  0.00     0.049 A 
ATOM     53  C   UNL A   1      41.876  28.846  29.073  1.00  0.00     0.074 A 
ATOM     54  C   UNL A   1      47.032  28.650  27.345  1.00  0.00     0.029 A 
ATOM     55  N   UNL A   1      46.586  27.430  29.147  1.00  0.00    -0.354 N 
ATOM     56  N   UNL A   1      43.163  28.672  29.050  1.00  0.00    -0.248 NA
ATOM     57  C   UNL A   1      41.408  29.373  30.349  1.00  0.00     0.031 C 
ATOM     58  C   UNL A   1      46.140  29.374  28.178  1.00  0.00     0.029 A 
ATOM     59  C   UNL A   1      45.862  28.600  29.291  1.00  0.00     0.049 A 
ATOM     60  H   UNL A   1      46.616  26.705  29.812  1.00  0.00     0.167 HD
ATOM     61  C   UNL A   1      43.703  28.998  30.251  1.00  0.00     0.074 A 
ATOM     62  C   UNL A   1      42.567  29.465  31.027  1.00  0.00     0.031 C 
ATOM     63  C   UNL A   1      45.035  28.827  30.476  1.00  0.00     0.031 A 
BRANCH  50  64
ATOM     64  C   UNL A   1      49.153  26.045  26.719  1.00  0.00    -0.014 A 
ATOM     65  C   UNL A   1      49.355  26.551  25.421  1.00  0.00     0.010 A 
ATOM     66  C   UNL A   1      50.283  25.482  27.347  1.00  0.00     0.010 A 
ATOM     67  C   UNL A   1      50.585  26.425  24.760  1.00  0.00     0.020 A 
ATOM     68  C   UNL A   1      51.500  25.295  26.682  1.00  0.00     0.020 A 
ATOM     69  C   UNL A   1      51.646  25.777  25.388  1.00  0.00     0.054 A 
BRANCH  69  70
ATOM     70  S   UNL A   1      53.229  25.628  24.525  1.00  0.00     0.124 S 
ATOM     71  O   UNL A   1      54.108  26.480  25.323  1.00  0.00    -0.237 OA
ATOM     72  O   UNL A   1      53.494  24.194  24.608  1.00  0.00    -0.237 OA
ATOM     73  O   UNL A   1      52.942  26.127  23.181  1.00  0.00    -0.744 OA
ENDBRANCH  69  70
ENDBRANCH  50  64
BRANCH  51  74
ATOM     74  C   UNL A   1      39.670  27.772  27.989  1.00  0.00    -0.014 A 
ATOM     75  C   UNL A   1      39.710  26.664  28.848  1.00  0.00     0.010 A 
ATOM     76  C   UNL A   1      38.530  28.547  28.134  1.00  0.00     0.010 A 
ATOM     77  C   UNL A   1      39.286  26.849  30.168  1.00  0.00     0.020 A 
ATOM     78  C   UNL A   1      37.942  28.572  29.412  1.00  0.00     0.020 A 
ATOM     79  C   UNL A   1      38.553  27.979  30.504  1.00  0.00     0.054 A 
BRANCH  79  80
ATOM     80  S   UNL A   1      38.751  28.657  32.390  1.00  0.00     0.124 S 
ATOM     81  O   UNL A   1      37.474  28.213  32.936  1.00  0.00    -0.237 OA
ATOM     82  O   UNL A   1      39.843  27.921  33.027  1.00  0.00    -0.237 OA
ATOM     83  O   UNL A   1      38.941  30.086  32.368  1.00  0.00    -0.744 OA
ENDBRANCH  79  80
ENDBRANCH  51  74
BRANCH  63  84
ATOM     84  C   UNL A   1      45.705  28.949  31.813  1.00  0.00    -0.014 A 
ATOM     85  C   UNL A   1      45.989  27.863  32.652  1.00  0.00     0.010 A 
ATOM     86  C   UNL A   1      46.169  30.220  32.222  1.00  0.00     0.010 A 
ATOM     87  C   UNL A   1      46.621  28.049  33.885  1.00  0.00     0.020 A 
ATOM     88  C   UNL A   1      46.853  30.410  33.420  1.00  0.00     0.020 A 
ATOM     89  C   UNL A   1      47.040  29.325  34.264  1.00  0.00     0.054 A 
BRANCH  89  90
ATOM     90  S   UNL A   1      47.861  29.543  35.857  1.00  0.00     0.124 S 
ATOM     91  O   UNL A   1      48.992  30.394  35.495  1.00  0.00    -0.237 OA
ATOM     92  O   UNL A   1      46.830  30.186  36.669  1.00  0.00    -0.237 OA
ATOM     93  O   UNL A   1      48.205  28.182  36.260  1.00  0.00    -0.744 OA
ENDBRANCH  89  90
ENDBRANCH  63  84
ENDBRANCH  37  38
ENDBRANCH  29  32
ENDBRANCH  27  28
ENDBRANCH   1  27
TORSDOF 16
ENDMDL
MODEL 3
REMARK VINA RESULT:     -12.9      4.582     10.264
REMARK SMILES Cc1ccc(C(=O)NCCCNC(=O)c2ccc(-c3c4nc(c(-c5ccc(S(=O)(=O)[O-])cc5)c5ccc([nH]5)c(-c5ccc(S(=O)(=O)[O-])cc5)c5nc(c(-c6ccc(S(=O)(=O)[O-])cc6)c6ccc3[nH]6)C=C5)C=C4)cc2)c(Oc2cccc(F)c2C(N)=O)c1
REMARK SMILES IDX 10 1 9 2 8 3 6 4 7 5 5 7 1 8 2 9 3 10 87 11 4 12 75 13 76 14
REMARK SMILES IDX 77 15 78 16 83 17 79 18 81 19 80 20 82 21 84 22 85 23 86 24
REMARK SMILES IDX 11 27 12 28 13 29 14 31 15 32 16 33 74 34 17 35 73 36 18 37
REMARK SMILES IDX 19 38 20 39 67 40 21 41 72 42 66 43 68 44 22 45 71 46 65 47
REMARK SMILES IDX 64 48 23 50 53 51 34 52 52 53 35 54 38 55 51 56 69 57 36 58
REMARK SMILES IDX 37 59 50 61 70 62 39 63 24 64 25 65 33 66 26 67 32 68 27 69
REMARK SMILES IDX 28 70 29 71 30 72 31 73 54 74 55 75 63 76 56 77 62 78 57 79
REMARK SMILES IDX 58 80 59 81 60 82 61 83 40 84 41 85 49 86 42 87 48 88 43 89
REMARK SMILES IDX 44 90 45 91 46 92 47 93
REMARK H PARENT 8 6 85 25 85 26 12 30 68 49 38 60
REMARK Flexibility Score: inf
ROOT
ATOM      1  C   UNL A   1      34.671  23.063  24.677  1.00  0.00     0.042 C 
ENDROOT
BRANCH   1   2
ATOM      2  C   UNL A   1      33.504  23.869  23.912  1.00  0.00     0.118 C 
BRANCH   2   3
ATOM      3  N   UNL A   1      33.438  24.630  22.675  1.00  0.00    -0.352 N 
ATOM      4  C   UNL A   1      33.460  26.027  22.535  1.00  0.00     0.255 C 
ATOM      5  O   UNL A   1      33.682  26.495  21.411  1.00  0.00    -0.269 OA
ATOM      6  H   UNL A   1      33.371  24.108  21.843  1.00  0.00     0.163 HD
BRANCH   4   7
ATOM      7  C   UNL A   1      33.123  27.027  23.645  1.00  0.00     0.082 A 
ATOM      8  C   UNL A   1      32.752  29.805  26.987  1.00  0.00     0.044 C 
ATOM      9  C   UNL A   1      32.879  28.805  25.882  1.00  0.00    -0.047 A 
ATOM     10  C   UNL A   1      33.722  27.701  25.955  1.00  0.00     0.004 A 
ATOM     11  C   UNL A   1      32.099  28.964  24.742  1.00  0.00     0.051 A 
ATOM     12  C   UNL A   1      33.835  26.826  24.859  1.00  0.00     0.018 A 
ATOM     13  C   UNL A   1      32.233  28.123  23.628  1.00  0.00     0.140 A 
BRANCH  13  14
ATOM     14  O   UNL A   1      31.313  28.339  22.637  1.00  0.00    -0.456 OA
BRANCH  14  15
ATOM     15  C   UNL A   1      29.945  28.175  22.842  1.00  0.00     0.143 A 
ATOM     16  C   UNL A   1      29.250  29.312  22.374  1.00  0.00     0.048 A 
ATOM     17  C   UNL A   1      29.232  27.212  23.583  1.00  0.00     0.117 A 
ATOM     18  C   UNL A   1      27.885  29.483  22.602  1.00  0.00     0.007 A 
ATOM     19  C   UNL A   1      27.848  27.368  23.749  1.00  0.00     0.139 A 
ATOM     20  C   UNL A   1      27.177  28.491  23.269  1.00  0.00     0.040 A 
ATOM     21  F   UNL A   1      27.130  26.455  24.423  1.00  0.00    -0.206 F 
BRANCH  17  22
ATOM     22  C   UNL A   1      29.792  26.044  24.285  1.00  0.00     0.255 C 
ATOM     23  N   UNL A   1      30.002  24.908  23.551  1.00  0.00    -0.365 N 
ATOM     24  O   UNL A   1      30.113  26.131  25.465  1.00  0.00    -0.269 OA
ATOM     25  H   UNL A   1      29.729  24.876  22.606  1.00  0.00     0.159 HD
ATOM     26  H   UNL A   1      30.425  24.124  23.968  1.00  0.00     0.159 HD
ENDBRANCH  17  22
ENDBRANCH  14  15
ENDBRANCH  13  14
ENDBRANCH   4   7
ENDBRANCH   2   3
ENDBRANCH   1   2
BRANCH   1  27
ATOM     27  C   UNL A   1      36.009  22.761  23.859  1.00  0.00     0.118 C 
BRANCH  27  28
ATOM     28  N   UNL A   1      37.435  22.119  24.298  1.00  0.00    -0.352 N 
ATOM     29  C   UNL A   1      38.416  21.887  25.381  1.00  0.00     0.251 C 
ATOM     30  H   UNL A   1      37.811  21.702  23.489  1.00  0.00     0.163 HD
ATOM     31  O   UNL A   1      38.884  20.730  25.325  1.00  0.00    -0.269 OA
BRANCH  29  32
ATOM     32  C   UNL A   1      38.985  22.696  26.650  1.00  0.00     0.039 A 
ATOM     33  C   UNL A   1      38.305  23.794  27.259  1.00  0.00     0.014 A 
ATOM     34  C   UNL A   1      40.180  22.451  27.286  1.00  0.00     0.014 A 
ATOM     35  C   UNL A   1      39.062  24.935  27.701  1.00  0.00     0.010 A 
ATOM     36  C   UNL A   1      40.936  23.556  27.757  1.00  0.00     0.010 A 
ATOM     37  C   UNL A   1      40.451  24.868  27.682  1.00  0.00    -0.014 A 
BRANCH  37  38
ATOM     38  C   UNL A   1      41.379  26.056  27.511  1.00  0.00     0.031 A 
ATOM     39  C   UNL A   1      42.641  25.861  26.824  1.00  0.00     0.074 A 
ATOM     40  C   UNL A   1      41.209  27.378  27.828  1.00  0.00     0.049 A 
ATOM     41  N   UNL A   1      43.795  26.089  27.350  1.00  0.00    -0.248 NA
ATOM     42  C   UNL A   1      42.661  25.427  25.439  1.00  0.00     0.031 C 
ATOM     43  C   UNL A   1      42.053  28.581  27.653  1.00  0.00     0.029 A 
ATOM     44  N   UNL A   1      40.123  27.967  28.434  1.00  0.00    -0.354 N 
ATOM     45  C   UNL A   1      44.667  26.121  26.289  1.00  0.00     0.074 A 
ATOM     46  C   UNL A   1      43.969  25.492  25.185  1.00  0.00     0.031 C 
ATOM     47  C   UNL A   1      41.622  29.558  28.489  1.00  0.00     0.029 A 
ATOM     48  C   UNL A   1      40.507  29.028  29.244  1.00  0.00     0.049 A 
ATOM     49  H   UNL A   1      39.192  27.675  28.309  1.00  0.00     0.167 HD
ATOM     50  C   UNL A   1      45.779  26.910  26.316  1.00  0.00     0.031 A 
ATOM     51  C   UNL A   1      40.327  28.909  30.596  1.00  0.00     0.031 A 
ATOM     52  C   UNL A   1      45.751  27.855  27.441  1.00  0.00     0.049 A 
ATOM     53  C   UNL A   1      41.647  28.759  31.282  1.00  0.00     0.074 A 
ATOM     54  C   UNL A   1      45.519  29.223  27.487  1.00  0.00     0.029 A 
ATOM     55  N   UNL A   1      45.641  27.402  28.752  1.00  0.00    -0.354 N 
ATOM     56  N   UNL A   1      42.758  28.602  30.628  1.00  0.00    -0.248 NA
ATOM     57  C   UNL A   1      41.844  28.752  32.725  1.00  0.00     0.031 C 
ATOM     58  C   UNL A   1      45.190  29.572  28.823  1.00  0.00     0.029 A 
ATOM     59  C   UNL A   1      45.259  28.428  29.598  1.00  0.00     0.049 A 
ATOM     60  H   UNL A   1      45.812  26.475  29.038  1.00  0.00     0.167 HD
ATOM     61  C   UNL A   1      43.791  28.433  31.492  1.00  0.00     0.074 A 
ATOM     62  C   UNL A   1      43.176  28.568  32.801  1.00  0.00     0.031 C 
ATOM     63  C   UNL A   1      45.045  28.182  31.024  1.00  0.00     0.031 A 
BRANCH  50  64
ATOM     64  C   UNL A   1      46.698  27.055  25.124  1.00  0.00    -0.014 A 
ATOM     65  C   UNL A   1      46.440  28.027  24.140  1.00  0.00     0.010 A 
ATOM     66  C   UNL A   1      47.865  26.284  24.942  1.00  0.00     0.010 A 
ATOM     67  C   UNL A   1      47.248  28.161  23.001  1.00  0.00     0.020 A 
ATOM     68  C   UNL A   1      48.649  26.363  23.786  1.00  0.00     0.020 A 
ATOM     69  C   UNL A   1      48.337  27.312  22.821  1.00  0.00     0.054 A 
BRANCH  69  70
ATOM     70  S   UNL A   1      49.374  27.501  21.351  1.00  0.00     0.124 S 
ATOM     71  O   UNL A   1      49.635  28.939  21.328  1.00  0.00    -0.237 OA
ATOM     72  O   UNL A   1      50.522  26.657  21.669  1.00  0.00    -0.237 OA
ATOM     73  O   UNL A   1      48.530  27.011  20.262  1.00  0.00    -0.744 OA
ENDBRANCH  69  70
ENDBRANCH  50  64
BRANCH  51  74
ATOM     74  C   UNL A   1      39.038  28.202  31.000  1.00  0.00    -0.014 A 
ATOM     75  C   UNL A   1      38.872  28.117  32.390  1.00  0.00     0.010 A 
ATOM     76  C   UNL A   1      37.885  28.567  30.323  1.00  0.00     0.010 A 
ATOM     77  C   UNL A   1      38.110  29.109  33.016  1.00  0.00     0.020 A 
ATOM     78  C   UNL A   1      36.980  29.390  31.018  1.00  0.00     0.020 A 
ATOM     79  C   UNL A   1      37.291  29.932  32.254  1.00  0.00     0.054 A 
BRANCH  79  80
ATOM     80  S   UNL A   1      36.970  31.791  32.959  1.00  0.00     0.124 S 
ATOM     81  O   UNL A   1      35.563  31.938  32.603  1.00  0.00    -0.237 OA
ATOM     82  O   UNL A   1      37.109  31.757  34.414  1.00  0.00    -0.237 OA
ATOM     83  O   UNL A   1      37.863  32.713  32.305  1.00  0.00    -0.744 OA
ENDBRANCH  79  80
ENDBRANCH  51  74
BRANCH  63  84
ATOM     84  C   UNL A   1      46.214  27.771  31.871  1.00  0.00    -0.014 A 
ATOM     85  C   UNL A   1      47.279  28.619  32.204  1.00  0.00     0.010 A 
ATOM     86  C   UNL A   1      46.206  26.483  32.453  1.00  0.00     0.010 A 
ATOM     87  C   UNL A   1      48.336  28.171  33.002  1.00  0.00     0.020 A 
ATOM     88  C   UNL A   1      47.222  26.045  33.299  1.00  0.00     0.020 A 
ATOM     89  C   UNL A   1      48.303  26.882  33.537  1.00  0.00     0.054 A 
BRANCH  89  90
ATOM     90  S   UNL A   1      49.672  26.324  34.572  1.00  0.00     0.124 S 
ATOM     91  O   UNL A   1      49.445  24.882  34.617  1.00  0.00    -0.237 OA
ATOM     92  O   UNL A   1      50.847  26.750  33.814  1.00  0.00    -0.237 OA
ATOM     93  O   UNL A   1      49.463  27.030  35.834  1.00  0.00    -0.744 OA
ENDBRANCH  89  90
ENDBRANCH  63  84
ENDBRANCH  37  38
ENDBRANCH  29  32
ENDBRANCH  27  28
ENDBRANCH   1  27
TORSDOF 16
ENDMDL
