MODEL 1
REMARK VINA RESULT:     -14.0      0.000      0.000
REMARK SMILES Cc1cccc(Cn2c(=O)c3sccc3n(CC(=O)NCCCNC(=O)c3ccc(-c4c5nc(c(-c6ccc(S(=O)(=O)[O-])cc6)c6ccc([nH]6)c(-c6ccc(S(=O)(=O)[O-])cc6)c6nc(c(-c7ccc(S(=O)(=O)[O-])cc7)c7ccc4[nH]7)C=C6)C=C5)cc3)c2=O)c1
REMARK SMILES IDX 22 1 21 2 20 3 18 4 19 5 17 7 16 8 8 9 9 10 87 11 10 12
REMARK SMILES IDX 11 13 88 14 12 15 15 16 13 17 14 18 7 19 6 20 1 21 2 22 3 23
REMARK SMILES IDX 89 24 4 25 5 26 23 27 24 28 25 29 26 31 27 32 28 33 86 34
REMARK SMILES IDX 29 35 85 36 30 37 31 38 32 39 79 40 33 41 84 42 78 43 80 44
REMARK SMILES IDX 34 45 83 46 77 47 76 48 35 50 65 51 46 52 64 53 47 54 50 55
REMARK SMILES IDX 63 56 81 57 48 58 49 59 62 61 82 62 51 63 36 64 37 65 45 66
REMARK SMILES IDX 38 67 44 68 39 69 40 70 41 71 42 72 43 73 66 74 67 75 75 76
REMARK SMILES IDX 68 77 74 78 69 79 70 80 71 81 72 82 73 83 52 84 53 85 61 86
REMARK SMILES IDX 54 87 60 88 55 89 56 90 57 91 58 92 59 93
REMARK H PARENT 20 6 24 30 80 49 50 60
REMARK Flexibility Score: inf
ROOT
ATOM      1  C   UNL A   1      33.247  30.223  26.888  1.00  0.00     0.042 C 
ENDROOT
BRANCH   1   2
ATOM      2  C   UNL A   1      32.776  29.266  25.795  1.00  0.00     0.117 C 
BRANCH   2   3
ATOM      3  N   UNL A   1      31.669  28.418  26.221  1.00  0.00    -0.354 N 
ATOM      4  C   UNL A   1      31.656  27.082  26.493  1.00  0.00     0.240 C 
ATOM      5  O   UNL A   1      30.631  26.586  26.974  1.00  0.00    -0.273 OA
ATOM      6  H   UNL A   1      30.806  28.877  26.329  1.00  0.00     0.163 HD
BRANCH   4   7
ATOM      7  C   UNL A   1      32.884  26.203  26.240  1.00  0.00     0.227 C 
BRANCH   7   8
ATOM      8  N   UNL A   1      32.692  25.158  25.228  1.00  0.00    -0.283 N 
ATOM      9  N   UNL A   1      32.262  22.855  24.715  1.00  0.00    -0.254 N 
ATOM     10  C   UNL A   1      32.329  23.047  23.332  1.00  0.00     0.274 A 
ATOM     11  C   UNL A   1      32.412  23.864  25.674  1.00  0.00     0.332 A 
ATOM     12  O   UNL A   1      32.146  22.139  22.521  1.00  0.00    -0.268 OA
ATOM     13  C   UNL A   1      32.640  24.401  22.959  1.00  0.00     0.116 A 
ATOM     14  O   UNL A   1      32.335  23.625  26.881  1.00  0.00    -0.247 OA
ATOM     15  S   UNL A   1      32.865  24.897  21.348  1.00  0.00    -0.136 S 
ATOM     16  C   UNL A   1      32.813  25.416  23.861  1.00  0.00     0.070 A 
ATOM     17  C   UNL A   1      33.199  26.503  21.840  1.00  0.00     0.068 A 
ATOM     18  C   UNL A   1      33.120  26.648  23.210  1.00  0.00     0.039 A 
BRANCH   9  19
ATOM     19  C   UNL A   1      32.110  21.486  25.200  1.00  0.00     0.166 C 
BRANCH  19  20
ATOM     20  C   UNL A   1      33.350  20.631  25.029  1.00  0.00    -0.028 A 
ATOM     21  C   UNL A   1      34.331  17.107  23.934  1.00  0.00     0.044 C 
ATOM     22  C   UNL A   1      34.415  18.521  24.426  1.00  0.00    -0.051 A 
ATOM     23  C   UNL A   1      35.669  19.082  24.695  1.00  0.00     0.003 A 
ATOM     24  C   UNL A   1      33.258  19.292  24.622  1.00  0.00     0.009 A 
ATOM     25  C   UNL A   1      35.773  20.405  25.107  1.00  0.00     0.001 A 
ATOM     26  C   UNL A   1      34.624  21.177  25.252  1.00  0.00     0.005 A 
ENDBRANCH  19  20
ENDBRANCH   9  19
ENDBRANCH   7   8
ENDBRANCH   4   7
ENDBRANCH   2   3
ENDBRANCH   1   2
BRANCH   1  27
ATOM     27  C   UNL A   1      34.592  29.831  27.483  1.00  0.00     0.118 C 
BRANCH  27  28
ATOM     28  N   UNL A   1      35.205  30.902  28.270  1.00  0.00    -0.352 N 
ATOM     29  C   UNL A   1      36.414  30.867  28.936  1.00  0.00     0.251 C 
ATOM     30  H   UNL A   1      34.697  31.743  28.332  1.00  0.00     0.163 HD
ATOM     31  O   UNL A   1      36.826  31.791  29.629  1.00  0.00    -0.269 OA
BRANCH  29  32
ATOM     32  C   UNL A   1      37.279  29.706  28.665  1.00  0.00     0.039 A 
ATOM     33  C   UNL A   1      37.526  28.842  29.737  1.00  0.00     0.014 A 
ATOM     34  C   UNL A   1      38.080  29.705  27.525  1.00  0.00     0.014 A 
ATOM     35  C   UNL A   1      38.705  28.111  29.752  1.00  0.00     0.010 A 
ATOM     36  C   UNL A   1      39.299  29.058  27.590  1.00  0.00     0.010 A 
ATOM     37  C   UNL A   1      39.632  28.312  28.727  1.00  0.00    -0.014 A 
BRANCH  37  38
ATOM     38  C   UNL A   1      41.005  27.828  28.815  1.00  0.00     0.031 A 
ATOM     39  C   UNL A   1      41.309  26.448  28.381  1.00  0.00     0.074 A 
ATOM     40  C   UNL A   1      41.984  28.608  29.326  1.00  0.00     0.049 A 
ATOM     41  N   UNL A   1      42.241  25.711  28.887  1.00  0.00    -0.248 NA
ATOM     42  C   UNL A   1      40.513  25.764  27.366  1.00  0.00     0.031 C 
ATOM     43  C   UNL A   1      43.415  28.315  29.333  1.00  0.00     0.029 A 
ATOM     44  N   UNL A   1      41.860  29.715  30.174  1.00  0.00    -0.354 N 
ATOM     45  C   UNL A   1      42.349  24.592  28.093  1.00  0.00     0.074 A 
ATOM     46  C   UNL A   1      41.205  24.634  27.211  1.00  0.00     0.031 C 
ATOM     47  C   UNL A   1      43.976  28.970  30.361  1.00  0.00     0.029 A 
ATOM     48  C   UNL A   1      42.903  29.612  31.105  1.00  0.00     0.049 A 
ATOM     49  H   UNL A   1      41.179  30.423  30.124  1.00  0.00     0.167 HD
ATOM     50  C   UNL A   1      43.465  23.814  28.149  1.00  0.00     0.031 A 
ATOM     51  C   UNL A   1      42.722  29.528  32.454  1.00  0.00     0.031 A 
ATOM     52  C   UNL A   1      44.406  24.281  29.161  1.00  0.00     0.049 A 
ATOM     53  C   UNL A   1      43.330  28.278  33.054  1.00  0.00     0.074 A 
ATOM     54  C   UNL A   1      45.543  25.071  29.095  1.00  0.00     0.029 A 
ATOM     55  N   UNL A   1      44.055  24.209  30.504  1.00  0.00    -0.354 N 
ATOM     56  N   UNL A   1      43.700  27.240  32.354  1.00  0.00    -0.248 NA
ATOM     57  C   UNL A   1      43.543  28.083  34.485  1.00  0.00     0.031 C 
ATOM     58  C   UNL A   1      45.824  25.546  30.403  1.00  0.00     0.029 A 
ATOM     59  C   UNL A   1      44.881  25.015  31.265  1.00  0.00     0.049 A 
ATOM     60  H   UNL A   1      43.320  23.661  30.863  1.00  0.00     0.167 HD
ATOM     61  C   UNL A   1      44.216  26.279  33.186  1.00  0.00     0.074 A 
ATOM     62  C   UNL A   1      44.095  26.856  34.512  1.00  0.00     0.031 C 
ATOM     63  C   UNL A   1      44.707  25.095  32.711  1.00  0.00     0.031 A 
BRANCH  50  64
ATOM     64  C   UNL A   1      43.805  22.852  27.035  1.00  0.00    -0.014 A 
ATOM     65  C   UNL A   1      42.912  21.813  26.709  1.00  0.00     0.010 A 
ATOM     66  C   UNL A   1      45.030  22.870  26.339  1.00  0.00     0.010 A 
ATOM     67  C   UNL A   1      43.274  20.773  25.838  1.00  0.00     0.020 A 
ATOM     68  C   UNL A   1      45.423  21.814  25.504  1.00  0.00     0.020 A 
ATOM     69  C   UNL A   1      44.546  20.760  25.271  1.00  0.00     0.054 A 
BRANCH  69  70
ATOM     70  S   UNL A   1      45.049  19.336  24.267  1.00  0.00     0.124 S 
ATOM     71  O   UNL A   1      44.415  18.217  24.959  1.00  0.00    -0.237 OA
ATOM     72  O   UNL A   1      44.493  19.665  22.958  1.00  0.00    -0.237 OA
ATOM     73  O   UNL A   1      46.509  19.357  24.347  1.00  0.00    -0.744 OA
ENDBRANCH  69  70
ENDBRANCH  50  64
BRANCH  51  74
ATOM     74  C   UNL A   1      41.549  30.274  32.982  1.00  0.00    -0.014 A 
ATOM     75  C   UNL A   1      40.343  29.557  33.133  1.00  0.00     0.010 A 
ATOM     76  C   UNL A   1      41.710  31.479  33.686  1.00  0.00     0.010 A 
ATOM     77  C   UNL A   1      39.393  29.945  34.082  1.00  0.00     0.020 A 
ATOM     78  C   UNL A   1      40.763  31.865  34.649  1.00  0.00     0.020 A 
ATOM     79  C   UNL A   1      39.645  31.057  34.884  1.00  0.00     0.054 A 
BRANCH  79  80
ATOM     80  S   UNL A   1      38.557  31.366  36.309  1.00  0.00     0.124 S 
ATOM     81  O   UNL A   1      39.424  32.109  37.220  1.00  0.00    -0.237 OA
ATOM     82  O   UNL A   1      37.479  32.146  35.703  1.00  0.00    -0.237 OA
ATOM     83  O   UNL A   1      38.193  30.023  36.746  1.00  0.00    -0.744 OA
ENDBRANCH  79  80
ENDBRANCH  51  74
BRANCH  63  84
ATOM     84  C   UNL A   1      45.164  23.909  33.534  1.00  0.00    -0.014 A 
ATOM     85  C   UNL A   1      46.458  23.747  34.051  1.00  0.00     0.010 A 
ATOM     86  C   UNL A   1      44.200  22.945  33.925  1.00  0.00     0.010 A 
ATOM     87  C   UNL A   1      46.784  22.658  34.876  1.00  0.00     0.020 A 
ATOM     88  C   UNL A   1      44.501  21.882  34.781  1.00  0.00     0.020 A 
ATOM     89  C   UNL A   1      45.804  21.734  35.237  1.00  0.00     0.054 A 
BRANCH  89  90
ATOM     90  S   UNL A   1      46.207  20.386  36.379  1.00  0.00     0.124 S 
ATOM     91  O   UNL A   1      45.432  19.279  35.825  1.00  0.00    -0.237 OA
ATOM     92  O   UNL A   1      47.657  20.263  36.243  1.00  0.00    -0.237 OA
ATOM     93  O   UNL A   1      45.752  20.888  37.672  1.00  0.00    -0.744 OA
ENDBRANCH  89  90
ENDBRANCH  63  84
ENDBRANCH  37  38
ENDBRANCH  29  32
ENDBRANCH  27  28
ENDBRANCH   1  27
TORSDOF 16
ENDMDL
MODEL 2
REMARK VINA RESULT:     -13.7      4.983     11.594
REMARK SMILES Cc1cccc(Cn2c(=O)c3sccc3n(CC(=O)NCCCNC(=O)c3ccc(-c4c5nc(c(-c6ccc(S(=O)(=O)[O-])cc6)c6ccc([nH]6)c(-c6ccc(S(=O)(=O)[O-])cc6)c6nc(c(-c7ccc(S(=O)(=O)[O-])cc7)c7ccc4[nH]7)C=C6)C=C5)cc3)c2=O)c1
REMARK SMILES IDX 22 1 21 2 20 3 18 4 19 5 17 7 16 8 8 9 9 10 87 11 10 12
REMARK SMILES IDX 11 13 88 14 12 15 15 16 13 17 14 18 7 19 6 20 1 21 2 22 3 23
REMARK SMILES IDX 89 24 4 25 5 26 23 27 24 28 25 29 26 31 27 32 28 33 86 34
REMARK SMILES IDX 29 35 85 36 30 37 31 38 32 39 79 40 33 41 84 42 78 43 80 44
REMARK SMILES IDX 34 45 83 46 77 47 76 48 35 50 65 51 46 52 64 53 47 54 50 55
REMARK SMILES IDX 63 56 81 57 48 58 49 59 62 61 82 62 51 63 36 64 37 65 45 66
REMARK SMILES IDX 38 67 44 68 39 69 40 70 41 71 42 72 43 73 66 74 67 75 75 76
REMARK SMILES IDX 68 77 74 78 69 79 70 80 71 81 72 82 73 83 52 84 53 85 61 86
REMARK SMILES IDX 54 87 60 88 55 89 56 90 57 91 58 92 59 93
REMARK H PARENT 20 6 24 30 80 49 50 60
REMARK Flexibility Score: inf
ROOT
ATOM      1  C   UNL A   1      37.855  22.037  25.681  1.00  0.00     0.042 C 
ENDROOT
BRANCH   1   2
ATOM      2  C   UNL A   1      36.333  22.066  25.569  1.00  0.00     0.117 C 
BRANCH   2   3
ATOM      3  N   UNL A   1      35.866  22.199  24.194  1.00  0.00    -0.354 N 
ATOM      4  C   UNL A   1      35.281  23.265  23.576  1.00  0.00     0.240 C 
ATOM      5  O   UNL A   1      35.087  23.209  22.357  1.00  0.00    -0.273 OA
ATOM      6  H   UNL A   1      35.994  21.404  23.628  1.00  0.00     0.163 HD
BRANCH   4   7
ATOM      7  C   UNL A   1      34.890  24.524  24.355  1.00  0.00     0.227 C 
BRANCH   7   8
ATOM      8  N   UNL A   1      33.451  24.808  24.379  1.00  0.00    -0.283 N 
ATOM      9  N   UNL A   1      31.585  26.016  23.477  1.00  0.00    -0.254 N 
ATOM     10  C   UNL A   1      30.663  25.448  24.362  1.00  0.00     0.274 A 
ATOM     11  C   UNL A   1      32.951  25.714  23.439  1.00  0.00     0.332 A 
ATOM     12  O   UNL A   1      29.460  25.709  24.331  1.00  0.00    -0.268 OA
ATOM     13  C   UNL A   1      31.261  24.544  25.306  1.00  0.00     0.116 A 
ATOM     14  O   UNL A   1      33.709  26.249  22.627  1.00  0.00    -0.247 OA
ATOM     15  S   UNL A   1      30.387  23.778  26.546  1.00  0.00    -0.136 S 
ATOM     16  C   UNL A   1      32.594  24.231  25.318  1.00  0.00     0.070 A 
ATOM     17  C   UNL A   1      31.799  23.002  27.127  1.00  0.00     0.068 A 
ATOM     18  C   UNL A   1      32.907  23.317  26.367  1.00  0.00     0.039 A 
BRANCH   9  19
ATOM     19  C   UNL A   1      31.105  27.067  22.584  1.00  0.00     0.166 C 
BRANCH  19  20
ATOM     20  C   UNL A   1      30.807  28.380  23.282  1.00  0.00    -0.028 A 
ATOM     21  C   UNL A   1      28.190  31.160  23.261  1.00  0.00     0.044 C 
ATOM     22  C   UNL A   1      29.405  30.351  23.600  1.00  0.00    -0.051 A 
ATOM     23  C   UNL A   1      30.266  30.793  24.612  1.00  0.00     0.003 A 
ATOM     24  C   UNL A   1      29.697  29.158  22.919  1.00  0.00     0.009 A 
ATOM     25  C   UNL A   1      31.373  30.035  24.974  1.00  0.00     0.001 A 
ATOM     26  C   UNL A   1      31.628  28.829  24.327  1.00  0.00     0.005 A 
ENDBRANCH  19  20
ENDBRANCH   9  19
ENDBRANCH   7   8
ENDBRANCH   4   7
ENDBRANCH   2   3
ENDBRANCH   1   2
BRANCH   1  27
ATOM     27  C   UNL A   1      38.444  23.371  26.118  1.00  0.00     0.118 C 
BRANCH  27  28
ATOM     28  N   UNL A   1      39.869  23.290  26.442  1.00  0.00    -0.352 N 
ATOM     29  C   UNL A   1      40.680  24.301  26.918  1.00  0.00     0.251 C 
ATOM     30  H   UNL A   1      40.298  22.415  26.305  1.00  0.00     0.163 HD
ATOM     31  O   UNL A   1      41.885  24.165  27.103  1.00  0.00    -0.269 OA
BRANCH  29  32
ATOM     32  C   UNL A   1      40.006  25.541  27.338  1.00  0.00     0.039 A 
ATOM     33  C   UNL A   1      40.347  26.708  26.646  1.00  0.00     0.014 A 
ATOM     34  C   UNL A   1      39.371  25.584  28.577  1.00  0.00     0.014 A 
ATOM     35  C   UNL A   1      40.232  27.930  27.294  1.00  0.00     0.010 A 
ATOM     36  C   UNL A   1      39.355  26.787  29.256  1.00  0.00     0.010 A 
ATOM     37  C   UNL A   1      39.839  27.945  28.634  1.00  0.00    -0.014 A 
BRANCH  37  38
ATOM     38  C   UNL A   1      39.982  29.129  29.472  1.00  0.00     0.031 A 
ATOM     39  C   UNL A   1      38.920  30.158  29.447  1.00  0.00     0.074 A 
ATOM     40  C   UNL A   1      41.085  29.313  30.231  1.00  0.00     0.049 A 
ATOM     41  N   UNL A   1      39.121  31.420  29.634  1.00  0.00    -0.248 NA
ATOM     42  C   UNL A   1      37.534  29.831  29.130  1.00  0.00     0.031 C 
ATOM     43  C   UNL A   1      41.291  30.363  31.226  1.00  0.00     0.029 A 
ATOM     44  N   UNL A   1      42.351  28.737  30.079  1.00  0.00    -0.354 N 
ATOM     45  C   UNL A   1      37.885  32.016  29.742  1.00  0.00     0.074 A 
ATOM     46  C   UNL A   1      36.934  31.003  29.344  1.00  0.00     0.031 C 
ATOM     47  C   UNL A   1      42.610  30.580  31.345  1.00  0.00     0.029 A 
ATOM     48  C   UNL A   1      43.278  29.753  30.352  1.00  0.00     0.049 A 
ATOM     49  H   UNL A   1      42.550  27.805  29.833  1.00  0.00     0.167 HD
ATOM     50  C   UNL A   1      37.763  33.254  30.296  1.00  0.00     0.031 A 
ATOM     51  C   UNL A   1      44.219  30.191  29.467  1.00  0.00     0.031 A 
ATOM     52  C   UNL A   1      39.059  33.823  30.649  1.00  0.00     0.049 A 
ATOM     53  C   UNL A   1      44.107  31.672  29.173  1.00  0.00     0.074 A 
ATOM     54  C   UNL A   1      39.766  33.886  31.839  1.00  0.00     0.029 A 
ATOM     55  N   UNL A   1      39.958  34.151  29.640  1.00  0.00    -0.354 N 
ATOM     56  N   UNL A   1      43.059  32.394  29.461  1.00  0.00    -0.248 NA
ATOM     57  C   UNL A   1      45.149  32.450  28.509  1.00  0.00     0.031 C 
ATOM     58  C   UNL A   1      41.122  34.171  31.530  1.00  0.00     0.029 A 
ATOM     59  C   UNL A   1      41.229  34.317  30.158  1.00  0.00     0.049 A 
ATOM     60  H   UNL A   1      39.722  34.252  28.689  1.00  0.00     0.167 HD
ATOM     61  C   UNL A   1      43.271  33.694  29.076  1.00  0.00     0.074 A 
ATOM     62  C   UNL A   1      44.596  33.676  28.483  1.00  0.00     0.031 C 
ATOM     63  C   UNL A   1      42.341  34.674  29.285  1.00  0.00     0.031 A 
BRANCH  50  64
ATOM     64  C   UNL A   1      36.434  33.756  30.806  1.00  0.00    -0.014 A 
ATOM     65  C   UNL A   1      35.410  34.083  29.896  1.00  0.00     0.010 A 
ATOM     66  C   UNL A   1      36.169  34.010  32.167  1.00  0.00     0.010 A 
ATOM     67  C   UNL A   1      34.245  34.751  30.302  1.00  0.00     0.020 A 
ATOM     68  C   UNL A   1      35.033  34.718  32.581  1.00  0.00     0.020 A 
ATOM     69  C   UNL A   1      34.082  35.101  31.640  1.00  0.00     0.054 A 
BRANCH  69  70
ATOM     70  S   UNL A   1      32.642  36.092  32.124  1.00  0.00     0.124 S 
ATOM     71  O   UNL A   1      33.181  36.945  33.180  1.00  0.00    -0.237 OA
ATOM     72  O   UNL A   1      32.298  36.771  30.879  1.00  0.00    -0.237 OA
ATOM     73  O   UNL A   1      31.673  35.094  32.577  1.00  0.00    -0.744 OA
ENDBRANCH  69  70
ENDBRANCH  50  64
BRANCH  51  74
ATOM     74  C   UNL A   1      44.755  29.151  28.548  1.00  0.00    -0.014 A 
ATOM     75  C   UNL A   1      44.123  29.009  27.296  1.00  0.00     0.010 A 
ATOM     76  C   UNL A   1      46.051  28.635  28.712  1.00  0.00     0.010 A 
ATOM     77  C   UNL A   1      44.822  28.513  26.192  1.00  0.00     0.020 A 
ATOM     78  C   UNL A   1      46.761  28.147  27.602  1.00  0.00     0.020 A 
ATOM     79  C   UNL A   1      46.161  28.152  26.339  1.00  0.00     0.054 A 
BRANCH  79  80
ATOM     80  S   UNL A   1      47.137  27.804  24.844  1.00  0.00     0.124 S 
ATOM     81  O   UNL A   1      46.793  26.415  24.552  1.00  0.00    -0.237 OA
ATOM     82  O   UNL A   1      46.606  28.787  23.901  1.00  0.00    -0.237 OA
ATOM     83  O   UNL A   1      48.509  28.030  25.283  1.00  0.00    -0.744 OA
ENDBRANCH  79  80
ENDBRANCH  51  74
BRANCH  63  84
ATOM     84  C   UNL A   1      42.400  36.100  28.780  1.00  0.00    -0.014 A 
ATOM     85  C   UNL A   1      42.988  37.170  29.472  1.00  0.00     0.010 A 
ATOM     86  C   UNL A   1      41.946  36.371  27.464  1.00  0.00     0.010 A 
ATOM     87  C   UNL A   1      43.076  38.450  28.901  1.00  0.00     0.020 A 
ATOM     88  C   UNL A   1      42.068  37.629  26.867  1.00  0.00     0.020 A 
ATOM     89  C   UNL A   1      42.617  38.671  27.602  1.00  0.00     0.054 A 
BRANCH  89  90
ATOM     90  S   UNL A   1      42.821  40.300  26.835  1.00  0.00     0.124 S 
ATOM     91  O   UNL A   1      43.414  41.072  27.923  1.00  0.00    -0.237 OA
ATOM     92  O   UNL A   1      43.709  40.023  25.707  1.00  0.00    -0.237 OA
ATOM     93  O   UNL A   1      41.459  40.675  26.466  1.00  0.00    -0.744 OA
ENDBRANCH  89  90
ENDBRANCH  63  84
ENDBRANCH  37  38
ENDBRANCH  29  32
ENDBRANCH  27  28
ENDBRANCH   1  27
TORSDOF 16
ENDMDL
MODEL 3
REMARK VINA RESULT:     -13.2      1.738      2.529
REMARK SMILES Cc1cccc(Cn2c(=O)c3sccc3n(CC(=O)NCCCNC(=O)c3ccc(-c4c5nc(c(-c6ccc(S(=O)(=O)[O-])cc6)c6ccc([nH]6)c(-c6ccc(S(=O)(=O)[O-])cc6)c6nc(c(-c7ccc(S(=O)(=O)[O-])cc7)c7ccc4[nH]7)C=C6)C=C5)cc3)c2=O)c1
REMARK SMILES IDX 22 1 21 2 20 3 18 4 19 5 17 7 16 8 8 9 9 10 87 11 10 12
REMARK SMILES IDX 11 13 88 14 12 15 15 16 13 17 14 18 7 19 6 20 1 21 2 22 3 23
REMARK SMILES IDX 89 24 4 25 5 26 23 27 24 28 25 29 26 31 27 32 28 33 86 34
REMARK SMILES IDX 29 35 85 36 30 37 31 38 32 39 79 40 33 41 84 42 78 43 80 44
REMARK SMILES IDX 34 45 83 46 77 47 76 48 35 50 65 51 46 52 64 53 47 54 50 55
REMARK SMILES IDX 63 56 81 57 48 58 49 59 62 61 82 62 51 63 36 64 37 65 45 66
REMARK SMILES IDX 38 67 44 68 39 69 40 70 41 71 42 72 43 73 66 74 67 75 75 76
REMARK SMILES IDX 68 77 74 78 69 79 70 80 71 81 72 82 73 83 52 84 53 85 61 86
REMARK SMILES IDX 54 87 60 88 55 89 56 90 57 91 58 92 59 93
REMARK H PARENT 20 6 24 30 80 49 50 60
REMARK Flexibility Score: inf
ROOT
ATOM      1  C   UNL A   1      33.450  29.912  26.342  1.00  0.00     0.042 C 
ENDROOT
BRANCH   1   2
ATOM      2  C   UNL A   1      33.122  28.748  25.410  1.00  0.00     0.117 C 
BRANCH   2   3
ATOM      3  N   UNL A   1      33.908  28.764  24.182  1.00  0.00    -0.354 N 
ATOM      4  C   UNL A   1      33.635  28.199  22.971  1.00  0.00     0.240 C 
ATOM      5  O   UNL A   1      34.381  28.453  22.019  1.00  0.00    -0.273 OA
ATOM      6  H   UNL A   1      34.759  29.255  24.235  1.00  0.00     0.163 HD
BRANCH   4   7
ATOM      7  C   UNL A   1      32.420  27.289  22.769  1.00  0.00     0.227 C 
BRANCH   7   8
ATOM      8  N   UNL A   1      32.504  25.994  23.453  1.00  0.00    -0.283 N 
ATOM      9  N   UNL A   1      33.557  23.849  23.657  1.00  0.00    -0.254 N 
ATOM     10  C   UNL A   1      32.731  23.431  24.705  1.00  0.00     0.274 A 
ATOM     11  C   UNL A   1      33.492  25.099  23.032  1.00  0.00     0.332 A 
ATOM     12  O   UNL A   1      32.851  22.338  25.256  1.00  0.00    -0.268 OA
ATOM     13  C   UNL A   1      31.731  24.401  25.062  1.00  0.00     0.116 A 
ATOM     14  O   UNL A   1      34.257  25.405  22.116  1.00  0.00    -0.247 OA
ATOM     15  S   UNL A   1      30.542  24.122  26.246  1.00  0.00    -0.136 S 
ATOM     16  C   UNL A   1      31.618  25.630  24.469  1.00  0.00     0.070 A 
ATOM     17  C   UNL A   1      29.850  25.666  25.980  1.00  0.00     0.068 A 
ATOM     18  C   UNL A   1      30.534  26.377  25.016  1.00  0.00     0.039 A 
BRANCH   9  19
ATOM     19  C   UNL A   1      34.500  22.875  23.113  1.00  0.00     0.166 C 
BRANCH  19  20
ATOM     20  C   UNL A   1      35.671  22.573  24.028  1.00  0.00    -0.028 A 
ATOM     21  C   UNL A   1      37.938  24.346  26.538  1.00  0.00     0.044 C 
ATOM     22  C   UNL A   1      37.327  23.286  25.671  1.00  0.00    -0.051 A 
ATOM     23  C   UNL A   1      37.820  21.977  25.735  1.00  0.00     0.003 A 
ATOM     24  C   UNL A   1      36.271  23.584  24.794  1.00  0.00     0.009 A 
ATOM     25  C   UNL A   1      37.238  20.969  24.975  1.00  0.00     0.001 A 
ATOM     26  C   UNL A   1      36.160  21.263  24.145  1.00  0.00     0.005 A 
ENDBRANCH  19  20
ENDBRANCH   9  19
ENDBRANCH   7   8
ENDBRANCH   4   7
ENDBRANCH   2   3
ENDBRANCH   1   2
BRANCH   1  27
ATOM     27  C   UNL A   1      34.618  29.618  27.273  1.00  0.00     0.118 C 
BRANCH  27  28
ATOM     28  N   UNL A   1      35.279  30.828  27.764  1.00  0.00    -0.352 N 
ATOM     29  C   UNL A   1      36.552  30.934  28.290  1.00  0.00     0.251 C 
ATOM     30  H   UNL A   1      34.758  31.660  27.714  1.00  0.00     0.163 HD
ATOM     31  O   UNL A   1      37.007  31.980  28.740  1.00  0.00    -0.269 OA
BRANCH  29  32
ATOM     32  C   UNL A   1      37.416  29.749  28.162  1.00  0.00     0.039 A 
ATOM     33  C   UNL A   1      37.596  28.974  29.312  1.00  0.00     0.014 A 
ATOM     34  C   UNL A   1      38.275  29.649  27.070  1.00  0.00     0.014 A 
ATOM     35  C   UNL A   1      38.765  28.238  29.450  1.00  0.00     0.010 A 
ATOM     36  C   UNL A   1      39.482  29.000  27.252  1.00  0.00     0.010 A 
ATOM     37  C   UNL A   1      39.747  28.347  28.463  1.00  0.00    -0.014 A 
BRANCH  37  38
ATOM     38  C   UNL A   1      41.107  27.862  28.663  1.00  0.00     0.031 A 
ATOM     39  C   UNL A   1      41.449  26.488  28.238  1.00  0.00     0.074 A 
ATOM     40  C   UNL A   1      42.037  28.636  29.268  1.00  0.00     0.049 A 
ATOM     41  N   UNL A   1      42.335  25.745  28.813  1.00  0.00    -0.248 NA
ATOM     42  C   UNL A   1      40.746  25.818  27.149  1.00  0.00     0.031 C 
ATOM     43  C   UNL A   1      43.462  28.343  29.394  1.00  0.00     0.029 A 
ATOM     44  N   UNL A   1      41.839  29.730  30.117  1.00  0.00    -0.354 N 
ATOM     45  C   UNL A   1      42.513  24.637  28.016  1.00  0.00     0.074 A 
ATOM     46  C   UNL A   1      41.450  24.690  27.039  1.00  0.00     0.031 C 
ATOM     47  C   UNL A   1      43.931  28.983  30.476  1.00  0.00     0.029 A 
ATOM     48  C   UNL A   1      42.797  29.615  31.133  1.00  0.00     0.049 A 
ATOM     49  H   UNL A   1      41.163  30.439  30.017  1.00  0.00     0.167 HD
ATOM     50  C   UNL A   1      43.621  23.858  28.158  1.00  0.00     0.031 A 
ATOM     51  C   UNL A   1      42.500  29.512  32.460  1.00  0.00     0.031 A 
ATOM     52  C   UNL A   1      44.470  24.311  29.254  1.00  0.00     0.049 A 
ATOM     53  C   UNL A   1      43.055  28.255  33.093  1.00  0.00     0.074 A 
ATOM     54  C   UNL A   1      45.607  25.102  29.298  1.00  0.00     0.029 A 
ATOM     55  N   UNL A   1      44.004  24.221  30.560  1.00  0.00    -0.354 N 
ATOM     56  N   UNL A   1      43.485  27.226  32.414  1.00  0.00    -0.248 NA
ATOM     57  C   UNL A   1      43.143  28.040  34.535  1.00  0.00     0.031 C 
ATOM     58  C   UNL A   1      45.773  25.559  30.632  1.00  0.00     0.029 A 
ATOM     59  C   UNL A   1      44.759  25.016  31.401  1.00  0.00     0.049 A 
ATOM     60  H   UNL A   1      43.241  23.667  30.847  1.00  0.00     0.167 HD
ATOM     61  C   UNL A   1      43.929  26.254  33.274  1.00  0.00     0.074 A 
ATOM     62  C   UNL A   1      43.692  26.813  34.593  1.00  0.00     0.031 C 
ATOM     63  C   UNL A   1      44.460  25.076  32.828  1.00  0.00     0.031 A 
BRANCH  50  64
ATOM     64  C   UNL A   1      44.058  22.911  27.065  1.00  0.00    -0.014 A 
ATOM     65  C   UNL A   1      43.156  21.950  26.568  1.00  0.00     0.010 A 
ATOM     66  C   UNL A   1      45.370  22.865  26.555  1.00  0.00     0.010 A 
ATOM     67  C   UNL A   1      43.573  20.916  25.716  1.00  0.00     0.020 A 
ATOM     68  C   UNL A   1      45.812  21.812  25.742  1.00  0.00     0.020 A 
ATOM     69  C   UNL A   1      44.911  20.831  25.339  1.00  0.00     0.054 A 
BRANCH  69  70
ATOM     70  S   UNL A   1      45.463  19.409  24.358  1.00  0.00     0.124 S 
ATOM     71  O   UNL A   1      45.140  18.278  25.225  1.00  0.00    -0.237 OA
ATOM     72  O   UNL A   1      44.652  19.529  23.151  1.00  0.00    -0.237 OA
ATOM     73  O   UNL A   1      46.893  19.650  24.174  1.00  0.00    -0.744 OA
ENDBRANCH  69  70
ENDBRANCH  50  64
BRANCH  51  74
ATOM     74  C   UNL A   1      41.284  30.251  32.894  1.00  0.00    -0.014 A 
ATOM     75  C   UNL A   1      41.476  31.512  33.495  1.00  0.00     0.010 A 
ATOM     76  C   UNL A   1      40.018  29.940  32.370  1.00  0.00     0.010 A 
ATOM     77  C   UNL A   1      40.484  32.495  33.432  1.00  0.00     0.020 A 
ATOM     78  C   UNL A   1      39.023  30.929  32.294  1.00  0.00     0.020 A 
ATOM     79  C   UNL A   1      39.290  32.217  32.767  1.00  0.00     0.054 A 
BRANCH  79  80
ATOM     80  S   UNL A   1      38.145  33.589  32.427  1.00  0.00     0.124 S 
ATOM     81  O   UNL A   1      38.762  34.707  33.136  1.00  0.00    -0.237 OA
ATOM     82  O   UNL A   1      38.198  33.673  30.968  1.00  0.00    -0.237 OA
ATOM     83  O   UNL A   1      36.883  33.114  32.985  1.00  0.00    -0.744 OA
ENDBRANCH  79  80
ENDBRANCH  51  74
BRANCH  63  84
ATOM     84  C   UNL A   1      44.846  23.880  33.671  1.00  0.00    -0.014 A 
ATOM     85  C   UNL A   1      44.008  22.786  33.937  1.00  0.00     0.010 A 
ATOM     86  C   UNL A   1      46.184  23.779  34.131  1.00  0.00     0.010 A 
ATOM     87  C   UNL A   1      44.466  21.674  34.662  1.00  0.00     0.020 A 
ATOM     88  C   UNL A   1      46.664  22.658  34.815  1.00  0.00     0.020 A 
ATOM     89  C   UNL A   1      45.791  21.617  35.095  1.00  0.00     0.054 A 
BRANCH  89  90
ATOM     90  S   UNL A   1      46.403  20.137  35.944  1.00  0.00     0.124 S 
ATOM     91  O   UNL A   1      45.851  20.311  37.285  1.00  0.00    -0.237 OA
ATOM     92  O   UNL A   1      45.820  19.047  35.165  1.00  0.00    -0.237 OA
ATOM     93  O   UNL A   1      47.854  20.260  35.839  1.00  0.00    -0.744 OA
ENDBRANCH  89  90
ENDBRANCH  63  84
ENDBRANCH  37  38
ENDBRANCH  29  32
ENDBRANCH  27  28
ENDBRANCH   1  27
TORSDOF 16
ENDMDL
