MODEL 1
REMARK VINA RESULT:     -12.8      0.000      0.000
REMARK SMILES Cc1cccc(C(=O)Nc2cc(C(=O)NCCCNC(=O)c3ccc(-c4c5nc(c(-c6ccc(S(=O)(=O)[O-])cc6)c6ccc([nH]6)c(-c6ccc(S(=O)(=O)[O-])cc6)c6nc(c(-c7ccc(S(=O)(=O)[O-])cc7)c7ccc4[nH]7)C=C6)C=C5)cc3)ccc2N2CC[NH+](CC(=O)NC(C)(C)C)CC2)c1
REMARK SMILES IDX 16 1 15 2 13 3 14 4 12 6 10 7 11 8 84 9 83 10 82 11 9 12
REMARK SMILES IDX 7 13 8 14 6 16 1 17 2 18 3 19 99 20 4 21 5 22 85 23 86 24
REMARK SMILES IDX 98 25 87 26 97 27 88 28 89 30 90 31 91 32 92 33 93 35 94 36
REMARK SMILES IDX 95 37 96 38 17 39 18 40 19 41 20 42 21 44 22 45 23 46 81 47
REMARK SMILES IDX 24 48 80 49 25 50 26 51 27 52 74 53 28 54 79 55 73 56 75 57
REMARK SMILES IDX 29 58 78 59 72 60 71 61 30 63 60 64 41 65 59 66 42 67 45 68
REMARK SMILES IDX 58 69 76 70 43 71 44 72 57 74 77 75 46 76 31 77 32 78 40 79
REMARK SMILES IDX 33 80 39 81 34 82 35 83 36 84 37 85 38 86 61 87 62 88 70 89
REMARK SMILES IDX 63 90 69 91 64 92 65 93 66 94 67 95 68 96 47 97 48 98 56 99
REMARK SMILES IDX 49 100 55 101 50 102 51 103 52 104 53 105 54 106
REMARK H PARENT 15 5 9 15 88 29 92 34 19 43 75 62 45 73
REMARK Flexibility Score: inf
ROOT
ATOM      1  C   UNL A   1      31.454  28.961  25.213  1.00  0.00     0.118 C 
ENDROOT
BRANCH   1   2
ATOM      2  N   UNL A   1      30.648  27.749  24.844  1.00  0.00    -0.352 N 
ATOM      3  C   UNL A   1      30.808  26.373  24.853  1.00  0.00     0.251 C 
ATOM      4  O   UNL A   1      29.860  25.591  24.853  1.00  0.00    -0.269 OA
ATOM      5  H   UNL A   1      29.761  28.002  24.501  1.00  0.00     0.163 HD
BRANCH   3   6
ATOM      6  C   UNL A   1      32.167  25.807  24.844  1.00  0.00     0.042 A 
ATOM      7  C   UNL A   1      33.588  24.227  25.879  1.00  0.00     0.065 A 
ATOM      8  C   UNL A   1      32.523  25.075  25.953  1.00  0.00     0.042 A 
ATOM      9  C   UNL A   1      34.609  24.434  24.920  1.00  0.00     0.061 A 
ATOM     10  C   UNL A   1      34.337  25.325  23.873  1.00  0.00     0.029 A 
ATOM     11  C   UNL A   1      33.084  25.959  23.794  1.00  0.00     0.016 A 
BRANCH   7  12
ATOM     12  N   UNL A   1      33.633  23.169  26.798  1.00  0.00    -0.320 N 
ATOM     13  C   UNL A   1      33.395  21.809  26.596  1.00  0.00     0.255 C 
ATOM     14  O   UNL A   1      33.724  21.047  27.514  1.00  0.00    -0.269 OA
ATOM     15  H   UNL A   1      33.869  23.421  27.720  1.00  0.00     0.170 HD
BRANCH  13  16
ATOM     16  C   UNL A   1      32.838  21.159  25.353  1.00  0.00     0.040 A 
ATOM     17  C   UNL A   1      32.849  17.942  23.287  1.00  0.00     0.044 C 
ATOM     18  C   UNL A   1      32.506  19.337  23.745  1.00  0.00    -0.050 A 
ATOM     19  C   UNL A   1      32.077  20.258  22.777  1.00  0.00     0.003 A 
ATOM     20  C   UNL A   1      32.810  19.782  25.060  1.00  0.00     0.017 A 
ATOM     21  C   UNL A   1      31.982  21.608  23.096  1.00  0.00     0.001 A 
ATOM     22  C   UNL A   1      32.362  22.050  24.367  1.00  0.00     0.014 A 
ENDBRANCH  13  16
ENDBRANCH   7  12
BRANCH   9  23
ATOM     23  N   UNL A   1      35.766  23.685  24.989  1.00  0.00    -0.359 N 
ATOM     24  C   UNL A   1      35.944  22.300  24.542  1.00  0.00     0.178 C 
ATOM     25  C   UNL A   1      36.650  24.052  26.074  1.00  0.00     0.178 C 
ATOM     26  C   UNL A   1      37.472  22.003  24.312  1.00  0.00     0.284 C 
ATOM     27  C   UNL A   1      38.093  23.963  25.568  1.00  0.00     0.284 C 
ATOM     28  N   UNL A   1      38.479  22.590  25.237  1.00  0.00    -0.324 N 
ATOM     29  H   UNL A   1      39.354  22.586  24.714  1.00  0.00     0.348 HD
BRANCH  28  30
ATOM     30  C   UNL A   1      38.867  21.795  26.418  1.00  0.00     0.363 C 
BRANCH  30  31
ATOM     31  C   UNL A   1      40.241  21.132  26.385  1.00  0.00     0.275 C 
ATOM     32  O   UNL A   1      40.325  19.924  26.123  1.00  0.00    -0.268 OA
ATOM     33  N   UNL A   1      41.426  21.767  26.629  1.00  0.00    -0.347 N 
ATOM     34  H   UNL A   1      42.173  21.152  26.448  1.00  0.00     0.164 HD
BRANCH  33  35
ATOM     35  C   UNL A   1      41.960  23.089  27.080  1.00  0.00     0.032 C 
ATOM     36  C   UNL A   1      42.225  24.061  25.909  1.00  0.00     0.034 C 
ATOM     37  C   UNL A   1      40.825  23.747  27.895  1.00  0.00     0.034 C 
ATOM     38  C   UNL A   1      43.194  23.013  27.979  1.00  0.00     0.034 C 
ENDBRANCH  33  35
ENDBRANCH  30  31
ENDBRANCH  28  30
ENDBRANCH   9  23
ENDBRANCH   3   6
ENDBRANCH   1   2
BRANCH   1  39
ATOM     39  C   UNL A   1      31.822  29.465  26.722  1.00  0.00     0.042 C 
BRANCH  39  40
ATOM     40  C   UNL A   1      32.431  30.958  26.806  1.00  0.00     0.118 C 
BRANCH  40  41
ATOM     41  N   UNL A   1      33.554  31.544  27.751  1.00  0.00    -0.352 N 
ATOM     42  C   UNL A   1      34.999  31.441  27.972  1.00  0.00     0.251 C 
ATOM     43  H   UNL A   1      33.159  32.176  28.394  1.00  0.00     0.163 HD
ATOM     44  O   UNL A   1      35.572  32.547  27.960  1.00  0.00    -0.269 OA
BRANCH  42  45
ATOM     45  C   UNL A   1      35.999  30.239  28.222  1.00  0.00     0.039 A 
ATOM     46  C   UNL A   1      36.211  29.671  29.514  1.00  0.00     0.014 A 
ATOM     47  C   UNL A   1      36.782  29.633  27.265  1.00  0.00     0.014 A 
ATOM     48  C   UNL A   1      37.524  29.218  29.897  1.00  0.00     0.010 A 
ATOM     49  C   UNL A   1      38.061  29.130  27.627  1.00  0.00     0.010 A 
ATOM     50  C   UNL A   1      38.540  29.184  28.947  1.00  0.00    -0.014 A 
BRANCH  50  51
ATOM     51  C   UNL A   1      40.029  29.315  29.242  1.00  0.00     0.031 A 
ATOM     52  C   UNL A   1      40.993  28.527  28.486  1.00  0.00     0.074 A 
ATOM     53  C   UNL A   1      40.674  30.225  30.041  1.00  0.00     0.049 A 
ATOM     54  N   UNL A   1      42.001  27.903  29.001  1.00  0.00    -0.248 NA
ATOM     55  C   UNL A   1      40.907  28.442  27.041  1.00  0.00     0.031 C 
ATOM     56  C   UNL A   1      42.096  30.562  30.273  1.00  0.00     0.029 A 
ATOM     57  N   UNL A   1      40.109  31.178  30.857  1.00  0.00    -0.354 N 
ATOM     58  C   UNL A   1      42.859  27.660  27.952  1.00  0.00     0.074 A 
ATOM     59  C   UNL A   1      42.053  27.823  26.761  1.00  0.00     0.031 C 
ATOM     60  C   UNL A   1      42.213  31.283  31.416  1.00  0.00     0.029 A 
ATOM     61  C   UNL A   1      40.886  31.418  31.980  1.00  0.00     0.049 A 
ATOM     62  H   UNL A   1      39.258  31.634  30.666  1.00  0.00     0.167 HD
ATOM     63  C   UNL A   1      44.209  27.591  28.149  1.00  0.00     0.031 A 
ATOM     64  C   UNL A   1      40.387  31.029  33.193  1.00  0.00     0.031 A 
ATOM     65  C   UNL A   1      44.585  27.942  29.529  1.00  0.00     0.049 A 
ATOM     66  C   UNL A   1      41.148  29.838  33.680  1.00  0.00     0.074 A 
ATOM     67  C   UNL A   1      45.223  29.045  30.078  1.00  0.00     0.029 A 
ATOM     68  N   UNL A   1      44.009  27.264  30.601  1.00  0.00    -0.354 N 
ATOM     69  N   UNL A   1      42.010  29.217  32.933  1.00  0.00    -0.248 NA
ATOM     70  C   UNL A   1      41.050  29.251  35.009  1.00  0.00     0.031 C 
ATOM     71  C   UNL A   1      44.926  29.082  31.471  1.00  0.00     0.029 A 
ATOM     72  C   UNL A   1      44.148  27.979  31.779  1.00  0.00     0.049 A 
ATOM     73  H   UNL A   1      43.561  26.390  30.531  1.00  0.00     0.167 HD
ATOM     74  C   UNL A   1      42.610  28.219  33.618  1.00  0.00     0.074 A 
ATOM     75  C   UNL A   1      41.973  28.272  34.925  1.00  0.00     0.031 C 
ATOM     76  C   UNL A   1      43.579  27.465  33.029  1.00  0.00     0.031 A 
BRANCH  63  77
ATOM     77  C   UNL A   1      45.194  27.505  26.997  1.00  0.00    -0.014 A 
ATOM     78  C   UNL A   1      45.947  28.627  26.601  1.00  0.00     0.010 A 
ATOM     79  C   UNL A   1      45.441  26.320  26.274  1.00  0.00     0.010 A 
ATOM     80  C   UNL A   1      46.832  28.582  25.507  1.00  0.00     0.020 A 
ATOM     81  C   UNL A   1      46.266  26.272  25.143  1.00  0.00     0.020 A 
ATOM     82  C   UNL A   1      46.971  27.406  24.772  1.00  0.00     0.054 A 
BRANCH  82  83
ATOM     83  S   UNL A   1      48.128  27.344  23.381  1.00  0.00     0.124 S 
ATOM     84  O   UNL A   1      48.228  25.913  23.108  1.00  0.00    -0.237 OA
ATOM     85  O   UNL A   1      47.436  28.134  22.366  1.00  0.00    -0.237 OA
ATOM     86  O   UNL A   1      49.346  27.956  23.911  1.00  0.00    -0.744 OA
ENDBRANCH  82  83
ENDBRANCH  63  77
BRANCH  64  87
ATOM     87  C   UNL A   1      38.897  31.312  33.384  1.00  0.00    -0.014 A 
ATOM     88  C   UNL A   1      38.309  30.468  34.342  1.00  0.00     0.010 A 
ATOM     89  C   UNL A   1      38.521  32.642  33.514  1.00  0.00     0.010 A 
ATOM     90  C   UNL A   1      38.226  30.932  35.663  1.00  0.00     0.020 A 
ATOM     91  C   UNL A   1      38.231  33.091  34.816  1.00  0.00     0.020 A 
ATOM     92  C   UNL A   1      38.431  32.280  35.920  1.00  0.00     0.054 A 
BRANCH  92  93
ATOM     93  S   UNL A   1      39.288  32.753  37.694  1.00  0.00     0.124 S 
ATOM     94  O   UNL A   1      40.581  32.137  37.479  1.00  0.00    -0.237 OA
ATOM     95  O   UNL A   1      39.486  34.191  37.769  1.00  0.00    -0.237 OA
ATOM     96  O   UNL A   1      38.524  32.183  38.766  1.00  0.00    -0.744 OA
ENDBRANCH  92  93
ENDBRANCH  64  87
BRANCH  76  97
ATOM     97  C   UNL A   1      44.157  26.208  33.604  1.00  0.00    -0.014 A 
ATOM     98  C   UNL A   1      45.495  25.821  33.458  1.00  0.00     0.010 A 
ATOM     99  C   UNL A   1      43.337  25.418  34.444  1.00  0.00     0.010 A 
ATOM    100  C   UNL A   1      45.974  24.655  34.061  1.00  0.00     0.020 A 
ATOM    101  C   UNL A   1      43.821  24.291  35.100  1.00  0.00     0.020 A 
ATOM    102  C   UNL A   1      45.133  23.897  34.876  1.00  0.00     0.054 A 
BRANCH 102 103
ATOM    103  S   UNL A   1      45.782  22.417  35.676  1.00  0.00     0.124 S 
ATOM    104  O   UNL A   1      47.215  22.552  35.431  1.00  0.00    -0.237 OA
ATOM    105  O   UNL A   1      45.364  22.591  37.065  1.00  0.00    -0.237 OA
ATOM    106  O   UNL A   1      45.125  21.322  34.967  1.00  0.00    -0.744 OA
ENDBRANCH 102 103
ENDBRANCH  76  97
ENDBRANCH  50  51
ENDBRANCH  42  45
ENDBRANCH  40  41
ENDBRANCH  39  40
ENDBRANCH   1  39
TORSDOF 19
ENDMDL
MODEL 2
REMARK VINA RESULT:     -12.8      4.465      9.169
REMARK SMILES Cc1cccc(C(=O)Nc2cc(C(=O)NCCCNC(=O)c3ccc(-c4c5nc(c(-c6ccc(S(=O)(=O)[O-])cc6)c6ccc([nH]6)c(-c6ccc(S(=O)(=O)[O-])cc6)c6nc(c(-c7ccc(S(=O)(=O)[O-])cc7)c7ccc4[nH]7)C=C6)C=C5)cc3)ccc2N2CC[NH+](CC(=O)NC(C)(C)C)CC2)c1
REMARK SMILES IDX 16 1 15 2 13 3 14 4 12 6 10 7 11 8 84 9 83 10 82 11 9 12
REMARK SMILES IDX 7 13 8 14 6 16 1 17 2 18 3 19 99 20 4 21 5 22 85 23 86 24
REMARK SMILES IDX 98 25 87 26 97 27 88 28 89 30 90 31 91 32 92 33 93 35 94 36
REMARK SMILES IDX 95 37 96 38 17 39 18 40 19 41 20 42 21 44 22 45 23 46 81 47
REMARK SMILES IDX 24 48 80 49 25 50 26 51 27 52 74 53 28 54 79 55 73 56 75 57
REMARK SMILES IDX 29 58 78 59 72 60 71 61 30 63 60 64 41 65 59 66 42 67 45 68
REMARK SMILES IDX 58 69 76 70 43 71 44 72 57 74 77 75 46 76 31 77 32 78 40 79
REMARK SMILES IDX 33 80 39 81 34 82 35 83 36 84 37 85 38 86 61 87 62 88 70 89
REMARK SMILES IDX 63 90 69 91 64 92 65 93 66 94 67 95 68 96 47 97 48 98 56 99
REMARK SMILES IDX 49 100 55 101 50 102 51 103 52 104 53 105 54 106
REMARK H PARENT 15 5 9 15 88 29 92 34 19 43 75 62 45 73
REMARK Flexibility Score: inf
ROOT
ATOM      1  C   UNL A   1      39.316  22.542  25.904  1.00  0.00     0.118 C 
ENDROOT
BRANCH   1   2
ATOM      2  N   UNL A   1      38.487  21.295  25.800  1.00  0.00    -0.352 N 
ATOM      3  C   UNL A   1      37.390  20.854  25.078  1.00  0.00     0.251 C 
ATOM      4  O   UNL A   1      37.137  19.664  24.907  1.00  0.00    -0.269 OA
ATOM      5  H   UNL A   1      38.813  20.598  26.414  1.00  0.00     0.163 HD
BRANCH   3   6
ATOM      6  C   UNL A   1      36.464  21.843  24.500  1.00  0.00     0.042 A 
ATOM      7  C   UNL A   1      34.203  22.524  24.413  1.00  0.00     0.065 A 
ATOM      8  C   UNL A   1      35.126  21.535  24.579  1.00  0.00     0.042 A 
ATOM      9  C   UNL A   1      34.526  23.697  23.689  1.00  0.00     0.061 A 
ATOM     10  C   UNL A   1      35.882  23.942  23.432  1.00  0.00     0.029 A 
ATOM     11  C   UNL A   1      36.861  23.048  23.902  1.00  0.00     0.016 A 
BRANCH   7  12
ATOM     12  N   UNL A   1      32.931  22.317  24.966  1.00  0.00    -0.320 N 
ATOM     13  C   UNL A   1      32.192  21.139  25.074  1.00  0.00     0.255 C 
ATOM     14  O   UNL A   1      31.197  21.175  25.807  1.00  0.00    -0.269 OA
ATOM     15  H   UNL A   1      32.495  23.121  25.332  1.00  0.00     0.170 HD
BRANCH  13  16
ATOM     16  C   UNL A   1      32.512  19.805  24.443  1.00  0.00     0.040 A 
ATOM     17  C   UNL A   1      34.751  16.719  24.725  1.00  0.00     0.044 C 
ATOM     18  C   UNL A   1      33.675  17.657  24.236  1.00  0.00    -0.050 A 
ATOM     19  C   UNL A   1      33.293  17.569  22.889  1.00  0.00     0.003 A 
ATOM     20  C   UNL A   1      33.215  18.738  25.034  1.00  0.00     0.017 A 
ATOM     21  C   UNL A   1      32.492  18.558  22.328  1.00  0.00     0.001 A 
ATOM     22  C   UNL A   1      32.111  19.662  23.097  1.00  0.00     0.014 A 
ENDBRANCH  13  16
ENDBRANCH   7  12
BRANCH   9  23
ATOM     23  N   UNL A   1      33.526  24.593  23.368  1.00  0.00    -0.359 N 
ATOM     24  C   UNL A   1      32.867  24.744  22.067  1.00  0.00     0.178 C 
ATOM     25  C   UNL A   1      33.552  25.817  24.139  1.00  0.00     0.178 C 
ATOM     26  C   UNL A   1      31.482  25.469  22.249  1.00  0.00     0.284 C 
ATOM     27  C   UNL A   1      32.107  26.216  24.453  1.00  0.00     0.284 C 
ATOM     28  N   UNL A   1      31.356  26.567  23.245  1.00  0.00    -0.324 N 
ATOM     29  H   UNL A   1      30.360  26.624  23.453  1.00  0.00     0.348 HD
BRANCH  28  30
ATOM     30  C   UNL A   1      31.613  27.943  22.780  1.00  0.00     0.363 C 
BRANCH  30  31
ATOM     31  C   UNL A   1      31.294  29.074  23.753  1.00  0.00     0.275 C 
ATOM     32  O   UNL A   1      32.071  29.305  24.691  1.00  0.00    -0.268 OA
ATOM     33  N   UNL A   1      30.194  29.881  23.686  1.00  0.00    -0.347 N 
ATOM     34  H   UNL A   1      30.267  30.595  24.360  1.00  0.00     0.164 HD
BRANCH  33  35
ATOM     35  C   UNL A   1      28.917  30.038  22.923  1.00  0.00     0.032 C 
ATOM     36  C   UNL A   1      28.010  28.790  23.007  1.00  0.00     0.034 C 
ATOM     37  C   UNL A   1      28.129  31.153  23.645  1.00  0.00     0.034 C 
ATOM     38  C   UNL A   1      29.086  30.458  21.463  1.00  0.00     0.034 C 
ENDBRANCH  33  35
ENDBRANCH  30  31
ENDBRANCH  28  30
ENDBRANCH   9  23
ENDBRANCH   3   6
ENDBRANCH   1   2
BRANCH   1  39
ATOM     39  C   UNL A   1      39.723  23.331  27.274  1.00  0.00     0.042 C 
BRANCH  39  40
ATOM     40  C   UNL A   1      38.854  24.659  27.573  1.00  0.00     0.118 C 
BRANCH  40  41
ATOM     41  N   UNL A   1      39.270  26.182  27.501  1.00  0.00    -0.352 N 
ATOM     42  C   UNL A   1      40.239  27.108  28.093  1.00  0.00     0.251 C 
ATOM     43  H   UNL A   1      38.697  26.658  26.857  1.00  0.00     0.163 HD
ATOM     44  O   UNL A   1      40.902  27.727  27.239  1.00  0.00    -0.269 OA
BRANCH  42  45
ATOM     45  C   UNL A   1      40.635  27.500  29.575  1.00  0.00     0.039 A 
ATOM     46  C   UNL A   1      39.663  27.758  30.587  1.00  0.00     0.014 A 
ATOM     47  C   UNL A   1      41.918  27.663  30.047  1.00  0.00     0.014 A 
ATOM     48  C   UNL A   1      39.899  28.784  31.571  1.00  0.00     0.010 A 
ATOM     49  C   UNL A   1      42.171  28.633  31.054  1.00  0.00     0.010 A 
ATOM     50  C   UNL A   1      41.145  29.403  31.627  1.00  0.00    -0.014 A 
BRANCH  50  51
ATOM     51  C   UNL A   1      41.405  30.816  32.132  1.00  0.00     0.031 A 
ATOM     52  C   UNL A   1      42.479  31.063  33.085  1.00  0.00     0.074 A 
ATOM     53  C   UNL A   1      40.871  32.002  31.694  1.00  0.00     0.049 A 
ATOM     54  N   UNL A   1      42.380  31.820  34.127  1.00  0.00    -0.248 NA
ATOM     55  C   UNL A   1      43.796  30.494  32.878  1.00  0.00     0.031 C 
ATOM     56  C   UNL A   1      41.161  33.425  31.975  1.00  0.00     0.029 A 
ATOM     57  N   UNL A   1      39.881  32.183  30.755  1.00  0.00    -0.354 N 
ATOM     58  C   UNL A   1      43.674  32.113  34.494  1.00  0.00     0.074 A 
ATOM     59  C   UNL A   1      44.488  31.118  33.830  1.00  0.00     0.031 C 
ATOM     60  C   UNL A   1      40.119  34.193  31.565  1.00  0.00     0.029 A 
ATOM     61  C   UNL A   1      39.110  33.302  31.032  1.00  0.00     0.049 A 
ATOM     62  H   UNL A   1      39.739  31.591  29.981  1.00  0.00     0.167 HD
ATOM     63  C   UNL A   1      43.981  33.293  35.111  1.00  0.00     0.031 A 
ATOM     64  C   UNL A   1      37.809  33.100  31.403  1.00  0.00     0.031 A 
ATOM     65  C   UNL A   1      42.822  34.200  35.177  1.00  0.00     0.049 A 
ATOM     66  C   UNL A   1      37.661  33.401  32.861  1.00  0.00     0.074 A 
ATOM     67  C   UNL A   1      42.513  35.381  34.517  1.00  0.00     0.029 A 
ATOM     68  N   UNL A   1      41.632  33.767  35.757  1.00  0.00    -0.354 N 
ATOM     69  N   UNL A   1      38.686  33.633  33.625  1.00  0.00    -0.248 NA
ATOM     70  C   UNL A   1      36.402  33.492  33.587  1.00  0.00     0.031 C 
ATOM     71  C   UNL A   1      41.106  35.588  34.613  1.00  0.00     0.029 A 
ATOM     72  C   UNL A   1      40.566  34.560  35.368  1.00  0.00     0.049 A 
ATOM     73  H   UNL A   1      41.558  32.996  36.365  1.00  0.00     0.167 HD
ATOM     74  C   UNL A   1      38.290  33.940  34.879  1.00  0.00     0.074 A 
ATOM     75  C   UNL A   1      36.840  33.837  34.815  1.00  0.00     0.031 C 
ATOM     76  C   UNL A   1      39.209  34.259  35.833  1.00  0.00     0.031 A 
BRANCH  63  77
ATOM     77  C   UNL A   1      45.413  33.727  35.366  1.00  0.00    -0.014 A 
ATOM     78  C   UNL A   1      46.135  33.234  36.470  1.00  0.00     0.010 A 
ATOM     79  C   UNL A   1      46.119  34.609  34.522  1.00  0.00     0.010 A 
ATOM     80  C   UNL A   1      47.448  33.657  36.751  1.00  0.00     0.020 A 
ATOM     81  C   UNL A   1      47.400  35.091  34.820  1.00  0.00     0.020 A 
ATOM     82  C   UNL A   1      48.066  34.600  35.931  1.00  0.00     0.054 A 
BRANCH  82  83
ATOM     83  S   UNL A   1      49.764  35.123  36.280  1.00  0.00     0.124 S 
ATOM     84  O   UNL A   1      49.629  36.568  36.440  1.00  0.00    -0.237 OA
ATOM     85  O   UNL A   1      50.073  34.379  37.499  1.00  0.00    -0.237 OA
ATOM     86  O   UNL A   1      50.511  34.701  35.096  1.00  0.00    -0.744 OA
ENDBRANCH  82  83
ENDBRANCH  63  77
BRANCH  64  87
ATOM     87  C   UNL A   1      37.085  32.014  30.608  1.00  0.00    -0.014 A 
ATOM     88  C   UNL A   1      35.790  31.765  31.096  1.00  0.00     0.010 A 
ATOM     89  C   UNL A   1      37.146  32.103  29.224  1.00  0.00     0.010 A 
ATOM     90  C   UNL A   1      34.720  32.448  30.499  1.00  0.00     0.020 A 
ATOM     91  C   UNL A   1      36.001  32.600  28.572  1.00  0.00     0.020 A 
ATOM     92  C   UNL A   1      34.921  33.090  29.286  1.00  0.00     0.054 A 
BRANCH  92  93
ATOM     93  S   UNL A   1      33.856  34.781  28.958  1.00  0.00     0.124 S 
ATOM     94  O   UNL A   1      33.887  35.319  30.301  1.00  0.00    -0.237 OA
ATOM     95  O   UNL A   1      34.618  35.677  28.102  1.00  0.00    -0.237 OA
ATOM     96  O   UNL A   1      32.547  34.443  28.478  1.00  0.00    -0.744 OA
ENDBRANCH  92  93
ENDBRANCH  64  87
BRANCH  76  97
ATOM     97  C   UNL A   1      38.915  34.403  37.295  1.00  0.00    -0.014 A 
ATOM     98  C   UNL A   1      38.333  33.400  38.080  1.00  0.00     0.010 A 
ATOM     99  C   UNL A   1      39.354  35.575  37.954  1.00  0.00     0.010 A 
ATOM    100  C   UNL A   1      38.129  33.589  39.450  1.00  0.00     0.020 A 
ATOM    101  C   UNL A   1      39.213  35.747  39.327  1.00  0.00     0.020 A 
ATOM    102  C   UNL A   1      38.568  34.764  40.063  1.00  0.00     0.054 A 
BRANCH 102 103
ATOM    103  S   UNL A   1      38.330  34.972  41.837  1.00  0.00     0.124 S 
ATOM    104  O   UNL A   1      36.886  34.798  41.966  1.00  0.00    -0.237 OA
ATOM    105  O   UNL A   1      39.143  33.897  42.401  1.00  0.00    -0.237 OA
ATOM    106  O   UNL A   1      38.825  36.321  42.100  1.00  0.00    -0.744 OA
ENDBRANCH 102 103
ENDBRANCH  76  97
ENDBRANCH  50  51
ENDBRANCH  42  45
ENDBRANCH  40  41
ENDBRANCH  39  40
ENDBRANCH   1  39
TORSDOF 19
ENDMDL
MODEL 3
REMARK VINA RESULT:     -12.6      4.364      9.575
REMARK SMILES Cc1cccc(C(=O)Nc2cc(C(=O)NCCCNC(=O)c3ccc(-c4c5nc(c(-c6ccc(S(=O)(=O)[O-])cc6)c6ccc([nH]6)c(-c6ccc(S(=O)(=O)[O-])cc6)c6nc(c(-c7ccc(S(=O)(=O)[O-])cc7)c7ccc4[nH]7)C=C6)C=C5)cc3)ccc2N2CC[NH+](CC(=O)NC(C)(C)C)CC2)c1
REMARK SMILES IDX 16 1 15 2 13 3 14 4 12 6 10 7 11 8 84 9 83 10 82 11 9 12
REMARK SMILES IDX 7 13 8 14 6 16 1 17 2 18 3 19 99 20 4 21 5 22 85 23 86 24
REMARK SMILES IDX 98 25 87 26 97 27 88 28 89 30 90 31 91 32 92 33 93 35 94 36
REMARK SMILES IDX 95 37 96 38 17 39 18 40 19 41 20 42 21 44 22 45 23 46 81 47
REMARK SMILES IDX 24 48 80 49 25 50 26 51 27 52 74 53 28 54 79 55 73 56 75 57
REMARK SMILES IDX 29 58 78 59 72 60 71 61 30 63 60 64 41 65 59 66 42 67 45 68
REMARK SMILES IDX 58 69 76 70 43 71 44 72 57 74 77 75 46 76 31 77 32 78 40 79
REMARK SMILES IDX 33 80 39 81 34 82 35 83 36 84 37 85 38 86 61 87 62 88 70 89
REMARK SMILES IDX 63 90 69 91 64 92 65 93 66 94 67 95 68 96 47 97 48 98 56 99
REMARK SMILES IDX 49 100 55 101 50 102 51 103 52 104 53 105 54 106
REMARK H PARENT 15 5 9 15 88 29 92 34 19 43 75 62 45 73
REMARK Flexibility Score: inf
ROOT
ATOM      1  C   UNL A   1      39.153  23.008  26.234  1.00  0.00     0.118 C 
ENDROOT
BRANCH   1   2
ATOM      2  N   UNL A   1      38.434  21.709  26.010  1.00  0.00    -0.352 N 
ATOM      3  C   UNL A   1      37.422  21.228  25.197  1.00  0.00     0.251 C 
ATOM      4  O   UNL A   1      37.276  20.034  24.947  1.00  0.00    -0.269 OA
ATOM      5  H   UNL A   1      38.776  21.005  26.607  1.00  0.00     0.163 HD
BRANCH   3   6
ATOM      6  C   UNL A   1      36.457  22.175  24.612  1.00  0.00     0.042 A 
ATOM      7  C   UNL A   1      34.185  22.825  24.596  1.00  0.00     0.065 A 
ATOM      8  C   UNL A   1      35.128  21.857  24.770  1.00  0.00     0.042 A 
ATOM      9  C   UNL A   1      34.458  23.962  23.799  1.00  0.00     0.061 A 
ATOM     10  C   UNL A   1      35.797  24.208  23.466  1.00  0.00     0.029 A 
ATOM     11  C   UNL A   1      36.809  23.352  23.935  1.00  0.00     0.016 A 
BRANCH   7  12
ATOM     12  N   UNL A   1      32.943  22.633  25.218  1.00  0.00    -0.320 N 
ATOM     13  C   UNL A   1      32.206  21.459  25.383  1.00  0.00     0.255 C 
ATOM     14  O   UNL A   1      31.250  21.512  26.167  1.00  0.00    -0.269 OA
ATOM     15  H   UNL A   1      32.530  23.444  25.593  1.00  0.00     0.170 HD
BRANCH  13  16
ATOM     16  C   UNL A   1      32.487  20.115  24.759  1.00  0.00     0.040 A 
ATOM     17  C   UNL A   1      32.055  18.043  21.574  1.00  0.00     0.044 C 
ATOM     18  C   UNL A   1      32.479  18.442  22.966  1.00  0.00    -0.050 A 
ATOM     19  C   UNL A   1      32.684  17.420  23.906  1.00  0.00     0.003 A 
ATOM     20  C   UNL A   1      32.462  19.798  23.387  1.00  0.00     0.017 A 
ATOM     21  C   UNL A   1      32.836  17.734  25.252  1.00  0.00     0.001 A 
ATOM     22  C   UNL A   1      32.736  19.066  25.670  1.00  0.00     0.014 A 
ENDBRANCH  13  16
ENDBRANCH   7  12
BRANCH   9  23
ATOM     23  N   UNL A   1      33.432  24.828  23.478  1.00  0.00    -0.359 N 
ATOM     24  C   UNL A   1      32.755  24.948  22.183  1.00  0.00     0.178 C 
ATOM     25  C   UNL A   1      33.435  26.061  24.236  1.00  0.00     0.178 C 
ATOM     26  C   UNL A   1      31.354  25.639  22.372  1.00  0.00     0.284 C 
ATOM     27  C   UNL A   1      31.983  26.427  24.561  1.00  0.00     0.284 C 
ATOM     28  N   UNL A   1      31.211  26.744  23.358  1.00  0.00    -0.324 N 
ATOM     29  H   UNL A   1      30.215  26.778  23.577  1.00  0.00     0.348 HD
BRANCH  28  30
ATOM     30  C   UNL A   1      31.427  28.122  22.875  1.00  0.00     0.363 C 
BRANCH  30  31
ATOM     31  C   UNL A   1      31.061  29.256  23.829  1.00  0.00     0.275 C 
ATOM     32  O   UNL A   1      31.795  29.494  24.798  1.00  0.00    -0.268 OA
ATOM     33  N   UNL A   1      29.961  30.057  23.710  1.00  0.00    -0.347 N 
ATOM     34  H   UNL A   1      30.000  30.774  24.384  1.00  0.00     0.164 HD
BRANCH  33  35
ATOM     35  C   UNL A   1      28.717  30.203  22.893  1.00  0.00     0.032 C 
ATOM     36  C   UNL A   1      27.795  28.967  22.974  1.00  0.00     0.034 C 
ATOM     37  C   UNL A   1      27.912  31.345  23.550  1.00  0.00     0.034 C 
ATOM     38  C   UNL A   1      28.949  30.581  21.429  1.00  0.00     0.034 C 
ENDBRANCH  33  35
ENDBRANCH  30  31
ENDBRANCH  28  30
ENDBRANCH   9  23
ENDBRANCH   3   6
ENDBRANCH   1   2
BRANCH   1  39
ATOM     39  C   UNL A   1      39.672  23.602  27.664  1.00  0.00     0.042 C 
BRANCH  39  40
ATOM     40  C   UNL A   1      39.445  25.188  27.861  1.00  0.00     0.118 C 
BRANCH  40  41
ATOM     41  N   UNL A   1      39.492  26.065  29.175  1.00  0.00    -0.352 N 
ATOM     42  C   UNL A   1      39.583  27.470  29.581  1.00  0.00     0.251 C 
ATOM     43  H   UNL A   1      39.447  25.485  29.969  1.00  0.00     0.163 HD
ATOM     44  O   UNL A   1      38.673  27.809  30.362  1.00  0.00    -0.269 OA
BRANCH  42  45
ATOM     45  C   UNL A   1      40.577  28.657  29.251  1.00  0.00     0.039 A 
ATOM     46  C   UNL A   1      41.030  28.935  27.927  1.00  0.00     0.014 A 
ATOM     47  C   UNL A   1      41.132  29.519  30.171  1.00  0.00     0.014 A 
ATOM     48  C   UNL A   1      42.380  29.388  27.706  1.00  0.00     0.010 A 
ATOM     49  C   UNL A   1      42.442  30.022  29.951  1.00  0.00     0.010 A 
ATOM     50  C   UNL A   1      43.181  29.711  28.797  1.00  0.00    -0.014 A 
BRANCH  50  51
ATOM     51  C   UNL A   1      44.701  29.629  28.830  1.00  0.00     0.031 A 
ATOM     52  C   UNL A   1      45.501  30.713  28.276  1.00  0.00     0.074 A 
ATOM     53  C   UNL A   1      45.504  28.725  29.479  1.00  0.00     0.049 A 
ATOM     54  N   UNL A   1      46.541  30.553  27.526  1.00  0.00    -0.248 NA
ATOM     55  C   UNL A   1      45.196  32.094  28.594  1.00  0.00     0.031 C 
ATOM     56  C   UNL A   1      46.960  28.637  29.727  1.00  0.00     0.029 A 
ATOM     57  N   UNL A   1      45.116  27.601  30.173  1.00  0.00    -0.354 N 
ATOM     58  C   UNL A   1      47.219  31.750  27.576  1.00  0.00     0.074 A 
ATOM     59  C   UNL A   1      46.254  32.709  28.068  1.00  0.00     0.031 C 
ATOM     60  C   UNL A   1      47.283  27.373  30.103  1.00  0.00     0.029 A 
ATOM     61  C   UNL A   1      46.064  26.593  30.087  1.00  0.00     0.049 A 
ATOM     62  H   UNL A   1      44.270  27.524  30.670  1.00  0.00     0.167 HD
ATOM     63  C   UNL A   1      48.579  31.794  27.445  1.00  0.00     0.031 A 
ATOM     64  C   UNL A   1      45.732  25.468  29.381  1.00  0.00     0.031 A 
ATOM     65  C   UNL A   1      49.174  30.448  27.397  1.00  0.00     0.049 A 
ATOM     66  C   UNL A   1      46.496  25.450  28.096  1.00  0.00     0.074 A 
ATOM     67  C   UNL A   1      49.942  29.727  28.301  1.00  0.00     0.029 A 
ATOM     68  N   UNL A   1      48.731  29.524  26.454  1.00  0.00    -0.354 N 
ATOM     69  N   UNL A   1      47.204  26.464  27.700  1.00  0.00    -0.248 NA
ATOM     70  C   UNL A   1      46.567  24.332  27.165  1.00  0.00     0.031 C 
ATOM     71  C   UNL A   1      49.859  28.347  27.952  1.00  0.00     0.029 A 
ATOM     72  C   UNL A   1      49.080  28.233  26.813  1.00  0.00     0.049 A 
ATOM     73  H   UNL A   1      48.233  29.758  25.637  1.00  0.00     0.167 HD
ATOM     74  C   UNL A   1      47.848  26.180  26.546  1.00  0.00     0.074 A 
ATOM     75  C   UNL A   1      47.417  24.825  26.240  1.00  0.00     0.031 C 
ATOM     76  C   UNL A   1      48.679  27.097  25.978  1.00  0.00     0.031 A 
BRANCH  63  77
ATOM     77  C   UNL A   1      49.375  33.067  27.674  1.00  0.00    -0.014 A 
ATOM     78  C   UNL A   1      49.787  33.441  28.967  1.00  0.00     0.010 A 
ATOM     79  C   UNL A   1      49.774  33.931  26.633  1.00  0.00     0.010 A 
ATOM     80  C   UNL A   1      50.487  34.639  29.208  1.00  0.00     0.020 A 
ATOM     81  C   UNL A   1      50.411  35.157  26.860  1.00  0.00     0.020 A 
ATOM     82  C   UNL A   1      50.777  35.500  28.151  1.00  0.00     0.054 A 
BRANCH  82  83
ATOM     83  S   UNL A   1      51.699  37.028  28.461  1.00  0.00     0.124 S 
ATOM     84  O   UNL A   1      52.383  37.254  27.191  1.00  0.00    -0.237 OA
ATOM     85  O   UNL A   1      50.633  37.973  28.781  1.00  0.00    -0.237 OA
ATOM     86  O   UNL A   1      52.575  36.687  29.581  1.00  0.00    -0.744 OA
ENDBRANCH  82  83
ENDBRANCH  63  77
BRANCH  64  87
ATOM     87  C   UNL A   1      44.304  24.976  29.612  1.00  0.00    -0.014 A 
ATOM     88  C   UNL A   1      43.374  25.611  28.769  1.00  0.00     0.010 A 
ATOM     89  C   UNL A   1      44.119  23.603  29.701  1.00  0.00     0.010 A 
ATOM     90  C   UNL A   1      43.043  24.980  27.562  1.00  0.00     0.020 A 
ATOM     91  C   UNL A   1      43.591  22.961  28.564  1.00  0.00     0.020 A 
ATOM     92  C   UNL A   1      43.386  23.648  27.379  1.00  0.00     0.054 A 
BRANCH  92  93
ATOM     93  S   UNL A   1      43.844  23.072  25.492  1.00  0.00     0.124 S 
ATOM     94  O   UNL A   1      44.867  22.096  25.807  1.00  0.00    -0.237 OA
ATOM     95  O   UNL A   1      42.715  22.361  24.914  1.00  0.00    -0.237 OA
ATOM     96  O   UNL A   1      44.306  24.203  24.741  1.00  0.00    -0.744 OA
ENDBRANCH  92  93
ENDBRANCH  64  87
BRANCH  76  97
ATOM     97  C   UNL A   1      49.271  26.985  24.606  1.00  0.00    -0.014 A 
ATOM     98  C   UNL A   1      48.516  26.853  23.434  1.00  0.00     0.010 A 
ATOM     99  C   UNL A   1      50.671  27.137  24.467  1.00  0.00     0.010 A 
ATOM    100  C   UNL A   1      49.137  26.798  22.183  1.00  0.00     0.020 A 
ATOM    101  C   UNL A   1      51.292  27.149  23.222  1.00  0.00     0.020 A 
ATOM    102  C   UNL A   1      50.521  26.944  22.087  1.00  0.00     0.054 A 
BRANCH 102 103
ATOM    103  S   UNL A   1      51.298  26.909  20.460  1.00  0.00     0.124 S 
ATOM    104  O   UNL A   1      52.415  25.994  20.684  1.00  0.00    -0.237 OA
ATOM    105  O   UNL A   1      50.232  26.398  19.603  1.00  0.00    -0.237 OA
ATOM    106  O   UNL A   1      51.667  28.302  20.221  1.00  0.00    -0.744 OA
ENDBRANCH 102 103
ENDBRANCH  76  97
ENDBRANCH  50  51
ENDBRANCH  42  45
ENDBRANCH  40  41
ENDBRANCH  39  40
ENDBRANCH   1  39
TORSDOF 19
ENDMDL
