MODEL 1
REMARK VINA RESULT:     -11.9      0.000      0.000
REMARK SMILES CC(C)Cc1cc2c(cc1Cl)C=C(C(=O)NCCCNC(=O)c1ccc(-c3c4nc(c(-c5ccc(S(=O)(=O)[O-])cc5)c5ccc([nH]5)c(-c5ccc(S(=O)(=O)[O-])cc5)c5nc(c(-c6ccc(S(=O)(=O)[O-])cc6)c6ccc3[nH]6)C=C5)C=C4)cc1)[C@H](C(F)(F)F)O2
REMARK SMILES IDX 18 1 17 2 16 3 14 4 15 5 13 7 5 8 6 9 10 10 7 11 9 12 11 13
REMARK SMILES IDX 8 14 88 15 12 16 83 17 4 18 2 19 1 20 3 21 84 22 85 23 86 24
REMARK SMILES IDX 87 25 19 26 20 27 21 28 22 30 23 31 24 32 82 33 25 34 81 35
REMARK SMILES IDX 26 36 27 37 28 38 75 39 29 40 80 41 74 42 76 43 30 44 79 45
REMARK SMILES IDX 73 46 72 47 31 49 61 50 42 51 60 52 43 53 46 54 59 55 77 56
REMARK SMILES IDX 44 57 45 58 58 60 78 61 47 62 32 63 33 64 41 65 34 66 40 67
REMARK SMILES IDX 35 68 36 69 37 70 38 71 39 72 62 73 63 74 71 75 64 76 70 77
REMARK SMILES IDX 65 78 66 79 67 80 68 81 69 82 48 83 49 84 57 85 50 86 56 87
REMARK SMILES IDX 51 88 52 89 53 90 54 91 55 92
REMARK H PARENT 16 6 20 29 76 48 46 59
REMARK Flexibility Score: inf
ROOT
ATOM      1  C   UNL A   1      35.350  24.027  24.627  1.00  0.00     0.042 C 
ENDROOT
BRANCH   1   2
ATOM      2  C   UNL A   1      34.126  23.121  24.672  1.00  0.00     0.118 C 
BRANCH   2   3
ATOM      3  N   UNL A   1      33.260  23.445  25.795  1.00  0.00    -0.352 N 
ATOM      4  C   UNL A   1      32.294  24.349  26.068  1.00  0.00     0.251 C 
ATOM      5  O   UNL A   1      31.730  24.208  27.158  1.00  0.00    -0.270 OA
ATOM      6  H   UNL A   1      33.422  22.846  26.560  1.00  0.00     0.163 HD
BRANCH   4   7
ATOM      7  C   UNL A   1      31.877  25.457  25.162  1.00  0.00     0.067 C 
ATOM      8  C   UNL A   1      29.120  28.841  22.627  1.00  0.00    -0.025 A 
ATOM      9  C   UNL A   1      30.485  28.517  22.676  1.00  0.00     0.052 A 
ATOM     10  C   UNL A   1      28.217  28.039  23.343  1.00  0.00     0.045 A 
ATOM     11  C   UNL A   1      30.937  27.459  23.460  1.00  0.00     0.128 A 
ATOM     12  C   UNL A   1      28.677  26.975  24.130  1.00  0.00     0.032 A 
ATOM     13  Cl  UNL A   1      26.510  28.297  23.277  1.00  0.00    -0.084 Cl
ATOM     14  C   UNL A   1      30.042  26.690  24.198  1.00  0.00     0.019 A 
ATOM     15  O   UNL A   1      32.278  27.212  23.429  1.00  0.00    -0.475 OA
ATOM     16  C   UNL A   1      30.547  25.587  25.001  1.00  0.00     0.025 C 
ATOM     17  C   UNL A   1      32.823  26.451  24.542  1.00  0.00     0.314 C 
BRANCH   8  18
ATOM     18  C   UNL A   1      28.707  30.065  21.840  1.00  0.00     0.040 C 
BRANCH  18  19
ATOM     19  C   UNL A   1      28.264  31.254  22.718  1.00  0.00    -0.013 C 
ATOM     20  C   UNL A   1      29.157  31.450  23.947  1.00  0.00     0.008 C 
ATOM     21  C   UNL A   1      28.251  32.535  21.880  1.00  0.00     0.008 C 
ENDBRANCH  18  19
ENDBRANCH   8  18
BRANCH  17  22
ATOM     22  C   UNL A   1      33.475  27.408  25.554  1.00  0.00     0.429 C 
ATOM     23  F   UNL A   1      34.432  26.807  26.296  1.00  0.00    -0.167 F 
ATOM     24  F   UNL A   1      34.074  28.435  24.898  1.00  0.00    -0.167 F 
ATOM     25  F   UNL A   1      32.581  27.943  26.415  1.00  0.00    -0.167 F 
ENDBRANCH  17  22
ENDBRANCH   4   7
ENDBRANCH   2   3
ENDBRANCH   1   2
BRANCH   1  26
ATOM     26  C   UNL A   1      36.167  23.966  25.913  1.00  0.00     0.118 C 
BRANCH  26  27
ATOM     27  N   UNL A   1      37.140  22.878  25.890  1.00  0.00    -0.352 N 
ATOM     28  C   UNL A   1      38.488  22.892  26.161  1.00  0.00     0.251 C 
ATOM     29  H   UNL A   1      36.774  21.998  25.644  1.00  0.00     0.163 HD
ATOM     30  O   UNL A   1      39.177  21.925  25.840  1.00  0.00    -0.269 OA
BRANCH  28  31
ATOM     31  C   UNL A   1      39.106  24.067  26.811  1.00  0.00     0.039 A 
ATOM     32  C   UNL A   1      38.958  24.275  28.181  1.00  0.00     0.014 A 
ATOM     33  C   UNL A   1      39.849  24.971  26.047  1.00  0.00     0.014 A 
ATOM     34  C   UNL A   1      39.369  25.475  28.746  1.00  0.00     0.010 A 
ATOM     35  C   UNL A   1      40.371  26.124  26.645  1.00  0.00     0.010 A 
ATOM     36  C   UNL A   1      40.093  26.411  27.991  1.00  0.00    -0.014 A 
BRANCH  36  37
ATOM     37  C   UNL A   1      40.562  27.662  28.646  1.00  0.00     0.031 A 
ATOM     38  C   UNL A   1      42.007  27.843  29.032  1.00  0.00     0.074 A 
ATOM     39  C   UNL A   1      39.683  28.669  28.831  1.00  0.00     0.049 A 
ATOM     40  N   UNL A   1      42.587  28.888  29.563  1.00  0.00    -0.248 NA
ATOM     41  C   UNL A   1      42.920  26.711  28.799  1.00  0.00     0.031 C 
ATOM     42  C   UNL A   1      38.261  28.614  28.481  1.00  0.00     0.029 A 
ATOM     43  N   UNL A   1      39.854  29.943  29.313  1.00  0.00    -0.354 N 
ATOM     44  C   UNL A   1      43.921  28.539  29.742  1.00  0.00     0.074 A 
ATOM     45  C   UNL A   1      44.060  27.170  29.297  1.00  0.00     0.031 C 
ATOM     46  C   UNL A   1      37.711  29.819  28.679  1.00  0.00     0.029 A 
ATOM     47  C   UNL A   1      38.713  30.710  29.256  1.00  0.00     0.049 A 
ATOM     48  H   UNL A   1      40.711  30.276  29.665  1.00  0.00     0.167 HD
ATOM     49  C   UNL A   1      44.937  29.298  30.216  1.00  0.00     0.031 A 
ATOM     50  C   UNL A   1      38.482  31.984  29.632  1.00  0.00     0.031 A 
ATOM     51  C   UNL A   1      44.789  30.669  30.635  1.00  0.00     0.049 A 
ATOM     52  C   UNL A   1      39.617  32.788  30.198  1.00  0.00     0.074 A 
ATOM     53  C   UNL A   1      45.768  31.527  31.105  1.00  0.00     0.029 A 
ATOM     54  N   UNL A   1      43.600  31.384  30.629  1.00  0.00    -0.354 N 
ATOM     55  N   UNL A   1      40.874  32.442  30.342  1.00  0.00    -0.248 NA
ATOM     56  C   UNL A   1      39.309  34.151  30.651  1.00  0.00     0.031 C 
ATOM     57  C   UNL A   1      45.158  32.732  31.457  1.00  0.00     0.029 A 
ATOM     58  C   UNL A   1      43.815  32.660  31.124  1.00  0.00     0.049 A 
ATOM     59  H   UNL A   1      42.733  31.036  30.319  1.00  0.00     0.167 HD
ATOM     60  C   UNL A   1      41.510  33.547  30.893  1.00  0.00     0.074 A 
ATOM     61  C   UNL A   1      40.505  34.583  31.029  1.00  0.00     0.031 C 
ATOM     62  C   UNL A   1      42.808  33.685  31.260  1.00  0.00     0.031 A 
BRANCH  49  63
ATOM     63  C   UNL A   1      46.313  28.685  30.314  1.00  0.00    -0.014 A 
ATOM     64  C   UNL A   1      47.163  28.697  29.192  1.00  0.00     0.010 A 
ATOM     65  C   UNL A   1      46.713  27.976  31.462  1.00  0.00     0.010 A 
ATOM     66  C   UNL A   1      48.363  27.980  29.198  1.00  0.00     0.020 A 
ATOM     67  C   UNL A   1      47.928  27.284  31.484  1.00  0.00     0.020 A 
ATOM     68  C   UNL A   1      48.733  27.267  30.341  1.00  0.00     0.054 A 
BRANCH  68  69
ATOM     69  S   UNL A   1      50.269  26.302  30.311  1.00  0.00     0.124 S 
ATOM     70  O   UNL A   1      51.238  27.279  29.828  1.00  0.00    -0.237 OA
ATOM     71  O   UNL A   1      50.418  25.899  31.708  1.00  0.00    -0.237 OA
ATOM     72  O   UNL A   1      49.968  25.209  29.387  1.00  0.00    -0.744 OA
ENDBRANCH  68  69
ENDBRANCH  49  63
BRANCH  50  73
ATOM     73  C   UNL A   1      37.119  32.559  29.453  1.00  0.00    -0.014 A 
ATOM     74  C   UNL A   1      36.732  33.097  28.210  1.00  0.00     0.010 A 
ATOM     75  C   UNL A   1      36.238  32.665  30.543  1.00  0.00     0.010 A 
ATOM     76  C   UNL A   1      35.531  33.797  28.080  1.00  0.00     0.020 A 
ATOM     77  C   UNL A   1      35.015  33.330  30.407  1.00  0.00     0.020 A 
ATOM     78  C   UNL A   1      34.687  33.923  29.186  1.00  0.00     0.054 A 
BRANCH  78  79
ATOM     79  S   UNL A   1      33.167  34.897  29.011  1.00  0.00     0.124 S 
ATOM     80  O   UNL A   1      32.429  34.123  28.016  1.00  0.00    -0.237 OA
ATOM     81  O   UNL A   1      32.615  34.872  30.364  1.00  0.00    -0.237 OA
ATOM     82  O   UNL A   1      33.645  36.201  28.560  1.00  0.00    -0.744 OA
ENDBRANCH  78  79
ENDBRANCH  50  73
BRANCH  62  83
ATOM     83  C   UNL A   1      43.242  35.001  31.858  1.00  0.00    -0.014 A 
ATOM     84  C   UNL A   1      43.045  35.243  33.230  1.00  0.00     0.010 A 
ATOM     85  C   UNL A   1      43.717  36.042  31.041  1.00  0.00     0.010 A 
ATOM     86  C   UNL A   1      43.273  36.512  33.767  1.00  0.00     0.020 A 
ATOM     87  C   UNL A   1      43.981  37.303  31.581  1.00  0.00     0.020 A 
ATOM     88  C   UNL A   1      43.730  37.537  32.935  1.00  0.00     0.054 A 
BRANCH  88  89
ATOM     89  S   UNL A   1      43.981  39.188  33.642  1.00  0.00     0.124 S 
ATOM     90  O   UNL A   1      45.024  39.736  32.781  1.00  0.00    -0.237 OA
ATOM     91  O   UNL A   1      42.661  39.800  33.500  1.00  0.00    -0.237 OA
ATOM     92  O   UNL A   1      44.387  38.915  35.019  1.00  0.00    -0.744 OA
ENDBRANCH  88  89
ENDBRANCH  62  83
ENDBRANCH  36  37
ENDBRANCH  28  31
ENDBRANCH  26  27
ENDBRANCH   1  26
TORSDOF 16
ENDMDL
MODEL 2
REMARK VINA RESULT:     -11.7      3.257      8.621
REMARK SMILES CC(C)Cc1cc2c(cc1Cl)C=C(C(=O)NCCCNC(=O)c1ccc(-c3c4nc(c(-c5ccc(S(=O)(=O)[O-])cc5)c5ccc([nH]5)c(-c5ccc(S(=O)(=O)[O-])cc5)c5nc(c(-c6ccc(S(=O)(=O)[O-])cc6)c6ccc3[nH]6)C=C5)C=C4)cc1)[C@H](C(F)(F)F)O2
REMARK SMILES IDX 18 1 17 2 16 3 14 4 15 5 13 7 5 8 6 9 10 10 7 11 9 12 11 13
REMARK SMILES IDX 8 14 88 15 12 16 83 17 4 18 2 19 1 20 3 21 84 22 85 23 86 24
REMARK SMILES IDX 87 25 19 26 20 27 21 28 22 30 23 31 24 32 82 33 25 34 81 35
REMARK SMILES IDX 26 36 27 37 28 38 75 39 29 40 80 41 74 42 76 43 30 44 79 45
REMARK SMILES IDX 73 46 72 47 31 49 61 50 42 51 60 52 43 53 46 54 59 55 77 56
REMARK SMILES IDX 44 57 45 58 58 60 78 61 47 62 32 63 33 64 41 65 34 66 40 67
REMARK SMILES IDX 35 68 36 69 37 70 38 71 39 72 62 73 63 74 71 75 64 76 70 77
REMARK SMILES IDX 65 78 66 79 67 80 68 81 69 82 48 83 49 84 57 85 50 86 56 87
REMARK SMILES IDX 51 88 52 89 53 90 54 91 55 92
REMARK H PARENT 16 6 20 29 76 48 46 59
REMARK Flexibility Score: inf
ROOT
ATOM      1  C   UNL A   1      33.990  28.209  25.813  1.00  0.00     0.042 C 
ENDROOT
BRANCH   1   2
ATOM      2  C   UNL A   1      32.892  28.527  24.806  1.00  0.00     0.118 C 
BRANCH   2   3
ATOM      3  N   UNL A   1      33.357  28.371  23.437  1.00  0.00    -0.352 N 
ATOM      4  C   UNL A   1      33.518  27.356  22.559  1.00  0.00     0.251 C 
ATOM      5  O   UNL A   1      33.870  27.691  21.424  1.00  0.00    -0.270 OA
ATOM      6  H   UNL A   1      33.627  29.234  23.047  1.00  0.00     0.163 HD
BRANCH   4   7
ATOM      7  C   UNL A   1      33.294  25.915  22.865  1.00  0.00     0.067 C 
ATOM      8  C   UNL A   1      33.827  21.214  24.626  1.00  0.00    -0.025 A 
ATOM      9  C   UNL A   1      32.874  21.868  23.830  1.00  0.00     0.052 A 
ATOM     10  C   UNL A   1      34.985  21.918  24.995  1.00  0.00     0.045 A 
ATOM     11  C   UNL A   1      33.047  23.200  23.462  1.00  0.00     0.128 A 
ATOM     12  C   UNL A   1      35.154  23.257  24.621  1.00  0.00     0.032 A 
ATOM     13  Cl  UNL A   1      36.259  21.177  25.896  1.00  0.00    -0.084 Cl
ATOM     14  C   UNL A   1      34.178  23.904  23.861  1.00  0.00     0.019 A 
ATOM     15  O   UNL A   1      32.075  23.742  22.674  1.00  0.00    -0.475 OA
ATOM     16  C   UNL A   1      34.332  25.292  23.453  1.00  0.00     0.025 C 
ATOM     17  C   UNL A   1      31.988  25.193  22.657  1.00  0.00     0.314 C 
BRANCH   8  18
ATOM     18  C   UNL A   1      33.529  19.802  25.078  1.00  0.00     0.040 C 
BRANCH  18  19
ATOM     19  C   UNL A   1      33.718  18.738  23.977  1.00  0.00    -0.013 C 
ATOM     20  C   UNL A   1      34.746  17.668  24.355  1.00  0.00     0.008 C 
ATOM     21  C   UNL A   1      32.374  18.075  23.666  1.00  0.00     0.008 C 
ENDBRANCH  18  19
ENDBRANCH   8  18
BRANCH  17  22
ATOM     22  C   UNL A   1      30.862  25.656  23.596  1.00  0.00     0.429 C 
ATOM     23  F   UNL A   1      31.288  25.840  24.867  1.00  0.00    -0.167 F 
ATOM     24  F   UNL A   1      30.367  26.846  23.172  1.00  0.00    -0.167 F 
ATOM     25  F   UNL A   1      29.833  24.782  23.645  1.00  0.00    -0.167 F 
ENDBRANCH  17  22
ENDBRANCH   4   7
ENDBRANCH   2   3
ENDBRANCH   1   2
BRANCH   1  26
ATOM     26  C   UNL A   1      33.556  28.474  27.251  1.00  0.00     0.118 C 
BRANCH  26  27
ATOM     27  N   UNL A   1      33.547  29.900  27.563  1.00  0.00    -0.352 N 
ATOM     28  C   UNL A   1      34.497  30.675  28.185  1.00  0.00     0.251 C 
ATOM     29  H   UNL A   1      32.735  30.381  27.285  1.00  0.00     0.163 HD
ATOM     30  O   UNL A   1      34.195  31.799  28.580  1.00  0.00    -0.269 OA
BRANCH  28  31
ATOM     31  C   UNL A   1      35.864  30.152  28.395  1.00  0.00     0.039 A 
ATOM     32  C   UNL A   1      36.222  29.582  29.616  1.00  0.00     0.014 A 
ATOM     33  C   UNL A   1      36.802  30.226  27.361  1.00  0.00     0.014 A 
ATOM     34  C   UNL A   1      37.553  29.278  29.872  1.00  0.00     0.010 A 
ATOM     35  C   UNL A   1      38.117  29.803  27.582  1.00  0.00     0.010 A 
ATOM     36  C   UNL A   1      38.518  29.370  28.857  1.00  0.00    -0.014 A 
BRANCH  36  37
ATOM     37  C   UNL A   1      39.922  28.985  29.157  1.00  0.00     0.031 A 
ATOM     38  C   UNL A   1      40.463  27.640  28.748  1.00  0.00     0.074 A 
ATOM     39  C   UNL A   1      40.735  29.889  29.743  1.00  0.00     0.049 A 
ATOM     40  N   UNL A   1      41.676  27.168  28.889  1.00  0.00    -0.248 NA
ATOM     41  C   UNL A   1      39.532  26.698  28.105  1.00  0.00     0.031 C 
ATOM     42  C   UNL A   1      40.326  31.231  30.167  1.00  0.00     0.029 A 
ATOM     43  N   UNL A   1      42.073  29.843  30.045  1.00  0.00    -0.354 N 
ATOM     44  C   UNL A   1      41.651  25.878  28.371  1.00  0.00     0.074 A 
ATOM     45  C   UNL A   1      40.293  25.624  27.945  1.00  0.00     0.031 C 
ATOM     46  C   UNL A   1      41.402  31.905  30.594  1.00  0.00     0.029 A 
ATOM     47  C   UNL A   1      42.561  31.021  30.562  1.00  0.00     0.049 A 
ATOM     48  H   UNL A   1      42.630  29.043  29.905  1.00  0.00     0.167 HD
ATOM     49  C   UNL A   1      42.671  24.998  28.246  1.00  0.00     0.031 A 
ATOM     50  C   UNL A   1      43.798  31.360  30.977  1.00  0.00     0.031 A 
ATOM     51  C   UNL A   1      44.026  25.273  28.654  1.00  0.00     0.049 A 
ATOM     52  C   UNL A   1      44.902  30.348  30.870  1.00  0.00     0.074 A 
ATOM     53  C   UNL A   1      45.133  24.451  28.542  1.00  0.00     0.029 A 
ATOM     54  N   UNL A   1      44.461  26.452  29.240  1.00  0.00    -0.354 N 
ATOM     55  N   UNL A   1      44.857  29.140  30.360  1.00  0.00    -0.248 NA
ATOM     56  C   UNL A   1      46.218  30.738  31.389  1.00  0.00     0.031 C 
ATOM     57  C   UNL A   1      46.219  25.100  29.132  1.00  0.00     0.029 A 
ATOM     58  C   UNL A   1      45.813  26.364  29.531  1.00  0.00     0.049 A 
ATOM     59  H   UNL A   1      43.894  27.236  29.423  1.00  0.00     0.167 HD
ATOM     60  C   UNL A   1      46.143  28.628  30.489  1.00  0.00     0.074 A 
ATOM     61  C   UNL A   1      46.948  29.669  31.097  1.00  0.00     0.031 C 
ATOM     62  C   UNL A   1      46.608  27.403  30.140  1.00  0.00     0.031 A 
BRANCH  49  63
ATOM     63  C   UNL A   1      42.388  23.643  27.641  1.00  0.00    -0.014 A 
ATOM     64  C   UNL A   1      41.975  22.583  28.470  1.00  0.00     0.010 A 
ATOM     65  C   UNL A   1      42.664  23.380  26.287  1.00  0.00     0.010 A 
ATOM     66  C   UNL A   1      41.884  21.280  27.970  1.00  0.00     0.020 A 
ATOM     67  C   UNL A   1      42.543  22.084  25.775  1.00  0.00     0.020 A 
ATOM     68  C   UNL A   1      42.181  21.037  26.627  1.00  0.00     0.054 A 
BRANCH  68  69
ATOM     69  S   UNL A   1      42.106  19.332  26.010  1.00  0.00     0.124 S 
ATOM     70  O   UNL A   1      42.964  19.392  24.832  1.00  0.00    -0.237 OA
ATOM     71  O   UNL A   1      42.630  18.563  27.137  1.00  0.00    -0.237 OA
ATOM     72  O   UNL A   1      40.684  19.129  25.738  1.00  0.00    -0.744 OA
ENDBRANCH  68  69
ENDBRANCH  49  63
BRANCH  50  73
ATOM     73  C   UNL A   1      44.035  32.734  31.506  1.00  0.00    -0.014 A 
ATOM     74  C   UNL A   1      43.760  33.035  32.854  1.00  0.00     0.010 A 
ATOM     75  C   UNL A   1      44.438  33.771  30.647  1.00  0.00     0.010 A 
ATOM     76  C   UNL A   1      43.805  34.353  33.313  1.00  0.00     0.020 A 
ATOM     77  C   UNL A   1      44.524  35.088  31.113  1.00  0.00     0.020 A 
ATOM     78  C   UNL A   1      44.171  35.373  32.433  1.00  0.00     0.054 A 
BRANCH  78  79
ATOM     79  S   UNL A   1      44.154  37.085  33.034  1.00  0.00     0.124 S 
ATOM     80  O   UNL A   1      45.502  37.224  33.579  1.00  0.00    -0.237 OA
ATOM     81  O   UNL A   1      43.886  37.847  31.816  1.00  0.00    -0.237 OA
ATOM     82  O   UNL A   1      43.077  37.092  34.020  1.00  0.00    -0.744 OA
ENDBRANCH  78  79
ENDBRANCH  50  73
BRANCH  62  83
ATOM     83  C   UNL A   1      48.059  27.092  30.407  1.00  0.00    -0.014 A 
ATOM     84  C   UNL A   1      48.433  26.493  31.624  1.00  0.00     0.010 A 
ATOM     85  C   UNL A   1      49.063  27.512  29.516  1.00  0.00     0.010 A 
ATOM     86  C   UNL A   1      49.781  26.360  31.967  1.00  0.00     0.020 A 
ATOM     87  C   UNL A   1      50.412  27.348  29.838  1.00  0.00     0.020 A 
ATOM     88  C   UNL A   1      50.761  26.798  31.074  1.00  0.00     0.054 A 
BRANCH  88  89
ATOM     89  S   UNL A   1      52.505  26.655  31.553  1.00  0.00     0.124 S 
ATOM     90  O   UNL A   1      53.103  26.056  30.364  1.00  0.00    -0.237 OA
ATOM     91  O   UNL A   1      52.879  28.043  31.816  1.00  0.00    -0.237 OA
ATOM     92  O   UNL A   1      52.467  25.794  32.734  1.00  0.00    -0.744 OA
ENDBRANCH  88  89
ENDBRANCH  62  83
ENDBRANCH  36  37
ENDBRANCH  28  31
ENDBRANCH  26  27
ENDBRANCH   1  26
TORSDOF 16
ENDMDL
MODEL 3
REMARK VINA RESULT:     -11.7      1.588      2.253
REMARK SMILES CC(C)Cc1cc2c(cc1Cl)C=C(C(=O)NCCCNC(=O)c1ccc(-c3c4nc(c(-c5ccc(S(=O)(=O)[O-])cc5)c5ccc([nH]5)c(-c5ccc(S(=O)(=O)[O-])cc5)c5nc(c(-c6ccc(S(=O)(=O)[O-])cc6)c6ccc3[nH]6)C=C5)C=C4)cc1)[C@H](C(F)(F)F)O2
REMARK SMILES IDX 18 1 17 2 16 3 14 4 15 5 13 7 5 8 6 9 10 10 7 11 9 12 11 13
REMARK SMILES IDX 8 14 88 15 12 16 83 17 4 18 2 19 1 20 3 21 84 22 85 23 86 24
REMARK SMILES IDX 87 25 19 26 20 27 21 28 22 30 23 31 24 32 82 33 25 34 81 35
REMARK SMILES IDX 26 36 27 37 28 38 75 39 29 40 80 41 74 42 76 43 30 44 79 45
REMARK SMILES IDX 73 46 72 47 31 49 61 50 42 51 60 52 43 53 46 54 59 55 77 56
REMARK SMILES IDX 44 57 45 58 58 60 78 61 47 62 32 63 33 64 41 65 34 66 40 67
REMARK SMILES IDX 35 68 36 69 37 70 38 71 39 72 62 73 63 74 71 75 64 76 70 77
REMARK SMILES IDX 65 78 66 79 67 80 68 81 69 82 48 83 49 84 57 85 50 86 56 87
REMARK SMILES IDX 51 88 52 89 53 90 54 91 55 92
REMARK H PARENT 16 6 20 29 76 48 46 59
REMARK Flexibility Score: inf
ROOT
ATOM      1  C   UNL A   1      36.216  23.017  24.191  1.00  0.00     0.042 C 
ENDROOT
BRANCH   1   2
ATOM      2  C   UNL A   1      35.152  21.983  24.539  1.00  0.00     0.118 C 
BRANCH   2   3
ATOM      3  N   UNL A   1      34.882  21.951  25.968  1.00  0.00    -0.352 N 
ATOM      4  C   UNL A   1      34.078  22.605  26.836  1.00  0.00     0.251 C 
ATOM      5  O   UNL A   1      34.100  22.183  27.997  1.00  0.00    -0.270 OA
ATOM      6  H   UNL A   1      35.433  21.274  26.425  1.00  0.00     0.163 HD
BRANCH   4   7
ATOM      7  C   UNL A   1      33.192  23.751  26.486  1.00  0.00     0.067 C 
ATOM      8  C   UNL A   1      31.416  28.067  24.562  1.00  0.00    -0.025 A 
ATOM      9  C   UNL A   1      30.890  27.067  25.394  1.00  0.00     0.052 A 
ATOM     10  C   UNL A   1      32.770  27.989  24.198  1.00  0.00     0.045 A 
ATOM     11  C   UNL A   1      31.678  25.994  25.804  1.00  0.00     0.128 A 
ATOM     12  C   UNL A   1      33.559  26.908  24.613  1.00  0.00     0.032 A 
ATOM     13  Cl  UNL A   1      33.537  29.214  23.252  1.00  0.00    -0.084 Cl
ATOM     14  C   UNL A   1      33.010  25.902  25.410  1.00  0.00     0.019 A 
ATOM     15  O   UNL A   1      31.082  25.083  26.625  1.00  0.00    -0.475 OA
ATOM     16  C   UNL A   1      33.808  24.772  25.861  1.00  0.00     0.025 C 
ATOM     17  C   UNL A   1      31.700  23.769  26.691  1.00  0.00     0.314 C 
BRANCH   8  18
ATOM     18  C   UNL A   1      30.480  29.147  24.068  1.00  0.00     0.040 C 
BRANCH  18  19
ATOM     19  C   UNL A   1      29.685  28.758  22.805  1.00  0.00    -0.013 C 
ATOM     20  C   UNL A   1      28.220  28.425  23.103  1.00  0.00     0.008 C 
ATOM     21  C   UNL A   1      29.757  29.894  21.782  1.00  0.00     0.008 C 
ENDBRANCH  18  19
ENDBRANCH   8  18
BRANCH  17  22
ATOM     22  C   UNL A   1      30.934  22.789  25.786  1.00  0.00     0.429 C 
ATOM     23  F   UNL A   1      31.634  21.660  25.532  1.00  0.00    -0.167 F 
ATOM     24  F   UNL A   1      29.780  22.409  26.391  1.00  0.00    -0.167 F 
ATOM     25  F   UNL A   1      30.607  23.331  24.593  1.00  0.00    -0.167 F 
ENDBRANCH  17  22
ENDBRANCH   4   7
ENDBRANCH   2   3
ENDBRANCH   1   2
BRANCH   1  26
ATOM     26  C   UNL A   1      37.011  23.468  25.411  1.00  0.00     0.118 C 
BRANCH  26  27
ATOM     27  N   UNL A   1      38.129  22.573  25.694  1.00  0.00    -0.352 N 
ATOM     28  C   UNL A   1      39.370  22.848  26.218  1.00  0.00     0.251 C 
ATOM     29  H   UNL A   1      37.969  21.626  25.477  1.00  0.00     0.163 HD
ATOM     30  O   UNL A   1      40.258  22.000  26.143  1.00  0.00    -0.269 OA
BRANCH  28  31
ATOM     31  C   UNL A   1      39.641  24.158  26.846  1.00  0.00     0.039 A 
ATOM     32  C   UNL A   1      40.305  25.158  26.137  1.00  0.00     0.014 A 
ATOM     33  C   UNL A   1      39.223  24.397  28.159  1.00  0.00     0.014 A 
ATOM     34  C   UNL A   1      40.729  26.305  26.795  1.00  0.00     0.010 A 
ATOM     35  C   UNL A   1      39.545  25.608  28.782  1.00  0.00     0.010 A 
ATOM     36  C   UNL A   1      40.345  26.555  28.122  1.00  0.00    -0.014 A 
BRANCH  36  37
ATOM     37  C   UNL A   1      40.776  27.820  28.774  1.00  0.00     0.031 A 
ATOM     38  C   UNL A   1      42.213  28.040  29.169  1.00  0.00     0.074 A 
ATOM     39  C   UNL A   1      39.871  28.806  28.946  1.00  0.00     0.049 A 
ATOM     40  N   UNL A   1      42.762  29.103  29.699  1.00  0.00    -0.248 NA
ATOM     41  C   UNL A   1      43.157  26.931  28.950  1.00  0.00     0.031 C 
ATOM     42  C   UNL A   1      38.454  28.713  28.585  1.00  0.00     0.029 A 
ATOM     43  N   UNL A   1      40.005  30.087  29.422  1.00  0.00    -0.354 N 
ATOM     44  C   UNL A   1      44.103  28.788  29.891  1.00  0.00     0.074 A 
ATOM     45  C   UNL A   1      44.280  27.421  29.455  1.00  0.00     0.031 C 
ATOM     46  C   UNL A   1      37.872  29.905  28.773  1.00  0.00     0.029 A 
ATOM     47  C   UNL A   1      38.845  30.823  29.352  1.00  0.00     0.049 A 
ATOM     48  H   UNL A   1      40.851  30.442  29.779  1.00  0.00     0.167 HD
ATOM     49  C   UNL A   1      45.096  29.575  30.368  1.00  0.00     0.031 A 
ATOM     50  C   UNL A   1      38.580  32.093  29.719  1.00  0.00     0.031 A 
ATOM     51  C   UNL A   1      44.910  30.945  30.778  1.00  0.00     0.049 A 
ATOM     52  C   UNL A   1      39.689  32.929  30.290  1.00  0.00     0.074 A 
ATOM     53  C   UNL A   1      45.863  31.830  31.251  1.00  0.00     0.029 A 
ATOM     54  N   UNL A   1      43.704  31.629  30.759  1.00  0.00    -0.354 N 
ATOM     55  N   UNL A   1      40.953  32.616  30.445  1.00  0.00    -0.248 NA
ATOM     56  C   UNL A   1      39.343  34.286  30.732  1.00  0.00     0.031 C 
ATOM     57  C   UNL A   1      45.220  33.021  31.592  1.00  0.00     0.029 A 
ATOM     58  C   UNL A   1      43.882  32.913  31.249  1.00  0.00     0.049 A 
ATOM     59  H   UNL A   1      42.847  31.258  30.445  1.00  0.00     0.167 HD
ATOM     60  C   UNL A   1      41.557  33.740  30.995  1.00  0.00     0.074 A 
ATOM     61  C   UNL A   1      40.525  34.750  31.118  1.00  0.00     0.031 C 
ATOM     62  C   UNL A   1      42.848  33.913  31.371  1.00  0.00     0.031 A 
BRANCH  49  63
ATOM     63  C   UNL A   1      46.487  28.998  30.480  1.00  0.00    -0.014 A 
ATOM     64  C   UNL A   1      47.259  28.811  29.319  1.00  0.00     0.010 A 
ATOM     65  C   UNL A   1      46.974  28.511  31.707  1.00  0.00     0.010 A 
ATOM     66  C   UNL A   1      48.470  28.114  29.372  1.00  0.00     0.020 A 
ATOM     67  C   UNL A   1      48.201  27.842  31.770  1.00  0.00     0.020 A 
ATOM     68  C   UNL A   1      48.927  27.622  30.596  1.00  0.00     0.054 A 
BRANCH  68  69
ATOM     69  S   UNL A   1      50.475  26.676  30.636  1.00  0.00     0.124 S 
ATOM     70  O   UNL A   1      51.308  27.408  29.688  1.00  0.00    -0.237 OA
ATOM     71  O   UNL A   1      50.874  26.777  32.038  1.00  0.00    -0.237 OA
ATOM     72  O   UNL A   1      50.069  25.338  30.209  1.00  0.00    -0.744 OA
ENDBRANCH  68  69
ENDBRANCH  49  63
BRANCH  50  73
ATOM     73  C   UNL A   1      37.204  32.632  29.526  1.00  0.00    -0.014 A 
ATOM     74  C   UNL A   1      36.778  33.056  28.252  1.00  0.00     0.010 A 
ATOM     75  C   UNL A   1      36.349  32.820  30.625  1.00  0.00     0.010 A 
ATOM     76  C   UNL A   1      35.564  33.726  28.093  1.00  0.00     0.020 A 
ATOM     77  C   UNL A   1      35.112  33.456  30.464  1.00  0.00     0.020 A 
ATOM     78  C   UNL A   1      34.746  33.936  29.205  1.00  0.00     0.054 A 
BRANCH  78  79
ATOM     79  S   UNL A   1      33.207  34.872  28.986  1.00  0.00     0.124 S 
ATOM     80  O   UNL A   1      32.519  34.081  27.968  1.00  0.00    -0.237 OA
ATOM     81  O   UNL A   1      32.616  34.829  30.322  1.00  0.00    -0.237 OA
ATOM     82  O   UNL A   1      33.664  36.188  28.552  1.00  0.00    -0.744 OA
ENDBRANCH  78  79
ENDBRANCH  50  73
BRANCH  62  83
ATOM     83  C   UNL A   1      43.243  35.242  31.965  1.00  0.00    -0.014 A 
ATOM     84  C   UNL A   1      42.917  35.534  33.302  1.00  0.00     0.010 A 
ATOM     85  C   UNL A   1      43.815  36.248  31.165  1.00  0.00     0.010 A 
ATOM     86  C   UNL A   1      43.113  36.818  33.817  1.00  0.00     0.020 A 
ATOM     87  C   UNL A   1      44.046  37.523  31.686  1.00  0.00     0.020 A 
ATOM     88  C   UNL A   1      43.667  37.807  33.001  1.00  0.00     0.054 A 
BRANCH  88  89
ATOM     89  S   UNL A   1      43.876  39.478  33.674  1.00  0.00     0.124 S 
ATOM     90  O   UNL A   1      42.541  40.044  33.509  1.00  0.00    -0.237 OA
ATOM     91  O   UNL A   1      44.284  39.219  35.053  1.00  0.00    -0.237 OA
ATOM     92  O   UNL A   1      44.912  40.064  32.825  1.00  0.00    -0.744 OA
ENDBRANCH  88  89
ENDBRANCH  62  83
ENDBRANCH  36  37
ENDBRANCH  28  31
ENDBRANCH  26  27
ENDBRANCH   1  26
TORSDOF 16
ENDMDL
