MODEL 1
REMARK VINA RESULT:     -12.2      0.000      0.000
REMARK SMILES CO[C@@H]1C[NH2+][C@@H](O[C@@H]2C[C@@H](C(=O)NCCCNC(=O)c3ccc(-c4c5nc(c(-c6ccc(S(=O)(=O)[O-])cc6)c6ccc([nH]6)c(-c6ccc(S(=O)(=O)[O-])cc6)c6nc(c(-c7ccc(S(=O)(=O)[O-])cc7)c7ccc4[nH]7)C=C6)C=C5)cc3)N(C(=O)OC(C)(C)C)C2)c2cc(Cl)ccc21
REMARK SMILES IDX 15 1 14 2 13 3 11 4 12 5 10 7 8 8 9 9 88 10 80 11 7 12 6 13
REMARK SMILES IDX 3 14 4 15 95 16 5 17 89 18 94 19 90 22 93 23 91 24 92 25
REMARK SMILES IDX 2 26 1 27 81 28 82 29 83 30 84 31 85 32 86 33 87 34 16 35
REMARK SMILES IDX 17 36 18 37 19 39 20 40 21 41 79 42 22 43 78 44 23 45 24 46
REMARK SMILES IDX 25 47 72 48 26 49 77 50 71 51 73 52 27 53 76 54 70 55 69 56
REMARK SMILES IDX 28 58 58 59 39 60 57 61 40 62 43 63 56 64 74 65 41 66 42 67
REMARK SMILES IDX 55 69 75 70 44 71 29 72 30 73 38 74 31 75 37 76 32 77 33 78
REMARK SMILES IDX 34 79 35 80 36 81 59 82 60 83 68 84 61 85 67 86 62 87 63 88
REMARK SMILES IDX 64 89 65 90 66 91 45 92 46 93 54 94 47 95 53 96 48 97 49 98
REMARK SMILES IDX 50 99 51 100 52 101
REMARK H PARENT 13 6 5 20 5 21 17 38 73 57 43 68
REMARK Flexibility Score: inf
ROOT
ATOM      1  C   UNL A   1      33.058  28.209  27.276  1.00  0.00     0.042 C 
ENDROOT
BRANCH   1   2
ATOM      2  C   UNL A   1      31.568  28.139  26.984  1.00  0.00     0.117 C 
BRANCH   2   3
ATOM      3  N   UNL A   1      31.083  26.783  27.010  1.00  0.00    -0.354 N 
ATOM      4  C   UNL A   1      31.466  25.737  26.260  1.00  0.00     0.243 C 
ATOM      5  O   UNL A   1      31.414  24.643  26.840  1.00  0.00    -0.273 OA
ATOM      6  H   UNL A   1      30.375  26.598  27.667  1.00  0.00     0.163 HD
BRANCH   4   7
ATOM      7  C   UNL A   1      31.713  25.793  24.745  1.00  0.00     0.180 C 
ATOM      8  C   UNL A   1      33.500  25.981  23.127  1.00  0.00     0.147 C 
ATOM      9  C   UNL A   1      33.248  25.777  24.600  1.00  0.00     0.069 C 
ATOM     10  C   UNL A   1      32.359  26.912  22.717  1.00  0.00     0.156 C 
ATOM     11  N   UNL A   1      31.282  26.709  23.686  1.00  0.00    -0.293 N 
BRANCH   8  12
ATOM     12  O   UNL A   1      33.768  24.848  22.314  1.00  0.00    -0.320 OA
BRANCH  12  13
ATOM     13  C   UNL A   1      33.860  23.471  22.661  1.00  0.00     0.354 C 
ATOM     14  C   UNL A   1      32.166  22.071  24.665  1.00  0.00     0.203 C 
ATOM     15  C   UNL A   1      31.692  22.501  23.246  1.00  0.00     0.300 C 
ATOM     16  C   UNL A   1      33.641  22.344  24.938  1.00  0.00    -0.002 A 
ATOM     17  N   UNL A   1      32.707  22.710  22.222  1.00  0.00    -0.315 N 
ATOM     18  C   UNL A   1      34.432  23.029  23.992  1.00  0.00     0.046 A 
ATOM     19  C   UNL A   1      34.197  22.033  26.194  1.00  0.00     0.009 A 
ATOM     20  H   UNL A   1      32.275  23.209  21.444  1.00  0.00     0.349 HD
ATOM     21  H   UNL A   1      33.052  21.786  21.963  1.00  0.00     0.349 HD
ATOM     22  C   UNL A   1      35.784  23.293  24.290  1.00  0.00     0.033 A 
ATOM     23  C   UNL A   1      35.525  22.342  26.492  1.00  0.00     0.021 A 
ATOM     24  C   UNL A   1      36.318  22.957  25.533  1.00  0.00     0.041 A 
ATOM     25  Cl  UNL A   1      37.960  23.327  25.889  1.00  0.00    -0.084 Cl
BRANCH  14  26
ATOM     26  O   UNL A   1      31.852  20.690  24.872  1.00  0.00    -0.371 OA
ATOM     27  C   UNL A   1      32.542  19.804  23.994  1.00  0.00     0.196 C 
ENDBRANCH  14  26
ENDBRANCH  12  13
ENDBRANCH   8  12
BRANCH  11  28
ATOM     28  C   UNL A   1      30.007  26.981  23.226  1.00  0.00     0.411 C 
ATOM     29  O   UNL A   1      29.027  26.419  23.705  1.00  0.00    -0.224 OA
BRANCH  28  30
ATOM     30  O   UNL A   1      29.935  27.938  22.260  1.00  0.00    -0.444 OA
BRANCH  30  31
ATOM     31  C   UNL A   1      29.465  29.277  22.629  1.00  0.00     0.106 C 
ATOM     32  C   UNL A   1      30.141  29.766  23.920  1.00  0.00     0.056 C 
ATOM     33  C   UNL A   1      29.650  30.292  21.489  1.00  0.00     0.056 C 
ATOM     34  C   UNL A   1      27.951  29.155  22.886  1.00  0.00     0.056 C 
ENDBRANCH  30  31
ENDBRANCH  28  30
ENDBRANCH  11  28
ENDBRANCH   4   7
ENDBRANCH   2   3
ENDBRANCH   1   2
BRANCH   1  35
ATOM     35  C   UNL A   1      33.774  29.418  26.690  1.00  0.00     0.118 C 
BRANCH  35  36
ATOM     36  N   UNL A   1      33.706  30.594  27.547  1.00  0.00    -0.352 N 
ATOM     37  C   UNL A   1      34.637  31.029  28.464  1.00  0.00     0.251 C 
ATOM     38  H   UNL A   1      32.896  31.146  27.460  1.00  0.00     0.163 HD
ATOM     39  O   UNL A   1      34.384  31.947  29.233  1.00  0.00    -0.269 OA
BRANCH  37  40
ATOM     40  C   UNL A   1      35.931  30.323  28.518  1.00  0.00     0.039 A 
ATOM     41  C   UNL A   1      36.310  29.679  29.697  1.00  0.00     0.014 A 
ATOM     42  C   UNL A   1      36.813  30.431  27.444  1.00  0.00     0.014 A 
ATOM     43  C   UNL A   1      37.637  29.316  29.871  1.00  0.00     0.010 A 
ATOM     44  C   UNL A   1      38.122  29.967  27.588  1.00  0.00     0.010 A 
ATOM     45  C   UNL A   1      38.561  29.459  28.821  1.00  0.00    -0.014 A 
BRANCH  45  46
ATOM     46  C   UNL A   1      39.980  29.077  29.040  1.00  0.00     0.031 A 
ATOM     47  C   UNL A   1      40.934  30.010  29.741  1.00  0.00     0.074 A 
ATOM     48  C   UNL A   1      40.394  27.855  28.652  1.00  0.00     0.049 A 
ATOM     49  N   UNL A   1      42.203  29.835  30.009  1.00  0.00    -0.248 NA
ATOM     50  C   UNL A   1      40.403  31.305  30.200  1.00  0.00     0.031 C 
ATOM     51  C   UNL A   1      39.550  26.853  27.997  1.00  0.00     0.029 A 
ATOM     52  N   UNL A   1      41.609  27.231  28.781  1.00  0.00    -0.354 N 
ATOM     53  C   UNL A   1      42.625  30.997  30.645  1.00  0.00     0.074 A 
ATOM     54  C   UNL A   1      41.487  31.886  30.699  1.00  0.00     0.031 C 
ATOM     55  C   UNL A   1      40.249  25.721  27.843  1.00  0.00     0.029 A 
ATOM     56  C   UNL A   1      41.616  25.940  28.304  1.00  0.00     0.049 A 
ATOM     57  H   UNL A   1      42.400  27.664  29.175  1.00  0.00     0.167 HD
ATOM     58  C   UNL A   1      43.849  31.287  31.146  1.00  0.00     0.031 A 
ATOM     59  C   UNL A   1      42.610  25.034  28.226  1.00  0.00     0.031 A 
ATOM     60  C   UNL A   1      44.971  30.384  31.104  1.00  0.00     0.049 A 
ATOM     61  C   UNL A   1      43.970  25.401  28.738  1.00  0.00     0.074 A 
ATOM     62  C   UNL A   1      46.248  30.585  31.599  1.00  0.00     0.029 A 
ATOM     63  N   UNL A   1      44.953  29.114  30.548  1.00  0.00    -0.354 N 
ATOM     64  N   UNL A   1      44.351  26.509  29.327  1.00  0.00    -0.248 NA
ATOM     65  C   UNL A   1      45.037  24.405  28.575  1.00  0.00     0.031 C 
ATOM     66  C   UNL A   1      47.019  29.465  31.283  1.00  0.00     0.029 A 
ATOM     67  C   UNL A   1      46.205  28.532  30.662  1.00  0.00     0.049 A 
ATOM     68  H   UNL A   1      44.168  28.689  30.133  1.00  0.00     0.167 HD
ATOM     69  C   UNL A   1      45.700  26.340  29.614  1.00  0.00     0.074 A 
ATOM     70  C   UNL A   1      46.064  25.016  29.155  1.00  0.00     0.031 C 
ATOM     71  C   UNL A   1      46.557  27.211  30.200  1.00  0.00     0.031 A 
BRANCH  58  72
ATOM     72  C   UNL A   1      44.065  32.633  31.791  1.00  0.00    -0.014 A 
ATOM     73  C   UNL A   1      44.558  33.705  31.022  1.00  0.00     0.010 A 
ATOM     74  C   UNL A   1      43.907  32.807  33.178  1.00  0.00     0.010 A 
ATOM     75  C   UNL A   1      44.923  34.911  31.629  1.00  0.00     0.020 A 
ATOM     76  C   UNL A   1      44.244  34.021  33.786  1.00  0.00     0.020 A 
ATOM     77  C   UNL A   1      44.773  35.056  33.010  1.00  0.00     0.054 A 
BRANCH  77  78
ATOM     78  S   UNL A   1      45.280  36.616  33.786  1.00  0.00     0.124 S 
ATOM     79  O   UNL A   1      46.490  36.952  33.042  1.00  0.00    -0.237 OA
ATOM     80  O   UNL A   1      44.129  37.482  33.547  1.00  0.00    -0.237 OA
ATOM     81  O   UNL A   1      45.489  36.248  35.186  1.00  0.00    -0.744 OA
ENDBRANCH  77  78
ENDBRANCH  58  72
BRANCH  59  82
ATOM     82  C   UNL A   1      42.318  23.694  27.645  1.00  0.00    -0.014 A 
ATOM     83  C   UNL A   1      41.848  22.650  28.465  1.00  0.00     0.010 A 
ATOM     84  C   UNL A   1      42.610  23.425  26.297  1.00  0.00     0.010 A 
ATOM     85  C   UNL A   1      41.748  21.348  27.969  1.00  0.00     0.020 A 
ATOM     86  C   UNL A   1      42.477  22.129  25.787  1.00  0.00     0.020 A 
ATOM     87  C   UNL A   1      42.080  21.094  26.637  1.00  0.00     0.054 A 
BRANCH  87  88
ATOM     88  S   UNL A   1      42.009  19.385  26.036  1.00  0.00     0.124 S 
ATOM     89  O   UNL A   1      42.507  18.641  27.190  1.00  0.00    -0.237 OA
ATOM     90  O   UNL A   1      40.591  19.210  25.737  1.00  0.00    -0.237 OA
ATOM     91  O   UNL A   1      42.890  19.396  24.871  1.00  0.00    -0.744 OA
ENDBRANCH  87  88
ENDBRANCH  59  82
BRANCH  71  92
ATOM     92  C   UNL A   1      47.988  26.780  30.392  1.00  0.00    -0.014 A 
ATOM     93  C   UNL A   1      48.342  26.027  31.527  1.00  0.00     0.010 A 
ATOM     94  C   UNL A   1      48.999  27.243  29.532  1.00  0.00     0.010 A 
ATOM     95  C   UNL A   1      49.685  25.783  31.825  1.00  0.00     0.020 A 
ATOM     96  C   UNL A   1      50.342  26.975  29.811  1.00  0.00     0.020 A 
ATOM     97  C   UNL A   1      50.678  26.272  30.971  1.00  0.00     0.054 A 
BRANCH  97  98
ATOM     98  S   UNL A   1      52.415  25.991  31.403  1.00  0.00     0.124 S 
ATOM     99  O   UNL A   1      53.068  26.034  30.097  1.00  0.00    -0.237 OA
ATOM    100  O   UNL A   1      52.712  27.113  32.291  1.00  0.00    -0.237 OA
ATOM    101  O   UNL A   1      52.401  24.682  32.051  1.00  0.00    -0.744 OA
ENDBRANCH  97  98
ENDBRANCH  71  92
ENDBRANCH  45  46
ENDBRANCH  37  40
ENDBRANCH  35  36
ENDBRANCH   1  35
TORSDOF 19
ENDMDL
MODEL 2
REMARK VINA RESULT:     -11.7      4.301     10.155
REMARK SMILES CO[C@@H]1C[NH2+][C@@H](O[C@@H]2C[C@@H](C(=O)NCCCNC(=O)c3ccc(-c4c5nc(c(-c6ccc(S(=O)(=O)[O-])cc6)c6ccc([nH]6)c(-c6ccc(S(=O)(=O)[O-])cc6)c6nc(c(-c7ccc(S(=O)(=O)[O-])cc7)c7ccc4[nH]7)C=C6)C=C5)cc3)N(C(=O)OC(C)(C)C)C2)c2cc(Cl)ccc21
REMARK SMILES IDX 15 1 14 2 13 3 11 4 12 5 10 7 8 8 9 9 88 10 80 11 7 12 6 13
REMARK SMILES IDX 3 14 4 15 95 16 5 17 89 18 94 19 90 22 93 23 91 24 92 25
REMARK SMILES IDX 2 26 1 27 81 28 82 29 83 30 84 31 85 32 86 33 87 34 16 35
REMARK SMILES IDX 17 36 18 37 19 39 20 40 21 41 79 42 22 43 78 44 23 45 24 46
REMARK SMILES IDX 25 47 72 48 26 49 77 50 71 51 73 52 27 53 76 54 70 55 69 56
REMARK SMILES IDX 28 58 58 59 39 60 57 61 40 62 43 63 56 64 74 65 41 66 42 67
REMARK SMILES IDX 55 69 75 70 44 71 29 72 30 73 38 74 31 75 37 76 32 77 33 78
REMARK SMILES IDX 34 79 35 80 36 81 59 82 60 83 68 84 61 85 67 86 62 87 63 88
REMARK SMILES IDX 64 89 65 90 66 91 45 92 46 93 54 94 47 95 53 96 48 97 49 98
REMARK SMILES IDX 50 99 51 100 52 101
REMARK H PARENT 13 6 5 20 5 21 17 38 73 57 43 68
REMARK Flexibility Score: inf
ROOT
ATOM      1  C   UNL A   1      37.277  24.081  25.222  1.00  0.00     0.042 C 
ENDROOT
BRANCH   1   2
ATOM      2  C   UNL A   1      36.583  22.836  24.692  1.00  0.00     0.117 C 
BRANCH   2   3
ATOM      3  N   UNL A   1      35.780  23.127  23.533  1.00  0.00    -0.354 N 
ATOM      4  C   UNL A   1      34.556  23.678  23.472  1.00  0.00     0.243 C 
ATOM      5  O   UNL A   1      34.359  24.381  22.471  1.00  0.00    -0.273 OA
ATOM      6  H   UNL A   1      36.183  22.891  22.667  1.00  0.00     0.163 HD
BRANCH   4   7
ATOM      7  C   UNL A   1      33.385  23.305  24.392  1.00  0.00     0.180 C 
ATOM      8  C   UNL A   1      32.550  23.671  26.632  1.00  0.00     0.147 C 
ATOM      9  C   UNL A   1      33.611  24.141  25.669  1.00  0.00     0.069 C 
ATOM     10  C   UNL A   1      32.419  22.187  26.290  1.00  0.00     0.156 C 
ATOM     11  N   UNL A   1      32.872  22.034  24.907  1.00  0.00    -0.293 N 
BRANCH   8  12
ATOM     12  O   UNL A   1      31.363  24.437  26.771  1.00  0.00    -0.320 OA
BRANCH  12  13
ATOM     13  C   UNL A   1      30.948  25.618  26.095  1.00  0.00     0.354 C 
ATOM     14  C   UNL A   1      31.437  26.237  23.228  1.00  0.00     0.203 C 
ATOM     15  C   UNL A   1      30.387  25.213  23.749  1.00  0.00     0.300 C 
ATOM     16  C   UNL A   1      32.165  26.999  24.329  1.00  0.00    -0.002 A 
ATOM     17  N   UNL A   1      29.909  25.362  25.118  1.00  0.00    -0.315 N 
ATOM     18  C   UNL A   1      31.944  26.684  25.687  1.00  0.00     0.046 A 
ATOM     19  C   UNL A   1      33.164  27.936  24.001  1.00  0.00     0.009 A 
ATOM     20  H   UNL A   1      29.429  24.503  25.382  1.00  0.00     0.349 HD
ATOM     21  H   UNL A   1      29.299  26.180  25.123  1.00  0.00     0.349 HD
ATOM     22  C   UNL A   1      32.658  27.386  26.680  1.00  0.00     0.033 A 
ATOM     23  C   UNL A   1      33.894  28.590  24.993  1.00  0.00     0.021 A 
ATOM     24  C   UNL A   1      33.627  28.324  26.329  1.00  0.00     0.041 A 
ATOM     25  Cl  UNL A   1      34.514  29.139  27.558  1.00  0.00    -0.084 Cl
BRANCH  14  26
ATOM     26  O   UNL A   1      30.807  27.137  22.310  1.00  0.00    -0.371 OA
ATOM     27  C   UNL A   1      29.805  27.958  22.904  1.00  0.00     0.196 C 
ENDBRANCH  14  26
ENDBRANCH  12  13
ENDBRANCH   8  12
BRANCH  11  28
ATOM     28  C   UNL A   1      32.333  20.961  24.219  1.00  0.00     0.411 C 
ATOM     29  O   UNL A   1      32.116  21.027  23.013  1.00  0.00    -0.224 OA
BRANCH  28  30
ATOM     30  O   UNL A   1      32.122  19.844  24.968  1.00  0.00    -0.444 OA
BRANCH  30  31
ATOM     31  C   UNL A   1      32.914  18.645  24.682  1.00  0.00     0.106 C 
ATOM     32  C   UNL A   1      34.414  18.974  24.609  1.00  0.00     0.056 C 
ATOM     33  C   UNL A   1      32.645  17.516  25.691  1.00  0.00     0.056 C 
ATOM     34  C   UNL A   1      32.458  18.136  23.302  1.00  0.00     0.056 C 
ENDBRANCH  30  31
ENDBRANCH  28  30
ENDBRANCH  11  28
ENDBRANCH   4   7
ENDBRANCH   2   3
ENDBRANCH   1   2
BRANCH   1  35
ATOM     35  C   UNL A   1      38.143  23.862  26.455  1.00  0.00     0.118 C 
BRANCH  35  36
ATOM     36  N   UNL A   1      39.562  23.750  26.145  1.00  0.00    -0.352 N 
ATOM     37  C   UNL A   1      40.578  24.602  26.514  1.00  0.00     0.251 C 
ATOM     38  H   UNL A   1      39.826  22.970  25.606  1.00  0.00     0.163 HD
ATOM     39  O   UNL A   1      41.706  24.476  26.053  1.00  0.00    -0.269 OA
BRANCH  37  40
ATOM     40  C   UNL A   1      40.255  25.696  27.448  1.00  0.00     0.039 A 
ATOM     41  C   UNL A   1      40.885  26.933  27.298  1.00  0.00     0.014 A 
ATOM     42  C   UNL A   1      39.437  25.437  28.547  1.00  0.00     0.014 A 
ATOM     43  C   UNL A   1      40.851  27.840  28.346  1.00  0.00     0.010 A 
ATOM     44  C   UNL A   1      39.323  26.398  29.553  1.00  0.00     0.010 A 
ATOM     45  C   UNL A   1      40.073  27.582  29.489  1.00  0.00    -0.014 A 
BRANCH  45  46
ATOM     46  C   UNL A   1      40.069  28.564  30.605  1.00  0.00     0.031 A 
ATOM     47  C   UNL A   1      41.105  28.499  31.697  1.00  0.00     0.074 A 
ATOM     48  C   UNL A   1      39.154  29.554  30.599  1.00  0.00     0.049 A 
ATOM     49  N   UNL A   1      41.241  29.274  32.744  1.00  0.00    -0.248 NA
ATOM     50  C   UNL A   1      42.118  27.434  31.611  1.00  0.00     0.031 C 
ATOM     51  C   UNL A   1      38.124  29.737  29.573  1.00  0.00     0.029 A 
ATOM     52  N   UNL A   1      38.961  30.608  31.455  1.00  0.00    -0.354 N 
ATOM     53  C   UNL A   1      42.335  28.780  33.447  1.00  0.00     0.074 A 
ATOM     54  C   UNL A   1      42.811  27.621  32.727  1.00  0.00     0.031 C 
ATOM     55  C   UNL A   1      37.455  30.871  29.821  1.00  0.00     0.029 A 
ATOM     56  C   UNL A   1      37.943  31.449  31.068  1.00  0.00     0.049 A 
ATOM     57  H   UNL A   1      39.498  30.750  32.268  1.00  0.00     0.167 HD
ATOM     58  C   UNL A   1      42.893  29.260  34.583  1.00  0.00     0.031 A 
ATOM     59  C   UNL A   1      37.439  32.553  31.654  1.00  0.00     0.031 A 
ATOM     60  C   UNL A   1      42.422  30.429  35.281  1.00  0.00     0.049 A 
ATOM     61  C   UNL A   1      38.041  33.031  32.941  1.00  0.00     0.074 A 
ATOM     62  C   UNL A   1      42.932  30.999  36.434  1.00  0.00     0.029 A 
ATOM     63  N   UNL A   1      41.342  31.209  34.893  1.00  0.00    -0.354 N 
ATOM     64  N   UNL A   1      39.069  32.544  33.595  1.00  0.00    -0.248 NA
ATOM     65  C   UNL A   1      37.420  34.201  33.576  1.00  0.00     0.031 C 
ATOM     66  C   UNL A   1      42.123  32.083  36.779  1.00  0.00     0.029 A 
ATOM     67  C   UNL A   1      41.155  32.238  35.800  1.00  0.00     0.049 A 
ATOM     68  H   UNL A   1      40.791  31.054  34.092  1.00  0.00     0.167 HD
ATOM     69  C   UNL A   1      39.223  33.354  34.714  1.00  0.00     0.074 A 
ATOM     70  C   UNL A   1      38.199  34.375  34.637  1.00  0.00     0.031 C 
ATOM     71  C   UNL A   1      40.130  33.251  35.715  1.00  0.00     0.031 A 
BRANCH  58  72
ATOM     72  C   UNL A   1      44.083  28.537  35.164  1.00  0.00    -0.014 A 
ATOM     73  C   UNL A   1      43.885  27.538  36.137  1.00  0.00     0.010 A 
ATOM     74  C   UNL A   1      45.396  28.931  34.850  1.00  0.00     0.010 A 
ATOM     75  C   UNL A   1      44.973  26.973  36.810  1.00  0.00     0.020 A 
ATOM     76  C   UNL A   1      46.489  28.348  35.500  1.00  0.00     0.020 A 
ATOM     77  C   UNL A   1      46.268  27.390  36.493  1.00  0.00     0.054 A 
BRANCH  77  78
ATOM     78  S   UNL A   1      47.666  26.669  37.397  1.00  0.00     0.124 S 
ATOM     79  O   UNL A   1      47.434  27.147  38.757  1.00  0.00    -0.237 OA
ATOM     80  O   UNL A   1      47.476  25.235  37.189  1.00  0.00    -0.237 OA
ATOM     81  O   UNL A   1      48.835  27.235  36.725  1.00  0.00    -0.744 OA
ENDBRANCH  77  78
ENDBRANCH  58  72
BRANCH  59  82
ATOM     82  C   UNL A   1      36.311  33.266  30.994  1.00  0.00    -0.014 A 
ATOM     83  C   UNL A   1      36.488  33.860  29.730  1.00  0.00     0.010 A 
ATOM     84  C   UNL A   1      35.093  33.450  31.672  1.00  0.00     0.010 A 
ATOM     85  C   UNL A   1      35.498  34.684  29.188  1.00  0.00     0.020 A 
ATOM     86  C   UNL A   1      34.086  34.245  31.116  1.00  0.00     0.020 A 
ATOM     87  C   UNL A   1      34.310  34.884  29.894  1.00  0.00     0.054 A 
BRANCH  87  88
ATOM     88  S   UNL A   1      33.070  36.014  29.205  1.00  0.00     0.124 S 
ATOM     89  O   UNL A   1      32.396  36.490  30.410  1.00  0.00    -0.237 OA
ATOM     90  O   UNL A   1      33.890  37.002  28.510  1.00  0.00    -0.237 OA
ATOM     91  O   UNL A   1      32.269  35.153  28.339  1.00  0.00    -0.744 OA
ENDBRANCH  87  88
ENDBRANCH  59  82
BRANCH  71  92
ATOM     92  C   UNL A   1      40.079  34.265  36.828  1.00  0.00    -0.014 A 
ATOM     93  C   UNL A   1      39.253  34.033  37.944  1.00  0.00     0.010 A 
ATOM     94  C   UNL A   1      40.729  35.506  36.700  1.00  0.00     0.010 A 
ATOM     95  C   UNL A   1      39.042  35.038  38.890  1.00  0.00     0.020 A 
ATOM     96  C   UNL A   1      40.543  36.503  37.661  1.00  0.00     0.020 A 
ATOM     97  C   UNL A   1      39.677  36.274  38.733  1.00  0.00     0.054 A 
BRANCH  97  98
ATOM     98  S   UNL A   1      39.347  37.583  39.942  1.00  0.00     0.124 S 
ATOM     99  O   UNL A   1      38.258  38.320  39.308  1.00  0.00    -0.237 OA
ATOM    100  O   UNL A   1      38.984  36.831  41.141  1.00  0.00    -0.237 OA
ATOM    101  O   UNL A   1      40.618  38.299  40.028  1.00  0.00    -0.744 OA
ENDBRANCH  97  98
ENDBRANCH  71  92
ENDBRANCH  45  46
ENDBRANCH  37  40
ENDBRANCH  35  36
ENDBRANCH   1  35
TORSDOF 19
ENDMDL
MODEL 3
REMARK VINA RESULT:     -11.5      3.223      8.111
REMARK SMILES CO[C@@H]1C[NH2+][C@@H](O[C@@H]2C[C@@H](C(=O)NCCCNC(=O)c3ccc(-c4c5nc(c(-c6ccc(S(=O)(=O)[O-])cc6)c6ccc([nH]6)c(-c6ccc(S(=O)(=O)[O-])cc6)c6nc(c(-c7ccc(S(=O)(=O)[O-])cc7)c7ccc4[nH]7)C=C6)C=C5)cc3)N(C(=O)OC(C)(C)C)C2)c2cc(Cl)ccc21
REMARK SMILES IDX 15 1 14 2 13 3 11 4 12 5 10 7 8 8 9 9 88 10 80 11 7 12 6 13
REMARK SMILES IDX 3 14 4 15 95 16 5 17 89 18 94 19 90 22 93 23 91 24 92 25
REMARK SMILES IDX 2 26 1 27 81 28 82 29 83 30 84 31 85 32 86 33 87 34 16 35
REMARK SMILES IDX 17 36 18 37 19 39 20 40 21 41 79 42 22 43 78 44 23 45 24 46
REMARK SMILES IDX 25 47 72 48 26 49 77 50 71 51 73 52 27 53 76 54 70 55 69 56
REMARK SMILES IDX 28 58 58 59 39 60 57 61 40 62 43 63 56 64 74 65 41 66 42 67
REMARK SMILES IDX 55 69 75 70 44 71 29 72 30 73 38 74 31 75 37 76 32 77 33 78
REMARK SMILES IDX 34 79 35 80 36 81 59 82 60 83 68 84 61 85 67 86 62 87 63 88
REMARK SMILES IDX 64 89 65 90 66 91 45 92 46 93 54 94 47 95 53 96 48 97 49 98
REMARK SMILES IDX 50 99 51 100 52 101
REMARK H PARENT 13 6 5 20 5 21 17 38 73 57 43 68
REMARK Flexibility Score: inf
ROOT
ATOM      1  C   UNL A   1      37.745  21.397  24.929  1.00  0.00     0.042 C 
ENDROOT
BRANCH   1   2
ATOM      2  C   UNL A   1      36.626  22.369  25.268  1.00  0.00     0.117 C 
BRANCH   2   3
ATOM      3  N   UNL A   1      36.013  22.909  24.082  1.00  0.00    -0.354 N 
ATOM      4  C   UNL A   1      34.881  23.623  23.968  1.00  0.00     0.243 C 
ATOM      5  O   UNL A   1      34.896  24.468  23.061  1.00  0.00    -0.273 OA
ATOM      6  H   UNL A   1      36.490  22.731  23.240  1.00  0.00     0.163 HD
BRANCH   4   7
ATOM      7  C   UNL A   1      33.568  23.300  24.696  1.00  0.00     0.180 C 
ATOM      8  C   UNL A   1      32.487  23.550  26.844  1.00  0.00     0.147 C 
ATOM      9  C   UNL A   1      33.706  23.986  26.071  1.00  0.00     0.069 C 
ATOM     10  C   UNL A   1      32.257  22.127  26.335  1.00  0.00     0.156 C 
ATOM     11  N   UNL A   1      32.870  22.052  25.009  1.00  0.00    -0.293 N 
BRANCH   8  12
ATOM     12  O   UNL A   1      31.372  24.426  26.918  1.00  0.00    -0.320 OA
BRANCH  12  13
ATOM     13  C   UNL A   1      31.023  25.537  26.100  1.00  0.00     0.354 C 
ATOM     14  C   UNL A   1      31.709  25.857  23.225  1.00  0.00     0.203 C 
ATOM     15  C   UNL A   1      30.610  24.902  23.774  1.00  0.00     0.300 C 
ATOM     16  C   UNL A   1      32.376  26.720  24.290  1.00  0.00    -0.002 A 
ATOM     17  N   UNL A   1      30.046  25.194  25.086  1.00  0.00    -0.315 N 
ATOM     18  C   UNL A   1      32.061  26.546  25.655  1.00  0.00     0.046 A 
ATOM     19  C   UNL A   1      33.410  27.608  23.937  1.00  0.00     0.009 A 
ATOM     20  H   UNL A   1      29.535  24.370  25.403  1.00  0.00     0.349 HD
ATOM     21  H   UNL A   1      29.451  26.014  24.969  1.00  0.00     0.349 HD
ATOM     22  C   UNL A   1      32.719  27.338  26.617  1.00  0.00     0.033 A 
ATOM     23  C   UNL A   1      34.084  28.352  24.905  1.00  0.00     0.021 A 
ATOM     24  C   UNL A   1      33.725  28.226  26.241  1.00  0.00     0.041 A 
ATOM     25  Cl  UNL A   1      34.543  29.152  27.438  1.00  0.00    -0.084 Cl
BRANCH  14  26
ATOM     26  O   UNL A   1      31.156  26.665  22.180  1.00  0.00    -0.371 OA
ATOM     27  C   UNL A   1      30.205  27.624  22.637  1.00  0.00     0.196 C 
ENDBRANCH  14  26
ENDBRANCH  12  13
ENDBRANCH   8  12
BRANCH  11  28
ATOM     28  C   UNL A   1      32.324  21.113  24.153  1.00  0.00     0.411 C 
ATOM     29  O   UNL A   1      32.185  21.351  22.957  1.00  0.00    -0.224 OA
BRANCH  28  30
ATOM     30  O   UNL A   1      32.014  19.919  24.729  1.00  0.00    -0.444 OA
BRANCH  30  31
ATOM     31  C   UNL A   1      32.921  18.785  24.533  1.00  0.00     0.106 C 
ATOM     32  C   UNL A   1      32.637  18.072  23.201  1.00  0.00     0.056 C 
ATOM     33  C   UNL A   1      34.399  19.198  24.635  1.00  0.00     0.056 C 
ATOM     34  C   UNL A   1      32.646  17.799  25.684  1.00  0.00     0.056 C 
ENDBRANCH  30  31
ENDBRANCH  28  30
ENDBRANCH  11  28
ENDBRANCH   4   7
ENDBRANCH   2   3
ENDBRANCH   1   2
BRANCH   1  35
ATOM     35  C   UNL A   1      38.932  21.423  25.882  1.00  0.00     0.118 C 
BRANCH  35  36
ATOM     36  N   UNL A   1      39.596  20.132  26.004  1.00  0.00    -0.352 N 
ATOM     37  C   UNL A   1      40.940  19.884  26.172  1.00  0.00     0.251 C 
ATOM     38  H   UNL A   1      39.013  19.340  25.962  1.00  0.00     0.163 HD
ATOM     39  O   UNL A   1      41.386  18.746  26.101  1.00  0.00    -0.269 OA
BRANCH  37  40
ATOM     40  C   UNL A   1      41.830  21.038  26.395  1.00  0.00     0.039 A 
ATOM     41  C   UNL A   1      42.111  21.443  27.702  1.00  0.00     0.014 A 
ATOM     42  C   UNL A   1      42.260  21.790  25.303  1.00  0.00     0.014 A 
ATOM     43  C   UNL A   1      42.652  22.702  27.917  1.00  0.00     0.010 A 
ATOM     44  C   UNL A   1      42.900  23.011  25.526  1.00  0.00     0.010 A 
ATOM     45  C   UNL A   1      43.050  23.504  26.832  1.00  0.00    -0.014 A 
BRANCH  45  46
ATOM     46  C   UNL A   1      43.612  24.855  27.091  1.00  0.00     0.031 A 
ATOM     47  C   UNL A   1      42.764  25.942  27.700  1.00  0.00     0.074 A 
ATOM     48  C   UNL A   1      44.913  25.083  26.824  1.00  0.00     0.049 A 
ATOM     49  N   UNL A   1      43.096  27.175  27.987  1.00  0.00    -0.248 NA
ATOM     50  C   UNL A   1      41.368  25.611  28.031  1.00  0.00     0.031 C 
ATOM     51  C   UNL A   1      45.839  24.094  26.266  1.00  0.00     0.029 A 
ATOM     52  N   UNL A   1      45.691  26.195  27.015  1.00  0.00    -0.354 N 
ATOM     53  C   UNL A   1      41.953  27.769  28.509  1.00  0.00     0.074 A 
ATOM     54  C   UNL A   1      40.906  26.773  28.474  1.00  0.00     0.031 C 
ATOM     55  C   UNL A   1      47.070  24.620  26.224  1.00  0.00     0.029 A 
ATOM     56  C   UNL A   1      47.009  26.009  26.665  1.00  0.00     0.049 A 
ATOM     57  H   UNL A   1      45.342  27.045  27.368  1.00  0.00     0.167 HD
ATOM     58  C   UNL A   1      41.797  29.028  28.983  1.00  0.00     0.031 A 
ATOM     59  C   UNL A   1      48.054  26.860  26.677  1.00  0.00     0.031 A 
ATOM     60  C   UNL A   1      42.853  30.006  29.031  1.00  0.00     0.049 A 
ATOM     61  C   UNL A   1      47.841  28.265  27.155  1.00  0.00     0.074 A 
ATOM     62  C   UNL A   1      42.794  31.305  29.507  1.00  0.00     0.029 A 
ATOM     63  N   UNL A   1      44.155  29.797  28.600  1.00  0.00    -0.354 N 
ATOM     64  N   UNL A   1      46.749  28.810  27.635  1.00  0.00    -0.248 NA
ATOM     65  C   UNL A   1      48.994  29.174  27.091  1.00  0.00     0.031 C 
ATOM     66  C   UNL A   1      44.040  31.901  29.303  1.00  0.00     0.029 A 
ATOM     67  C   UNL A   1      44.899  30.953  28.773  1.00  0.00     0.049 A 
ATOM     68  H   UNL A   1      44.499  28.954  28.226  1.00  0.00     0.167 HD
ATOM     69  C   UNL A   1      47.085  30.123  27.941  1.00  0.00     0.074 A 
ATOM     70  C   UNL A   1      48.486  30.285  27.612  1.00  0.00     0.031 C 
ATOM     71  C   UNL A   1      46.296  31.104  28.442  1.00  0.00     0.031 A 
BRANCH  58  72
ATOM     72  C   UNL A   1      40.441  29.444  29.496  1.00  0.00    -0.014 A 
ATOM     73  C   UNL A   1      39.473  29.929  28.595  1.00  0.00     0.010 A 
ATOM     74  C   UNL A   1      40.166  29.482  30.875  1.00  0.00     0.010 A 
ATOM     75  C   UNL A   1      38.274  30.476  29.062  1.00  0.00     0.020 A 
ATOM     76  C   UNL A   1      38.956  30.001  31.345  1.00  0.00     0.020 A 
ATOM     77  C   UNL A   1      38.029  30.517  30.437  1.00  0.00     0.054 A 
BRANCH  77  78
ATOM     78  S   UNL A   1      36.481  31.258  31.028  1.00  0.00     0.124 S 
ATOM     79  O   UNL A   1      36.944  32.510  31.619  1.00  0.00    -0.237 OA
ATOM     80  O   UNL A   1      35.699  31.388  29.801  1.00  0.00    -0.237 OA
ATOM     81  O   UNL A   1      35.971  30.269  31.977  1.00  0.00    -0.744 OA
ENDBRANCH  77  78
ENDBRANCH  58  72
BRANCH  59  82
ATOM     82  C   UNL A   1      49.386  26.370  26.228  1.00  0.00    -0.014 A 
ATOM     83  C   UNL A   1      50.240  25.704  27.128  1.00  0.00     0.010 A 
ATOM     84  C   UNL A   1      49.851  26.661  24.934  1.00  0.00     0.010 A 
ATOM     85  C   UNL A   1      51.557  25.406  26.769  1.00  0.00     0.020 A 
ATOM     86  C   UNL A   1      51.158  26.331  24.559  1.00  0.00     0.020 A 
ATOM     87  C   UNL A   1      52.011  25.738  25.492  1.00  0.00     0.054 A 
BRANCH  87  88
ATOM     88  S   UNL A   1      53.744  25.405  25.073  1.00  0.00     0.124 S 
ATOM     89  O   UNL A   1      53.831  23.963  25.282  1.00  0.00    -0.237 OA
ATOM     90  O   UNL A   1      53.827  25.846  23.683  1.00  0.00    -0.237 OA
ATOM     91  O   UNL A   1      54.489  26.222  26.027  1.00  0.00    -0.744 OA
ENDBRANCH  87  88
ENDBRANCH  59  82
BRANCH  71  92
ATOM     92  C   UNL A   1      46.910  32.459  28.678  1.00  0.00    -0.014 A 
ATOM     93  C   UNL A   1      46.933  33.405  27.636  1.00  0.00     0.010 A 
ATOM     94  C   UNL A   1      47.591  32.740  29.876  1.00  0.00     0.010 A 
ATOM     95  C   UNL A   1      47.663  34.588  27.769  1.00  0.00     0.020 A 
ATOM     96  C   UNL A   1      48.297  33.937  30.023  1.00  0.00     0.020 A 
ATOM     97  C   UNL A   1      48.353  34.840  28.958  1.00  0.00     0.054 A 
BRANCH  97  98
ATOM     98  S   UNL A   1      49.339  36.355  29.091  1.00  0.00     0.124 S 
ATOM     99  O   UNL A   1      50.374  36.138  28.085  1.00  0.00    -0.237 OA
ATOM    100  O   UNL A   1      48.366  37.400  28.777  1.00  0.00    -0.237 OA
ATOM    101  O   UNL A   1      49.802  36.344  30.476  1.00  0.00    -0.744 OA
ENDBRANCH  97  98
ENDBRANCH  71  92
ENDBRANCH  45  46
ENDBRANCH  37  40
ENDBRANCH  35  36
ENDBRANCH   1  35
TORSDOF 19
ENDMDL
