MODEL 1
REMARK VINA RESULT:     -11.7      0.000      0.000
REMARK SMILES O=C(NCCCNC(=O)[C@]1(CCc2cccnc2)CCC[NH2+]C1)c1ccc(-c2c3nc(c(-c4ccc(S(=O)(=O)[O-])cc4)c4ccc([nH]4)c(-c4ccc(S(=O)(=O)[O-])cc4)c4nc(c(-c5ccc(S(=O)(=O)[O-])cc5)c5ccc2[nH]5)C=C4)C=C3)cc1
REMARK SMILES IDX 5 1 4 2 3 3 1 4 2 5 24 7 25 8 83 9 26 10 82 11 27 12 28 13
REMARK SMILES IDX 29 14 76 15 30 16 81 17 75 18 77 19 31 20 80 21 74 22 73 23
REMARK SMILES IDX 32 25 62 26 43 27 61 28 44 29 47 30 60 31 78 32 45 33 46 34
REMARK SMILES IDX 59 36 79 37 48 38 33 39 34 40 42 41 35 42 41 43 36 44 37 45
REMARK SMILES IDX 38 46 39 47 40 48 63 49 64 50 72 51 65 52 71 53 66 54 67 55
REMARK SMILES IDX 68 56 69 57 70 58 49 59 50 60 58 61 51 62 57 63 52 64 53 65
REMARK SMILES IDX 54 66 55 67 56 68 6 69 7 70 8 71 9 73 10 74 19 75 23 76
REMARK SMILES IDX 20 77 22 78 21 79 11 82 12 83 13 84 14 85 18 86 15 87 17 88
REMARK SMILES IDX 16 89
REMARK H PARENT 3 6 77 24 47 35 7 72 22 80 22 81
REMARK Flexibility Score: inf
ROOT
ATOM      1  C   UNL A   1      34.055  30.570  27.258  1.00  0.00     0.042 C 
ENDROOT
BRANCH   1   2
ATOM      2  C   UNL A   1      35.336  29.991  27.838  1.00  0.00     0.118 C 
BRANCH   2   3
ATOM      3  N   UNL A   1      35.434  30.131  29.293  1.00  0.00    -0.352 N 
ATOM      4  O   UNL A   1      36.308  29.817  31.358  1.00  0.00    -0.269 OA
ATOM      5  C   UNL A   1      36.452  29.756  30.140  1.00  0.00     0.251 C 
ATOM      6  H   UNL A   1      34.658  30.554  29.728  1.00  0.00     0.163 HD
BRANCH   5   7
ATOM      7  C   UNL A   1      37.705  29.254  29.547  1.00  0.00     0.039 A 
ATOM      8  C   UNL A   1      38.592  28.545  30.355  1.00  0.00     0.014 A 
ATOM      9  C   UNL A   1      38.049  29.586  28.235  1.00  0.00     0.014 A 
ATOM     10  C   UNL A   1      39.902  28.394  29.942  1.00  0.00     0.010 A 
ATOM     11  C   UNL A   1      39.335  29.298  27.769  1.00  0.00     0.010 A 
ATOM     12  C   UNL A   1      40.290  28.751  28.639  1.00  0.00    -0.014 A 
BRANCH  12  13
ATOM     13  C   UNL A   1      41.698  28.493  28.237  1.00  0.00     0.031 A 
ATOM     14  C   UNL A   1      42.762  29.552  28.361  1.00  0.00     0.074 A 
ATOM     15  C   UNL A   1      42.022  27.240  27.859  1.00  0.00     0.049 A 
ATOM     16  N   UNL A   1      44.043  29.454  28.110  1.00  0.00    -0.248 NA
ATOM     17  C   UNL A   1      42.346  30.890  28.811  1.00  0.00     0.031 C 
ATOM     18  C   UNL A   1      41.067  26.136  27.704  1.00  0.00     0.029 A 
ATOM     19  N   UNL A   1      43.235  26.662  27.601  1.00  0.00    -0.354 N 
ATOM     20  C   UNL A   1      44.578  30.717  28.335  1.00  0.00     0.074 A 
ATOM     21  C   UNL A   1      43.483  31.571  28.737  1.00  0.00     0.031 C 
ATOM     22  C   UNL A   1      41.739  24.999  27.481  1.00  0.00     0.029 A 
ATOM     23  C   UNL A   1      43.158  25.307  27.381  1.00  0.00     0.049 A 
ATOM     24  H   UNL A   1      44.081  27.167  27.573  1.00  0.00     0.167 HD
ATOM     25  C   UNL A   1      45.866  31.123  28.212  1.00  0.00     0.031 A 
ATOM     26  C   UNL A   1      44.119  24.406  27.112  1.00  0.00     0.031 A 
ATOM     27  C   UNL A   1      46.952  30.257  27.830  1.00  0.00     0.049 A 
ATOM     28  C   UNL A   1      45.535  24.879  27.009  1.00  0.00     0.074 A 
ATOM     29  C   UNL A   1      48.290  30.572  27.661  1.00  0.00     0.029 A 
ATOM     30  N   UNL A   1      46.827  28.899  27.573  1.00  0.00    -0.354 N 
ATOM     31  N   UNL A   1      46.008  26.090  27.185  1.00  0.00    -0.248 NA
ATOM     32  C   UNL A   1      46.543  23.874  26.654  1.00  0.00     0.031 C 
ATOM     33  C   UNL A   1      48.968  29.410  27.272  1.00  0.00     0.029 A 
ATOM     34  C   UNL A   1      48.061  28.364  27.241  1.00  0.00     0.049 A 
ATOM     35  H   UNL A   1      45.985  28.390  27.619  1.00  0.00     0.167 HD
ATOM     36  C   UNL A   1      47.372  25.997  26.943  1.00  0.00     0.074 A 
ATOM     37  C   UNL A   1      47.651  24.603  26.655  1.00  0.00     0.031 C 
ATOM     38  C   UNL A   1      48.306  26.979  26.937  1.00  0.00     0.031 A 
BRANCH  25  39
ATOM     39  C   UNL A   1      46.175  32.575  28.466  1.00  0.00    -0.014 A 
ATOM     40  C   UNL A   1      46.574  33.025  29.738  1.00  0.00     0.010 A 
ATOM     41  C   UNL A   1      46.134  33.493  27.400  1.00  0.00     0.010 A 
ATOM     42  C   UNL A   1      46.906  34.368  29.942  1.00  0.00     0.020 A 
ATOM     43  C   UNL A   1      46.483  34.834  27.595  1.00  0.00     0.020 A 
ATOM     44  C   UNL A   1      46.857  35.265  28.869  1.00  0.00     0.054 A 
BRANCH  44  45
ATOM     45  S   UNL A   1      47.331  36.995  29.151  1.00  0.00     0.124 S 
ATOM     46  O   UNL A   1      48.684  37.028  28.602  1.00  0.00    -0.237 OA
ATOM     47  O   UNL A   1      46.328  37.732  28.389  1.00  0.00    -0.237 OA
ATOM     48  O   UNL A   1      47.243  37.146  30.601  1.00  0.00    -0.744 OA
ENDBRANCH  44  45
ENDBRANCH  25  39
BRANCH  26  49
ATOM     49  C   UNL A   1      43.750  22.986  26.874  1.00  0.00    -0.014 A 
ATOM     50  C   UNL A   1      42.892  22.304  27.753  1.00  0.00     0.010 A 
ATOM     51  C   UNL A   1      44.230  22.322  25.729  1.00  0.00     0.010 A 
ATOM     52  C   UNL A   1      42.526  20.979  27.494  1.00  0.00     0.020 A 
ATOM     53  C   UNL A   1      43.842  21.011  25.453  1.00  0.00     0.020 A 
ATOM     54  C   UNL A   1      43.002  20.342  26.344  1.00  0.00     0.054 A 
BRANCH  54  55
ATOM     55  S   UNL A   1      42.470  18.646  25.983  1.00  0.00     0.124 S 
ATOM     56  O   UNL A   1      41.035  18.815  25.789  1.00  0.00    -0.237 OA
ATOM     57  O   UNL A   1      43.239  18.315  24.784  1.00  0.00    -0.237 OA
ATOM     58  O   UNL A   1      42.861  17.908  27.183  1.00  0.00    -0.744 OA
ENDBRANCH  54  55
ENDBRANCH  26  49
BRANCH  38  59
ATOM     59  C   UNL A   1      49.707  26.561  26.599  1.00  0.00    -0.014 A 
ATOM     60  C   UNL A   1      50.216  26.749  25.301  1.00  0.00     0.010 A 
ATOM     61  C   UNL A   1      50.516  25.967  27.581  1.00  0.00     0.010 A 
ATOM     62  C   UNL A   1      51.499  26.304  24.979  1.00  0.00     0.020 A 
ATOM     63  C   UNL A   1      51.809  25.540  27.266  1.00  0.00     0.020 A 
ATOM     64  C   UNL A   1      52.282  25.692  25.961  1.00  0.00     0.054 A 
BRANCH  64  65
ATOM     65  S   UNL A   1      53.946  25.118  25.524  1.00  0.00     0.124 S 
ATOM     66  O   UNL A   1      54.732  25.576  26.666  1.00  0.00    -0.237 OA
ATOM     67  O   UNL A   1      53.773  23.671  25.420  1.00  0.00    -0.237 OA
ATOM     68  O   UNL A   1      54.223  25.798  24.261  1.00  0.00    -0.744 OA
ENDBRANCH  64  65
ENDBRANCH  38  59
ENDBRANCH  12  13
ENDBRANCH   5   7
ENDBRANCH   2   3
ENDBRANCH   1   2
BRANCH   1  69
ATOM     69  C   UNL A   1      33.207  29.522  26.579  1.00  0.00     0.117 C 
BRANCH  69  70
ATOM     70  N   UNL A   1      33.689  29.189  25.254  1.00  0.00    -0.355 N 
ATOM     71  C   UNL A   1      33.424  28.185  24.382  1.00  0.00     0.231 C 
ATOM     72  H   UNL A   1      34.352  29.832  24.913  1.00  0.00     0.163 HD
ATOM     73  O   UNL A   1      33.875  28.354  23.244  1.00  0.00    -0.274 OA
BRANCH  71  74
ATOM     74  C   UNL A   1      32.533  26.974  24.718  1.00  0.00     0.098 C 
ATOM     75  C   UNL A   1      33.092  26.020  25.805  1.00  0.00     0.028 C 
ATOM     76  C   UNL A   1      32.473  26.074  23.429  1.00  0.00     0.277 C 
ATOM     77  C   UNL A   1      34.467  25.473  25.410  1.00  0.00     0.063 C 
ATOM     78  N   UNL A   1      33.753  25.472  23.046  1.00  0.00    -0.345 N 
ATOM     79  C   UNL A   1      34.374  24.689  24.105  1.00  0.00     0.260 C 
ATOM     80  H   UNL A   1      33.595  24.860  22.245  1.00  0.00     0.346 HD
ATOM     81  H   UNL A   1      34.391  26.239  22.831  1.00  0.00     0.346 HD
BRANCH  74  82
ATOM     82  C   UNL A   1      31.056  27.426  25.008  1.00  0.00     0.028 C 
BRANCH  82  83
ATOM     83  C   UNL A   1      29.917  27.172  23.995  1.00  0.00     0.038 C 
BRANCH  83  84
ATOM     84  C   UNL A   1      29.460  28.295  23.087  1.00  0.00    -0.030 A 
ATOM     85  C   UNL A   1      28.111  28.680  23.073  1.00  0.00     0.007 A 
ATOM     86  C   UNL A   1      30.304  28.993  22.229  1.00  0.00     0.114 A 
ATOM     87  C   UNL A   1      27.695  29.779  22.324  1.00  0.00     0.020 A 
ATOM     88  N   UNL A   1      29.921  30.040  21.458  1.00  0.00    -0.264 NA
ATOM     89  C   UNL A   1      28.634  30.430  21.548  1.00  0.00     0.111 A 
ENDBRANCH  83  84
ENDBRANCH  82  83
ENDBRANCH  74  82
ENDBRANCH  71  74
ENDBRANCH  69  70
ENDBRANCH   1  69
TORSDOF 16
ENDMDL
MODEL 2
REMARK VINA RESULT:     -11.7      2.918      9.327
REMARK SMILES O=C(NCCCNC(=O)[C@]1(CCc2cccnc2)CCC[NH2+]C1)c1ccc(-c2c3nc(c(-c4ccc(S(=O)(=O)[O-])cc4)c4ccc([nH]4)c(-c4ccc(S(=O)(=O)[O-])cc4)c4nc(c(-c5ccc(S(=O)(=O)[O-])cc5)c5ccc2[nH]5)C=C4)C=C3)cc1
REMARK SMILES IDX 5 1 4 2 3 3 1 4 2 5 24 7 25 8 83 9 26 10 82 11 27 12 28 13
REMARK SMILES IDX 29 14 76 15 30 16 81 17 75 18 77 19 31 20 80 21 74 22 73 23
REMARK SMILES IDX 32 25 62 26 43 27 61 28 44 29 47 30 60 31 78 32 45 33 46 34
REMARK SMILES IDX 59 36 79 37 48 38 33 39 34 40 42 41 35 42 41 43 36 44 37 45
REMARK SMILES IDX 38 46 39 47 40 48 63 49 64 50 72 51 65 52 71 53 66 54 67 55
REMARK SMILES IDX 68 56 69 57 70 58 49 59 50 60 58 61 51 62 57 63 52 64 53 65
REMARK SMILES IDX 54 66 55 67 56 68 6 69 7 70 8 71 9 73 10 74 19 75 23 76
REMARK SMILES IDX 20 77 22 78 21 79 11 82 12 83 13 84 14 85 18 86 15 87 17 88
REMARK SMILES IDX 16 89
REMARK H PARENT 3 6 77 24 47 35 7 72 22 80 22 81
REMARK Flexibility Score: inf
ROOT
ATOM      1  C   UNL A   1      32.053  28.100  26.833  1.00  0.00     0.042 C 
ENDROOT
BRANCH   1   2
ATOM      2  C   UNL A   1      33.424  28.603  27.257  1.00  0.00     0.118 C 
BRANCH   2   3
ATOM      3  N   UNL A   1      33.423  30.003  27.690  1.00  0.00    -0.352 N 
ATOM      4  O   UNL A   1      34.213  31.865  28.706  1.00  0.00    -0.269 OA
ATOM      5  C   UNL A   1      34.431  30.738  28.273  1.00  0.00     0.251 C 
ATOM      6  H   UNL A   1      32.579  30.488  27.543  1.00  0.00     0.163 HD
BRANCH   5   7
ATOM      7  C   UNL A   1      35.767  30.123  28.387  1.00  0.00     0.039 A 
ATOM      8  C   UNL A   1      36.150  29.577  29.610  1.00  0.00     0.014 A 
ATOM      9  C   UNL A   1      36.671  30.196  27.326  1.00  0.00     0.014 A 
ATOM     10  C   UNL A   1      37.491  29.342  29.849  1.00  0.00     0.010 A 
ATOM     11  C   UNL A   1      38.001  29.816  27.531  1.00  0.00     0.010 A 
ATOM     12  C   UNL A   1      38.433  29.440  28.811  1.00  0.00    -0.014 A 
BRANCH  12  13
ATOM     13  C   UNL A   1      39.847  29.101  29.121  1.00  0.00     0.031 A 
ATOM     14  C   UNL A   1      40.455  27.788  28.704  1.00  0.00     0.074 A 
ATOM     15  C   UNL A   1      40.608  30.055  29.696  1.00  0.00     0.049 A 
ATOM     16  N   UNL A   1      41.690  27.379  28.850  1.00  0.00    -0.248 NA
ATOM     17  C   UNL A   1      39.576  26.804  28.052  1.00  0.00     0.031 C 
ATOM     18  C   UNL A   1      40.119  31.365  30.142  1.00  0.00     0.029 A 
ATOM     19  N   UNL A   1      41.953  30.106  29.945  1.00  0.00    -0.354 N 
ATOM     20  C   UNL A   1      41.729  26.084  28.344  1.00  0.00     0.074 A 
ATOM     21  C   UNL A   1      40.392  25.769  27.892  1.00  0.00     0.031 C 
ATOM     22  C   UNL A   1      41.160  32.122  30.511  1.00  0.00     0.029 A 
ATOM     23  C   UNL A   1      42.374  31.325  30.420  1.00  0.00     0.049 A 
ATOM     24  H   UNL A   1      42.560  29.343  29.799  1.00  0.00     0.167 HD
ATOM     25  C   UNL A   1      42.786  25.238  28.269  1.00  0.00     0.031 A 
ATOM     26  C   UNL A   1      43.600  31.757  30.763  1.00  0.00     0.031 A 
ATOM     27  C   UNL A   1      44.118  25.571  28.705  1.00  0.00     0.049 A 
ATOM     28  C   UNL A   1      44.752  30.809  30.645  1.00  0.00     0.074 A 
ATOM     29  C   UNL A   1      45.255  24.781  28.688  1.00  0.00     0.029 A 
ATOM     30  N   UNL A   1      44.496  26.802  29.222  1.00  0.00    -0.354 N 
ATOM     31  N   UNL A   1      44.753  29.574  30.202  1.00  0.00    -0.248 NA
ATOM     32  C   UNL A   1      46.060  31.302  31.086  1.00  0.00     0.031 C 
ATOM     33  C   UNL A   1      46.314  25.525  29.223  1.00  0.00     0.029 A 
ATOM     34  C   UNL A   1      45.846  26.791  29.533  1.00  0.00     0.049 A 
ATOM     35  H   UNL A   1      43.894  27.570  29.349  1.00  0.00     0.167 HD
ATOM     36  C   UNL A   1      46.063  29.133  30.331  1.00  0.00     0.074 A 
ATOM     37  C   UNL A   1      46.831  30.249  30.847  1.00  0.00     0.031 C 
ATOM     38  C   UNL A   1      46.580  27.908  30.067  1.00  0.00     0.031 A 
BRANCH  25  39
ATOM     39  C   UNL A   1      42.545  23.856  27.720  1.00  0.00    -0.014 A 
ATOM     40  C   UNL A   1      42.779  23.557  26.366  1.00  0.00     0.010 A 
ATOM     41  C   UNL A   1      42.147  22.822  28.588  1.00  0.00     0.010 A 
ATOM     42  C   UNL A   1      42.599  22.256  25.887  1.00  0.00     0.020 A 
ATOM     43  C   UNL A   1      41.984  21.514  28.117  1.00  0.00     0.020 A 
ATOM     44  C   UNL A   1      42.201  21.243  26.765  1.00  0.00     0.054 A 
BRANCH  44  45
ATOM     45  S   UNL A   1      42.013  19.554  26.125  1.00  0.00     0.124 S 
ATOM     46  O   UNL A   1      42.507  18.753  27.243  1.00  0.00    -0.237 OA
ATOM     47  O   UNL A   1      40.577  19.462  25.876  1.00  0.00    -0.237 OA
ATOM     48  O   UNL A   1      42.852  19.540  24.931  1.00  0.00    -0.744 OA
ENDBRANCH  44  45
ENDBRANCH  25  39
BRANCH  26  49
ATOM     49  C   UNL A   1      43.773  33.134  31.296  1.00  0.00    -0.014 A 
ATOM     50  C   UNL A   1      44.091  34.204  30.444  1.00  0.00     0.010 A 
ATOM     51  C   UNL A   1      43.572  33.384  32.666  1.00  0.00     0.010 A 
ATOM     52  C   UNL A   1      44.215  35.500  30.956  1.00  0.00     0.020 A 
ATOM     53  C   UNL A   1      43.663  34.680  33.175  1.00  0.00     0.020 A 
ATOM     54  C   UNL A   1      43.998  35.729  32.318  1.00  0.00     0.054 A 
BRANCH  54  55
ATOM     55  S   UNL A   1      44.095  37.422  32.961  1.00  0.00     0.124 S 
ATOM     56  O   UNL A   1      43.042  37.423  33.970  1.00  0.00    -0.237 OA
ATOM     57  O   UNL A   1      45.463  37.496  33.471  1.00  0.00    -0.237 OA
ATOM     58  O   UNL A   1      43.838  38.245  31.781  1.00  0.00    -0.744 OA
ENDBRANCH  54  55
ENDBRANCH  26  49
BRANCH  38  59
ATOM     59  C   UNL A   1      48.043  27.731  30.346  1.00  0.00    -0.014 A 
ATOM     60  C   UNL A   1      49.003  28.053  29.369  1.00  0.00     0.010 A 
ATOM     61  C   UNL A   1      48.462  27.229  31.590  1.00  0.00     0.010 A 
ATOM     62  C   UNL A   1      50.358  27.830  29.616  1.00  0.00     0.020 A 
ATOM     63  C   UNL A   1      49.820  27.025  31.847  1.00  0.00     0.020 A 
ATOM     64  C   UNL A   1      50.757  27.307  30.849  1.00  0.00     0.054 A 
BRANCH  64  65
ATOM     65  S   UNL A   1      52.522  27.021  31.151  1.00  0.00     0.124 S 
ATOM     66  O   UNL A   1      53.110  28.285  30.718  1.00  0.00    -0.237 OA
ATOM     67  O   UNL A   1      52.568  26.767  32.589  1.00  0.00    -0.237 OA
ATOM     68  O   UNL A   1      52.831  25.866  30.311  1.00  0.00    -0.744 OA
ENDBRANCH  64  65
ENDBRANCH  38  59
ENDBRANCH  12  13
ENDBRANCH   5   7
ENDBRANCH   2   3
ENDBRANCH   1   2
BRANCH   1  69
ATOM     69  C   UNL A   1      31.736  28.440  25.396  1.00  0.00     0.117 C 
BRANCH  69  70
ATOM     70  N   UNL A   1      30.845  27.479  24.780  1.00  0.00    -0.355 N 
ATOM     71  C   UNL A   1      31.012  26.233  24.273  1.00  0.00     0.231 C 
ATOM     72  H   UNL A   1      29.916  27.800  24.717  1.00  0.00     0.163 HD
ATOM     73  O   UNL A   1      29.963  25.629  24.024  1.00  0.00    -0.274 OA
BRANCH  71  74
ATOM     74  C   UNL A   1      32.384  25.549  24.120  1.00  0.00     0.098 C 
ATOM     75  C   UNL A   1      33.485  26.414  23.453  1.00  0.00     0.028 C 
ATOM     76  C   UNL A   1      32.194  24.352  23.117  1.00  0.00     0.277 C 
ATOM     77  C   UNL A   1      33.057  26.882  22.060  1.00  0.00     0.063 C 
ATOM     78  N   UNL A   1      31.847  24.752  21.749  1.00  0.00    -0.345 N 
ATOM     79  C   UNL A   1      32.791  25.684  21.152  1.00  0.00     0.260 C 
ATOM     80  H   UNL A   1      31.811  23.914  21.169  1.00  0.00     0.346 HD
ATOM     81  H   UNL A   1      30.947  25.231  21.798  1.00  0.00     0.346 HD
BRANCH  74  82
ATOM     82  C   UNL A   1      32.851  24.914  25.479  1.00  0.00     0.028 C 
BRANCH  82  83
ATOM     83  C   UNL A   1      34.347  24.790  25.845  1.00  0.00     0.038 C 
BRANCH  83  84
ATOM     84  C   UNL A   1      35.125  23.568  25.406  1.00  0.00    -0.030 A 
ATOM     85  C   UNL A   1      36.452  23.702  24.968  1.00  0.00     0.007 A 
ATOM     86  C   UNL A   1      34.606  22.277  25.393  1.00  0.00     0.114 A 
ATOM     87  C   UNL A   1      37.215  22.577  24.662  1.00  0.00     0.020 A 
ATOM     88  N   UNL A   1      35.310  21.168  25.062  1.00  0.00    -0.264 NA
ATOM     89  C   UNL A   1      36.606  21.339  24.737  1.00  0.00     0.111 A 
ENDBRANCH  83  84
ENDBRANCH  82  83
ENDBRANCH  74  82
ENDBRANCH  71  74
ENDBRANCH  69  70
ENDBRANCH   1  69
TORSDOF 16
ENDMDL
MODEL 3
REMARK VINA RESULT:     -11.6      1.105      2.962
REMARK SMILES O=C(NCCCNC(=O)[C@]1(CCc2cccnc2)CCC[NH2+]C1)c1ccc(-c2c3nc(c(-c4ccc(S(=O)(=O)[O-])cc4)c4ccc([nH]4)c(-c4ccc(S(=O)(=O)[O-])cc4)c4nc(c(-c5ccc(S(=O)(=O)[O-])cc5)c5ccc2[nH]5)C=C4)C=C3)cc1
REMARK SMILES IDX 5 1 4 2 3 3 1 4 2 5 24 7 25 8 83 9 26 10 82 11 27 12 28 13
REMARK SMILES IDX 29 14 76 15 30 16 81 17 75 18 77 19 31 20 80 21 74 22 73 23
REMARK SMILES IDX 32 25 62 26 43 27 61 28 44 29 47 30 60 31 78 32 45 33 46 34
REMARK SMILES IDX 59 36 79 37 48 38 33 39 34 40 42 41 35 42 41 43 36 44 37 45
REMARK SMILES IDX 38 46 39 47 40 48 63 49 64 50 72 51 65 52 71 53 66 54 67 55
REMARK SMILES IDX 68 56 69 57 70 58 49 59 50 60 58 61 51 62 57 63 52 64 53 65
REMARK SMILES IDX 54 66 55 67 56 68 6 69 7 70 8 71 9 73 10 74 19 75 23 76
REMARK SMILES IDX 20 77 22 78 21 79 11 82 12 83 13 84 14 85 18 86 15 87 17 88
REMARK SMILES IDX 16 89
REMARK H PARENT 3 6 77 24 47 35 7 72 22 80 22 81
REMARK Flexibility Score: inf
ROOT
ATOM      1  C   UNL A   1      34.483  29.116  27.254  1.00  0.00     0.042 C 
ENDROOT
BRANCH   1   2
ATOM      2  C   UNL A   1      35.348  30.242  27.800  1.00  0.00     0.118 C 
BRANCH   2   3
ATOM      3  N   UNL A   1      35.415  30.268  29.264  1.00  0.00    -0.352 N 
ATOM      4  O   UNL A   1      36.229  29.767  31.316  1.00  0.00    -0.269 OA
ATOM      5  C   UNL A   1      36.400  29.793  30.101  1.00  0.00     0.251 C 
ATOM      6  H   UNL A   1      34.645  30.683  29.713  1.00  0.00     0.163 HD
BRANCH   5   7
ATOM      7  C   UNL A   1      37.649  29.293  29.497  1.00  0.00     0.039 A 
ATOM      8  C   UNL A   1      38.538  28.576  30.296  1.00  0.00     0.014 A 
ATOM      9  C   UNL A   1      37.987  29.635  28.186  1.00  0.00     0.014 A 
ATOM     10  C   UNL A   1      39.846  28.426  29.875  1.00  0.00     0.010 A 
ATOM     11  C   UNL A   1      39.270  29.347  27.712  1.00  0.00     0.010 A 
ATOM     12  C   UNL A   1      40.228  28.792  28.572  1.00  0.00    -0.014 A 
BRANCH  12  13
ATOM     13  C   UNL A   1      41.634  28.535  28.162  1.00  0.00     0.031 A 
ATOM     14  C   UNL A   1      42.694  29.599  28.264  1.00  0.00     0.074 A 
ATOM     15  C   UNL A   1      41.959  27.278  27.795  1.00  0.00     0.049 A 
ATOM     16  N   UNL A   1      43.974  29.502  28.004  1.00  0.00    -0.248 NA
ATOM     17  C   UNL A   1      42.278  30.940  28.702  1.00  0.00     0.031 C 
ATOM     18  C   UNL A   1      41.006  26.169  27.661  1.00  0.00     0.029 A 
ATOM     19  N   UNL A   1      43.172  26.701  27.533  1.00  0.00    -0.354 N 
ATOM     20  C   UNL A   1      44.506  30.770  28.209  1.00  0.00     0.074 A 
ATOM     21  C   UNL A   1      43.411  31.625  28.611  1.00  0.00     0.031 C 
ATOM     22  C   UNL A   1      41.681  25.033  27.446  1.00  0.00     0.029 A 
ATOM     23  C   UNL A   1      43.098  25.344  27.329  1.00  0.00     0.049 A 
ATOM     24  H   UNL A   1      44.015  27.209  27.492  1.00  0.00     0.167 HD
ATOM     25  C   UNL A   1      45.791  31.179  28.071  1.00  0.00     0.031 A 
ATOM     26  C   UNL A   1      44.059  24.443  27.063  1.00  0.00     0.031 A 
ATOM     27  C   UNL A   1      46.877  30.312  27.689  1.00  0.00     0.049 A 
ATOM     28  C   UNL A   1      45.473  24.920  26.942  1.00  0.00     0.074 A 
ATOM     29  C   UNL A   1      48.212  30.630  27.505  1.00  0.00     0.029 A 
ATOM     30  N   UNL A   1      46.755  28.951  27.449  1.00  0.00    -0.354 N 
ATOM     31  N   UNL A   1      45.943  26.135  27.100  1.00  0.00    -0.248 NA
ATOM     32  C   UNL A   1      46.481  23.915  26.590  1.00  0.00     0.031 C 
ATOM     33  C   UNL A   1      48.891  29.466  27.123  1.00  0.00     0.029 A 
ATOM     34  C   UNL A   1      47.988  28.416  27.112  1.00  0.00     0.049 A 
ATOM     35  H   UNL A   1      45.915  28.440  27.508  1.00  0.00     0.167 HD
ATOM     36  C   UNL A   1      47.305  26.044  26.847  1.00  0.00     0.074 A 
ATOM     37  C   UNL A   1      47.586  24.647  26.573  1.00  0.00     0.031 C 
ATOM     38  C   UNL A   1      48.235  27.029  26.822  1.00  0.00     0.031 A 
BRANCH  25  39
ATOM     39  C   UNL A   1      46.097  32.635  28.306  1.00  0.00    -0.014 A 
ATOM     40  C   UNL A   1      46.516  33.099  29.565  1.00  0.00     0.010 A 
ATOM     41  C   UNL A   1      46.033  33.542  27.231  1.00  0.00     0.010 A 
ATOM     42  C   UNL A   1      46.845  34.445  29.751  1.00  0.00     0.020 A 
ATOM     43  C   UNL A   1      46.379  34.886  27.407  1.00  0.00     0.020 A 
ATOM     44  C   UNL A   1      46.772  35.331  28.670  1.00  0.00     0.054 A 
BRANCH  44  45
ATOM     45  S   UNL A   1      47.243  37.066  28.928  1.00  0.00     0.124 S 
ATOM     46  O   UNL A   1      46.993  37.644  27.609  1.00  0.00    -0.237 OA
ATOM     47  O   UNL A   1      46.327  37.495  29.982  1.00  0.00    -0.237 OA
ATOM     48  O   UNL A   1      48.647  36.990  29.319  1.00  0.00    -0.744 OA
ENDBRANCH  44  45
ENDBRANCH  25  39
BRANCH  26  49
ATOM     49  C   UNL A   1      43.694  23.019  26.844  1.00  0.00    -0.014 A 
ATOM     50  C   UNL A   1      42.961  22.305  27.806  1.00  0.00     0.010 A 
ATOM     51  C   UNL A   1      44.046  22.384  25.638  1.00  0.00     0.010 A 
ATOM     52  C   UNL A   1      42.594  20.976  27.569  1.00  0.00     0.020 A 
ATOM     53  C   UNL A   1      43.654  21.070  25.385  1.00  0.00     0.020 A 
ATOM     54  C   UNL A   1      42.942  20.368  26.359  1.00  0.00     0.054 A 
BRANCH  54  55
ATOM     55  S   UNL A   1      42.405  18.666  26.032  1.00  0.00     0.124 S 
ATOM     56  O   UNL A   1      42.659  18.019  27.313  1.00  0.00    -0.237 OA
ATOM     57  O   UNL A   1      40.998  18.835  25.674  1.00  0.00    -0.237 OA
ATOM     58  O   UNL A   1      43.270  18.247  24.931  1.00  0.00    -0.744 OA
ENDBRANCH  54  55
ENDBRANCH  26  49
BRANCH  38  59
ATOM     59  C   UNL A   1      49.635  26.612  26.476  1.00  0.00    -0.014 A 
ATOM     60  C   UNL A   1      50.123  26.762  25.165  1.00  0.00     0.010 A 
ATOM     61  C   UNL A   1      50.464  26.057  27.465  1.00  0.00     0.010 A 
ATOM     62  C   UNL A   1      51.405  26.317  24.839  1.00  0.00     0.020 A 
ATOM     63  C   UNL A   1      51.755  25.631  27.145  1.00  0.00     0.020 A 
ATOM     64  C   UNL A   1      52.208  25.745  25.829  1.00  0.00     0.054 A 
BRANCH  64  65
ATOM     65  S   UNL A   1      53.870  25.170  25.386  1.00  0.00     0.124 S 
ATOM     66  O   UNL A   1      53.732  23.722  25.512  1.00  0.00    -0.237 OA
ATOM     67  O   UNL A   1      54.033  25.669  24.022  1.00  0.00    -0.237 OA
ATOM     68  O   UNL A   1      54.730  25.806  26.381  1.00  0.00    -0.744 OA
ENDBRANCH  64  65
ENDBRANCH  38  59
ENDBRANCH  12  13
ENDBRANCH   5   7
ENDBRANCH   2   3
ENDBRANCH   1   2
BRANCH   1  69
ATOM     69  C   UNL A   1      33.098  29.587  26.878  1.00  0.00     0.117 C 
BRANCH  69  70
ATOM     70  N   UNL A   1      32.106  28.537  26.985  1.00  0.00    -0.355 N 
ATOM     71  C   UNL A   1      31.670  27.567  26.144  1.00  0.00     0.231 C 
ATOM     72  H   UNL A   1      31.651  28.524  27.858  1.00  0.00     0.163 HD
ATOM     73  O   UNL A   1      30.951  26.709  26.670  1.00  0.00    -0.274 OA
BRANCH  71  74
ATOM     74  C   UNL A   1      32.112  27.449  24.673  1.00  0.00     0.098 C 
ATOM     75  C   UNL A   1      31.925  28.730  23.820  1.00  0.00     0.028 C 
ATOM     76  C   UNL A   1      31.156  26.404  23.987  1.00  0.00     0.277 C 
ATOM     77  C   UNL A   1      30.464  29.189  23.816  1.00  0.00     0.063 C 
ATOM     78  N   UNL A   1      29.754  26.825  23.899  1.00  0.00    -0.345 N 
ATOM     79  C   UNL A   1      29.566  28.104  23.230  1.00  0.00     0.260 C 
ATOM     80  H   UNL A   1      29.236  26.113  23.385  1.00  0.00     0.346 HD
ATOM     81  H   UNL A   1      29.417  26.938  24.856  1.00  0.00     0.346 HD
BRANCH  74  82
ATOM     82  C   UNL A   1      33.562  26.854  24.568  1.00  0.00     0.028 C 
BRANCH  82  83
ATOM     83  C   UNL A   1      34.114  25.870  25.624  1.00  0.00     0.038 C 
BRANCH  83  84
ATOM     84  C   UNL A   1      34.576  24.494  25.194  1.00  0.00    -0.030 A 
ATOM     85  C   UNL A   1      34.692  24.189  23.828  1.00  0.00     0.007 A 
ATOM     86  C   UNL A   1      34.900  23.471  26.078  1.00  0.00     0.114 A 
ATOM     87  C   UNL A   1      35.217  22.965  23.417  1.00  0.00     0.020 A 
ATOM     88  N   UNL A   1      35.375  22.256  25.708  1.00  0.00    -0.264 NA
ATOM     89  C   UNL A   1      35.554  22.043  24.389  1.00  0.00     0.111 A 
ENDBRANCH  83  84
ENDBRANCH  82  83
ENDBRANCH  74  82
ENDBRANCH  71  74
ENDBRANCH  69  70
ENDBRANCH   1  69
TORSDOF 16
ENDMDL
