MODEL 1
REMARK VINA RESULT:     -11.9      0.000      0.000
REMARK SMILES CS(=O)(=O)c1ccc(/C=C(/C(=O)NCCCNC(=O)c2ccc(-c3c4nc(c(-c5ccc(S(=O)(=O)[O-])cc5)c5ccc([nH]5)c(-c5ccc(S(=O)(=O)[O-])cc5)c5nc(c(-c6ccc(S(=O)(=O)[O-])cc6)c6ccc3[nH]6)C=C5)C=C4)cc2)c2ccc(O)cc2)cc1
REMARK SMILES IDX 15 1 14 2 13 3 11 4 12 5 10 7 9 8 8 9 5 10 6 11 88 12 7 13
REMARK SMILES IDX 87 14 2 15 1 16 3 17 4 18 80 19 81 20 86 21 82 22 85 23
REMARK SMILES IDX 83 24 84 25 16 27 17 28 18 29 19 31 20 32 21 33 79 34 22 35
REMARK SMILES IDX 78 36 23 37 24 38 25 39 72 40 26 41 77 42 71 43 73 44 27 45
REMARK SMILES IDX 76 46 70 47 69 48 28 50 58 51 39 52 57 53 40 54 43 55 56 56
REMARK SMILES IDX 74 57 41 58 42 59 55 61 75 62 44 63 29 64 30 65 38 66 31 67
REMARK SMILES IDX 37 68 32 69 33 70 34 71 35 72 36 73 59 74 60 75 68 76 61 77
REMARK SMILES IDX 67 78 62 79 63 80 64 81 65 82 66 83 45 84 46 85 54 86 47 87
REMARK SMILES IDX 53 88 48 89 49 90 50 91 51 92 52 93
REMARK H PARENT 13 6 84 26 17 30 73 49 43 60
REMARK Flexibility Score: inf
ROOT
ATOM      1  C   UNL A   1      33.827  27.762  25.810  1.00  0.00     0.042 C 
ENDROOT
BRANCH   1   2
ATOM      2  C   UNL A   1      32.881  26.781  25.114  1.00  0.00     0.118 C 
BRANCH   2   3
ATOM      3  N   UNL A   1      33.158  26.706  23.689  1.00  0.00    -0.352 N 
ATOM      4  C   UNL A   1      33.534  25.708  22.847  1.00  0.00     0.251 C 
ATOM      5  O   UNL A   1      33.658  26.022  21.660  1.00  0.00    -0.269 OA
ATOM      6  H   UNL A   1      33.047  27.571  23.233  1.00  0.00     0.163 HD
BRANCH   4   7
ATOM      7  C   UNL A   1      33.718  24.271  23.276  1.00  0.00     0.047 C 
ATOM      8  C   UNL A   1      32.679  23.406  23.339  1.00  0.00     0.022 C 
BRANCH   8   9
ATOM      9  C   UNL A   1      32.681  21.961  23.660  1.00  0.00    -0.025 A 
ATOM     10  C   UNL A   1      32.734  19.186  24.088  1.00  0.00     0.067 A 
ATOM     11  C   UNL A   1      33.056  20.056  25.131  1.00  0.00     0.021 A 
ATOM     12  C   UNL A   1      32.338  19.687  22.848  1.00  0.00     0.021 A 
ATOM     13  C   UNL A   1      33.011  21.438  24.917  1.00  0.00     0.009 A 
ATOM     14  C   UNL A   1      32.310  21.070  22.640  1.00  0.00     0.009 A 
BRANCH  10  15
ATOM     15  S   UNL A   1      32.840  17.429  24.328  1.00  0.00     0.175 S 
ATOM     16  C   UNL A   1      34.487  17.142  24.918  1.00  0.00     0.163 C 
ATOM     17  O   UNL A   1      32.751  16.803  23.024  1.00  0.00    -0.224 OA
ATOM     18  O   UNL A   1      31.914  17.088  25.393  1.00  0.00    -0.224 OA
ENDBRANCH  10  15
ENDBRANCH   8   9
BRANCH   7  19
ATOM     19  C   UNL A   1      35.050  23.889  23.812  1.00  0.00    -0.013 A 
ATOM     20  C   UNL A   1      35.403  24.313  25.105  1.00  0.00     0.013 A 
ATOM     21  C   UNL A   1      35.924  23.044  23.115  1.00  0.00     0.013 A 
ATOM     22  C   UNL A   1      36.579  23.869  25.707  1.00  0.00     0.047 A 
ATOM     23  C   UNL A   1      37.100  22.588  23.722  1.00  0.00     0.047 A 
ATOM     24  C   UNL A   1      37.407  22.993  25.018  1.00  0.00     0.115 A 
BRANCH  24  25
ATOM     25  O   UNL A   1      38.517  22.536  25.665  1.00  0.00    -0.508 OA
ATOM     26  H   UNL A   1      38.998  23.106  26.232  1.00  0.00     0.293 HD
ENDBRANCH  24  25
ENDBRANCH   7  19
ENDBRANCH   4   7
ENDBRANCH   2   3
ENDBRANCH   1   2
BRANCH   1  27
ATOM     27  C   UNL A   1      33.369  28.185  27.208  1.00  0.00     0.118 C 
BRANCH  27  28
ATOM     28  N   UNL A   1      33.291  29.632  27.349  1.00  0.00    -0.352 N 
ATOM     29  C   UNL A   1      34.188  30.518  27.892  1.00  0.00     0.251 C 
ATOM     30  H   UNL A   1      32.465  30.038  27.000  1.00  0.00     0.163 HD
ATOM     31  O   UNL A   1      33.829  31.674  28.102  1.00  0.00    -0.269 OA
BRANCH  29  32
ATOM     32  C   UNL A   1      35.567  30.100  28.235  1.00  0.00     0.039 A 
ATOM     33  C   UNL A   1      36.542  30.120  27.233  1.00  0.00     0.014 A 
ATOM     34  C   UNL A   1      35.892  29.635  29.512  1.00  0.00     0.014 A 
ATOM     35  C   UNL A   1      37.851  29.723  27.522  1.00  0.00     0.010 A 
ATOM     36  C   UNL A   1      37.211  29.292  29.815  1.00  0.00     0.010 A 
ATOM     37  C   UNL A   1      38.203  29.330  28.823  1.00  0.00    -0.014 A 
BRANCH  37  38
ATOM     38  C   UNL A   1      39.605  28.968  29.161  1.00  0.00     0.031 A 
ATOM     39  C   UNL A   1      40.517  29.969  29.817  1.00  0.00     0.074 A 
ATOM     40  C   UNL A   1      40.075  27.750  28.825  1.00  0.00     0.049 A 
ATOM     41  N   UNL A   1      41.781  29.848  30.136  1.00  0.00    -0.248 NA
ATOM     42  C   UNL A   1      39.940  31.285  30.136  1.00  0.00     0.031 C 
ATOM     43  C   UNL A   1      39.304  26.701  28.154  1.00  0.00     0.029 A 
ATOM     44  N   UNL A   1      41.317  27.191  28.996  1.00  0.00    -0.354 N 
ATOM     45  C   UNL A   1      42.156  31.073  30.674  1.00  0.00     0.074 A 
ATOM     46  C   UNL A   1      40.996  31.937  30.604  1.00  0.00     0.031 C 
ATOM     47  C   UNL A   1      40.084  25.620  27.989  1.00  0.00     0.029 A 
ATOM     48  C   UNL A   1      41.417  25.909  28.508  1.00  0.00     0.049 A 
ATOM     49  H   UNL A   1      42.065  27.664  29.427  1.00  0.00     0.167 HD
ATOM     50  C   UNL A   1      43.352  31.444  31.194  1.00  0.00     0.031 A 
ATOM     51  C   UNL A   1      42.463  25.062  28.476  1.00  0.00     0.031 A 
ATOM     52  C   UNL A   1      44.502  30.582  31.275  1.00  0.00     0.049 A 
ATOM     53  C   UNL A   1      43.780  25.494  29.060  1.00  0.00     0.074 A 
ATOM     54  C   UNL A   1      45.740  30.848  31.834  1.00  0.00     0.029 A 
ATOM     55  N   UNL A   1      44.557  29.286  30.783  1.00  0.00    -0.354 N 
ATOM     56  N   UNL A   1      44.096  26.638  29.618  1.00  0.00    -0.248 NA
ATOM     57  C   UNL A   1      44.875  24.515  29.022  1.00  0.00     0.031 C 
ATOM     58  C   UNL A   1      46.558  29.728  31.642  1.00  0.00     0.029 A 
ATOM     59  C   UNL A   1      45.813  28.747  31.007  1.00  0.00     0.049 A 
ATOM     60  H   UNL A   1      43.813  28.819  30.339  1.00  0.00     0.167 HD
ATOM     61  C   UNL A   1      45.421  26.509  30.016  1.00  0.00     0.074 A 
ATOM     62  C   UNL A   1      45.842  25.171  29.650  1.00  0.00     0.031 C 
ATOM     63  C   UNL A   1      46.219  27.416  30.632  1.00  0.00     0.031 A 
BRANCH  50  64
ATOM     64  C   UNL A   1      43.478  32.853  31.710  1.00  0.00    -0.014 A 
ATOM     65  C   UNL A   1      43.912  33.896  30.871  1.00  0.00     0.010 A 
ATOM     66  C   UNL A   1      43.128  33.146  33.040  1.00  0.00     0.010 A 
ATOM     67  C   UNL A   1      44.039  35.197  31.366  1.00  0.00     0.020 A 
ATOM     68  C   UNL A   1      43.229  34.451  33.532  1.00  0.00     0.020 A 
ATOM     69  C   UNL A   1      43.703  35.465  32.697  1.00  0.00     0.054 A 
BRANCH  69  70
ATOM     70  S   UNL A   1      43.867  37.164  33.314  1.00  0.00     0.124 S 
ATOM     71  O   UNL A   1      45.157  37.111  33.996  1.00  0.00    -0.237 OA
ATOM     72  O   UNL A   1      43.839  37.955  32.086  1.00  0.00    -0.237 OA
ATOM     73  O   UNL A   1      42.707  37.330  34.184  1.00  0.00    -0.744 OA
ENDBRANCH  69  70
ENDBRANCH  50  64
BRANCH  51  74
ATOM     74  C   UNL A   1      42.300  23.709  27.881  1.00  0.00    -0.014 A 
ATOM     75  C   UNL A   1      42.727  23.456  26.566  1.00  0.00     0.010 A 
ATOM     76  C   UNL A   1      41.741  22.661  28.633  1.00  0.00     0.010 A 
ATOM     77  C   UNL A   1      42.586  22.181  26.009  1.00  0.00     0.020 A 
ATOM     78  C   UNL A   1      41.620  21.380  28.089  1.00  0.00     0.020 A 
ATOM     79  C   UNL A   1      42.035  21.150  26.776  1.00  0.00     0.054 A 
BRANCH  79  80
ATOM     80  S   UNL A   1      41.919  19.489  26.056  1.00  0.00     0.124 S 
ATOM     81  O   UNL A   1      42.472  18.659  27.122  1.00  0.00    -0.237 OA
ATOM     82  O   UNL A   1      40.484  19.344  25.819  1.00  0.00    -0.237 OA
ATOM     83  O   UNL A   1      42.735  19.585  24.848  1.00  0.00    -0.744 OA
ENDBRANCH  79  80
ENDBRANCH  51  74
BRANCH  63  84
ATOM     84  C   UNL A   1      47.620  26.986  30.971  1.00  0.00    -0.014 A 
ATOM     85  C   UNL A   1      47.916  26.384  32.206  1.00  0.00     0.010 A 
ATOM     86  C   UNL A   1      48.645  27.148  30.021  1.00  0.00     0.010 A 
ATOM     87  C   UNL A   1      49.221  25.979  32.498  1.00  0.00     0.020 A 
ATOM     88  C   UNL A   1      49.946  26.722  30.299  1.00  0.00     0.020 A 
ATOM     89  C   UNL A   1      50.230  26.154  31.544  1.00  0.00     0.054 A 
BRANCH  89  90
ATOM     90  S   UNL A   1      51.909  25.585  31.929  1.00  0.00     0.124 S 
ATOM     91  O   UNL A   1      52.199  26.311  33.161  1.00  0.00    -0.237 OA
ATOM     92  O   UNL A   1      51.735  24.142  32.075  1.00  0.00    -0.237 OA
ATOM     93  O   UNL A   1      52.688  25.996  30.764  1.00  0.00    -0.744 OA
ENDBRANCH  89  90
ENDBRANCH  63  84
ENDBRANCH  37  38
ENDBRANCH  29  32
ENDBRANCH  27  28
ENDBRANCH   1  27
TORSDOF 17
ENDMDL
MODEL 2
REMARK VINA RESULT:     -11.8      3.293      9.646
REMARK SMILES CS(=O)(=O)c1ccc(/C=C(/C(=O)NCCCNC(=O)c2ccc(-c3c4nc(c(-c5ccc(S(=O)(=O)[O-])cc5)c5ccc([nH]5)c(-c5ccc(S(=O)(=O)[O-])cc5)c5nc(c(-c6ccc(S(=O)(=O)[O-])cc6)c6ccc3[nH]6)C=C5)C=C4)cc2)c2ccc(O)cc2)cc1
REMARK SMILES IDX 15 1 14 2 13 3 11 4 12 5 10 7 9 8 8 9 5 10 6 11 88 12 7 13
REMARK SMILES IDX 87 14 2 15 1 16 3 17 4 18 80 19 81 20 86 21 82 22 85 23
REMARK SMILES IDX 83 24 84 25 16 27 17 28 18 29 19 31 20 32 21 33 79 34 22 35
REMARK SMILES IDX 78 36 23 37 24 38 25 39 72 40 26 41 77 42 71 43 73 44 27 45
REMARK SMILES IDX 76 46 70 47 69 48 28 50 58 51 39 52 57 53 40 54 43 55 56 56
REMARK SMILES IDX 74 57 41 58 42 59 55 61 75 62 44 63 29 64 30 65 38 66 31 67
REMARK SMILES IDX 37 68 32 69 33 70 34 71 35 72 36 73 59 74 60 75 68 76 61 77
REMARK SMILES IDX 67 78 62 79 63 80 64 81 65 82 66 83 45 84 46 85 54 86 47 87
REMARK SMILES IDX 53 88 48 89 49 90 50 91 51 92 52 93
REMARK H PARENT 13 6 84 26 17 30 73 49 43 60
REMARK Flexibility Score: inf
ROOT
ATOM      1  C   UNL A   1      35.993  23.303  23.903  1.00  0.00     0.042 C 
ENDROOT
BRANCH   1   2
ATOM      2  C   UNL A   1      34.594  23.924  23.886  1.00  0.00     0.118 C 
BRANCH   2   3
ATOM      3  N   UNL A   1      33.867  23.616  25.106  1.00  0.00    -0.352 N 
ATOM      4  C   UNL A   1      32.872  24.230  25.800  1.00  0.00     0.251 C 
ATOM      5  O   UNL A   1      32.480  23.644  26.812  1.00  0.00    -0.269 OA
ATOM      6  H   UNL A   1      34.161  22.773  25.523  1.00  0.00     0.163 HD
BRANCH   4   7
ATOM      7  C   UNL A   1      32.200  25.506  25.351  1.00  0.00     0.047 C 
ATOM      8  C   UNL A   1      31.495  25.575  24.198  1.00  0.00     0.022 C 
BRANCH   8   9
ATOM      9  C   UNL A   1      30.715  26.704  23.643  1.00  0.00    -0.025 A 
ATOM     10  C   UNL A   1      29.114  28.825  22.735  1.00  0.00     0.067 A 
ATOM     11  C   UNL A   1      30.489  28.839  22.492  1.00  0.00     0.021 A 
ATOM     12  C   UNL A   1      28.523  27.741  23.381  1.00  0.00     0.021 A 
ATOM     13  C   UNL A   1      31.279  27.771  22.931  1.00  0.00     0.009 A 
ATOM     14  C   UNL A   1      29.323  26.685  23.829  1.00  0.00     0.009 A 
BRANCH  10  15
ATOM     15  S   UNL A   1      28.106  30.199  22.232  1.00  0.00     0.175 S 
ATOM     16  C   UNL A   1      29.058  31.640  22.630  1.00  0.00     0.163 C 
ATOM     17  O   UNL A   1      26.938  30.222  23.090  1.00  0.00    -0.224 OA
ATOM     18  O   UNL A   1      27.980  30.128  20.787  1.00  0.00    -0.224 OA
ENDBRANCH  10  15
ENDBRANCH   8   9
BRANCH   7  19
ATOM     19  C   UNL A   1      32.500  26.738  26.125  1.00  0.00    -0.013 A 
ATOM     20  C   UNL A   1      33.777  27.315  26.007  1.00  0.00     0.013 A 
ATOM     21  C   UNL A   1      31.529  27.396  26.892  1.00  0.00     0.013 A 
ATOM     22  C   UNL A   1      34.064  28.543  26.601  1.00  0.00     0.047 A 
ATOM     23  C   UNL A   1      31.813  28.635  27.480  1.00  0.00     0.047 A 
ATOM     24  C   UNL A   1      33.074  29.202  27.315  1.00  0.00     0.115 A 
BRANCH  24  25
ATOM     25  O   UNL A   1      33.378  30.427  27.830  1.00  0.00    -0.508 OA
ATOM     26  H   UNL A   1      34.245  30.604  28.140  1.00  0.00     0.293 HD
ENDBRANCH  24  25
ENDBRANCH   7  19
ENDBRANCH   4   7
ENDBRANCH   2   3
ENDBRANCH   1   2
BRANCH   1  27
ATOM     27  C   UNL A   1      36.843  23.713  25.109  1.00  0.00     0.118 C 
BRANCH  27  28
ATOM     28  N   UNL A   1      37.823  22.697  25.464  1.00  0.00    -0.352 N 
ATOM     29  C   UNL A   1      39.040  22.821  26.086  1.00  0.00     0.251 C 
ATOM     30  H   UNL A   1      37.574  21.777  25.218  1.00  0.00     0.163 HD
ATOM     31  O   UNL A   1      39.803  21.857  26.097  1.00  0.00    -0.269 OA
BRANCH  29  32
ATOM     32  C   UNL A   1      39.447  24.091  26.729  1.00  0.00     0.039 A 
ATOM     33  C   UNL A   1      39.030  24.341  28.041  1.00  0.00     0.014 A 
ATOM     34  C   UNL A   1      40.180  25.058  26.036  1.00  0.00     0.014 A 
ATOM     35  C   UNL A   1      39.391  25.536  28.673  1.00  0.00     0.010 A 
ATOM     36  C   UNL A   1      40.586  26.225  26.686  1.00  0.00     0.010 A 
ATOM     37  C   UNL A   1      40.194  26.477  28.009  1.00  0.00    -0.014 A 
BRANCH  37  38
ATOM     38  C   UNL A   1      40.639  27.721  28.691  1.00  0.00     0.031 A 
ATOM     39  C   UNL A   1      42.010  27.810  29.304  1.00  0.00     0.074 A 
ATOM     40  C   UNL A   1      39.782  28.756  28.809  1.00  0.00     0.049 A 
ATOM     41  N   UNL A   1      42.549  28.792  29.981  1.00  0.00    -0.248 NA
ATOM     42  C   UNL A   1      42.883  26.634  29.153  1.00  0.00     0.031 C 
ATOM     43  C   UNL A   1      38.412  28.783  28.291  1.00  0.00     0.029 A 
ATOM     44  N   UNL A   1      39.936  29.981  29.408  1.00  0.00    -0.354 N 
ATOM     45  C   UNL A   1      43.812  28.348  30.355  1.00  0.00     0.074 A 
ATOM     46  C   UNL A   1      43.946  26.994  29.860  1.00  0.00     0.031 C 
ATOM     47  C   UNL A   1      37.859  29.973  28.577  1.00  0.00     0.029 A 
ATOM     48  C   UNL A   1      38.818  30.778  29.327  1.00  0.00     0.049 A 
ATOM     49  H   UNL A   1      40.767  30.263  29.853  1.00  0.00     0.167 HD
ATOM     50  C   UNL A   1      44.781  29.010  31.033  1.00  0.00     0.031 A 
ATOM     51  C   UNL A   1      38.586  32.015  29.806  1.00  0.00     0.031 A 
ATOM     52  C   UNL A   1      44.653  30.361  31.515  1.00  0.00     0.049 A 
ATOM     53  C   UNL A   1      39.675  32.732  30.554  1.00  0.00     0.074 A 
ATOM     54  C   UNL A   1      45.597  31.137  32.164  1.00  0.00     0.029 A 
ATOM     55  N   UNL A   1      43.510  31.138  31.399  1.00  0.00    -0.354 N 
ATOM     56  N   UNL A   1      40.885  32.316  30.845  1.00  0.00    -0.248 NA
ATOM     57  C   UNL A   1      39.373  34.090  31.027  1.00  0.00     0.031 C 
ATOM     58  C   UNL A   1      45.012  32.368  32.480  1.00  0.00     0.029 A 
ATOM     59  C   UNL A   1      43.718  32.377  31.982  1.00  0.00     0.049 A 
ATOM     60  H   UNL A   1      42.673  30.851  30.967  1.00  0.00     0.167 HD
ATOM     61  C   UNL A   1      41.494  33.368  31.517  1.00  0.00     0.074 A 
ATOM     62  C   UNL A   1      40.527  34.445  31.576  1.00  0.00     0.031 C 
ATOM     63  C   UNL A   1      42.744  33.437  32.038  1.00  0.00     0.031 A 
BRANCH  50  64
ATOM     64  C   UNL A   1      46.066  28.274  31.304  1.00  0.00    -0.014 A 
ATOM     65  C   UNL A   1      46.161  27.343  32.355  1.00  0.00     0.010 A 
ATOM     66  C   UNL A   1      47.184  28.491  30.480  1.00  0.00     0.010 A 
ATOM     67  C   UNL A   1      47.364  26.677  32.605  1.00  0.00     0.020 A 
ATOM     68  C   UNL A   1      48.383  27.807  30.710  1.00  0.00     0.020 A 
ATOM     69  C   UNL A   1      48.471  26.920  31.785  1.00  0.00     0.054 A 
BRANCH  69  70
ATOM     70  S   UNL A   1      50.018  26.036  32.124  1.00  0.00     0.124 S 
ATOM     71  O   UNL A   1      50.829  27.080  32.744  1.00  0.00    -0.237 OA
ATOM     72  O   UNL A   1      49.588  24.963  33.017  1.00  0.00    -0.237 OA
ATOM     73  O   UNL A   1      50.465  25.601  30.804  1.00  0.00    -0.744 OA
ENDBRANCH  69  70
ENDBRANCH  50  64
BRANCH  51  74
ATOM     74  C   UNL A   1      37.267  32.661  29.576  1.00  0.00    -0.014 A 
ATOM     75  C   UNL A   1      36.252  32.569  30.544  1.00  0.00     0.010 A 
ATOM     76  C   UNL A   1      37.027  33.394  28.399  1.00  0.00     0.010 A 
ATOM     77  C   UNL A   1      35.015  33.186  30.334  1.00  0.00     0.020 A 
ATOM     78  C   UNL A   1      35.801  34.033  28.197  1.00  0.00     0.020 A 
ATOM     79  C   UNL A   1      34.798  33.917  29.162  1.00  0.00     0.054 A 
BRANCH  79  80
ATOM     80  S   UNL A   1      33.209  34.763  28.939  1.00  0.00     0.124 S 
ATOM     81  O   UNL A   1      32.558  33.924  27.938  1.00  0.00    -0.237 OA
ATOM     82  O   UNL A   1      32.632  34.714  30.280  1.00  0.00    -0.237 OA
ATOM     83  O   UNL A   1      33.596  36.097  28.484  1.00  0.00    -0.744 OA
ENDBRANCH  79  80
ENDBRANCH  51  74
BRANCH  63  84
ATOM     84  C   UNL A   1      43.147  34.729  32.696  1.00  0.00    -0.014 A 
ATOM     85  C   UNL A   1      43.678  35.792  31.944  1.00  0.00     0.010 A 
ATOM     86  C   UNL A   1      42.950  34.896  34.078  1.00  0.00     0.010 A 
ATOM     87  C   UNL A   1      44.035  36.989  32.570  1.00  0.00     0.020 A 
ATOM     88  C   UNL A   1      43.283  36.099  34.704  1.00  0.00     0.020 A 
ATOM     89  C   UNL A   1      43.838  37.135  33.948  1.00  0.00     0.054 A 
BRANCH  89  90
ATOM     90  S   UNL A   1      44.271  38.712  34.733  1.00  0.00     0.124 S 
ATOM     91  O   UNL A   1      43.341  39.636  34.090  1.00  0.00    -0.237 OA
ATOM     92  O   UNL A   1      44.019  38.448  36.147  1.00  0.00    -0.237 OA
ATOM     93  O   UNL A   1      45.677  38.897  34.381  1.00  0.00    -0.744 OA
ENDBRANCH  89  90
ENDBRANCH  63  84
ENDBRANCH  37  38
ENDBRANCH  29  32
ENDBRANCH  27  28
ENDBRANCH   1  27
TORSDOF 17
ENDMDL
MODEL 3
REMARK VINA RESULT:     -11.3      2.306      2.907
REMARK SMILES CS(=O)(=O)c1ccc(/C=C(/C(=O)NCCCNC(=O)c2ccc(-c3c4nc(c(-c5ccc(S(=O)(=O)[O-])cc5)c5ccc([nH]5)c(-c5ccc(S(=O)(=O)[O-])cc5)c5nc(c(-c6ccc(S(=O)(=O)[O-])cc6)c6ccc3[nH]6)C=C5)C=C4)cc2)c2ccc(O)cc2)cc1
REMARK SMILES IDX 15 1 14 2 13 3 11 4 12 5 10 7 9 8 8 9 5 10 6 11 88 12 7 13
REMARK SMILES IDX 87 14 2 15 1 16 3 17 4 18 80 19 81 20 86 21 82 22 85 23
REMARK SMILES IDX 83 24 84 25 16 27 17 28 18 29 19 31 20 32 21 33 79 34 22 35
REMARK SMILES IDX 78 36 23 37 24 38 25 39 72 40 26 41 77 42 71 43 73 44 27 45
REMARK SMILES IDX 76 46 70 47 69 48 28 50 58 51 39 52 57 53 40 54 43 55 56 56
REMARK SMILES IDX 74 57 41 58 42 59 55 61 75 62 44 63 29 64 30 65 38 66 31 67
REMARK SMILES IDX 37 68 32 69 33 70 34 71 35 72 36 73 59 74 60 75 68 76 61 77
REMARK SMILES IDX 67 78 62 79 63 80 64 81 65 82 66 83 45 84 46 85 54 86 47 87
REMARK SMILES IDX 53 88 48 89 49 90 50 91 51 92 52 93
REMARK H PARENT 13 6 84 26 17 30 73 49 43 60
REMARK Flexibility Score: inf
ROOT
ATOM      1  C   UNL A   1      33.382  27.344  26.482  1.00  0.00     0.042 C 
ENDROOT
BRANCH   1   2
ATOM      2  C   UNL A   1      32.322  26.774  25.535  1.00  0.00     0.118 C 
BRANCH   2   3
ATOM      3  N   UNL A   1      32.745  26.881  24.149  1.00  0.00    -0.352 N 
ATOM      4  C   UNL A   1      33.261  26.008  23.244  1.00  0.00     0.251 C 
ATOM      5  O   UNL A   1      33.485  26.466  22.121  1.00  0.00    -0.269 OA
ATOM      6  H   UNL A   1      32.632  27.789  23.784  1.00  0.00     0.163 HD
BRANCH   4   7
ATOM      7  C   UNL A   1      33.481  24.540  23.525  1.00  0.00     0.047 C 
ATOM      8  C   UNL A   1      32.455  23.659  23.567  1.00  0.00     0.022 C 
BRANCH   8   9
ATOM      9  C   UNL A   1      32.488  22.191  23.751  1.00  0.00    -0.025 A 
ATOM     10  C   UNL A   1      32.606  19.389  23.917  1.00  0.00     0.067 A 
ATOM     11  C   UNL A   1      32.875  20.164  25.046  1.00  0.00     0.021 A 
ATOM     12  C   UNL A   1      32.230  19.996  22.719  1.00  0.00     0.021 A 
ATOM     13  C   UNL A   1      32.797  21.558  24.962  1.00  0.00     0.009 A 
ATOM     14  C   UNL A   1      32.169  21.391  22.642  1.00  0.00     0.009 A 
BRANCH  10  15
ATOM     15  S   UNL A   1      32.753  17.621  23.993  1.00  0.00     0.175 S 
ATOM     16  C   UNL A   1      34.382  17.320  24.624  1.00  0.00     0.163 C 
ATOM     17  O   UNL A   1      32.735  17.121  22.633  1.00  0.00    -0.224 OA
ATOM     18  O   UNL A   1      31.795  17.156  24.980  1.00  0.00    -0.224 OA
ENDBRANCH  10  15
ENDBRANCH   8   9
BRANCH   7  19
ATOM     19  C   UNL A   1      34.846  24.128  23.943  1.00  0.00    -0.013 A 
ATOM     20  C   UNL A   1      35.279  24.448  25.242  1.00  0.00     0.013 A 
ATOM     21  C   UNL A   1      35.678  23.351  23.125  1.00  0.00     0.013 A 
ATOM     22  C   UNL A   1      36.493  23.966  25.730  1.00  0.00     0.047 A 
ATOM     23  C   UNL A   1      36.892  22.858  23.618  1.00  0.00     0.047 A 
ATOM     24  C   UNL A   1      37.279  23.158  24.921  1.00  0.00     0.115 A 
BRANCH  24  25
ATOM     25  O   UNL A   1      38.429  22.660  25.457  1.00  0.00    -0.508 OA
ATOM     26  H   UNL A   1      39.240  22.750  24.996  1.00  0.00     0.293 HD
ENDBRANCH  24  25
ENDBRANCH   7  19
ENDBRANCH   4   7
ENDBRANCH   2   3
ENDBRANCH   1   2
BRANCH   1  27
ATOM     27  C   UNL A   1      34.222  28.470  25.875  1.00  0.00     0.118 C 
BRANCH  27  28
ATOM     28  N   UNL A   1      33.784  29.786  26.317  1.00  0.00    -0.352 N 
ATOM     29  C   UNL A   1      34.256  30.581  27.331  1.00  0.00     0.251 C 
ATOM     30  H   UNL A   1      33.031  30.165  25.809  1.00  0.00     0.163 HD
ATOM     31  O   UNL A   1      33.602  31.565  27.670  1.00  0.00    -0.269 OA
BRANCH  29  32
ATOM     32  C   UNL A   1      35.526  30.266  28.025  1.00  0.00     0.039 A 
ATOM     33  C   UNL A   1      35.469  29.695  29.300  1.00  0.00     0.014 A 
ATOM     34  C   UNL A   1      36.765  30.581  27.459  1.00  0.00     0.014 A 
ATOM     35  C   UNL A   1      36.651  29.394  29.985  1.00  0.00     0.010 A 
ATOM     36  C   UNL A   1      37.943  30.229  28.119  1.00  0.00     0.010 A 
ATOM     37  C   UNL A   1      37.899  29.635  29.389  1.00  0.00    -0.014 A 
BRANCH  37  38
ATOM     38  C   UNL A   1      39.163  29.261  30.078  1.00  0.00     0.031 A 
ATOM     39  C   UNL A   1      39.613  30.004  31.307  1.00  0.00     0.074 A 
ATOM     40  C   UNL A   1      39.936  28.286  29.561  1.00  0.00     0.049 A 
ATOM     41  N   UNL A   1      40.708  29.852  32.008  1.00  0.00    -0.248 NA
ATOM     42  C   UNL A   1      38.726  31.070  31.802  1.00  0.00     0.031 C 
ATOM     43  C   UNL A   1      39.632  27.514  28.355  1.00  0.00     0.029 A 
ATOM     44  N   UNL A   1      41.141  27.782  29.983  1.00  0.00    -0.354 N 
ATOM     45  C   UNL A   1      40.654  30.812  33.011  1.00  0.00     0.074 A 
ATOM     46  C   UNL A   1      39.435  31.567  32.807  1.00  0.00     0.031 C 
ATOM     47  C   UNL A   1      40.613  26.621  28.145  1.00  0.00     0.029 A 
ATOM     48  C   UNL A   1      41.631  26.780  29.178  1.00  0.00     0.049 A 
ATOM     49  H   UNL A   1      41.610  28.107  30.785  1.00  0.00     0.167 HD
ATOM     50  C   UNL A   1      41.530  31.037  34.021  1.00  0.00     0.031 A 
ATOM     51  C   UNL A   1      42.774  26.071  29.257  1.00  0.00     0.031 A 
ATOM     52  C   UNL A   1      42.736  30.280  34.232  1.00  0.00     0.049 A 
ATOM     53  C   UNL A   1      43.730  26.337  30.387  1.00  0.00     0.074 A 
ATOM     54  C   UNL A   1      43.658  30.396  35.257  1.00  0.00     0.029 A 
ATOM     55  N   UNL A   1      43.188  29.264  33.403  1.00  0.00    -0.354 N 
ATOM     56  N   UNL A   1      43.630  27.210  31.360  1.00  0.00    -0.248 NA
ATOM     57  C   UNL A   1      44.944  25.512  30.436  1.00  0.00     0.031 C 
ATOM     58  C   UNL A   1      44.690  29.480  35.025  1.00  0.00     0.029 A 
ATOM     59  C   UNL A   1      44.385  28.759  33.882  1.00  0.00     0.049 A 
ATOM     60  H   UNL A   1      42.725  28.949  32.592  1.00  0.00     0.167 HD
ATOM     61  C   UNL A   1      44.759  27.026  32.149  1.00  0.00     0.074 A 
ATOM     62  C   UNL A   1      45.519  25.948  31.549  1.00  0.00     0.031 C 
ATOM     63  C   UNL A   1      45.133  27.689  33.271  1.00  0.00     0.031 A 
BRANCH  50  64
ATOM     64  C   UNL A   1      41.216  32.161  34.974  1.00  0.00    -0.014 A 
ATOM     65  C   UNL A   1      41.665  33.470  34.723  1.00  0.00     0.010 A 
ATOM     66  C   UNL A   1      40.437  31.913  36.117  1.00  0.00     0.010 A 
ATOM     67  C   UNL A   1      41.380  34.501  35.623  1.00  0.00     0.020 A 
ATOM     68  C   UNL A   1      40.127  32.946  37.007  1.00  0.00     0.020 A 
ATOM     69  C   UNL A   1      40.619  34.231  36.764  1.00  0.00     0.054 A 
BRANCH  69  70
ATOM     70  S   UNL A   1      40.253  35.588  37.912  1.00  0.00     0.124 S 
ATOM     71  O   UNL A   1      39.968  36.687  36.993  1.00  0.00    -0.237 OA
ATOM     72  O   UNL A   1      39.104  35.080  38.656  1.00  0.00    -0.237 OA
ATOM     73  O   UNL A   1      41.482  35.726  38.687  1.00  0.00    -0.744 OA
ENDBRANCH  69  70
ENDBRANCH  50  64
BRANCH  51  74
ATOM     74  C   UNL A   1      43.067  25.027  28.239  1.00  0.00    -0.014 A 
ATOM     75  C   UNL A   1      43.796  25.349  27.082  1.00  0.00     0.010 A 
ATOM     76  C   UNL A   1      42.642  23.701  28.435  1.00  0.00     0.010 A 
ATOM     77  C   UNL A   1      44.084  24.365  26.130  1.00  0.00     0.020 A 
ATOM     78  C   UNL A   1      42.948  22.710  27.498  1.00  0.00     0.020 A 
ATOM     79  C   UNL A   1      43.659  23.051  26.346  1.00  0.00     0.054 A 
BRANCH  79  80
ATOM     80  S   UNL A   1      44.098  21.778  25.130  1.00  0.00     0.124 S 
ATOM     81  O   UNL A   1      43.955  22.502  23.870  1.00  0.00    -0.237 OA
ATOM     82  O   UNL A   1      45.465  21.433  25.511  1.00  0.00    -0.237 OA
ATOM     83  O   UNL A   1      43.110  20.728  25.366  1.00  0.00    -0.744 OA
ENDBRANCH  79  80
ENDBRANCH  51  74
BRANCH  63  84
ATOM     84  C   UNL A   1      46.408  27.252  33.938  1.00  0.00    -0.014 A 
ATOM     85  C   UNL A   1      46.409  26.232  34.907  1.00  0.00     0.010 A 
ATOM     86  C   UNL A   1      47.628  27.840  33.558  1.00  0.00     0.010 A 
ATOM     87  C   UNL A   1      47.605  25.831  35.507  1.00  0.00     0.020 A 
ATOM     88  C   UNL A   1      48.829  27.425  34.138  1.00  0.00     0.020 A 
ATOM     89  C   UNL A   1      48.808  26.432  35.120  1.00  0.00     0.054 A 
BRANCH  89  90
ATOM     90  S   UNL A   1      50.354  25.867  35.884  1.00  0.00     0.124 S 
ATOM     91  O   UNL A   1      50.928  25.038  34.829  1.00  0.00    -0.237 OA
ATOM     92  O   UNL A   1      51.057  27.119  36.154  1.00  0.00    -0.237 OA
ATOM     93  O   UNL A   1      49.907  25.143  37.072  1.00  0.00    -0.744 OA
ENDBRANCH  89  90
ENDBRANCH  63  84
ENDBRANCH  37  38
ENDBRANCH  29  32
ENDBRANCH  27  28
ENDBRANCH   1  27
TORSDOF 17
ENDMDL
