MODEL 1
REMARK VINA RESULT:     -11.0      0.000      0.000
REMARK SMILES CC(C)(Cn1ccnc1C(N)=S)C(=O)NCCCNC(=O)c1ccc(-c2c3nc(c(-c4ccc(S(=O)(=O)[O-])cc4)c4ccc([nH]4)c(-c4ccc(S(=O)(=O)[O-])cc4)c4nc(c(-c5ccc(S(=O)(=O)[O-])cc5)c5ccc2[nH]5)C=C4)C=C3)cc1
REMARK SMILES IDX 16 1 15 2 13 3 14 4 2 6 1 7 3 8 4 9 5 10 6 11 9 12 7 13 8 14
REMARK SMILES IDX 10 15 12 16 11 17 17 20 18 21 19 22 20 23 21 25 22 26 23 27
REMARK SMILES IDX 81 28 24 29 80 30 25 31 26 32 27 33 74 34 28 35 79 36 73 37
REMARK SMILES IDX 75 38 29 39 78 40 72 41 71 42 30 44 60 45 41 46 59 47 42 48
REMARK SMILES IDX 45 49 58 50 76 51 43 52 44 53 57 55 77 56 46 57 31 58 32 59
REMARK SMILES IDX 40 60 33 61 39 62 34 63 35 64 36 65 37 66 38 67 61 68 62 69
REMARK SMILES IDX 70 70 63 71 69 72 64 73 65 74 66 75 67 76 68 77 47 78 48 79
REMARK SMILES IDX 56 80 49 81 55 82 50 83 51 84 52 85 53 86 54 87
REMARK H PARENT 15 5 11 18 11 19 19 24 75 43 45 54
REMARK Flexibility Score: inf
ROOT
ATOM      1  C   UNL A   1      31.803  30.578  26.051  1.00  0.00     0.117 C 
ENDROOT
BRANCH   1   2
ATOM      2  N   UNL A   1      31.614  29.522  27.036  1.00  0.00    -0.356 N 
ATOM      3  C   UNL A   1      31.848  28.183  27.041  1.00  0.00     0.227 C 
ATOM      4  O   UNL A   1      31.638  27.614  28.115  1.00  0.00    -0.274 OA
ATOM      5  H   UNL A   1      31.233  29.850  27.884  1.00  0.00     0.163 HD
BRANCH   3   6
ATOM      6  C   UNL A   1      32.342  27.400  25.811  1.00  0.00     0.061 C 
ATOM      7  C   UNL A   1      33.220  26.218  26.303  1.00  0.00     0.023 C 
ATOM      8  C   UNL A   1      33.329  28.244  24.974  1.00  0.00     0.023 C 
BRANCH   6   9
ATOM      9  C   UNL A   1      31.133  26.902  24.952  1.00  0.00     0.140 C 
BRANCH   9  10
ATOM     10  N   UNL A   1      31.369  26.689  23.527  1.00  0.00    -0.328 N 
ATOM     11  C   UNL A   1      32.090  25.640  23.006  1.00  0.00     0.108 A 
ATOM     12  C   UNL A   1      30.992  27.466  22.443  1.00  0.00     0.167 A 
ATOM     13  C   UNL A   1      31.802  25.633  21.665  1.00  0.00     0.131 A 
ATOM     14  N   UNL A   1      31.093  26.749  21.332  1.00  0.00    -0.235 NA
BRANCH  12  15
ATOM     15  C   UNL A   1      30.572  28.844  22.337  1.00  0.00     0.140 C 
ATOM     16  S   UNL A   1      29.094  29.383  22.889  1.00  0.00    -0.057 S 
BRANCH  15  17
ATOM     17  N   UNL A   1      31.521  29.715  21.871  1.00  0.00    -0.387 N 
ATOM     18  H   UNL A   1      31.908  29.589  20.975  1.00  0.00     0.157 HD
ATOM     19  H   UNL A   1      31.816  30.468  22.433  1.00  0.00     0.157 HD
ENDBRANCH  15  17
ENDBRANCH  12  15
ENDBRANCH   9  10
ENDBRANCH   6   9
ENDBRANCH   3   6
ENDBRANCH   1   2
BRANCH   1  20
ATOM     20  C   UNL A   1      31.499  31.967  26.591  1.00  0.00     0.042 C 
BRANCH  20  21
ATOM     21  C   UNL A   1      32.651  32.591  27.336  1.00  0.00     0.118 C 
BRANCH  21  22
ATOM     22  N   UNL A   1      32.418  33.987  27.703  1.00  0.00    -0.352 N 
ATOM     23  C   UNL A   1      33.085  34.725  28.671  1.00  0.00     0.251 C 
ATOM     24  H   UNL A   1      31.709  34.456  27.207  1.00  0.00     0.163 HD
ATOM     25  O   UNL A   1      32.613  35.759  29.107  1.00  0.00    -0.269 OA
BRANCH  23  26
ATOM     26  C   UNL A   1      34.385  34.213  29.153  1.00  0.00     0.039 A 
ATOM     27  C   UNL A   1      34.539  33.622  30.409  1.00  0.00     0.014 A 
ATOM     28  C   UNL A   1      35.460  34.293  28.275  1.00  0.00     0.014 A 
ATOM     29  C   UNL A   1      35.773  33.058  30.736  1.00  0.00     0.010 A 
ATOM     30  C   UNL A   1      36.575  33.542  28.498  1.00  0.00     0.010 A 
ATOM     31  C   UNL A   1      36.782  33.016  29.763  1.00  0.00    -0.014 A 
BRANCH  31  32
ATOM     32  C   UNL A   1      38.049  32.327  29.971  1.00  0.00     0.031 A 
ATOM     33  C   UNL A   1      38.026  30.907  29.529  1.00  0.00     0.074 A 
ATOM     34  C   UNL A   1      39.189  33.012  30.236  1.00  0.00     0.049 A 
ATOM     35  N   UNL A   1      38.094  29.846  30.263  1.00  0.00    -0.248 NA
ATOM     36  C   UNL A   1      37.692  30.628  28.118  1.00  0.00     0.031 C 
ATOM     37  C   UNL A   1      39.366  34.471  30.320  1.00  0.00     0.029 A 
ATOM     38  N   UNL A   1      40.469  32.569  30.332  1.00  0.00    -0.354 N 
ATOM     39  C   UNL A   1      38.094  28.778  29.370  1.00  0.00     0.074 A 
ATOM     40  C   UNL A   1      37.586  29.298  28.128  1.00  0.00     0.031 C 
ATOM     41  C   UNL A   1      40.673  34.781  30.167  1.00  0.00     0.029 A 
ATOM     42  C   UNL A   1      41.443  33.551  30.146  1.00  0.00     0.049 A 
ATOM     43  H   UNL A   1      40.692  31.628  30.517  1.00  0.00     0.167 HD
ATOM     44  C   UNL A   1      38.816  27.649  29.619  1.00  0.00     0.031 A 
ATOM     45  C   UNL A   1      42.773  33.359  29.936  1.00  0.00     0.031 A 
ATOM     46  C   UNL A   1      39.244  27.594  30.995  1.00  0.00     0.049 A 
ATOM     47  C   UNL A   1      43.073  31.965  30.348  1.00  0.00     0.074 A 
ATOM     48  C   UNL A   1      38.597  27.651  32.214  1.00  0.00     0.029 A 
ATOM     49  N   UNL A   1      40.560  27.908  31.249  1.00  0.00    -0.354 N 
ATOM     50  N   UNL A   1      42.978  31.543  31.578  1.00  0.00    -0.248 NA
ATOM     51  C   UNL A   1      42.982  30.934  29.325  1.00  0.00     0.031 C 
ATOM     52  C   UNL A   1      39.428  28.474  33.028  1.00  0.00     0.029 A 
ATOM     53  C   UNL A   1      40.582  28.781  32.304  1.00  0.00     0.049 A 
ATOM     54  H   UNL A   1      41.344  27.565  30.761  1.00  0.00     0.167 HD
ATOM     55  C   UNL A   1      42.375  30.296  31.478  1.00  0.00     0.074 A 
ATOM     56  C   UNL A   1      42.466  29.944  30.060  1.00  0.00     0.031 C 
ATOM     57  C   UNL A   1      41.596  29.800  32.486  1.00  0.00     0.031 A 
BRANCH  44  58
ATOM     58  C   UNL A   1      39.511  26.848  28.538  1.00  0.00    -0.014 A 
ATOM     59  C   UNL A   1      39.406  25.442  28.568  1.00  0.00     0.010 A 
ATOM     60  C   UNL A   1      40.480  27.391  27.669  1.00  0.00     0.010 A 
ATOM     61  C   UNL A   1      40.277  24.630  27.831  1.00  0.00     0.020 A 
ATOM     62  C   UNL A   1      41.322  26.594  26.894  1.00  0.00     0.020 A 
ATOM     63  C   UNL A   1      41.237  25.215  27.006  1.00  0.00     0.054 A 
BRANCH  63  64
ATOM     64  S   UNL A   1      42.410  24.161  26.122  1.00  0.00     0.124 S 
ATOM     65  O   UNL A   1      43.510  24.072  27.075  1.00  0.00    -0.237 OA
ATOM     66  O   UNL A   1      41.637  22.938  25.927  1.00  0.00    -0.237 OA
ATOM     67  O   UNL A   1      42.694  24.914  24.902  1.00  0.00    -0.744 OA
ENDBRANCH  63  64
ENDBRANCH  44  58
BRANCH  45  68
ATOM     68  C   UNL A   1      43.712  34.158  29.095  1.00  0.00    -0.014 A 
ATOM     69  C   UNL A   1      44.888  34.714  29.640  1.00  0.00     0.010 A 
ATOM     70  C   UNL A   1      43.605  34.130  27.689  1.00  0.00     0.010 A 
ATOM     71  C   UNL A   1      45.938  35.159  28.813  1.00  0.00     0.020 A 
ATOM     72  C   UNL A   1      44.644  34.576  26.858  1.00  0.00     0.020 A 
ATOM     73  C   UNL A   1      45.818  35.064  27.424  1.00  0.00     0.054 A 
BRANCH  73  74
ATOM     74  S   UNL A   1      47.247  35.459  26.366  1.00  0.00     0.124 S 
ATOM     75  O   UNL A   1      47.085  36.892  26.142  1.00  0.00    -0.237 OA
ATOM     76  O   UNL A   1      48.381  35.075  27.203  1.00  0.00    -0.237 OA
ATOM     77  O   UNL A   1      47.043  34.621  25.185  1.00  0.00    -0.744 OA
ENDBRANCH  73  74
ENDBRANCH  45  68
BRANCH  57  78
ATOM     78  C   UNL A   1      41.640  30.461  33.844  1.00  0.00    -0.014 A 
ATOM     79  C   UNL A   1      42.527  30.117  34.884  1.00  0.00     0.010 A 
ATOM     80  C   UNL A   1      40.822  31.592  34.014  1.00  0.00     0.010 A 
ATOM     81  C   UNL A   1      42.558  30.864  36.074  1.00  0.00     0.020 A 
ATOM     82  C   UNL A   1      40.863  32.350  35.183  1.00  0.00     0.020 A 
ATOM     83  C   UNL A   1      41.719  31.974  36.216  1.00  0.00     0.054 A 
BRANCH  83  84
ATOM     84  S   UNL A   1      41.750  32.941  37.752  1.00  0.00     0.124 S 
ATOM     85  O   UNL A   1      40.509  33.706  37.669  1.00  0.00    -0.237 OA
ATOM     86  O   UNL A   1      41.788  31.910  38.785  1.00  0.00    -0.237 OA
ATOM     87  O   UNL A   1      42.973  33.735  37.639  1.00  0.00    -0.744 OA
ENDBRANCH  83  84
ENDBRANCH  57  78
ENDBRANCH  31  32
ENDBRANCH  23  26
ENDBRANCH  21  22
ENDBRANCH  20  21
ENDBRANCH   1  20
TORSDOF 17
ENDMDL
MODEL 2
REMARK VINA RESULT:     -10.9      3.407      8.702
REMARK SMILES CC(C)(Cn1ccnc1C(N)=S)C(=O)NCCCNC(=O)c1ccc(-c2c3nc(c(-c4ccc(S(=O)(=O)[O-])cc4)c4ccc([nH]4)c(-c4ccc(S(=O)(=O)[O-])cc4)c4nc(c(-c5ccc(S(=O)(=O)[O-])cc5)c5ccc2[nH]5)C=C4)C=C3)cc1
REMARK SMILES IDX 16 1 15 2 13 3 14 4 2 6 1 7 3 8 4 9 5 10 6 11 9 12 7 13 8 14
REMARK SMILES IDX 10 15 12 16 11 17 17 20 18 21 19 22 20 23 21 25 22 26 23 27
REMARK SMILES IDX 81 28 24 29 80 30 25 31 26 32 27 33 74 34 28 35 79 36 73 37
REMARK SMILES IDX 75 38 29 39 78 40 72 41 71 42 30 44 60 45 41 46 59 47 42 48
REMARK SMILES IDX 45 49 58 50 76 51 43 52 44 53 57 55 77 56 46 57 31 58 32 59
REMARK SMILES IDX 40 60 33 61 39 62 34 63 35 64 36 65 37 66 38 67 61 68 62 69
REMARK SMILES IDX 70 70 63 71 69 72 64 73 65 74 66 75 67 76 68 77 47 78 48 79
REMARK SMILES IDX 56 80 49 81 55 82 50 83 51 84 52 85 53 86 54 87
REMARK H PARENT 15 5 11 18 11 19 19 24 75 43 45 54
REMARK Flexibility Score: inf
ROOT
ATOM      1  C   UNL A   1      38.156  22.421  25.880  1.00  0.00     0.117 C 
ENDROOT
BRANCH   1   2
ATOM      2  N   UNL A   1      37.709  22.722  24.527  1.00  0.00    -0.356 N 
ATOM      3  C   UNL A   1      36.494  22.741  23.917  1.00  0.00     0.227 C 
ATOM      4  O   UNL A   1      36.495  23.140  22.750  1.00  0.00    -0.274 OA
ATOM      5  H   UNL A   1      38.448  22.964  23.921  1.00  0.00     0.163 HD
BRANCH   3   6
ATOM      6  C   UNL A   1      35.188  22.303  24.606  1.00  0.00     0.061 C 
ATOM      7  C   UNL A   1      35.317  20.805  24.993  1.00  0.00     0.023 C 
ATOM      8  C   UNL A   1      34.006  22.307  23.611  1.00  0.00     0.023 C 
BRANCH   6   9
ATOM      9  C   UNL A   1      34.897  23.198  25.855  1.00  0.00     0.140 C 
BRANCH   9  10
ATOM     10  N   UNL A   1      33.497  23.447  26.188  1.00  0.00    -0.328 N 
ATOM     11  C   UNL A   1      32.622  22.486  26.639  1.00  0.00     0.108 A 
ATOM     12  C   UNL A   1      32.759  24.615  26.085  1.00  0.00     0.167 A 
ATOM     13  C   UNL A   1      31.543  23.179  27.125  1.00  0.00     0.131 A 
ATOM     14  N   UNL A   1      31.652  24.500  26.807  1.00  0.00    -0.235 NA
BRANCH  12  15
ATOM     15  C   UNL A   1      32.970  25.834  25.339  1.00  0.00     0.140 C 
ATOM     16  S   UNL A   1      32.356  26.071  23.807  1.00  0.00    -0.057 S 
BRANCH  15  17
ATOM     17  N   UNL A   1      33.596  26.842  26.021  1.00  0.00    -0.387 N 
ATOM     18  H   UNL A   1      34.542  27.046  25.840  1.00  0.00     0.157 HD
ATOM     19  H   UNL A   1      33.101  27.364  26.693  1.00  0.00     0.157 HD
ENDBRANCH  15  17
ENDBRANCH  12  15
ENDBRANCH   9  10
ENDBRANCH   6   9
ENDBRANCH   3   6
ENDBRANCH   1   2
BRANCH   1  20
ATOM     20  C   UNL A   1      39.367  21.501  25.924  1.00  0.00     0.042 C 
BRANCH  20  21
ATOM     21  C   UNL A   1      40.608  22.163  26.468  1.00  0.00     0.118 C 
BRANCH  21  22
ATOM     22  N   UNL A   1      41.781  21.992  25.613  1.00  0.00    -0.352 N 
ATOM     23  C   UNL A   1      42.649  22.979  25.169  1.00  0.00     0.251 C 
ATOM     24  H   UNL A   1      41.976  21.073  25.319  1.00  0.00     0.163 HD
ATOM     25  O   UNL A   1      43.394  22.782  24.226  1.00  0.00    -0.269 OA
BRANCH  23  26
ATOM     26  C   UNL A   1      42.641  24.275  25.880  1.00  0.00     0.039 A 
ATOM     27  C   UNL A   1      41.936  25.384  25.406  1.00  0.00     0.014 A 
ATOM     28  C   UNL A   1      43.327  24.337  27.087  1.00  0.00     0.014 A 
ATOM     29  C   UNL A   1      41.883  26.530  26.201  1.00  0.00     0.010 A 
ATOM     30  C   UNL A   1      43.078  25.357  27.956  1.00  0.00     0.010 A 
ATOM     31  C   UNL A   1      42.452  26.499  27.482  1.00  0.00    -0.014 A 
BRANCH  31  32
ATOM     32  C   UNL A   1      42.325  27.600  28.429  1.00  0.00     0.031 A 
ATOM     33  C   UNL A   1      43.437  28.584  28.339  1.00  0.00     0.074 A 
ATOM     34  C   UNL A   1      41.159  27.842  29.076  1.00  0.00     0.049 A 
ATOM     35  N   UNL A   1      44.359  28.822  29.211  1.00  0.00    -0.248 NA
ATOM     36  C   UNL A   1      43.666  29.251  27.041  1.00  0.00     0.031 C 
ATOM     37  C   UNL A   1      39.881  27.125  28.932  1.00  0.00     0.029 A 
ATOM     38  N   UNL A   1      40.809  28.876  29.883  1.00  0.00    -0.354 N 
ATOM     39  C   UNL A   1      45.111  29.866  28.678  1.00  0.00     0.074 A 
ATOM     40  C   UNL A   1      44.810  29.896  27.271  1.00  0.00     0.031 C 
ATOM     41  C   UNL A   1      38.870  27.898  29.388  1.00  0.00     0.029 A 
ATOM     42  C   UNL A   1      39.435  29.083  30.007  1.00  0.00     0.049 A 
ATOM     43  H   UNL A   1      41.474  29.437  30.344  1.00  0.00     0.167 HD
ATOM     44  C   UNL A   1      45.656  30.824  29.480  1.00  0.00     0.031 A 
ATOM     45  C   UNL A   1      38.812  30.174  30.529  1.00  0.00     0.031 A 
ATOM     46  C   UNL A   1      45.640  30.419  30.864  1.00  0.00     0.049 A 
ATOM     47  C   UNL A   1      39.833  30.913  31.314  1.00  0.00     0.074 A 
ATOM     48  C   UNL A   1      46.121  29.327  31.560  1.00  0.00     0.029 A 
ATOM     49  N   UNL A   1      44.676  30.985  31.667  1.00  0.00    -0.354 N 
ATOM     50  N   UNL A   1      40.393  30.438  32.392  1.00  0.00    -0.248 NA
ATOM     51  C   UNL A   1      40.589  31.944  30.619  1.00  0.00     0.031 C 
ATOM     52  C   UNL A   1      45.089  29.005  32.488  1.00  0.00     0.029 A 
ATOM     53  C   UNL A   1      44.091  29.976  32.387  1.00  0.00     0.049 A 
ATOM     54  H   UNL A   1      44.448  31.942  31.715  1.00  0.00     0.167 HD
ATOM     55  C   UNL A   1      41.736  30.768  32.266  1.00  0.00     0.074 A 
ATOM     56  C   UNL A   1      41.783  31.758  31.188  1.00  0.00     0.031 C 
ATOM     57  C   UNL A   1      42.714  29.998  32.832  1.00  0.00     0.031 A 
BRANCH  44  58
ATOM     58  C   UNL A   1      45.773  32.280  29.079  1.00  0.00    -0.014 A 
ATOM     59  C   UNL A   1      44.672  33.131  29.305  1.00  0.00     0.010 A 
ATOM     60  C   UNL A   1      46.797  32.777  28.246  1.00  0.00     0.010 A 
ATOM     61  C   UNL A   1      44.569  34.374  28.668  1.00  0.00     0.020 A 
ATOM     62  C   UNL A   1      46.728  34.033  27.644  1.00  0.00     0.020 A 
ATOM     63  C   UNL A   1      45.596  34.810  27.831  1.00  0.00     0.054 A 
BRANCH  63  64
ATOM     64  S   UNL A   1      45.418  36.378  26.949  1.00  0.00     0.124 S 
ATOM     65  O   UNL A   1      46.380  36.221  25.863  1.00  0.00    -0.237 OA
ATOM     66  O   UNL A   1      44.011  36.353  26.561  1.00  0.00    -0.237 OA
ATOM     67  O   UNL A   1      45.764  37.378  27.957  1.00  0.00    -0.744 OA
ENDBRANCH  63  64
ENDBRANCH  44  58
BRANCH  45  68
ATOM     68  C   UNL A   1      37.519  30.799  30.120  1.00  0.00    -0.014 A 
ATOM     69  C   UNL A   1      36.580  31.227  31.081  1.00  0.00     0.010 A 
ATOM     70  C   UNL A   1      37.333  31.242  28.795  1.00  0.00     0.010 A 
ATOM     71  C   UNL A   1      35.540  32.115  30.741  1.00  0.00     0.020 A 
ATOM     72  C   UNL A   1      36.297  32.121  28.447  1.00  0.00     0.020 A 
ATOM     73  C   UNL A   1      35.420  32.577  29.427  1.00  0.00     0.054 A 
BRANCH  73  74
ATOM     74  S   UNL A   1      34.198  33.868  29.033  1.00  0.00     0.124 S 
ATOM     75  O   UNL A   1      33.321  33.191  28.082  1.00  0.00    -0.237 OA
ATOM     76  O   UNL A   1      33.609  34.160  30.337  1.00  0.00    -0.237 OA
ATOM     77  O   UNL A   1      35.007  34.947  28.468  1.00  0.00    -0.744 OA
ENDBRANCH  73  74
ENDBRANCH  45  68
BRANCH  57  78
ATOM     78  C   UNL A   1      42.330  28.962  33.863  1.00  0.00    -0.014 A 
ATOM     79  C   UNL A   1      41.933  27.641  33.574  1.00  0.00     0.010 A 
ATOM     80  C   UNL A   1      42.522  29.320  35.209  1.00  0.00     0.010 A 
ATOM     81  C   UNL A   1      41.697  26.722  34.611  1.00  0.00     0.020 A 
ATOM     82  C   UNL A   1      42.311  28.408  36.242  1.00  0.00     0.020 A 
ATOM     83  C   UNL A   1      41.883  27.116  35.940  1.00  0.00     0.054 A 
BRANCH  83  84
ATOM     84  S   UNL A   1      41.576  25.937  37.285  1.00  0.00     0.124 S 
ATOM     85  O   UNL A   1      41.692  24.648  36.609  1.00  0.00    -0.237 OA
ATOM     86  O   UNL A   1      42.637  26.247  38.239  1.00  0.00    -0.237 OA
ATOM     87  O   UNL A   1      40.228  26.273  37.743  1.00  0.00    -0.744 OA
ENDBRANCH  83  84
ENDBRANCH  57  78
ENDBRANCH  31  32
ENDBRANCH  23  26
ENDBRANCH  21  22
ENDBRANCH  20  21
ENDBRANCH   1  20
TORSDOF 17
ENDMDL
MODEL 3
REMARK VINA RESULT:     -10.6      2.930      7.427
REMARK SMILES CC(C)(Cn1ccnc1C(N)=S)C(=O)NCCCNC(=O)c1ccc(-c2c3nc(c(-c4ccc(S(=O)(=O)[O-])cc4)c4ccc([nH]4)c(-c4ccc(S(=O)(=O)[O-])cc4)c4nc(c(-c5ccc(S(=O)(=O)[O-])cc5)c5ccc2[nH]5)C=C4)C=C3)cc1
REMARK SMILES IDX 16 1 15 2 13 3 14 4 2 6 1 7 3 8 4 9 5 10 6 11 9 12 7 13 8 14
REMARK SMILES IDX 10 15 12 16 11 17 17 20 18 21 19 22 20 23 21 25 22 26 23 27
REMARK SMILES IDX 81 28 24 29 80 30 25 31 26 32 27 33 74 34 28 35 79 36 73 37
REMARK SMILES IDX 75 38 29 39 78 40 72 41 71 42 30 44 60 45 41 46 59 47 42 48
REMARK SMILES IDX 45 49 58 50 76 51 43 52 44 53 57 55 77 56 46 57 31 58 32 59
REMARK SMILES IDX 40 60 33 61 39 62 34 63 35 64 36 65 37 66 38 67 61 68 62 69
REMARK SMILES IDX 70 70 63 71 69 72 64 73 65 74 66 75 67 76 68 77 47 78 48 79
REMARK SMILES IDX 56 80 49 81 55 82 50 83 51 84 52 85 53 86 54 87
REMARK H PARENT 15 5 11 18 11 19 19 24 75 43 45 54
REMARK Flexibility Score: inf
ROOT
ATOM      1  C   UNL A   1      31.755  27.155  26.755  1.00  0.00     0.117 C 
ENDROOT
BRANCH   1   2
ATOM      2  N   UNL A   1      32.998  26.579  26.259  1.00  0.00    -0.356 N 
ATOM      3  C   UNL A   1      33.327  25.384  25.702  1.00  0.00     0.227 C 
ATOM      4  O   UNL A   1      34.494  25.285  25.315  1.00  0.00    -0.274 OA
ATOM      5  H   UNL A   1      33.767  27.188  26.347  1.00  0.00     0.163 HD
BRANCH   3   6
ATOM      6  C   UNL A   1      32.337  24.215  25.546  1.00  0.00     0.061 C 
ATOM      7  C   UNL A   1      31.610  24.005  26.902  1.00  0.00     0.023 C 
ATOM      8  C   UNL A   1      33.083  22.878  25.338  1.00  0.00     0.023 C 
BRANCH   6   9
ATOM      9  C   UNL A   1      31.325  24.499  24.388  1.00  0.00     0.140 C 
BRANCH   9  10
ATOM     10  N   UNL A   1      31.862  25.074  23.157  1.00  0.00    -0.328 N 
ATOM     11  C   UNL A   1      32.760  24.440  22.330  1.00  0.00     0.108 A 
ATOM     12  C   UNL A   1      31.648  26.324  22.599  1.00  0.00     0.167 A 
ATOM     13  C   UNL A   1      32.751  25.163  21.165  1.00  0.00     0.131 A 
ATOM     14  N   UNL A   1      32.034  26.310  21.329  1.00  0.00    -0.235 NA
BRANCH  12  15
ATOM     15  C   UNL A   1      31.145  27.560  23.151  1.00  0.00     0.140 C 
ATOM     16  S   UNL A   1      32.104  28.906  23.373  1.00  0.00    -0.057 S 
BRANCH  15  17
ATOM     17  N   UNL A   1      29.792  27.606  23.361  1.00  0.00    -0.387 N 
ATOM     18  H   UNL A   1      29.186  27.098  22.775  1.00  0.00     0.157 HD
ATOM     19  H   UNL A   1      29.426  28.146  24.098  1.00  0.00     0.157 HD
ENDBRANCH  15  17
ENDBRANCH  12  15
ENDBRANCH   9  10
ENDBRANCH   6   9
ENDBRANCH   3   6
ENDBRANCH   1   2
BRANCH   1  20
ATOM     20  C   UNL A   1      31.937  28.526  27.388  1.00  0.00     0.042 C 
BRANCH  20  21
ATOM     21  C   UNL A   1      33.331  29.081  27.235  1.00  0.00     0.118 C 
BRANCH  21  22
ATOM     22  N   UNL A   1      33.369  30.539  27.139  1.00  0.00    -0.352 N 
ATOM     23  C   UNL A   1      34.300  31.396  27.710  1.00  0.00     0.251 C 
ATOM     24  H   UNL A   1      32.654  30.960  26.610  1.00  0.00     0.163 HD
ATOM     25  O   UNL A   1      34.067  32.585  27.829  1.00  0.00    -0.269 OA
BRANCH  23  26
ATOM     26  C   UNL A   1      35.581  30.816  28.166  1.00  0.00     0.039 A 
ATOM     27  C   UNL A   1      35.926  29.483  27.929  1.00  0.00     0.014 A 
ATOM     28  C   UNL A   1      36.470  31.674  28.802  1.00  0.00     0.014 A 
ATOM     29  C   UNL A   1      37.204  29.052  28.287  1.00  0.00     0.010 A 
ATOM     30  C   UNL A   1      37.780  31.319  28.930  1.00  0.00     0.010 A 
ATOM     31  C   UNL A   1      38.127  29.986  28.779  1.00  0.00    -0.014 A 
BRANCH  31  32
ATOM     32  C   UNL A   1      39.520  29.652  29.047  1.00  0.00     0.031 A 
ATOM     33  C   UNL A   1      39.836  29.572  30.499  1.00  0.00     0.074 A 
ATOM     34  C   UNL A   1      40.328  29.162  28.076  1.00  0.00     0.049 A 
ATOM     35  N   UNL A   1      40.587  30.360  31.192  1.00  0.00    -0.248 NA
ATOM     36  C   UNL A   1      39.071  28.612  31.320  1.00  0.00     0.031 C 
ATOM     37  C   UNL A   1      39.976  28.856  26.679  1.00  0.00     0.029 A 
ATOM     38  N   UNL A   1      41.594  28.680  28.157  1.00  0.00    -0.354 N 
ATOM     39  C   UNL A   1      40.605  29.820  32.476  1.00  0.00     0.074 A 
ATOM     40  C   UNL A   1      39.473  28.935  32.550  1.00  0.00     0.031 C 
ATOM     41  C   UNL A   1      40.886  28.004  26.156  1.00  0.00     0.029 A 
ATOM     42  C   UNL A   1      41.967  27.837  27.109  1.00  0.00     0.049 A 
ATOM     43  H   UNL A   1      42.201  28.906  28.898  1.00  0.00     0.167 HD
ATOM     44  C   UNL A   1      41.723  29.884  33.254  1.00  0.00     0.031 A 
ATOM     45  C   UNL A   1      43.056  27.023  27.057  1.00  0.00     0.031 A 
ATOM     46  C   UNL A   1      42.673  30.832  32.727  1.00  0.00     0.049 A 
ATOM     47  C   UNL A   1      43.988  27.489  28.115  1.00  0.00     0.074 A 
ATOM     48  C   UNL A   1      42.624  32.172  32.396  1.00  0.00     0.029 A 
ATOM     49  N   UNL A   1      43.759  30.316  32.057  1.00  0.00    -0.354 N 
ATOM     50  N   UNL A   1      44.578  28.653  28.091  1.00  0.00    -0.248 NA
ATOM     51  C   UNL A   1      43.862  26.880  29.430  1.00  0.00     0.031 C 
ATOM     52  C   UNL A   1      43.354  32.272  31.176  1.00  0.00     0.029 A 
ATOM     53  C   UNL A   1      43.899  31.019  30.889  1.00  0.00     0.049 A 
ATOM     54  H   UNL A   1      44.332  29.576  32.363  1.00  0.00     0.167 HD
ATOM     55  C   UNL A   1      44.491  29.119  29.396  1.00  0.00     0.074 A 
ATOM     56  C   UNL A   1      44.103  27.952  30.190  1.00  0.00     0.031 C 
ATOM     57  C   UNL A   1      44.445  30.458  29.671  1.00  0.00     0.031 A 
BRANCH  44  58
ATOM     58  C   UNL A   1      42.142  28.782  34.203  1.00  0.00    -0.014 A 
ATOM     59  C   UNL A   1      42.756  27.631  33.669  1.00  0.00     0.010 A 
ATOM     60  C   UNL A   1      41.712  28.704  35.544  1.00  0.00     0.010 A 
ATOM     61  C   UNL A   1      42.860  26.448  34.412  1.00  0.00     0.020 A 
ATOM     62  C   UNL A   1      41.852  27.547  36.310  1.00  0.00     0.020 A 
ATOM     63  C   UNL A   1      42.394  26.413  35.726  1.00  0.00     0.054 A 
BRANCH  63  64
ATOM     64  S   UNL A   1      42.456  24.860  36.650  1.00  0.00     0.124 S 
ATOM     65  O   UNL A   1      42.468  23.873  35.576  1.00  0.00    -0.237 OA
ATOM     66  O   UNL A   1      43.701  24.999  37.400  1.00  0.00    -0.237 OA
ATOM     67  O   UNL A   1      41.240  24.896  37.459  1.00  0.00    -0.744 OA
ENDBRANCH  63  64
ENDBRANCH  44  58
BRANCH  45  68
ATOM     68  C   UNL A   1      43.194  25.684  26.412  1.00  0.00    -0.014 A 
ATOM     69  C   UNL A   1      43.990  25.506  25.262  1.00  0.00     0.010 A 
ATOM     70  C   UNL A   1      42.778  24.522  27.094  1.00  0.00     0.010 A 
ATOM     71  C   UNL A   1      44.408  24.223  24.853  1.00  0.00     0.020 A 
ATOM     72  C   UNL A   1      43.185  23.241  26.690  1.00  0.00     0.020 A 
ATOM     73  C   UNL A   1      44.022  23.099  25.587  1.00  0.00     0.054 A 
BRANCH  73  74
ATOM     74  S   UNL A   1      44.718  21.468  25.172  1.00  0.00     0.124 S 
ATOM     75  O   UNL A   1      43.790  20.554  25.831  1.00  0.00    -0.237 OA
ATOM     76  O   UNL A   1      44.676  21.465  23.712  1.00  0.00    -0.237 OA
ATOM     77  O   UNL A   1      46.060  21.510  25.748  1.00  0.00    -0.744 OA
ENDBRANCH  73  74
ENDBRANCH  45  68
BRANCH  57  78
ATOM     78  C   UNL A   1      44.807  31.445  28.586  1.00  0.00    -0.014 A 
ATOM     79  C   UNL A   1      43.912  31.959  27.628  1.00  0.00     0.010 A 
ATOM     80  C   UNL A   1      46.106  31.982  28.640  1.00  0.00     0.010 A 
ATOM     81  C   UNL A   1      44.325  32.954  26.724  1.00  0.00     0.020 A 
ATOM     82  C   UNL A   1      46.516  32.984  27.762  1.00  0.00     0.020 A 
ATOM     83  C   UNL A   1      45.629  33.455  26.796  1.00  0.00     0.054 A 
BRANCH  83  84
ATOM     84  S   UNL A   1      46.171  34.737  25.630  1.00  0.00     0.124 S 
ATOM     85  O   UNL A   1      47.591  34.438  25.470  1.00  0.00    -0.237 OA
ATOM     86  O   UNL A   1      45.337  34.484  24.458  1.00  0.00    -0.237 OA
ATOM     87  O   UNL A   1      45.878  35.989  26.327  1.00  0.00    -0.744 OA
ENDBRANCH  83  84
ENDBRANCH  57  78
ENDBRANCH  31  32
ENDBRANCH  23  26
ENDBRANCH  21  22
ENDBRANCH  20  21
ENDBRANCH   1  20
TORSDOF 17
ENDMDL
